REMARK SMILES NS(=O)(=O)c1ccc(-n2nc(C(=O)NCCCCCCCCCCC(=O)NCCCCNC(=O)c3ccc(-c4c5nc(c(-c6c(F)cc(S(=O)(=O)[O-])cc6F)c6ccc([nH]6)c(-c6c(F)cc(S(=O)(=O)[O-])cc6F)c6nc(c(-c7c(F)cc(S(=O)(=O)[O-])cc7F)c7ccc4[nH]7)C=C6)C=C5)cc3)cc2-c2ccccc2)cc1
REMARK SMILES IDX 22 1 21 2 20 3 19 4 18 5 17 6 16 7 15 8 14 9 12 10 13 11
REMARK SMILES IDX 11 13 9 14 10 15 102 16 101 17 8 18 5 19 6 20 110 21 7 22
REMARK SMILES IDX 109 23 2 24 3 25 4 26 1 27 103 30 104 31 108 32 105 33
REMARK SMILES IDX 107 34 106 35 23 36 24 37 25 38 26 39 27 40 28 42 29 43
REMARK SMILES IDX 30 44 31 45 32 46 33 47 34 49 35 50 36 51 100 52 37 53 99 54
REMARK SMILES IDX 38 55 39 56 40 57 93 58 41 59 98 60 92 61 94 62 42 63 97 64
REMARK SMILES IDX 91 65 90 66 43 68 77 69 56 70 76 71 57 72 60 73 75 74 95 75
REMARK SMILES IDX 58 76 59 77 74 79 96 80 61 81 44 82 45 83 54 84 46 85 47 86
REMARK SMILES IDX 53 87 55 88 48 89 49 90 50 91 51 92 52 93 78 94 79 95 88 96
REMARK SMILES IDX 80 97 81 98 87 99 89 100 82 101 83 102 84 103 85 104 86 105
REMARK SMILES IDX 62 106 63 107 72 108 64 109 65 110 71 111 73 112 66 113
REMARK SMILES IDX 67 114 68 115 69 116 70 117
REMARK H PARENT 14 12 1 28 1 29 27 41 32 48 94 67 60 78
REMARK Flexibility Score: inf
ROOT
ATOM      1  C   UNL     1       5.738   8.351  14.240  1.00  0.00     0.001 C 
ENDROOT
BRANCH   1   2
ATOM      2  C   UNL     1       5.756   9.070  12.887  1.00  0.00     0.000 C 
BRANCH   2   3
ATOM      3  C   UNL     1       5.602   8.102  11.722  1.00  0.00     0.000 C 
BRANCH   3   4
ATOM      4  C   UNL     1       4.261   7.364  11.731  1.00  0.00     0.000 C 
BRANCH   4   5
ATOM      5  C   UNL     1       3.045   8.293  11.629  1.00  0.00     0.000 C 
BRANCH   5   6
ATOM      6  C   UNL     1       2.968   9.073  10.310  1.00  0.00     0.002 C 
BRANCH   6   7
ATOM      7  C   UNL     1       3.177   8.200   9.068  1.00  0.00     0.021 C 
BRANCH   7   8
ATOM      8  C   UNL     1       2.195   7.031   9.026  1.00  0.00     0.116 C 
BRANCH   8   9
ATOM      9  N   UNL     1       1.030   7.395   8.264  1.00  0.00    -0.351 N 
ATOM     10  C   UNL     1       0.647   7.103   6.980  1.00  0.00     0.271 C 
ATOM     11  O   UNL     1      -0.411   7.612   6.604  1.00  0.00    -0.267 OA
ATOM     12  H   UNL     1       0.388   7.958   8.756  1.00  0.00     0.163 HD
BRANCH  10  13
ATOM     13  C   UNL     1       1.420   6.168   6.136  1.00  0.00     0.151 A 
ATOM     14  N   UNL     1       1.671   4.698   4.593  1.00  0.00    -0.232 N 
ATOM     15  N   UNL     1       0.863   5.690   5.009  1.00  0.00    -0.162 NA
ATOM     16  C   UNL     1       2.819   4.598   5.356  1.00  0.00     0.075 A 
ATOM     17  C   UNL     1       2.725   5.631   6.265  1.00  0.00     0.065 A 
BRANCH  14  18
ATOM     18  C   UNL     1       1.290   3.920   3.479  1.00  0.00     0.065 A 
ATOM     19  C   UNL     1       0.686   2.451   1.213  1.00  0.00     0.082 A 
ATOM     20  C   UNL     1       1.136   1.792   2.361  1.00  0.00     0.024 A 
ATOM     21  C   UNL     1       0.502   3.838   1.202  1.00  0.00     0.024 A 
ATOM     22  C   UNL     1       1.457   2.532   3.495  1.00  0.00     0.030 A 
ATOM     23  C   UNL     1       0.772   4.573   2.353  1.00  0.00     0.030 A 
BRANCH  19  24
ATOM     24  S   UNL     1       0.397   1.557  -0.281  1.00  0.00     0.238 S 
ATOM     25  O   UNL     1       1.156   2.195  -1.347  1.00  0.00    -0.207 OA
ATOM     26  O   UNL     1      -0.998   1.260  -0.386  1.00  0.00    -0.207 OA
BRANCH  24  27
ATOM     27  N   UNL     1       1.172   0.083  -0.036  1.00  0.00    -0.225 NA
ATOM     28  H   UNL     1       1.054  -0.504  -0.861  1.00  0.00     0.137 HD
ATOM     29  H   UNL     1       0.765  -0.384   0.775  1.00  0.00     0.137 HD
ENDBRANCH  24  27
ENDBRANCH  19  24
ENDBRANCH  14  18
BRANCH  16  30
ATOM     30  C   UNL     1       3.936   3.688   5.136  1.00  0.00     0.000 A 
ATOM     31  C   UNL     1       4.716   3.781   3.978  1.00  0.00     0.010 A 
ATOM     32  C   UNL     1       4.251   2.723   6.101  1.00  0.00     0.010 A 
ATOM     33  C   UNL     1       5.788   2.910   3.782  1.00  0.00     0.001 A 
ATOM     34  C   UNL     1       5.321   1.849   5.901  1.00  0.00     0.001 A 
ATOM     35  C   UNL     1       6.088   1.943   4.741  1.00  0.00     0.000 A 
ENDBRANCH  16  30
ENDBRANCH  10  13
ENDBRANCH   8   9
ENDBRANCH   7   8
ENDBRANCH   6   7
ENDBRANCH   5   6
ENDBRANCH   4   5
ENDBRANCH   3   4
ENDBRANCH   2   3
ENDBRANCH   1   2
BRANCH   1  36
ATOM     36  C   UNL     1       7.037   8.467  15.024  1.00  0.00     0.010 C 
BRANCH  36  37
ATOM     37  C   UNL     1       7.485   9.893  15.336  1.00  0.00     0.100 C 
BRANCH  37  38
ATOM     38  C   UNL     1       6.870  10.469  16.597  1.00  0.00     0.219 C 
ATOM     39  O   UNL     1       7.413  10.287  17.690  1.00  0.00    -0.275 OA
ATOM     40  N   UNL     1       5.716  11.193  16.573  1.00  0.00    -0.356 N 
ATOM     41  H   UNL     1       5.473  11.595  17.438  1.00  0.00     0.163 HD
BRANCH  40  42
ATOM     42  C   UNL     1       4.777  11.478  15.499  1.00  0.00     0.116 C 
BRANCH  42  43
ATOM     43  C   UNL     1       3.470  10.676  15.652  1.00  0.00     0.023 C 
BRANCH  43  44
ATOM     44  C   UNL     1       2.405  11.238  16.602  1.00  0.00     0.023 C 
BRANCH  44  45
ATOM     45  C   UNL     1       1.665  12.468  16.099  1.00  0.00     0.116 C 
BRANCH  45  46
ATOM     46  N   UNL     1       0.833  12.226  14.909  1.00  0.00    -0.352 N 
ATOM     47  C   UNL     1       0.265  13.181  14.072  1.00  0.00     0.251 C 
ATOM     48  H   UNL     1       0.659  11.284  14.680  1.00  0.00     0.163 HD
ATOM     49  O   UNL     1      -0.708  12.930  13.373  1.00  0.00    -0.269 OA
BRANCH  47  50
ATOM     50  C   UNL     1       0.911  14.501  14.032  1.00  0.00     0.039 A 
ATOM     51  C   UNL     1       0.218  15.710  14.155  1.00  0.00     0.014 A 
ATOM     52  C   UNL     1       2.297  14.460  14.027  1.00  0.00     0.014 A 
ATOM     53  C   UNL     1       0.954  16.877  14.374  1.00  0.00     0.010 A 
ATOM     54  C   UNL     1       2.973  15.543  14.502  1.00  0.00     0.010 A 
ATOM     55  C   UNL     1       2.338  16.777  14.570  1.00  0.00    -0.014 A 
BRANCH  55  56
ATOM     56  C   UNL     1       3.185  17.912  14.918  1.00  0.00     0.031 A 
ATOM     57  C   UNL     1       2.791  18.656  16.147  1.00  0.00     0.074 A 
ATOM     58  C   UNL     1       4.399  18.066  14.337  1.00  0.00     0.049 A 
ATOM     59  N   UNL     1       2.376  19.876  16.246  1.00  0.00    -0.248 NA
ATOM     60  C   UNL     1       2.724  17.909  17.416  1.00  0.00     0.031 C 
ATOM     61  C   UNL     1       5.061  17.198  13.346  1.00  0.00     0.029 A 
ATOM     62  N   UNL     1       5.368  18.975  14.608  1.00  0.00    -0.354 N 
ATOM     63  C   UNL     1       2.229  20.123  17.611  1.00  0.00     0.074 A 
ATOM     64  C   UNL     1       2.242  18.834  18.249  1.00  0.00     0.031 C 
ATOM     65  C   UNL     1       6.382  17.471  13.304  1.00  0.00     0.029 A 
ATOM     66  C   UNL     1       6.621  18.661  14.091  1.00  0.00     0.049 A 
ATOM     67  H   UNL     1       5.199  19.793  15.130  1.00  0.00     0.167 HD
ATOM     68  C   UNL     1       2.363  21.380  18.125  1.00  0.00     0.037 A 
ATOM     69  C   UNL     1       7.779  19.334  14.300  1.00  0.00     0.037 A 
ATOM     70  C   UNL     1       2.308  22.371  17.077  1.00  0.00     0.049 A 
ATOM     71  C   UNL     1       7.396  20.695  14.757  1.00  0.00     0.074 A 
ATOM     72  C   UNL     1       1.368  22.733  16.132  1.00  0.00     0.029 A 
ATOM     73  N   UNL     1       3.499  22.896  16.634  1.00  0.00    -0.354 N 
ATOM     74  N   UNL     1       6.737  21.548  14.016  1.00  0.00    -0.248 NA
ATOM     75  C   UNL     1       7.309  20.921  16.191  1.00  0.00     0.031 C 
ATOM     76  C   UNL     1       2.120  23.010  14.952  1.00  0.00     0.029 A 
ATOM     77  C   UNL     1       3.476  22.877  15.262  1.00  0.00     0.049 A 
ATOM     78  H   UNL     1       4.235  23.226  17.199  1.00  0.00     0.167 HD
ATOM     79  C   UNL     1       5.833  22.154  14.879  1.00  0.00     0.074 A 
ATOM     80  C   UNL     1       6.290  21.785  16.219  1.00  0.00     0.031 C 
ATOM     81  C   UNL     1       4.642  22.654  14.429  1.00  0.00     0.037 A 
BRANCH  68  82
ATOM     82  C   UNL     1       2.910  21.704  19.503  1.00  0.00     0.058 A 
ATOM     83  C   UNL     1       2.889  23.042  19.954  1.00  0.00     0.135 A 
ATOM     84  C   UNL     1       3.697  20.822  20.277  1.00  0.00     0.135 A 
ATOM     85  F   UNL     1       2.169  23.972  19.306  1.00  0.00    -0.206 F 
ATOM     86  C   UNL     1       3.664  23.486  21.028  1.00  0.00     0.059 A 
ATOM     87  C   UNL     1       4.433  21.232  21.384  1.00  0.00     0.059 A 
ATOM     88  F   UNL     1       3.876  19.538  19.948  1.00  0.00    -0.206 F 
ATOM     89  C   UNL     1       4.451  22.573  21.722  1.00  0.00     0.060 A 
BRANCH  89  90
ATOM     90  S   UNL     1       5.555  23.159  23.019  1.00  0.00     0.124 S 
ATOM     91  O   UNL     1       6.537  23.910  22.245  1.00  0.00    -0.237 OA
ATOM     92  O   UNL     1       4.653  23.948  23.851  1.00  0.00    -0.237 OA
ATOM     93  O   UNL     1       6.041  21.924  23.628  1.00  0.00    -0.744 OA
ENDBRANCH  89  90
ENDBRANCH  68  82
BRANCH  69  94
ATOM     94  C   UNL     1       9.140  18.759  14.466  1.00  0.00     0.058 A 
ATOM     95  C   UNL     1      10.291  19.560  14.380  1.00  0.00     0.135 A 
ATOM     96  C   UNL     1       9.327  17.457  14.979  1.00  0.00     0.135 A 
ATOM     97  F   UNL     1      10.200  20.818  13.924  1.00  0.00    -0.206 F 
ATOM     98  C   UNL     1      11.546  19.113  14.812  1.00  0.00     0.059 A 
ATOM     99  C   UNL     1      10.567  16.988  15.411  1.00  0.00     0.059 A 
ATOM    100  F   UNL     1       8.285  16.630  15.156  1.00  0.00    -0.206 F 
ATOM    101  C   UNL     1      11.671  17.830  15.345  1.00  0.00     0.060 A 
BRANCH 101 102
ATOM    102  S   UNL     1      13.254  17.306  16.046  1.00  0.00     0.124 S 
ATOM    103  O   UNL     1      14.092  17.205  14.856  1.00  0.00    -0.237 OA
ATOM    104  O   UNL     1      13.567  18.404  16.955  1.00  0.00    -0.237 OA
ATOM    105  O   UNL     1      12.935  16.036  16.693  1.00  0.00    -0.744 OA
ENDBRANCH 101 102
ENDBRANCH  69  94
BRANCH  81 106
ATOM    106  C   UNL     1       4.428  22.775  12.937  1.00  0.00     0.058 A 
ATOM    107  C   UNL     1       4.315  21.681  12.059  1.00  0.00     0.135 A 
ATOM    108  C   UNL     1       4.134  24.040  12.409  1.00  0.00     0.135 A 
ATOM    109  F   UNL     1       4.483  20.427  12.494  1.00  0.00    -0.206 F 
ATOM    110  C   UNL     1       3.950  21.838  10.719  1.00  0.00     0.059 A 
ATOM    111  C   UNL     1       3.740  24.219  11.084  1.00  0.00     0.059 A 
ATOM    112  F   UNL     1       4.162  25.121  13.206  1.00  0.00    -0.206 F 
ATOM    113  C   UNL     1       3.656  23.113  10.241  1.00  0.00     0.060 A 
BRANCH 113 114
ATOM    114  S   UNL     1       3.085  23.304   8.538  1.00  0.00     0.124 S 
ATOM    115  O   UNL     1       4.299  23.033   7.775  1.00  0.00    -0.237 OA
ATOM    116  O   UNL     1       2.036  22.293   8.439  1.00  0.00    -0.237 OA
ATOM    117  O   UNL     1       2.613  24.686   8.490  1.00  0.00    -0.744 OA
ENDBRANCH 113 114
ENDBRANCH  81 106
ENDBRANCH  55  56
ENDBRANCH  47  50
ENDBRANCH  45  46
ENDBRANCH  44  45
ENDBRANCH  43  44
ENDBRANCH  42  43
ENDBRANCH  40  42
ENDBRANCH  37  38
ENDBRANCH  36  37
ENDBRANCH   1  36
TORSDOF 29
