REMARK SMILES Cc1coc2c(C)c3oc(=O)c(CC(=O)NCC(=O)N[C@H](C(=O)NCCCCNC(=O)c4ccc(-c5c6nc(c(-c7c(F)cc(S(=O)(=O)[O-])cc7F)c7ccc([nH]7)c(-c7c(F)cc(S(=O)(=O)[O-])cc7F)c7nc(c(-c8c(F)cc(S(=O)(=O)[O-])cc8F)c8ccc5[nH]8)C=C7)C=C6)cc4)C(C)C)c(C)c3cc12
REMARK SMILES IDX 25 1 24 2 22 3 23 4 21 6 20 7 18 8 19 9 17 11 16 12 14 13
REMARK SMILES IDX 15 14 13 16 12 17 1 18 2 19 3 20 105 21 4 22 5 23 104 24
REMARK SMILES IDX 6 25 103 26 7 27 8 28 101 29 9 30 102 31 10 32 11 33 98 34
REMARK SMILES IDX 99 35 100 36 26 37 27 38 28 39 29 40 30 41 31 43 32 44 33 45
REMARK SMILES IDX 97 46 34 47 96 48 35 49 36 50 37 51 90 52 38 53 95 54 89 55
REMARK SMILES IDX 91 56 39 57 94 58 88 59 87 60 40 62 74 63 53 64 73 65 54 66
REMARK SMILES IDX 57 67 72 68 92 69 55 70 56 71 71 73 93 74 58 75 41 76 42 77
REMARK SMILES IDX 51 78 43 79 44 80 50 81 52 82 45 83 46 84 47 85 48 86 49 87
REMARK SMILES IDX 75 88 76 89 85 90 77 91 78 92 84 93 86 94 79 95 80 96 81 97
REMARK SMILES IDX 82 98 83 99 59 100 60 101 69 102 61 103 62 104 68 105 70 106
REMARK SMILES IDX 63 107 64 108 65 109 66 110 67 111
REMARK H PARENT 24 5 20 10 16 15 29 42 91 61 57 72
REMARK Flexibility Score: inf
ROOT
ATOM      1  C   UNL     1       2.034   5.380   6.660  1.00  0.00     0.116 C 
ENDROOT
BRANCH   1   2
ATOM      2  N   UNL     1       1.374   5.953   5.513  1.00  0.00    -0.354 N 
ATOM      3  C   UNL     1       1.673   5.859   4.193  1.00  0.00     0.242 C 
ATOM      4  O   UNL     1       1.395   6.833   3.508  1.00  0.00    -0.273 OA
ATOM      5  H   UNL     1       0.581   6.499   5.720  1.00  0.00     0.163 HD
BRANCH   3   6
ATOM      6  C   UNL     1       2.093   4.508   3.604  1.00  0.00     0.173 C 
BRANCH   6   7
ATOM      7  N   UNL     1       0.825   3.773   3.326  1.00  0.00    -0.343 N 
ATOM      8  C   UNL     1      -0.030   3.359   4.319  1.00  0.00     0.240 C 
ATOM      9  O   UNL     1       0.203   2.291   4.885  1.00  0.00    -0.273 OA
ATOM     10  H   UNL     1       0.590   3.576   2.391  1.00  0.00     0.164 HD
BRANCH   8  11
ATOM     11  C   UNL     1      -1.399   4.075   4.434  1.00  0.00     0.216 C 
BRANCH  11  12
ATOM     12  N   UNL     1      -1.366   5.489   4.777  1.00  0.00    -0.347 N 
ATOM     13  C   UNL     1      -1.518   6.664   4.122  1.00  0.00     0.225 C 
ATOM     14  O   UNL     1      -1.317   7.666   4.827  1.00  0.00    -0.275 OA
ATOM     15  H   UNL     1      -1.186   5.628   5.735  1.00  0.00     0.164 HD
BRANCH  13  16
ATOM     16  C   UNL     1      -2.007   6.838   2.680  1.00  0.00     0.143 C 
BRANCH  16  17
ATOM     17  C   UNL     1      -1.265   6.165   1.546  1.00  0.00     0.051 A 
ATOM     18  C   UNL     1       4.773   5.998  -2.062  1.00  0.00     0.048 C 
ATOM     19  C   UNL     1       3.596   5.122  -2.264  1.00  0.00    -0.005 A 
ATOM     20  C   UNL     1       3.552   3.971  -3.025  1.00  0.00     0.199 A 
ATOM     21  C   UNL     1       2.307   5.231  -1.654  1.00  0.00     0.024 A 
ATOM     22  O   UNL     1       2.376   3.322  -2.852  1.00  0.00    -0.464 OA
ATOM     23  C   UNL     1       1.635   4.061  -1.980  1.00  0.00     0.140 A 
ATOM     24  C   UNL     1       1.671   6.153  -0.791  1.00  0.00     0.024 A 
ATOM     25  C   UNL     1       0.405   3.676  -1.448  1.00  0.00     0.036 A 
ATOM     26  C   UNL     1       0.427   5.832  -0.205  1.00  0.00     0.022 A 
ATOM     27  C   UNL     1      -0.221   2.353  -1.761  1.00  0.00     0.052 C 
ATOM     28  C   UNL     1      -0.149   4.603  -0.540  1.00  0.00     0.145 A 
ATOM     29  C   UNL     1      -0.214   6.665   0.847  1.00  0.00    -0.029 A 
ATOM     30  O   UNL     1      -1.342   4.198   0.083  1.00  0.00    -0.422 OA
ATOM     31  C   UNL     1       0.392   8.028   1.097  1.00  0.00     0.046 C 
ATOM     32  C   UNL     1      -1.931   4.914   1.099  1.00  0.00     0.340 A 
ATOM     33  O   UNL     1      -2.982   4.525   1.597  1.00  0.00    -0.246 OA
ENDBRANCH  16  17
ENDBRANCH  13  16
ENDBRANCH  11  12
ENDBRANCH   8  11
ENDBRANCH   6   7
BRANCH   6  34
ATOM     34  C   UNL     1       2.844   4.689   2.252  1.00  0.00     0.015 C 
ATOM     35  C   UNL     1       3.814   5.873   2.165  1.00  0.00     0.010 C 
ATOM     36  C   UNL     1       3.572   3.419   1.802  1.00  0.00     0.010 C 
ENDBRANCH   6  34
ENDBRANCH   3   6
ENDBRANCH   1   2
BRANCH   1  37
ATOM     37  C   UNL     1       2.413   6.523   7.614  1.00  0.00     0.023 C 
BRANCH  37  38
ATOM     38  C   UNL     1       1.246   7.444   8.032  1.00  0.00     0.023 C 
BRANCH  38  39
ATOM     39  C   UNL     1       0.059   6.699   8.619  1.00  0.00     0.116 C 
BRANCH  39  40
ATOM     40  N   UNL     1       0.407   6.054   9.872  1.00  0.00    -0.352 N 
ATOM     41  C   UNL     1      -0.438   5.567  10.845  1.00  0.00     0.251 C 
ATOM     42  H   UNL     1       1.370   5.951  10.049  1.00  0.00     0.163 HD
ATOM     43  O   UNL     1      -0.013   5.365  11.969  1.00  0.00    -0.269 OA
BRANCH  41  44
ATOM     44  C   UNL     1      -1.849   5.290  10.505  1.00  0.00     0.039 A 
ATOM     45  C   UNL     1      -2.844   5.513  11.460  1.00  0.00     0.014 A 
ATOM     46  C   UNL     1      -2.170   4.754   9.255  1.00  0.00     0.014 A 
ATOM     47  C   UNL     1      -4.164   5.216  11.140  1.00  0.00     0.010 A 
ATOM     48  C   UNL     1      -3.485   4.554   8.902  1.00  0.00     0.010 A 
ATOM     49  C   UNL     1      -4.476   4.734   9.859  1.00  0.00    -0.014 A 
BRANCH  49  50
ATOM     50  C   UNL     1      -5.865   4.509   9.485  1.00  0.00     0.031 A 
ATOM     51  C   UNL     1      -6.724   5.719   9.588  1.00  0.00     0.074 A 
ATOM     52  C   UNL     1      -6.310   3.365   8.925  1.00  0.00     0.049 A 
ATOM     53  N   UNL     1      -7.654   5.956  10.453  1.00  0.00    -0.248 NA
ATOM     54  C   UNL     1      -6.401   6.871   8.732  1.00  0.00     0.031 C 
ATOM     55  C   UNL     1      -5.543   2.198   8.480  1.00  0.00     0.029 A 
ATOM     56  N   UNL     1      -7.580   3.040   8.564  1.00  0.00    -0.354 N 
ATOM     57  C   UNL     1      -8.194   7.193  10.107  1.00  0.00     0.074 A 
ATOM     58  C   UNL     1      -7.264   7.784   9.182  1.00  0.00     0.031 C 
ATOM     59  C   UNL     1      -6.330   1.397   7.725  1.00  0.00     0.029 A 
ATOM     60  C   UNL     1      -7.690   1.904   7.770  1.00  0.00     0.049 A 
ATOM     61  H   UNL     1      -8.362   3.569   8.844  1.00  0.00     0.167 HD
ATOM     62  C   UNL     1      -9.477   7.516  10.436  1.00  0.00     0.037 A 
ATOM     63  C   UNL     1      -8.821   1.429   7.187  1.00  0.00     0.037 A 
ATOM     64  C   UNL     1      -9.977   6.636  11.466  1.00  0.00     0.049 A 
ATOM     65  C   UNL     1      -9.961   1.993   7.959  1.00  0.00     0.074 A 
ATOM     66  C   UNL     1      -9.596   6.343  12.762  1.00  0.00     0.029 A 
ATOM     67  N   UNL     1     -10.802   5.605  11.082  1.00  0.00    -0.354 N 
ATOM     68  N   UNL     1     -10.205   1.700   9.209  1.00  0.00    -0.248 NA
ATOM     69  C   UNL     1     -10.541   3.241   7.487  1.00  0.00     0.031 C 
ATOM     70  C   UNL     1      -9.799   4.938  12.897  1.00  0.00     0.029 A 
ATOM     71  C   UNL     1     -10.357   4.468  11.706  1.00  0.00     0.049 A 
ATOM     72  H   UNL     1     -11.572   5.671  10.472  1.00  0.00     0.167 HD
ATOM     73  C   UNL     1     -10.598   2.899   9.788  1.00  0.00     0.074 A 
ATOM     74  C   UNL     1     -10.858   3.794   8.660  1.00  0.00     0.031 C 
ATOM     75  C   UNL     1     -10.411   3.144  11.118  1.00  0.00     0.037 A 
BRANCH  62  76
ATOM     76  C   UNL     1     -10.401   8.361   9.582  1.00  0.00     0.058 A 
ATOM     77  C   UNL     1     -11.698   8.650  10.060  1.00  0.00     0.135 A 
ATOM     78  C   UNL     1     -10.187   8.650   8.216  1.00  0.00     0.135 A 
ATOM     79  F   UNL     1     -12.019   8.436  11.347  1.00  0.00    -0.206 F 
ATOM     80  C   UNL     1     -12.728   9.083   9.224  1.00  0.00     0.059 A 
ATOM     81  C   UNL     1     -11.186   9.131   7.376  1.00  0.00     0.059 A 
ATOM     82  F   UNL     1      -9.031   8.396   7.595  1.00  0.00    -0.206 F 
ATOM     83  C   UNL     1     -12.465   9.299   7.876  1.00  0.00     0.060 A 
BRANCH  83  84
ATOM     84  S   UNL     1     -13.818   9.731   6.770  1.00  0.00     0.124 S 
ATOM     85  O   UNL     1     -14.616   8.510   6.797  1.00  0.00    -0.237 OA
ATOM     86  O   UNL     1     -14.396  10.889   7.442  1.00  0.00    -0.237 OA
ATOM     87  O   UNL     1     -13.142  10.017   5.508  1.00  0.00    -0.744 OA
ENDBRANCH  83  84
ENDBRANCH  62  76
BRANCH  63  88
ATOM     88  C   UNL     1      -8.979   0.850   5.823  1.00  0.00     0.058 A 
ATOM     89  C   UNL     1     -10.188   0.250   5.421  1.00  0.00     0.135 A 
ATOM     90  C   UNL     1      -8.059   1.130   4.793  1.00  0.00     0.135 A 
ATOM     91  F   UNL     1     -11.132  -0.039   6.331  1.00  0.00    -0.206 F 
ATOM     92  C   UNL     1     -10.491  -0.001   4.077  1.00  0.00     0.059 A 
ATOM     93  C   UNL     1      -8.336   0.883   3.446  1.00  0.00     0.059 A 
ATOM     94  F   UNL     1      -6.894   1.741   5.054  1.00  0.00    -0.206 F 
ATOM     95  C   UNL     1      -9.566   0.343   3.092  1.00  0.00     0.060 A 
BRANCH  95  96
ATOM     96  S   UNL     1     -10.021   0.180   1.348  1.00  0.00     0.124 S 
ATOM     97  O   UNL     1     -10.133  -1.267   1.197  1.00  0.00    -0.237 OA
ATOM     98  O   UNL     1     -11.274   0.924   1.286  1.00  0.00    -0.237 OA
ATOM     99  O   UNL     1      -8.899   0.794   0.643  1.00  0.00    -0.744 OA
ENDBRANCH  95  96
ENDBRANCH  63  88
BRANCH  75 100
ATOM    100  C   UNL     1     -10.001   2.001  12.016  1.00  0.00     0.058 A 
ATOM    101  C   UNL     1      -8.758   1.344  11.946  1.00  0.00     0.135 A 
ATOM    102  C   UNL     1     -10.817   1.700  13.117  1.00  0.00     0.135 A 
ATOM    103  F   UNL     1      -7.879   1.635  10.979  1.00  0.00    -0.206 F 
ATOM    104  C   UNL     1      -8.353   0.424  12.918  1.00  0.00     0.059 A 
ATOM    105  C   UNL     1     -10.422   0.809  14.112  1.00  0.00     0.059 A 
ATOM    106  F   UNL     1     -11.992   2.333  13.274  1.00  0.00    -0.206 F 
ATOM    107  C   UNL     1      -9.188   0.172  14.005  1.00  0.00     0.060 A 
BRANCH 107 108
ATOM    108  S   UNL     1      -8.614  -0.928  15.319  1.00  0.00     0.124 S 
ATOM    109  O   UNL     1      -8.605  -2.227  14.653  1.00  0.00    -0.237 OA
ATOM    110  O   UNL     1      -7.303  -0.375  15.645  1.00  0.00    -0.237 OA
ATOM    111  O   UNL     1      -9.623  -0.771  16.363  1.00  0.00    -0.744 OA
ENDBRANCH 107 108
ENDBRANCH  75 100
ENDBRANCH  49  50
ENDBRANCH  41  44
ENDBRANCH  39  40
ENDBRANCH  38  39
ENDBRANCH  37  38
ENDBRANCH   1  37
TORSDOF 20
