REMARK SMILES O=C(C[C@@H]1C(=O)O[C@H]2[C@@H]3OC(=O)c4cc(O)c(O)c(O)c4-c4ccccc4C(=O)OC[C@H]2O[C@@H](OC(=O)c2cc(O)c(O)c(O)c2)[C@@H]3OC(=O)c2cc(O)c(O)c3c2[C@H]1[C@H](O)C(=O)O3)NCCCCNC(=O)c1ccc(-c2c3nc(c(-c4c(F)cc(S(=O)(=O)[O-])cc4F)c4ccc([nH]4)c(-c4c(F)cc(S(=O)(=O)[O-])cc4F)c4nc(c(-c5c(F)cc(S(=O)(=O)[O-])cc5F)c5ccc2[nH]5)C=C4)C=C3)cc1
REMARK SMILES IDX 4 1 3 3 2 4 1 5 65 6 66 8 67 9 68 10 69 11 70 12 71 13 72 15
REMARK SMILES IDX 73 16 74 17 138 18 75 19 137 20 76 21 77 22 78 23 131 24
REMARK SMILES IDX 79 25 136 26 130 27 132 28 80 29 135 30 129 31 128 32 81 34
REMARK SMILES IDX 115 35 94 36 114 37 95 38 98 39 113 40 133 41 96 42 97 43
REMARK SMILES IDX 112 45 134 46 99 47 82 48 83 49 92 50 84 51 85 52 91 53
REMARK SMILES IDX 93 54 86 55 87 56 88 57 89 58 90 59 116 60 117 61 126 62
REMARK SMILES IDX 118 63 119 64 125 65 127 66 120 67 121 68 122 69 123 70
REMARK SMILES IDX 124 71 100 72 101 73 110 74 102 75 103 76 109 77 111 78
REMARK SMILES IDX 104 79 105 80 106 81 107 82 108 83 59 84 58 85 60 86 51 87
REMARK SMILES IDX 57 88 62 89 52 90 55 91 64 92 63 93 53 94 61 95 49 97 50 98
REMARK SMILES IDX 48 99 47 100 9 101 34 102 8 103 33 104 32 105 10 107 11 108
REMARK SMILES IDX 12 109 13 110 14 111 21 112 15 113 19 114 17 115 22 116
REMARK SMILES IDX 23 117 27 118 24 119 26 120 25 121 28 122 29 123 30 124
REMARK SMILES IDX 31 125 16 127 20 129 18 131 35 133 36 134 37 135 38 136
REMARK SMILES IDX 39 137 46 138 40 139 44 140 42 141 41 142 45 144 43 146
REMARK SMILES IDX 7 148 5 149 6 150 56 152 54 154
REMARK H PARENT 65 7 70 14 132 33 98 44 61 96 16 128 20 130 18 132 41 143
REMARK H PARENT 45 145 43 147 56 153 54 155
REMARK Flexibility Score: 170.00
ROOT
ATOM      1  C   UNL     1       3.221   2.070   1.579  1.00  0.00     0.119 CG0
ATOM      2  G   UNL     1       2.631   0.879   0.895  1.00  0.00     0.000 G0
ENDROOT
BRANCH   1   3
ATOM      3  C   UNL     1       2.395   2.267   2.837  1.00  0.00     0.116 C 
BRANCH   3   4
ATOM      4  C   UNL     1       3.316   2.307   3.987  1.00  0.00     0.220 C 
ATOM      5  O   UNL     1       3.389   3.280   4.722  1.00  0.00    -0.275 OA
ATOM      6  N   UNL     1       4.136   1.209   4.026  1.00  0.00    -0.356 N 
ATOM      7  H   UNL     1       4.062   0.515   3.331  1.00  0.00     0.163 HD
BRANCH   6   8
ATOM      8  C   UNL     1       5.100   1.070   5.076  1.00  0.00     0.116 C 
BRANCH   8   9
ATOM      9  C   UNL     1       4.626   0.005   6.032  1.00  0.00     0.023 C 
BRANCH   9  10
ATOM     10  C   UNL     1       4.616  -1.387   5.398  1.00  0.00     0.023 C 
BRANCH  10  11
ATOM     11  C   UNL     1       5.967  -1.858   4.872  1.00  0.00     0.116 C 
BRANCH  11  12
ATOM     12  N   UNL     1       6.970  -1.950   5.924  1.00  0.00    -0.352 N 
ATOM     13  C   UNL     1       7.674  -3.048   6.359  1.00  0.00     0.251 C 
ATOM     14  H   UNL     1       7.172  -1.107   6.390  1.00  0.00     0.163 HD
ATOM     15  O   UNL     1       8.356  -2.981   7.377  1.00  0.00    -0.269 OA
BRANCH  13  16
ATOM     16  C   UNL     1       7.562  -4.318   5.610  1.00  0.00     0.039 A 
ATOM     17  C   UNL     1       7.616  -4.319   4.216  1.00  0.00     0.014 A 
ATOM     18  C   UNL     1       7.323  -5.504   6.307  1.00  0.00     0.014 A 
ATOM     19  C   UNL     1       7.210  -5.449   3.519  1.00  0.00     0.010 A 
ATOM     20  C   UNL     1       7.034  -6.673   5.597  1.00  0.00     0.010 A 
ATOM     21  C   UNL     1       6.907  -6.640   4.199  1.00  0.00    -0.014 A 
BRANCH  21  22
ATOM     22  C   UNL     1       6.443  -7.828   3.431  1.00  0.00     0.031 A 
ATOM     23  C   UNL     1       5.081  -8.426   3.679  1.00  0.00     0.074 A 
ATOM     24  C   UNL     1       7.234  -8.341   2.468  1.00  0.00     0.049 A 
ATOM     25  N   UNL     1       4.515  -9.456   3.102  1.00  0.00    -0.248 NA
ATOM     26  C   UNL     1       4.248  -7.792   4.713  1.00  0.00     0.031 C 
ATOM     27  C   UNL     1       8.563  -7.837   2.115  1.00  0.00     0.029 A 
ATOM     28  N   UNL     1       7.032  -9.380   1.596  1.00  0.00    -0.354 N 
ATOM     29  C   UNL     1       3.270  -9.598   3.705  1.00  0.00     0.074 A 
ATOM     30  C   UNL     1       3.185  -8.583   4.732  1.00  0.00     0.031 C 
ATOM     31  C   UNL     1       9.033  -8.531   1.070  1.00  0.00     0.029 A 
ATOM     32  C   UNL     1       8.079  -9.580   0.728  1.00  0.00     0.049 A 
ATOM     33  H   UNL     1       6.216  -9.931   1.593  1.00  0.00     0.167 HD
ATOM     34  C   UNL     1       2.281 -10.479   3.415  1.00  0.00     0.037 A 
ATOM     35  C   UNL     1       8.267 -10.513  -0.225  1.00  0.00     0.037 A 
ATOM     36  C   UNL     1       2.375 -11.486   2.388  1.00  0.00     0.049 A 
ATOM     37  C   UNL     1       7.193 -11.535  -0.469  1.00  0.00     0.074 A 
ATOM     38  C   UNL     1       1.425 -12.421   2.013  1.00  0.00     0.029 A 
ATOM     39  N   UNL     1       3.482 -11.698   1.577  1.00  0.00    -0.354 N 
ATOM     40  N   UNL     1       6.017 -11.645   0.100  1.00  0.00    -0.248 NA
ATOM     41  C   UNL     1       7.472 -12.561  -1.482  1.00  0.00     0.031 C 
ATOM     42  C   UNL     1       1.982 -13.242   1.029  1.00  0.00     0.029 A 
ATOM     43  C   UNL     1       3.252 -12.773   0.731  1.00  0.00     0.049 A 
ATOM     44  H   UNL     1       4.308 -11.164   1.599  1.00  0.00     0.167 HD
ATOM     45  C   UNL     1       5.405 -12.739  -0.501  1.00  0.00     0.074 A 
ATOM     46  C   UNL     1       6.335 -13.244  -1.490  1.00  0.00     0.031 C 
ATOM     47  C   UNL     1       4.184 -13.275  -0.251  1.00  0.00     0.037 A 
BRANCH  34  48
ATOM     48  C   UNL     1       1.014 -10.408   4.231  1.00  0.00     0.058 A 
ATOM     49  C   UNL     1       0.141  -9.310   4.152  1.00  0.00     0.135 A 
ATOM     50  C   UNL     1       0.645 -11.469   5.077  1.00  0.00     0.135 A 
ATOM     51  F   UNL     1       0.440  -8.262   3.369  1.00  0.00    -0.206 F 
ATOM     52  C   UNL     1      -1.024  -9.247   4.911  1.00  0.00     0.059 A 
ATOM     53  C   UNL     1      -0.534 -11.444   5.816  1.00  0.00     0.059 A 
ATOM     54  F   UNL     1       1.434 -12.549   5.190  1.00  0.00    -0.206 F 
ATOM     55  C   UNL     1      -1.353 -10.320   5.741  1.00  0.00     0.060 A 
BRANCH  55  56
ATOM     56  S   UNL     1      -2.855 -10.206   6.735  1.00  0.00     0.124 S 
ATOM     57  O   UNL     1      -2.521  -9.114   7.645  1.00  0.00    -0.237 OA
ATOM     58  O   UNL     1      -3.869  -9.904   5.730  1.00  0.00    -0.237 OA
ATOM     59  O   UNL     1      -2.959 -11.524   7.353  1.00  0.00    -0.744 OA
ENDBRANCH  55  56
ENDBRANCH  34  48
BRANCH  35  60
ATOM     60  C   UNL     1       9.522 -10.496  -1.022  1.00  0.00     0.058 A 
ATOM     61  C   UNL     1       9.506 -10.156  -2.382  1.00  0.00     0.135 A 
ATOM     62  C   UNL     1      10.769 -10.752  -0.427  1.00  0.00     0.135 A 
ATOM     63  F   UNL     1       8.339  -9.914  -2.999  1.00  0.00    -0.206 F 
ATOM     64  C   UNL     1      10.679 -10.060  -3.122  1.00  0.00     0.059 A 
ATOM     65  C   UNL     1      11.959 -10.630  -1.137  1.00  0.00     0.059 A 
ATOM     66  F   UNL     1      10.841 -11.069   0.875  1.00  0.00    -0.206 F 
ATOM     67  C   UNL     1      11.902 -10.283  -2.486  1.00  0.00     0.060 A 
BRANCH  67  68
ATOM     68  S   UNL     1      13.419 -10.068  -3.440  1.00  0.00     0.124 S 
ATOM     69  O   UNL     1      13.307 -11.141  -4.421  1.00  0.00    -0.237 OA
ATOM     70  O   UNL     1      13.261  -8.711  -3.955  1.00  0.00    -0.237 OA
ATOM     71  O   UNL     1      14.473 -10.234  -2.443  1.00  0.00    -0.744 OA
ENDBRANCH  67  68
ENDBRANCH  35  60
BRANCH  47  72
ATOM     72  C   UNL     1       3.760 -14.468  -1.068  1.00  0.00     0.058 A 
ATOM     73  C   UNL     1       4.364 -15.724  -0.909  1.00  0.00     0.135 A 
ATOM     74  C   UNL     1       2.681 -14.372  -1.965  1.00  0.00     0.135 A 
ATOM     75  F   UNL     1       5.402 -15.874  -0.071  1.00  0.00    -0.206 F 
ATOM     76  C   UNL     1       3.930 -16.837  -1.622  1.00  0.00     0.059 A 
ATOM     77  C   UNL     1       2.205 -15.479  -2.660  1.00  0.00     0.059 A 
ATOM     78  F   UNL     1       2.057 -13.198  -2.150  1.00  0.00    -0.206 F 
ATOM     79  C   UNL     1       2.843 -16.706  -2.489  1.00  0.00     0.060 A 
BRANCH  79  80
ATOM     80  S   UNL     1       2.270 -18.171  -3.375  1.00  0.00     0.124 S 
ATOM     81  O   UNL     1       3.403 -18.448  -4.252  1.00  0.00    -0.237 OA
ATOM     82  O   UNL     1       2.059 -19.124  -2.291  1.00  0.00    -0.237 OA
ATOM     83  O   UNL     1       1.057 -17.713  -4.046  1.00  0.00    -0.744 OA
ENDBRANCH  79  80
ENDBRANCH  47  72
ENDBRANCH  21  22
ENDBRANCH  13  16
ENDBRANCH  11  12
ENDBRANCH  10  11
ENDBRANCH   9  10
ENDBRANCH   8   9
ENDBRANCH   6   8
ENDBRANCH   3   4
ENDBRANCH   1   3
BRANCH   1  84
ATOM     84  C   UNL     1       4.747   2.467   1.534  1.00  0.00     0.079 C 
ATOM     85  C   UNL     1       4.914   3.936   1.909  1.00  0.00     0.021 A 
ATOM     86  C   UNL     1       6.138   1.758   1.370  1.00  0.00     0.232 C 
ATOM     87  C   UNL     1       4.145   5.100   1.508  1.00  0.00     0.071 A 
ATOM     88  C   UNL     1       5.941   4.092   2.865  1.00  0.00     0.180 A 
ATOM     89  C   UNL     1       6.990   1.855   2.585  1.00  0.00     0.341 C 
ATOM     90  C   UNL     1       4.369   6.284   2.258  1.00  0.00     0.066 A 
ATOM     91  C   UNL     1       6.148   5.280   3.530  1.00  0.00     0.201 A 
ATOM     92  O   UNL     1       6.839   3.058   3.255  1.00  0.00    -0.420 OA
ATOM     93  O   UNL     1       7.820   1.015   2.909  1.00  0.00    -0.249 OA
ATOM     94  C   UNL     1       5.332   6.354   3.258  1.00  0.00     0.162 A 
BRANCH  86  95
ATOM     95  O   UNL     1       6.105   0.494   0.736  1.00  0.00    -0.381 OA
ATOM     96  H   UNL     1       5.649  -0.143   1.308  1.00  0.00     0.211 HD
ENDBRANCH  86  95
BRANCH  87  97
ATOM     97  C   UNL     1       3.135   5.388   0.349  1.00  0.00     0.339 C 
ATOM     98  O   UNL     1       2.638   6.504   0.226  1.00  0.00    -0.246 OA
BRANCH  97  99
ATOM     99  O   UNL     1       2.673   4.401  -0.455  1.00  0.00    -0.448 OA
BRANCH  99 100
ATOM    100  C   UNL     1       3.342   4.003  -1.731  1.00  0.00     0.290 C 
ATOM    101  C   UNL     1       2.573   2.851  -2.256  1.00  0.00     0.267 C 
ATOM    102  C   UNL     1       4.625   3.269  -1.452  1.00  0.00     0.357 C 
ATOM    103  C   UNL     1       2.593   1.571  -1.379  1.00  0.00     0.254 C 
ATOM    104  O   UNL     1       4.900   1.839  -1.824  1.00  0.00    -0.329 OA
ATOM    105  C   UNL     1       3.863   0.812  -1.499  1.00  0.00     0.205 CG1
ATOM    106  G   UNL     1       3.303  -0.565  -2.267  1.00  0.00     0.000 G1
BRANCH 101 107
ATOM    107  O   UNL     1       3.018   2.715  -3.674  1.00  0.00    -0.450 OA
BRANCH 107 108
ATOM    108  C   UNL     1       3.703   1.723  -4.306  1.00  0.00     0.339 C 
ATOM    109  O   UNL     1       4.842   1.341  -4.112  1.00  0.00    -0.246 OA
BRANCH 108 110
ATOM    110  C   UNL     1       2.920   1.192  -5.439  1.00  0.00     0.075 A 
ATOM    111  C   UNL     1       3.561   0.326  -6.336  1.00  0.00     0.066 A 
ATOM    112  C   UNL     1       1.552   1.487  -5.588  1.00  0.00     0.043 A 
ATOM    113  C   UNL     1       2.869  -0.098  -7.455  1.00  0.00     0.162 A 
ATOM    114  C   UNL     1       0.942   1.178  -6.795  1.00  0.00     0.170 A 
ATOM    115  C   UNL     1       1.596   0.384  -7.715  1.00  0.00     0.200 A 
BRANCH 112 116
ATOM    116  C   UNL     1       0.719   2.012  -4.517  1.00  0.00     0.001 A 
ATOM    117  C   UNL     1       0.490   3.424  -4.509  1.00  0.00     0.010 A 
ATOM    118  C   UNL     1       0.205   1.179  -3.490  1.00  0.00     0.068 A 
ATOM    119  C   UNL     1      -0.278   4.026  -3.521  1.00  0.00     0.001 A 
ATOM    120  C   UNL     1      -0.673   1.807  -2.567  1.00  0.00     0.016 A 
ATOM    121  C   UNL     1      -0.903   3.209  -2.581  1.00  0.00     0.001 A 
BRANCH 118 122
ATOM    122  C   UNL     1       0.813  -0.227  -3.079  1.00  0.00     0.338 C 
ATOM    123  O   UNL     1       0.218  -0.942  -2.286  1.00  0.00    -0.246 OA
BRANCH 122 124
ATOM    124  O   UNL     1       2.194  -0.316  -3.329  1.00  0.00    -0.459 OA
BRANCH 124 125
ATOM    125  C   UNL     1       3.303  -0.565  -2.267  1.00  0.00     0.269 CG1
ATOM    126  G   UNL     1       3.863   0.812  -1.499  1.00  0.00     0.000 G1
ENDBRANCH 124 125
ENDBRANCH 122 124
ENDBRANCH 118 122
ENDBRANCH 112 116
BRANCH 113 127
ATOM    127  O   UNL     1       3.446  -0.986  -8.308  1.00  0.00    -0.504 OA
ATOM    128  H   UNL     1       4.306  -1.313  -8.134  1.00  0.00     0.293 HD
ENDBRANCH 113 127
BRANCH 114 129
ATOM    129  O   UNL     1      -0.316   1.616  -7.125  1.00  0.00    -0.504 OA
ATOM    130  H   UNL     1      -0.691   1.384  -7.952  1.00  0.00     0.293 HD
ENDBRANCH 114 129
BRANCH 115 131
ATOM    131  O   UNL     1       0.959   0.052  -8.876  1.00  0.00    -0.502 OA
ATOM    132  H   UNL     1       1.391  -0.486  -9.510  1.00  0.00     0.293 HD
ENDBRANCH 115 131
ENDBRANCH 108 110
ENDBRANCH 107 108
ENDBRANCH 101 107
BRANCH 102 133
ATOM    133  O   UNL     1       5.609   4.138  -0.885  1.00  0.00    -0.428 OA
BRANCH 133 134
ATOM    134  C   UNL     1       6.512   4.570  -1.772  1.00  0.00     0.340 C 
ATOM    135  O   UNL     1       6.804   4.025  -2.795  1.00  0.00    -0.246 OA
BRANCH 134 136
ATOM    136  C   UNL     1       6.949   5.940  -1.401  1.00  0.00     0.067 A 
ATOM    137  C   UNL     1       7.089   6.799  -2.494  1.00  0.00     0.066 A 
ATOM    138  C   UNL     1       7.291   6.364  -0.103  1.00  0.00     0.066 A 
ATOM    139  C   UNL     1       7.684   8.031  -2.314  1.00  0.00     0.162 A 
ATOM    140  C   UNL     1       7.866   7.625   0.059  1.00  0.00     0.162 A 
ATOM    141  C   UNL     1       8.092   8.436  -1.052  1.00  0.00     0.200 A 
BRANCH 139 142
ATOM    142  O   UNL     1       7.912   8.812  -3.405  1.00  0.00    -0.504 OA
ATOM    143  H   UNL     1       7.631   8.526  -4.253  1.00  0.00     0.293 HD
ENDBRANCH 139 142
BRANCH 140 144
ATOM    144  O   UNL     1       8.278   8.104   1.273  1.00  0.00    -0.504 OA
ATOM    145  H   UNL     1       8.660   8.958   1.335  1.00  0.00     0.293 HD
ENDBRANCH 140 144
BRANCH 141 146
ATOM    146  O   UNL     1       8.745   9.632  -0.926  1.00  0.00    -0.502 OA
ATOM    147  H   UNL     1       8.891  10.168  -1.681  1.00  0.00     0.293 HD
ENDBRANCH 141 146
ENDBRANCH 134 136
ENDBRANCH 133 134
ENDBRANCH 102 133
BRANCH 103 148
ATOM    148  O   UNL     1       1.882   1.334  -0.160  1.00  0.00    -0.455 OA
BRANCH 148 149
ATOM    149  C   UNL     1       2.631   0.879   0.895  1.00  0.00     0.310 CG0
ATOM    150  O   UNL     1       2.607  -0.252   1.347  1.00  0.00    -0.252 OA
ATOM    151  G   UNL     1       3.221   2.070   1.579  1.00  0.00     0.000 G0
ENDBRANCH 148 149
ENDBRANCH 103 148
ENDBRANCH  99 100
ENDBRANCH  97  99
ENDBRANCH  87  97
BRANCH  91 152
ATOM    152  O   UNL     1       7.146   5.411   4.450  1.00  0.00    -0.502 OA
ATOM    153  H   UNL     1       7.272   6.227   4.893  1.00  0.00     0.293 HD
ENDBRANCH  91 152
BRANCH  94 154
ATOM    154  O   UNL     1       5.489   7.506   3.968  1.00  0.00    -0.504 OA
ATOM    155  H   UNL     1       4.939   8.244   3.791  1.00  0.00     0.293 HD
ENDBRANCH  94 154
ENDBRANCH   1  84
TORSDOF 27
