REMARK SMILES CCCc1nnsc1C(=O)NC[C@@H]1CC[C@@H](C(=O)NCCCCNC(=O)c2ccc(-c3c4nc(c(-c5c(F)cc(S(=O)(=O)[O-])cc5F)c5ccc([nH]5)c(-c5c(F)cc(S(=O)(=O)[O-])cc5F)c5nc(c(-c6c(F)cc(S(=O)(=O)[O-])cc6F)c6ccc3[nH]6)C=C5)C=C4)cc2)O1
REMARK SMILES IDX 20 1 19 2 17 3 18 4 16 6 13 7 14 8 93 9 15 10 12 11 11 12
REMARK SMILES IDX 9 13 10 14 8 16 4 17 5 18 6 19 7 20 3 21 2 22 1 23 21 24
REMARK SMILES IDX 22 25 23 26 24 27 25 28 26 30 27 31 28 32 92 33 29 34 91 35
REMARK SMILES IDX 30 36 31 37 32 38 85 39 33 40 90 41 84 42 86 43 34 44 89 45
REMARK SMILES IDX 83 46 82 47 35 49 69 50 48 51 68 52 49 53 52 54 67 55 87 56
REMARK SMILES IDX 50 57 51 58 66 60 88 61 53 62 36 63 37 64 46 65 38 66 39 67
REMARK SMILES IDX 45 68 47 69 40 70 41 71 42 72 43 73 44 74 70 75 71 76 80 77
REMARK SMILES IDX 72 78 73 79 79 80 81 81 74 82 75 83 76 84 77 85 78 86 54 87
REMARK SMILES IDX 55 88 64 89 56 90 57 91 63 92 65 93 58 94 59 95 60 96 61 97
REMARK SMILES IDX 62 98
REMARK H PARENT 19 5 11 15 24 29 86 48 52 59
REMARK Flexibility Score: inf
ROOT
ATOM      1  C   UNL     1       4.951   4.180   0.559  1.00  0.00     0.116 C 
ENDROOT
BRANCH   1   2
ATOM      2  N   UNL     1       4.050   4.869   1.463  1.00  0.00    -0.354 N 
ATOM      3  C   UNL     1       2.696   4.985   1.490  1.00  0.00     0.249 C 
ATOM      4  O   UNL     1       2.210   5.737   2.342  1.00  0.00    -0.272 OA
ATOM      5  H   UNL     1       4.505   5.342   2.197  1.00  0.00     0.163 HD
BRANCH   3   6
ATOM      6  C   UNL     1       1.769   4.176   0.559  1.00  0.00     0.207 C 
ATOM      7  C   UNL     1       2.316   1.981   0.082  1.00  0.00     0.138 C 
ATOM      8  C   UNL     1       0.968   1.920   0.761  1.00  0.00     0.037 C 
ATOM      9  O   UNL     1       2.349   3.325  -0.424  1.00  0.00    -0.363 OA
ATOM     10  C   UNL     1       0.873   3.279   1.420  1.00  0.00     0.045 C 
BRANCH   7  11
ATOM     11  C   UNL     1       2.546   1.023  -1.090  1.00  0.00     0.148 C 
BRANCH  11  12
ATOM     12  N   UNL     1       2.785  -0.348  -0.707  1.00  0.00    -0.349 N 
ATOM     13  C   UNL     1       2.617  -1.560  -1.327  1.00  0.00     0.265 C 
ATOM     14  O   UNL     1       3.337  -2.428  -0.813  1.00  0.00    -0.268 OA
ATOM     15  H   UNL     1       3.151  -0.432   0.203  1.00  0.00     0.163 HD
BRANCH  13  16
ATOM     16  C   UNL     1       1.704  -1.877  -2.418  1.00  0.00     0.136 A 
ATOM     17  C   UNL     1       0.661  -1.324  -3.171  1.00  0.00     0.088 A 
ATOM     18  N   UNL     1       0.053  -2.209  -4.073  1.00  0.00    -0.142 NA
ATOM     19  N   UNL     1       0.586  -3.407  -4.056  1.00  0.00    -0.090 NA
ATOM     20  S   UNL     1       1.837  -3.532  -2.982  1.00  0.00    -0.006 S 
BRANCH  17  21
ATOM     21  C   UNL     1       0.035   0.027  -3.204  1.00  0.00     0.060 C 
BRANCH  21  22
ATOM     22  C   UNL     1      -0.965   0.350  -2.090  1.00  0.00     0.003 C 
ATOM     23  C   UNL     1      -0.899  -0.492  -0.824  1.00  0.00     0.004 C 
ENDBRANCH  21  22
ENDBRANCH  17  21
ENDBRANCH  13  16
ENDBRANCH  11  12
ENDBRANCH   7  11
ENDBRANCH   3   6
ENDBRANCH   1   2
BRANCH   1  24
ATOM     24  C   UNL     1       5.846   5.151  -0.200  1.00  0.00     0.023 C 
BRANCH  24  25
ATOM     25  C   UNL     1       6.775   5.975   0.687  1.00  0.00     0.023 C 
BRANCH  25  26
ATOM     26  C   UNL     1       7.591   5.165   1.688  1.00  0.00     0.116 C 
BRANCH  26  27
ATOM     27  N   UNL     1       8.425   4.153   1.056  1.00  0.00    -0.352 N 
ATOM     28  C   UNL     1       9.764   3.908   1.255  1.00  0.00     0.251 C 
ATOM     29  H   UNL     1       7.974   3.571   0.402  1.00  0.00     0.163 HD
ATOM     30  O   UNL     1      10.364   3.095   0.559  1.00  0.00    -0.269 OA
BRANCH  28  31
ATOM     31  C   UNL     1      10.470   4.677   2.297  1.00  0.00     0.039 A 
ATOM     32  C   UNL     1      11.571   5.453   1.935  1.00  0.00     0.014 A 
ATOM     33  C   UNL     1       9.960   4.715   3.598  1.00  0.00     0.014 A 
ATOM     34  C   UNL     1      12.108   6.348   2.861  1.00  0.00     0.010 A 
ATOM     35  C   UNL     1      10.454   5.655   4.495  1.00  0.00     0.010 A 
ATOM     36  C   UNL     1      11.518   6.495   4.127  1.00  0.00    -0.014 A 
BRANCH  36  37
ATOM     37  C   UNL     1      11.958   7.552   5.071  1.00  0.00     0.031 A 
ATOM     38  C   UNL     1      12.547   7.173   6.399  1.00  0.00     0.074 A 
ATOM     39  C   UNL     1      11.734   8.847   4.769  1.00  0.00     0.049 A 
ATOM     40  N   UNL     1      12.866   7.940   7.409  1.00  0.00    -0.248 NA
ATOM     41  C   UNL     1      12.786   5.739   6.632  1.00  0.00     0.031 C 
ATOM     42  C   UNL     1      11.130   9.337   3.527  1.00  0.00     0.029 A 
ATOM     43  N   UNL     1      11.968   9.990   5.492  1.00  0.00    -0.354 N 
ATOM     44  C   UNL     1      13.330   7.085   8.400  1.00  0.00     0.074 A 
ATOM     45  C   UNL     1      13.209   5.737   7.888  1.00  0.00     0.031 C 
ATOM     46  C   UNL     1      11.052  10.677   3.571  1.00  0.00     0.029 A 
ATOM     47  C   UNL     1      11.555  11.140   4.860  1.00  0.00     0.049 A 
ATOM     48  H   UNL     1      12.392   9.987   6.381  1.00  0.00     0.167 HD
ATOM     49  C   UNL     1      13.831   7.399   9.617  1.00  0.00     0.037 A 
ATOM     50  C   UNL     1      11.560  12.420   5.280  1.00  0.00     0.037 A 
ATOM     51  C   UNL     1      13.970   8.744  10.109  1.00  0.00     0.049 A 
ATOM     52  C   UNL     1      12.089  12.739   6.652  1.00  0.00     0.074 A 
ATOM     53  C   UNL     1      14.527   9.170  11.302  1.00  0.00     0.029 A 
ATOM     54  N   UNL     1      13.543   9.881   9.439  1.00  0.00    -0.354 N 
ATOM     55  N   UNL     1      12.584  11.924   7.552  1.00  0.00    -0.248 NA
ATOM     56  C   UNL     1      12.055  14.148   7.069  1.00  0.00     0.031 C 
ATOM     57  C   UNL     1      14.397  10.561  11.373  1.00  0.00     0.029 A 
ATOM     58  C   UNL     1      13.797  11.006  10.206  1.00  0.00     0.049 A 
ATOM     59  H   UNL     1      13.122   9.887   8.549  1.00  0.00     0.167 HD
ATOM     60  C   UNL     1      12.932  12.722   8.636  1.00  0.00     0.074 A 
ATOM     61  C   UNL     1      12.608  14.086   8.273  1.00  0.00     0.031 C 
ATOM     62  C   UNL     1      13.466  12.357   9.828  1.00  0.00     0.037 A 
BRANCH  49  63
ATOM     63  C   UNL     1      14.278   6.268  10.501  1.00  0.00     0.058 A 
ATOM     64  C   UNL     1      15.441   5.534  10.219  1.00  0.00     0.135 A 
ATOM     65  C   UNL     1      13.563   5.944  11.665  1.00  0.00     0.135 A 
ATOM     66  F   UNL     1      16.152   5.792   9.110  1.00  0.00    -0.206 F 
ATOM     67  C   UNL     1      15.867   4.503  11.049  1.00  0.00     0.059 A 
ATOM     68  C   UNL     1      13.985   4.934  12.523  1.00  0.00     0.059 A 
ATOM     69  F   UNL     1      12.442   6.614  11.978  1.00  0.00    -0.206 F 
ATOM     70  C   UNL     1      15.133   4.211  12.200  1.00  0.00     0.060 A 
BRANCH  70  71
ATOM     71  S   UNL     1      15.710   2.879  13.273  1.00  0.00     0.124 S 
ATOM     72  O   UNL     1      15.370   1.700  12.481  1.00  0.00    -0.237 OA
ATOM     73  O   UNL     1      17.134   3.171  13.394  1.00  0.00    -0.237 OA
ATOM     74  O   UNL     1      14.929   3.062  14.492  1.00  0.00    -0.744 OA
ENDBRANCH  70  71
ENDBRANCH  49  63
BRANCH  50  75
ATOM     75  C   UNL     1      11.040  13.499   4.397  1.00  0.00     0.058 A 
ATOM     76  C   UNL     1      11.907  14.441   3.824  1.00  0.00     0.135 A 
ATOM     77  C   UNL     1       9.671  13.610   4.108  1.00  0.00     0.135 A 
ATOM     78  F   UNL     1      13.223  14.381   4.078  1.00  0.00    -0.206 F 
ATOM     79  C   UNL     1      11.435  15.465   3.010  1.00  0.00     0.059 A 
ATOM     80  C   UNL     1       9.178  14.611   3.277  1.00  0.00     0.059 A 
ATOM     81  F   UNL     1       8.801  12.725   4.619  1.00  0.00    -0.206 F 
ATOM     82  C   UNL     1      10.068  15.541   2.741  1.00  0.00     0.060 A 
BRANCH  82  83
ATOM     83  S   UNL     1       9.470  16.850   1.650  1.00  0.00     0.124 S 
ATOM     84  O   UNL     1       9.558  18.019   2.518  1.00  0.00    -0.237 OA
ATOM     85  O   UNL     1      10.429  16.796   0.551  1.00  0.00    -0.237 OA
ATOM     86  O   UNL     1       8.118  16.413   1.313  1.00  0.00    -0.744 OA
ENDBRANCH  82  83
ENDBRANCH  50  75
BRANCH  62  87
ATOM     87  C   UNL     1      13.744  13.445  10.825  1.00  0.00     0.058 A 
ATOM     88  C   UNL     1      12.707  14.055  11.548  1.00  0.00     0.135 A 
ATOM     89  C   UNL     1      15.062  13.831  11.115  1.00  0.00     0.135 A 
ATOM     90  F   UNL     1      11.428  13.728  11.300  1.00  0.00    -0.206 F 
ATOM     91  C   UNL     1      12.967  15.015  12.519  1.00  0.00     0.059 A 
ATOM     92  C   UNL     1      15.347  14.771  12.100  1.00  0.00     0.059 A 
ATOM     93  F   UNL     1      16.090  13.272  10.456  1.00  0.00    -0.206 F 
ATOM     94  C   UNL     1      14.291  15.361  12.793  1.00  0.00     0.060 A 
BRANCH  94  95
ATOM     95  S   UNL     1      14.617  16.565  14.099  1.00  0.00     0.124 S 
ATOM     96  O   UNL     1      14.205  17.811  13.461  1.00  0.00    -0.237 OA
ATOM     97  O   UNL     1      13.757  16.092  15.180  1.00  0.00    -0.237 OA
ATOM     98  O   UNL     1      16.050  16.426  14.340  1.00  0.00    -0.744 OA
ENDBRANCH  94  95
ENDBRANCH  62  87
ENDBRANCH  36  37
ENDBRANCH  28  31
ENDBRANCH  26  27
ENDBRANCH  25  26
ENDBRANCH  24  25
ENDBRANCH   1  24
TORSDOF 19
