REMARK SMILES O=C(NCCCCNC(=O)c1nnn(-c2cccc(C(F)(F)F)c2)c1[C@@H]1COc2ccccc2O1)c1ccc(-c2c3nc(c(-c4c(F)cc(S(=O)(=O)[O-])cc4F)c4ccc([nH]4)c(-c4c(F)cc(S(=O)(=O)[O-])cc4F)c4nc(c(-c5c(F)cc(S(=O)(=O)[O-])cc5F)c5ccc2[nH]5)C=C4)C=C3)cc1
REMARK SMILES IDX 5 1 4 2 3 3 1 4 2 5 36 7 37 8 101 9 38 10 100 11 39 12 40 13
REMARK SMILES IDX 41 14 94 15 42 16 99 17 93 18 95 19 43 20 98 21 92 22 91 23
REMARK SMILES IDX 44 25 78 26 57 27 77 28 58 29 61 30 76 31 96 32 59 33 60 34
REMARK SMILES IDX 75 36 97 37 62 38 45 39 46 40 55 41 47 42 48 43 54 44 56 45
REMARK SMILES IDX 49 46 50 47 51 48 52 49 53 50 79 51 80 52 89 53 81 54 82 55
REMARK SMILES IDX 88 56 90 57 83 58 84 59 85 60 86 61 87 62 63 63 64 64 73 65
REMARK SMILES IDX 65 66 66 67 72 68 74 69 67 70 68 71 69 72 70 73 71 74 6 75
REMARK SMILES IDX 7 76 8 77 9 78 10 80 11 81 12 82 25 83 13 84 14 85 26 86
REMARK SMILES IDX 27 87 35 88 28 89 34 90 29 91 33 92 30 93 32 94 31 95 15 96
REMARK SMILES IDX 16 97 24 98 17 99 19 100 18 101 20 102 21 103 22 104 23 105
REMARK H PARENT 3 6 95 24 61 35 8 79
REMARK Flexibility Score: inf
ROOT
ATOM      1  C   UNL     1       5.420  -0.491   1.960  1.00  0.00     0.023 C 
ENDROOT
BRANCH   1   2
ATOM      2  C   UNL     1       4.992  -0.749   0.512  1.00  0.00     0.116 C 
BRANCH   2   3
ATOM      3  N   UNL     1       3.586  -1.052   0.317  1.00  0.00    -0.352 N 
ATOM      4  O   UNL     1       1.446  -0.908  -0.209  1.00  0.00    -0.269 OA
ATOM      5  C   UNL     1       2.453  -0.296   0.157  1.00  0.00     0.251 C 
ATOM      6  H   UNL     1       3.404  -2.020   0.295  1.00  0.00     0.163 HD
BRANCH   5   7
ATOM      7  C   UNL     1       2.346   1.161   0.444  1.00  0.00     0.039 A 
ATOM      8  C   UNL     1       3.422   2.019   0.664  1.00  0.00     0.014 A 
ATOM      9  C   UNL     1       1.042   1.688   0.523  1.00  0.00     0.014 A 
ATOM     10  C   UNL     1       3.209   3.342   1.039  1.00  0.00     0.010 A 
ATOM     11  C   UNL     1       0.822   3.017   0.875  1.00  0.00     0.010 A 
ATOM     12  C   UNL     1       1.910   3.835   1.163  1.00  0.00    -0.014 A 
BRANCH  12  13
ATOM     13  C   UNL     1       1.757   5.252   1.482  1.00  0.00     0.031 A 
ATOM     14  C   UNL     1       2.226   6.203   0.430  1.00  0.00     0.074 A 
ATOM     15  C   UNL     1       1.113   5.702   2.575  1.00  0.00     0.049 A 
ATOM     16  N   UNL     1       3.129   7.127   0.516  1.00  0.00    -0.248 NA
ATOM     17  C   UNL     1       1.662   6.044  -0.919  1.00  0.00     0.031 C 
ATOM     18  C   UNL     1       0.327   4.925   3.535  1.00  0.00     0.029 A 
ATOM     19  N   UNL     1       0.930   6.988   2.989  1.00  0.00    -0.354 N 
ATOM     20  C   UNL     1       3.120   7.791  -0.712  1.00  0.00     0.074 A 
ATOM     21  C   UNL     1       2.297   7.002  -1.593  1.00  0.00     0.031 C 
ATOM     22  C   UNL     1      -0.426   5.770   4.273  1.00  0.00     0.029 A 
ATOM     23  C   UNL     1      -0.085   7.140   3.923  1.00  0.00     0.049 A 
ATOM     24  H   UNL     1       1.469   7.741   2.656  1.00  0.00     0.167 HD
ATOM     25  C   UNL     1       3.638   9.040  -0.876  1.00  0.00     0.037 A 
ATOM     26  C   UNL     1      -0.664   8.304   4.307  1.00  0.00     0.037 A 
ATOM     27  C   UNL     1       4.516   9.405   0.201  1.00  0.00     0.049 A 
ATOM     28  C   UNL     1       0.265   9.411   3.959  1.00  0.00     0.074 A 
ATOM     29  C   UNL     1       5.696   8.901   0.712  1.00  0.00     0.029 A 
ATOM     30  N   UNL     1       4.053  10.291   1.142  1.00  0.00    -0.354 N 
ATOM     31  N   UNL     1       1.419   9.613   4.532  1.00  0.00    -0.248 NA
ATOM     32  C   UNL     1       0.081  10.082   2.681  1.00  0.00     0.031 C 
ATOM     33  C   UNL     1       5.624   9.137   2.115  1.00  0.00     0.029 A 
ATOM     34  C   UNL     1       4.419   9.795   2.366  1.00  0.00     0.049 A 
ATOM     35  H   UNL     1       3.554  11.122   0.970  1.00  0.00     0.167 HD
ATOM     36  C   UNL     1       2.243  10.082   3.521  1.00  0.00     0.074 A 
ATOM     37  C   UNL     1       1.340  10.453   2.437  1.00  0.00     0.031 C 
ATOM     38  C   UNL     1       3.592   9.874   3.550  1.00  0.00     0.037 A 
BRANCH  25  39
ATOM     39  C   UNL     1       3.105  10.064  -1.851  1.00  0.00     0.058 A 
ATOM     40  C   UNL     1       3.842  11.241  -2.104  1.00  0.00     0.135 A 
ATOM     41  C   UNL     1       1.772  10.068  -2.317  1.00  0.00     0.135 A 
ATOM     42  F   UNL     1       5.118  11.349  -1.700  1.00  0.00    -0.206 F 
ATOM     43  C   UNL     1       3.272  12.366  -2.702  1.00  0.00     0.059 A 
ATOM     44  C   UNL     1       1.200  11.158  -2.965  1.00  0.00     0.059 A 
ATOM     45  F   UNL     1       0.931   9.055  -2.073  1.00  0.00    -0.206 F 
ATOM     46  C   UNL     1       1.941  12.320  -3.109  1.00  0.00     0.060 A 
BRANCH  46  47
ATOM     47  S   UNL     1       1.159  13.811  -3.751  1.00  0.00     0.124 S 
ATOM     48  O   UNL     1       1.041  14.617  -2.541  1.00  0.00    -0.237 OA
ATOM     49  O   UNL     1       2.135  14.270  -4.733  1.00  0.00    -0.237 OA
ATOM     50  O   UNL     1      -0.097  13.316  -4.307  1.00  0.00    -0.744 OA
ENDBRANCH  46  47
ENDBRANCH  25  39
BRANCH  26  51
ATOM     51  C   UNL     1      -2.093   8.537   4.646  1.00  0.00     0.058 A 
ATOM     52  C   UNL     1      -2.510   9.722   5.275  1.00  0.00     0.135 A 
ATOM     53  C   UNL     1      -3.115   7.721   4.118  1.00  0.00     0.135 A 
ATOM     54  F   UNL     1      -1.604  10.573   5.781  1.00  0.00    -0.206 F 
ATOM     55  C   UNL     1      -3.856  10.098   5.339  1.00  0.00     0.059 A 
ATOM     56  C   UNL     1      -4.463   8.065   4.185  1.00  0.00     0.059 A 
ATOM     57  F   UNL     1      -2.829   6.604   3.432  1.00  0.00    -0.206 F 
ATOM     58  C   UNL     1      -4.825   9.269   4.774  1.00  0.00     0.060 A 
BRANCH  58  59
ATOM     59  S   UNL     1      -6.543   9.827   4.698  1.00  0.00     0.124 S 
ATOM     60  O   UNL     1      -6.944   9.761   6.098  1.00  0.00    -0.237 OA
ATOM     61  O   UNL     1      -6.407  11.166   4.135  1.00  0.00    -0.237 OA
ATOM     62  O   UNL     1      -7.178   8.847   3.820  1.00  0.00    -0.744 OA
ENDBRANCH  58  59
ENDBRANCH  26  51
BRANCH  38  63
ATOM     63  C   UNL     1       4.221   9.430   4.843  1.00  0.00     0.058 A 
ATOM     64  C   UNL     1       3.944   8.206   5.475  1.00  0.00     0.135 A 
ATOM     65  C   UNL     1       5.265  10.204   5.373  1.00  0.00     0.135 A 
ATOM     66  F   UNL     1       3.039   7.356   4.967  1.00  0.00    -0.206 F 
ATOM     67  C   UNL     1       4.644   7.790   6.608  1.00  0.00     0.059 A 
ATOM     68  C   UNL     1       5.999   9.794   6.483  1.00  0.00     0.059 A 
ATOM     69  F   UNL     1       5.622  11.353   4.775  1.00  0.00    -0.206 F 
ATOM     70  C   UNL     1       5.674   8.589   7.103  1.00  0.00     0.060 A 
BRANCH  70  71
ATOM     71  S   UNL     1       6.648   8.002   8.505  1.00  0.00     0.124 S 
ATOM     72  O   UNL     1       5.714   8.175   9.618  1.00  0.00    -0.237 OA
ATOM     73  O   UNL     1       6.933   6.615   8.133  1.00  0.00    -0.237 OA
ATOM     74  O   UNL     1       7.803   8.884   8.516  1.00  0.00    -0.744 OA
ENDBRANCH  70  71
ENDBRANCH  38  63
ENDBRANCH  12  13
ENDBRANCH   5   7
ENDBRANCH   2   3
ENDBRANCH   1   2
BRANCH   1  75
ATOM     75  C   UNL     1       5.081  -1.590   2.962  1.00  0.00     0.023 C 
BRANCH  75  76
ATOM     76  C   UNL     1       5.525  -3.001   2.605  1.00  0.00     0.116 C 
BRANCH  76  77
ATOM     77  N   UNL     1       6.840  -3.391   3.038  1.00  0.00    -0.351 N 
ATOM     78  C   UNL     1       7.379  -4.513   3.635  1.00  0.00     0.273 C 
ATOM     79  H   UNL     1       7.515  -2.695   2.868  1.00  0.00     0.163 HD
ATOM     80  O   UNL     1       8.607  -4.441   3.767  1.00  0.00    -0.267 OA
BRANCH  78  81
ATOM     81  C   UNL     1       6.671  -5.724   4.122  1.00  0.00     0.178 A 
ATOM     82  N   UNL     1       7.401  -6.531   4.986  1.00  0.00    -0.124 NA
ATOM     83  C   UNL     1       5.404  -6.312   3.988  1.00  0.00     0.122 A 
ATOM     84  N   UNL     1       6.649  -7.528   5.411  1.00  0.00    -0.061 NA
ATOM     85  N   UNL     1       5.486  -7.472   4.750  1.00  0.00    -0.213 N 
BRANCH  83  86
ATOM     86  C   UNL     1       4.116  -5.805   3.416  1.00  0.00     0.262 C 
ATOM     87  C   UNL     1       3.409  -4.898   4.450  1.00  0.00     0.281 C 
ATOM     88  O   UNL     1       3.282  -6.834   2.865  1.00  0.00    -0.477 OA
ATOM     89  O   UNL     1       2.646  -5.657   5.385  1.00  0.00    -0.485 OA
ATOM     90  C   UNL     1       2.019  -6.872   3.399  1.00  0.00     0.162 A 
ATOM     91  C   UNL     1       1.721  -6.361   4.665  1.00  0.00     0.161 A 
ATOM     92  C   UNL     1       1.027  -7.512   2.665  1.00  0.00     0.050 A 
ATOM     93  C   UNL     1       0.471  -6.551   5.239  1.00  0.00     0.050 A 
ATOM     94  C   UNL     1      -0.250  -7.657   3.213  1.00  0.00     0.004 A 
ATOM     95  C   UNL     1      -0.521  -7.197   4.505  1.00  0.00     0.004 A 
ENDBRANCH  83  86
BRANCH  85  96
ATOM     96  C   UNL     1       4.567  -8.530   4.875  1.00  0.00     0.067 A 
ATOM     97  C   UNL     1       3.844  -8.675   6.061  1.00  0.00     0.028 A 
ATOM     98  C   UNL     1       4.317  -9.349   3.768  1.00  0.00     0.041 A 
ATOM     99  C   UNL     1       2.787  -9.584   6.098  1.00  0.00     0.003 A 
ATOM    100  C   UNL     1       3.271 -10.281   3.812  1.00  0.00     0.058 A 
ATOM    101  C   UNL     1       2.492 -10.369   4.979  1.00  0.00     0.013 A 
BRANCH 100 102
ATOM    102  C   UNL     1       2.934 -11.114   2.603  1.00  0.00     0.416 C 
ATOM    103  F   UNL     1       2.672 -12.415   2.916  1.00  0.00    -0.166 F 
ATOM    104  F   UNL     1       1.832 -10.662   1.942  1.00  0.00    -0.166 F 
ATOM    105  F   UNL     1       3.932 -11.153   1.675  1.00  0.00    -0.166 F 
ENDBRANCH 100 102
ENDBRANCH  85  96
ENDBRANCH  78  81
ENDBRANCH  76  77
ENDBRANCH  75  76
ENDBRANCH   1  75
TORSDOF 17
