REMARK SMILES COc1cccc(O[C@@H](C)c2nnc(SCC(=O)NCCCCNC(=O)c3ccc(-c4c5nc(c(-c6c(F)cc(S(=O)(=O)[O-])cc6F)c6ccc([nH]6)c(-c6c(F)cc(S(=O)(=O)[O-])cc6F)c6nc(c(-c7c(F)cc(S(=O)(=O)[O-])cc7F)c7ccc4[nH]7)C=C6)C=C5)cc3)n2C)c1
REMARK SMILES IDX 20 1 19 2 17 3 18 4 16 6 15 7 14 8 11 9 12 10 93 11 13 12
REMARK SMILES IDX 94 13 9 14 10 15 8 16 7 17 3 18 4 19 95 20 5 21 6 22 2 23
REMARK SMILES IDX 1 24 21 25 22 26 23 27 24 28 25 29 26 31 27 32 28 33 92 34
REMARK SMILES IDX 29 35 91 36 30 37 31 38 32 39 85 40 33 41 90 42 84 43 86 44
REMARK SMILES IDX 34 45 89 46 83 47 82 48 35 50 69 51 48 52 68 53 49 54 52 55
REMARK SMILES IDX 67 56 87 57 50 58 51 59 66 61 88 62 53 63 36 64 37 65 46 66
REMARK SMILES IDX 38 67 39 68 45 69 47 70 40 71 41 72 42 73 43 74 44 75 70 76
REMARK SMILES IDX 71 77 80 78 72 79 73 80 79 81 81 82 74 83 75 84 76 85 77 86
REMARK SMILES IDX 78 87 54 88 55 89 64 90 56 91 57 92 63 93 65 94 58 95 59 96
REMARK SMILES IDX 60 97 61 98 62 99
REMARK H PARENT 19 5 24 30 86 49 52 60
REMARK Flexibility Score: inf
ROOT
ATOM      1  C   UNL     1       8.424  -3.097   3.201  1.00  0.00     0.116 C 
ENDROOT
BRANCH   1   2
ATOM      2  N   UNL     1       8.409  -1.887   2.401  1.00  0.00    -0.355 N 
ATOM      3  C   UNL     1       7.393  -1.008   2.199  1.00  0.00     0.230 C 
ATOM      4  O   UNL     1       7.562  -0.083   1.401  1.00  0.00    -0.274 OA
ATOM      5  H   UNL     1       9.253  -1.673   1.942  1.00  0.00     0.163 HD
BRANCH   3   6
ATOM      6  C   UNL     1       6.108  -1.126   2.981  1.00  0.00     0.178 C 
BRANCH   6   7
ATOM      7  S   UNL     1       4.920  -2.325   2.364  1.00  0.00    -0.076 SA
BRANCH   7   8
ATOM      8  C   UNL     1       5.193  -2.533   0.670  1.00  0.00     0.191 A 
ATOM      9  C   UNL     1       4.994  -2.302  -1.508  1.00  0.00     0.174 A 
ATOM     10  N   UNL     1       5.210  -3.576  -1.228  1.00  0.00    -0.130 NA
ATOM     11  N   UNL     1       5.072  -1.588  -0.320  1.00  0.00    -0.306 N 
ATOM     12  N   UNL     1       5.314  -3.720   0.127  1.00  0.00    -0.123 NA
ATOM     13  C   UNL     1       5.026  -0.160  -0.166  1.00  0.00     0.154 C 
BRANCH   9  14
ATOM     14  C   UNL     1       4.725  -1.808  -2.907  1.00  0.00     0.238 C 
ATOM     15  C   UNL     1       4.662  -0.319  -3.204  1.00  0.00     0.062 C 
BRANCH  14  16
ATOM     16  O   UNL     1       3.604  -2.500  -3.498  1.00  0.00    -0.483 OA
BRANCH  16  17
ATOM     17  C   UNL     1       2.314  -2.370  -3.072  1.00  0.00     0.124 A 
ATOM     18  C   UNL     1       0.513  -1.726  -1.575  1.00  0.00     0.122 A 
ATOM     19  C   UNL     1      -0.409  -2.365  -2.401  1.00  0.00     0.046 A 
ATOM     20  C   UNL     1       1.872  -1.740  -1.911  1.00  0.00     0.092 A 
ATOM     21  C   UNL     1       0.016  -2.984  -3.574  1.00  0.00     0.008 A 
ATOM     22  C   UNL     1       1.372  -2.984  -3.904  1.00  0.00     0.047 A 
BRANCH  18  23
ATOM     23  O   UNL     1      -0.010  -1.165  -0.441  1.00  0.00    -0.497 OA
ATOM     24  C   UNL     1       0.707  -0.056   0.088  1.00  0.00     0.278 C 
ENDBRANCH  18  23
ENDBRANCH  16  17
ENDBRANCH  14  16
ENDBRANCH   9  14
ENDBRANCH   7   8
ENDBRANCH   6   7
ENDBRANCH   3   6
ENDBRANCH   1   2
BRANCH   1  25
ATOM     25  C   UNL     1       8.561  -4.343   2.330  1.00  0.00     0.023 C 
BRANCH  25  26
ATOM     26  C   UNL     1       9.843  -4.410   1.495  1.00  0.00     0.023 C 
BRANCH  26  27
ATOM     27  C   UNL     1      11.144  -4.209   2.267  1.00  0.00     0.116 C 
BRANCH  27  28
ATOM     28  N   UNL     1      11.309  -5.152   3.362  1.00  0.00    -0.352 N 
ATOM     29  C   UNL     1      12.423  -5.865   3.731  1.00  0.00     0.251 C 
ATOM     30  H   UNL     1      10.509  -5.299   3.917  1.00  0.00     0.163 HD
ATOM     31  O   UNL     1      12.345  -6.705   4.622  1.00  0.00    -0.269 OA
BRANCH  29  32
ATOM     32  C   UNL     1      13.706  -5.642   3.029  1.00  0.00     0.039 A 
ATOM     33  C   UNL     1      14.429  -6.752   2.582  1.00  0.00     0.014 A 
ATOM     34  C   UNL     1      14.185  -4.350   2.798  1.00  0.00     0.014 A 
ATOM     35  C   UNL     1      15.599  -6.563   1.843  1.00  0.00     0.010 A 
ATOM     36  C   UNL     1      15.314  -4.164   2.004  1.00  0.00     0.010 A 
ATOM     37  C   UNL     1      16.031  -5.268   1.517  1.00  0.00    -0.014 A 
BRANCH  37  38
ATOM     38  C   UNL     1      17.221  -5.047   0.655  1.00  0.00     0.031 A 
ATOM     39  C   UNL     1      18.433  -4.344   1.201  1.00  0.00     0.074 A 
ATOM     40  C   UNL     1      17.178  -5.406  -0.643  1.00  0.00     0.049 A 
ATOM     41  N   UNL     1      19.532  -3.993   0.585  1.00  0.00    -0.248 NA
ATOM     42  C   UNL     1      18.390  -3.958   2.620  1.00  0.00     0.031 C 
ATOM     43  C   UNL     1      16.038  -6.042  -1.306  1.00  0.00     0.029 A 
ATOM     44  N   UNL     1      18.111  -5.273  -1.641  1.00  0.00    -0.354 N 
ATOM     45  C   UNL     1      20.302  -3.327   1.532  1.00  0.00     0.074 A 
ATOM     46  C   UNL     1      19.522  -3.282   2.750  1.00  0.00     0.031 C 
ATOM     47  C   UNL     1      16.342  -6.254  -2.596  1.00  0.00     0.029 A 
ATOM     48  C   UNL     1      17.683  -5.739  -2.861  1.00  0.00     0.049 A 
ATOM     49  H   UNL     1      19.002  -4.880  -1.497  1.00  0.00     0.167 HD
ATOM     50  C   UNL     1      21.550  -2.816   1.403  1.00  0.00     0.037 A 
ATOM     51  C   UNL     1      18.294  -5.744  -4.062  1.00  0.00     0.037 A 
ATOM     52  C   UNL     1      22.329  -2.888   0.194  1.00  0.00     0.049 A 
ATOM     53  C   UNL     1      19.688  -5.193  -4.180  1.00  0.00     0.074 A 
ATOM     54  C   UNL     1      23.632  -2.472  -0.016  1.00  0.00     0.029 A 
ATOM     55  N   UNL     1      21.875  -3.402  -1.013  1.00  0.00    -0.354 N 
ATOM     56  N   UNL     1      20.433  -4.637  -3.254  1.00  0.00    -0.248 NA
ATOM     57  C   UNL     1      20.328  -5.277  -5.499  1.00  0.00     0.031 C 
ATOM     58  C   UNL     1      23.951  -2.692  -1.361  1.00  0.00     0.029 A 
ATOM     59  C   UNL     1      22.863  -3.291  -1.978  1.00  0.00     0.049 A 
ATOM     60  H   UNL     1      20.982  -3.788  -1.161  1.00  0.00     0.167 HD
ATOM     61  C   UNL     1      21.638  -4.322  -3.874  1.00  0.00     0.074 A 
ATOM     62  C   UNL     1      21.524  -4.760  -5.250  1.00  0.00     0.031 C 
ATOM     63  C   UNL     1      22.737  -3.728  -3.347  1.00  0.00     0.037 A 
BRANCH  50  64
ATOM     64  C   UNL     1      22.142  -2.127   2.602  1.00  0.00     0.058 A 
ATOM     65  C   UNL     1      22.513  -2.837   3.756  1.00  0.00     0.135 A 
ATOM     66  C   UNL     1      22.343  -0.737   2.599  1.00  0.00     0.135 A 
ATOM     67  F   UNL     1      22.333  -4.166   3.820  1.00  0.00    -0.206 F 
ATOM     68  C   UNL     1      23.016  -2.189   4.880  1.00  0.00     0.059 A 
ATOM     69  C   UNL     1      22.873  -0.071   3.700  1.00  0.00     0.059 A 
ATOM     70  F   UNL     1      22.011  -0.008   1.521  1.00  0.00    -0.206 F 
ATOM     71  C   UNL     1      23.184  -0.804   4.845  1.00  0.00     0.060 A 
BRANCH  71  72
ATOM     72  S   UNL     1      23.807   0.028   6.321  1.00  0.00     0.124 S 
ATOM     73  O   UNL     1      22.633  -0.002   7.188  1.00  0.00    -0.237 OA
ATOM     74  O   UNL     1      24.914  -0.834   6.725  1.00  0.00    -0.237 OA
ATOM     75  O   UNL     1      24.192   1.348   5.831  1.00  0.00    -0.744 OA
ENDBRANCH  71  72
ENDBRANCH  50  64
BRANCH  51  76
ATOM     76  C   UNL     1      17.589  -6.318  -5.238  1.00  0.00     0.058 A 
ATOM     77  C   UNL     1      17.962  -7.562  -5.766  1.00  0.00     0.135 A 
ATOM     78  C   UNL     1      16.492  -5.662  -5.819  1.00  0.00     0.135 A 
ATOM     79  F   UNL     1      19.008  -8.223  -5.248  1.00  0.00    -0.206 F 
ATOM     80  C   UNL     1      17.272  -8.139  -6.827  1.00  0.00     0.059 A 
ATOM     81  C   UNL     1      15.773  -6.229  -6.867  1.00  0.00     0.059 A 
ATOM     82  F   UNL     1      16.087  -4.476  -5.339  1.00  0.00    -0.206 F 
ATOM     83  C   UNL     1      16.172  -7.468  -7.365  1.00  0.00     0.060 A 
BRANCH  83  84
ATOM     84  S   UNL     1      15.233  -8.266  -8.686  1.00  0.00     0.124 S 
ATOM     85  O   UNL     1      16.141  -8.126  -9.818  1.00  0.00    -0.237 OA
ATOM     86  O   UNL     1      15.064  -9.619  -8.166  1.00  0.00    -0.237 OA
ATOM     87  O   UNL     1      14.010  -7.472  -8.754  1.00  0.00    -0.744 OA
ENDBRANCH  83  84
ENDBRANCH  51  76
BRANCH  63  88
ATOM     88  C   UNL     1      23.920  -3.531  -4.254  1.00  0.00     0.058 A 
ATOM     89  C   UNL     1      23.924  -2.551  -5.259  1.00  0.00     0.135 A 
ATOM     90  C   UNL     1      25.087  -4.293  -4.076  1.00  0.00     0.135 A 
ATOM     91  F   UNL     1      22.832  -1.801  -5.476  1.00  0.00    -0.206 F 
ATOM     92  C   UNL     1      25.038  -2.345  -6.068  1.00  0.00     0.059 A 
ATOM     93  C   UNL     1      26.220  -4.086  -4.856  1.00  0.00     0.059 A 
ATOM     94  F   UNL     1      25.139  -5.237  -3.123  1.00  0.00    -0.206 F 
ATOM     95  C   UNL     1      26.183  -3.116  -5.856  1.00  0.00     0.060 A 
BRANCH  95  96
ATOM     96  S   UNL     1      27.635  -2.810  -6.884  1.00  0.00     0.124 S 
ATOM     97  O   UNL     1      27.232  -3.413  -8.150  1.00  0.00    -0.237 OA
ATOM     98  O   UNL     1      27.724  -1.353  -6.876  1.00  0.00    -0.237 OA
ATOM     99  O   UNL     1      28.707  -3.500  -6.172  1.00  0.00    -0.744 OA
ENDBRANCH  95  96
ENDBRANCH  63  88
ENDBRANCH  37  38
ENDBRANCH  29  32
ENDBRANCH  27  28
ENDBRANCH  26  27
ENDBRANCH  25  26
ENDBRANCH   1  25
TORSDOF 20
