REMARK SMILES O=C(NCCCCNC(=O)c1cc(-c2ccc(F)c(C(F)(F)F)c2)cnc1O)c1ccc(-c2c3nc(c(-c4c(F)cc(S(=O)(=O)[O-])cc4F)c4ccc([nH]4)c(-c4c(F)cc(S(=O)(=O)[O-])cc4F)c4nc(c(-c5c(F)cc(S(=O)(=O)[O-])cc5F)c5ccc2[nH]5)C=C4)C=C3)cc1
REMARK SMILES IDX 5 1 4 2 3 3 1 4 2 5 29 7 30 8 94 9 31 10 93 11 32 12 33 13
REMARK SMILES IDX 34 14 87 15 35 16 92 17 86 18 88 19 36 20 91 21 85 22 84 23
REMARK SMILES IDX 37 25 71 26 50 27 70 28 51 29 54 30 69 31 89 32 52 33 53 34
REMARK SMILES IDX 68 36 90 37 55 38 38 39 39 40 48 41 40 42 41 43 47 44 49 45
REMARK SMILES IDX 42 46 43 47 44 48 45 49 46 50 72 51 73 52 82 53 74 54 75 55
REMARK SMILES IDX 81 56 83 57 76 58 77 59 78 60 79 61 80 62 56 63 57 64 66 65
REMARK SMILES IDX 58 66 59 67 65 68 67 69 60 70 61 71 62 72 63 73 64 74 6 75
REMARK SMILES IDX 7 76 8 77 9 78 10 80 11 81 12 82 27 83 13 84 26 85 25 86
REMARK SMILES IDX 28 87 14 89 15 90 24 91 16 92 19 93 17 94 18 95 20 96 21 97
REMARK SMILES IDX 22 98 23 99
REMARK H PARENT 3 6 88 24 54 35 8 79 28 88
REMARK Flexibility Score: inf
ROOT
ATOM      1  C   UNL     1       5.100  -0.573   2.434  1.00  0.00     0.023 C 
ENDROOT
BRANCH   1   2
ATOM      2  C   UNL     1       4.691  -0.727   0.973  1.00  0.00     0.116 C 
BRANCH   2   3
ATOM      3  N   UNL     1       3.250  -0.785   0.804  1.00  0.00    -0.352 N 
ATOM      4  O   UNL     1       1.209  -0.109   0.161  1.00  0.00    -0.269 OA
ATOM      5  C   UNL     1       2.426  -0.020   0.018  1.00  0.00     0.251 C 
ATOM      6  H   UNL     1       2.795  -1.479   1.335  1.00  0.00     0.163 HD
BRANCH   5   7
ATOM      7  C   UNL     1       2.986   0.908  -0.991  1.00  0.00     0.039 A 
ATOM      8  C   UNL     1       2.376   2.154  -1.168  1.00  0.00     0.014 A 
ATOM      9  C   UNL     1       4.055   0.532  -1.810  1.00  0.00     0.014 A 
ATOM     10  C   UNL     1       2.845   3.028  -2.152  1.00  0.00     0.010 A 
ATOM     11  C   UNL     1       4.564   1.429  -2.746  1.00  0.00     0.010 A 
ATOM     12  C   UNL     1       3.944   2.672  -2.947  1.00  0.00    -0.014 A 
BRANCH  12  13
ATOM     13  C   UNL     1       4.396   3.526  -4.074  1.00  0.00     0.031 A 
ATOM     14  C   UNL     1       4.220   3.032  -5.484  1.00  0.00     0.074 A 
ATOM     15  C   UNL     1       4.983   4.714  -3.844  1.00  0.00     0.049 A 
ATOM     16  N   UNL     1       4.656   3.544  -6.605  1.00  0.00    -0.248 NA
ATOM     17  C   UNL     1       3.468   1.777  -5.647  1.00  0.00     0.031 C 
ATOM     18  C   UNL     1       5.190   5.317  -2.527  1.00  0.00     0.029 A 
ATOM     19  N   UNL     1       5.514   5.628  -4.718  1.00  0.00    -0.354 N 
ATOM     20  C   UNL     1       4.244   2.670  -7.604  1.00  0.00     0.074 A 
ATOM     21  C   UNL     1       3.574   1.567  -6.950  1.00  0.00     0.031 C 
ATOM     22  C   UNL     1       5.778   6.515  -2.683  1.00  0.00     0.029 A 
ATOM     23  C   UNL     1       6.032   6.742  -4.104  1.00  0.00     0.049 A 
ATOM     24  H   UNL     1       5.524   5.497  -5.694  1.00  0.00     0.167 HD
ATOM     25  C   UNL     1       4.386   2.785  -8.947  1.00  0.00     0.037 A 
ATOM     26  C   UNL     1       6.647   7.819  -4.629  1.00  0.00     0.037 A 
ATOM     27  C   UNL     1       5.043   3.888  -9.596  1.00  0.00     0.049 A 
ATOM     28  C   UNL     1       6.855   7.899  -6.116  1.00  0.00     0.074 A 
ATOM     29  C   UNL     1       5.250   4.098 -10.948  1.00  0.00     0.029 A 
ATOM     30  N   UNL     1       5.596   4.977  -8.935  1.00  0.00    -0.354 N 
ATOM     31  N   UNL     1       6.494   7.047  -7.047  1.00  0.00    -0.248 NA
ATOM     32  C   UNL     1       7.562   9.082  -6.622  1.00  0.00     0.031 C 
ATOM     33  C   UNL     1       5.955   5.298 -11.102  1.00  0.00     0.029 A 
ATOM     34  C   UNL     1       6.152   5.857  -9.849  1.00  0.00     0.049 A 
ATOM     35  H   UNL     1       5.593   5.105  -7.959  1.00  0.00     0.167 HD
ATOM     36  C   UNL     1       6.918   7.598  -8.252  1.00  0.00     0.074 A 
ATOM     37  C   UNL     1       7.549   8.863  -7.930  1.00  0.00     0.031 C 
ATOM     38  C   UNL     1       6.796   7.102  -9.509  1.00  0.00     0.037 A 
BRANCH  25  39
ATOM     39  C   UNL     1       3.821   1.671  -9.785  1.00  0.00     0.058 A 
ATOM     40  C   UNL     1       2.435   1.475  -9.907  1.00  0.00     0.135 A 
ATOM     41  C   UNL     1       4.669   0.765 -10.441  1.00  0.00     0.135 A 
ATOM     42  F   UNL     1       1.578   2.300  -9.284  1.00  0.00    -0.206 F 
ATOM     43  C   UNL     1       1.911   0.390 -10.602  1.00  0.00     0.059 A 
ATOM     44  C   UNL     1       4.166  -0.312 -11.167  1.00  0.00     0.059 A 
ATOM     45  F   UNL     1       6.002   0.904 -10.359  1.00  0.00    -0.206 F 
ATOM     46  C   UNL     1       2.786  -0.505 -11.219  1.00  0.00     0.060 A 
BRANCH  46  47
ATOM     47  S   UNL     1       2.095  -1.938 -12.072  1.00  0.00     0.124 S 
ATOM     48  O   UNL     1       1.694  -2.778 -10.948  1.00  0.00    -0.237 OA
ATOM     49  O   UNL     1       1.005  -1.348 -12.842  1.00  0.00    -0.237 OA
ATOM     50  O   UNL     1       3.217  -2.437 -12.861  1.00  0.00    -0.744 OA
ENDBRANCH  46  47
ENDBRANCH  25  39
BRANCH  26  51
ATOM     51  C   UNL     1       7.074   8.924  -3.733  1.00  0.00     0.058 A 
ATOM     52  C   UNL     1       6.360  10.130  -3.704  1.00  0.00     0.135 A 
ATOM     53  C   UNL     1       8.155   8.780  -2.849  1.00  0.00     0.135 A 
ATOM     54  F   UNL     1       5.329  10.318  -4.541  1.00  0.00    -0.206 F 
ATOM     55  C   UNL     1       6.690  11.150  -2.819  1.00  0.00     0.059 A 
ATOM     56  C   UNL     1       8.492   9.778  -1.941  1.00  0.00     0.059 A 
ATOM     57  F   UNL     1       8.864   7.640  -2.835  1.00  0.00    -0.206 F 
ATOM     58  C   UNL     1       7.750  10.959  -1.931  1.00  0.00     0.060 A 
BRANCH  58  59
ATOM     59  S   UNL     1       8.097  12.249  -0.715  1.00  0.00     0.124 S 
ATOM     60  O   UNL     1       8.633  13.312  -1.556  1.00  0.00    -0.237 OA
ATOM     61  O   UNL     1       6.775  12.490  -0.144  1.00  0.00    -0.237 OA
ATOM     62  O   UNL     1       9.053  11.613   0.186  1.00  0.00    -0.744 OA
ENDBRANCH  58  59
ENDBRANCH  26  51
BRANCH  38  63
ATOM     63  C   UNL     1       7.355   7.936 -10.629  1.00  0.00     0.058 A 
ATOM     64  C   UNL     1       8.738   8.054 -10.837  1.00  0.00     0.135 A 
ATOM     65  C   UNL     1       6.499   8.606 -11.518  1.00  0.00     0.135 A 
ATOM     66  F   UNL     1       9.600   7.437 -10.013  1.00  0.00    -0.206 F 
ATOM     67  C   UNL     1       9.254   8.835 -11.866  1.00  0.00     0.059 A 
ATOM     68  C   UNL     1       6.992   9.373 -12.569  1.00  0.00     0.059 A 
ATOM     69  F   UNL     1       5.167   8.516 -11.371  1.00  0.00    -0.206 F 
ATOM     70  C   UNL     1       8.373   9.495 -12.724  1.00  0.00     0.060 A 
BRANCH  70  71
ATOM     71  S   UNL     1       9.055  10.504 -14.056  1.00  0.00     0.124 S 
ATOM     72  O   UNL     1       9.535  11.671 -13.324  1.00  0.00    -0.237 OA
ATOM     73  O   UNL     1      10.089   9.635 -14.610  1.00  0.00    -0.237 OA
ATOM     74  O   UNL     1       7.908  10.737 -14.928  1.00  0.00    -0.744 OA
ENDBRANCH  70  71
ENDBRANCH  38  63
ENDBRANCH  12  13
ENDBRANCH   5   7
ENDBRANCH   2   3
ENDBRANCH   1   2
BRANCH   1  75
ATOM     75  C   UNL     1       4.600  -1.670   3.377  1.00  0.00     0.023 C 
BRANCH  75  76
ATOM     76  C   UNL     1       4.899  -3.099   2.931  1.00  0.00     0.116 C 
BRANCH  76  77
ATOM     77  N   UNL     1       6.330  -3.355   2.824  1.00  0.00    -0.352 N 
ATOM     78  C   UNL     1       7.115  -4.179   3.587  1.00  0.00     0.256 C 
ATOM     79  H   UNL     1       6.796  -2.871   2.105  1.00  0.00     0.163 HD
ATOM     80  O   UNL     1       8.338  -4.149   3.494  1.00  0.00    -0.269 OA
BRANCH  78  81
ATOM     81  C   UNL     1       6.489  -5.118   4.522  1.00  0.00     0.102 A 
ATOM     82  C   UNL     1       6.827  -5.040   5.876  1.00  0.00     0.029 A 
ATOM     83  C   UNL     1       5.594  -6.097   4.109  1.00  0.00     0.223 A 
ATOM     84  C   UNL     1       6.225  -5.907   6.793  1.00  0.00     0.001 A 
ATOM     85  N   UNL     1       4.978  -6.934   4.963  1.00  0.00    -0.221 NA
ATOM     86  C   UNL     1       5.301  -6.817   6.274  1.00  0.00     0.124 A 
BRANCH  83  87
ATOM     87  O   UNL     1       5.243  -6.295   2.805  1.00  0.00    -0.493 OA
ATOM     88  H   UNL     1       5.619  -5.762   2.133  1.00  0.00     0.295 HD
ENDBRANCH  83  87
BRANCH  84  89
ATOM     89  C   UNL     1       6.545  -5.871   8.224  1.00  0.00    -0.016 A 
ATOM     90  C   UNL     1       6.995  -7.026   8.884  1.00  0.00     0.012 A 
ATOM     91  C   UNL     1       6.401  -4.689   8.974  1.00  0.00     0.025 A 
ATOM     92  C   UNL     1       7.283  -7.005  10.249  1.00  0.00     0.040 A 
ATOM     93  C   UNL     1       6.686  -4.659  10.351  1.00  0.00     0.092 A 
ATOM     94  C   UNL     1       7.122  -5.827  10.969  1.00  0.00     0.135 A 
ATOM     95  F   UNL     1       7.390  -5.831  12.281  1.00  0.00    -0.206 F 
BRANCH  93  96
ATOM     96  C   UNL     1       6.511  -3.419  11.174  1.00  0.00     0.419 C 
ATOM     97  F   UNL     1       5.520  -3.539  12.100  1.00  0.00    -0.166 F 
ATOM     98  F   UNL     1       7.634  -3.068  11.859  1.00  0.00    -0.166 F 
ATOM     99  F   UNL     1       6.183  -2.326  10.427  1.00  0.00    -0.166 F 
ENDBRANCH  93  96
ENDBRANCH  84  89
ENDBRANCH  78  81
ENDBRANCH  76  77
ENDBRANCH  75  76
ENDBRANCH   1  75
TORSDOF 17
