REMARK SMILES C[C@]12CC[C@@H]3[C@@H](CCC4=C/C(=N\OCC(=O)N5CCC[C@@H]5C(=O)NCCCCNC(=O)c5ccc(-c6c7nc(c(-c8c(F)cc(S(=O)(=O)[O-])cc8F)c8ccc([nH]8)c(-c8c(F)cc(S(=O)(=O)[O-])cc8F)c8nc(c(-c9c(F)cc(S(=O)(=O)[O-])cc9F)c9ccc6[nH]9)C=C8)C=C7)cc5)CC[C@@]43C)[C@@H]1CC[C@@H]2O
REMARK SMILES IDX 25 1 24 2 22 3 23 4 21 6 17 7 18 8 19 9 20 10 15 11 16 12
REMARK SMILES IDX 14 13 13 14 12 15 1 16 2 17 3 18 102 19 105 20 4 21 6 22
REMARK SMILES IDX 103 23 104 24 5 25 7 26 100 27 8 28 9 29 99 30 101 31 10 32
REMARK SMILES IDX 98 33 11 34 106 35 26 37 27 38 28 39 29 40 30 41 31 43 32 44
REMARK SMILES IDX 33 45 97 46 34 47 96 48 35 49 36 50 37 51 90 52 38 53 95 54
REMARK SMILES IDX 89 55 91 56 39 57 94 58 88 59 87 60 40 62 74 63 53 64 73 65
REMARK SMILES IDX 54 66 57 67 72 68 92 69 55 70 56 71 71 73 93 74 58 75 41 76
REMARK SMILES IDX 42 77 51 78 43 79 44 80 50 81 52 82 45 83 46 84 47 85 48 86
REMARK SMILES IDX 49 87 75 88 76 89 85 90 77 91 78 92 84 93 86 94 79 95 80 96
REMARK SMILES IDX 81 97 82 98 83 99 59 100 60 101 69 102 61 103 62 104 68 105
REMARK SMILES IDX 70 106 63 107 64 108 65 109 66 110 67 111
REMARK H PARENT 24 5 106 36 29 42 91 61 57 72
REMARK Flexibility Score: inf
ROOT
ATOM      1  C   UNL     1      -5.174  -7.800  -1.178  1.00  0.00     0.116 C 
ENDROOT
BRANCH   1   2
ATOM      2  N   UNL     1      -4.903  -7.817   0.239  1.00  0.00    -0.354 N 
ATOM      3  C   UNL     1      -3.795  -8.300   0.869  1.00  0.00     0.242 C 
ATOM      4  O   UNL     1      -3.472  -7.731   1.920  1.00  0.00    -0.273 OA
ATOM      5  H   UNL     1      -5.601  -7.435   0.819  1.00  0.00     0.163 HD
BRANCH   3   6
ATOM      6  C   UNL     1      -2.967  -9.527   0.371  1.00  0.00     0.174 C 
ATOM      7  N   UNL     1      -3.468 -10.391  -0.705  1.00  0.00    -0.328 N 
ATOM      8  C   UNL     1      -4.279 -11.473  -0.156  1.00  0.00     0.120 C 
ATOM      9  C   UNL     1      -4.240 -11.289   1.352  1.00  0.00     0.024 C 
ATOM     10  C   UNL     1      -2.939 -10.519   1.554  1.00  0.00     0.037 C 
BRANCH   7  11
ATOM     11  C   UNL     1      -3.143 -10.415  -2.044  1.00  0.00     0.264 C 
ATOM     12  O   UNL     1      -3.624 -11.297  -2.771  1.00  0.00    -0.271 OA
BRANCH  11  13
ATOM     13  C   UNL     1      -2.226  -9.359  -2.704  1.00  0.00     0.363 C 
BRANCH  13  14
ATOM     14  O   UNL     1      -1.541  -8.350  -1.986  1.00  0.00    -0.385 OA
BRANCH  14  15
ATOM     15  N   UNL     1      -2.329  -7.199  -2.009  1.00  0.00    -0.091 NA
ATOM     16  C   UNL     1       0.286   0.938   0.031  1.00  0.00     0.014 C 
ATOM     17  C   UNL     1      -0.120  -0.295  -0.825  1.00  0.00    -0.003 C 
ATOM     18  C   UNL     1      -1.531  -0.675  -0.379  1.00  0.00     0.010 C 
ATOM     19  C   UNL     1       0.861  -1.497  -0.778  1.00  0.00     0.001 C 
ATOM     20  C   UNL     1       0.034   0.000  -2.329  1.00  0.00     0.120 C 
ATOM     21  C   UNL     1      -1.510  -1.461   0.945  1.00  0.00     0.005 C 
ATOM     22  C   UNL     1       0.909  -2.196   0.575  1.00  0.00    -0.003 C 
ATOM     23  C   UNL     1       2.125  -0.904  -1.415  1.00  0.00     0.007 C 
ATOM     24  C   UNL     1       1.565   0.065  -2.491  1.00  0.00     0.032 C 
ATOM     25  C   UNL     1      -0.515  -2.648   0.985  1.00  0.00     0.002 C 
ATOM     26  C   UNL     1       1.859  -3.393   0.682  1.00  0.00     0.008 C 
ATOM     27  C   UNL     1      -1.066  -3.968   0.296  1.00  0.00    -0.008 C 
ATOM     28  C   UNL     1       1.460  -4.630  -0.120  1.00  0.00     0.032 C 
ATOM     29  C   UNL     1      -0.011  -4.926  -0.272  1.00  0.00    -0.062 C 
ATOM     30  C   UNL     1      -2.021  -3.689  -0.890  1.00  0.00     0.018 C 
ATOM     31  C   UNL     1      -1.860  -4.706   1.414  1.00  0.00     0.016 C 
ATOM     32  C   UNL     1      -0.364  -5.976  -1.051  1.00  0.00     0.027 C 
ATOM     33  C   UNL     1      -2.673  -4.925  -1.472  1.00  0.00     0.061 C 
ATOM     34  C   UNL     1      -1.769  -6.140  -1.520  1.00  0.00     0.080 C 
BRANCH  20  35
ATOM     35  O   UNL     1      -0.623   1.170  -2.746  1.00  0.00    -0.393 OA
ATOM     36  H   UNL     1      -0.285   1.928  -2.243  1.00  0.00     0.210 HD
ENDBRANCH  20  35
ENDBRANCH  14  15
ENDBRANCH  13  14
ENDBRANCH  11  13
ENDBRANCH   7  11
ENDBRANCH   3   6
ENDBRANCH   1   2
BRANCH   1  37
ATOM     37  C   UNL     1      -6.646  -7.830  -1.555  1.00  0.00     0.023 C 
BRANCH  37  38
ATOM     38  C   UNL     1      -7.197  -6.471  -1.989  1.00  0.00     0.023 C 
BRANCH  38  39
ATOM     39  C   UNL     1      -6.444  -5.749  -3.108  1.00  0.00     0.116 C 
BRANCH  39  40
ATOM     40  N   UNL     1      -6.440  -6.440  -4.388  1.00  0.00    -0.352 N 
ATOM     41  C   UNL     1      -6.652  -5.893  -5.637  1.00  0.00     0.251 C 
ATOM     42  H   UNL     1      -6.266  -7.409  -4.361  1.00  0.00     0.163 HD
ATOM     43  O   UNL     1      -6.652  -6.594  -6.644  1.00  0.00    -0.269 OA
BRANCH  41  44
ATOM     44  C   UNL     1      -6.938  -4.446  -5.734  1.00  0.00     0.039 A 
ATOM     45  C   UNL     1      -8.156  -4.037  -6.280  1.00  0.00     0.014 A 
ATOM     46  C   UNL     1      -6.062  -3.512  -5.171  1.00  0.00     0.014 A 
ATOM     47  C   UNL     1      -8.540  -2.699  -6.177  1.00  0.00     0.010 A 
ATOM     48  C   UNL     1      -6.482  -2.195  -5.002  1.00  0.00     0.010 A 
ATOM     49  C   UNL     1      -7.731  -1.776  -5.491  1.00  0.00    -0.014 A 
BRANCH  49  50
ATOM     50  C   UNL     1      -8.191  -0.381  -5.254  1.00  0.00     0.031 A 
ATOM     51  C   UNL     1      -7.433   0.778  -5.840  1.00  0.00     0.074 A 
ATOM     52  C   UNL     1      -9.259  -0.153  -4.462  1.00  0.00     0.049 A 
ATOM     53  N   UNL     1      -7.657   2.060  -5.715  1.00  0.00    -0.248 NA
ATOM     54  C   UNL     1      -6.249   0.452  -6.650  1.00  0.00     0.031 C 
ATOM     55  C   UNL     1     -10.050  -1.185  -3.788  1.00  0.00     0.029 A 
ATOM     56  N   UNL     1      -9.862   1.022  -4.085  1.00  0.00    -0.354 N 
ATOM     57  C   UNL     1      -6.641   2.694  -6.420  1.00  0.00     0.074 A 
ATOM     58  C   UNL     1      -5.764   1.655  -6.917  1.00  0.00     0.031 C 
ATOM     59  C   UNL     1     -11.051  -0.602  -3.110  1.00  0.00     0.029 A 
ATOM     60  C   UNL     1     -10.955   0.847  -3.267  1.00  0.00     0.049 A 
ATOM     61  H   UNL     1      -9.543   1.908  -4.373  1.00  0.00     0.167 HD
ATOM     62  C   UNL     1      -6.468   4.016  -6.658  1.00  0.00     0.037 A 
ATOM     63  C   UNL     1     -11.785   1.748  -2.706  1.00  0.00     0.037 A 
ATOM     64  C   UNL     1      -7.353   5.045  -6.176  1.00  0.00     0.049 A 
ATOM     65  C   UNL     1     -11.570   3.213  -2.974  1.00  0.00     0.074 A 
ATOM     66  C   UNL     1      -7.296   6.408  -6.410  1.00  0.00     0.029 A 
ATOM     67  N   UNL     1      -8.451   4.827  -5.356  1.00  0.00    -0.354 N 
ATOM     68  N   UNL     1     -10.645   3.790  -3.703  1.00  0.00    -0.248 NA
ATOM     69  C   UNL     1     -12.514   4.150  -2.349  1.00  0.00     0.031 C 
ATOM     70  C   UNL     1      -8.331   7.019  -5.693  1.00  0.00     0.029 A 
ATOM     71  C   UNL     1      -9.065   6.032  -5.054  1.00  0.00     0.049 A 
ATOM     72  H   UNL     1      -8.750   3.945  -5.036  1.00  0.00     0.167 HD
ATOM     73  C   UNL     1     -10.910   5.154  -3.646  1.00  0.00     0.074 A 
ATOM     74  C   UNL     1     -12.089   5.315  -2.819  1.00  0.00     0.031 C 
ATOM     75  C   UNL     1     -10.240   6.179  -4.230  1.00  0.00     0.037 A 
BRANCH  62  76
ATOM     76  C   UNL     1      -5.269   4.418  -7.475  1.00  0.00     0.058 A 
ATOM     77  C   UNL     1      -5.170   4.107  -8.841  1.00  0.00     0.135 A 
ATOM     78  C   UNL     1      -4.206   5.121  -6.886  1.00  0.00     0.135 A 
ATOM     79  F   UNL     1      -6.151   3.425  -9.453  1.00  0.00    -0.206 F 
ATOM     80  C   UNL     1      -4.038   4.432  -9.582  1.00  0.00     0.059 A 
ATOM     81  C   UNL     1      -3.077   5.485  -7.616  1.00  0.00     0.059 A 
ATOM     82  F   UNL     1      -4.249   5.450  -5.586  1.00  0.00    -0.206 F 
ATOM     83  C   UNL     1      -2.993   5.115  -8.958  1.00  0.00     0.060 A 
BRANCH  83  84
ATOM     84  S   UNL     1      -1.518   5.500  -9.924  1.00  0.00     0.124 S 
ATOM     85  O   UNL     1      -0.888   4.186 -10.023  1.00  0.00    -0.237 OA
ATOM     86  O   UNL     1      -2.083   6.026 -11.162  1.00  0.00    -0.237 OA
ATOM     87  O   UNL     1      -0.813   6.473  -9.096  1.00  0.00    -0.744 OA
ENDBRANCH  83  84
ENDBRANCH  62  76
BRANCH  63  88
ATOM     88  C   UNL     1     -12.921   1.284  -1.865  1.00  0.00     0.058 A 
ATOM     89  C   UNL     1     -14.243   1.375  -2.326  1.00  0.00     0.135 A 
ATOM     90  C   UNL     1     -12.710   0.713  -0.600  1.00  0.00     0.135 A 
ATOM     91  F   UNL     1     -14.498   1.922  -3.525  1.00  0.00    -0.206 F 
ATOM     92  C   UNL     1     -15.315   0.922  -1.565  1.00  0.00     0.059 A 
ATOM     93  C   UNL     1     -13.764   0.230   0.170  1.00  0.00     0.059 A 
ATOM     94  F   UNL     1     -11.463   0.589  -0.118  1.00  0.00    -0.206 F 
ATOM     95  C   UNL     1     -15.064   0.343  -0.319  1.00  0.00     0.060 A 
BRANCH  95  96
ATOM     96  S   UNL     1     -16.457  -0.308   0.628  1.00  0.00     0.124 S 
ATOM     97  O   UNL     1     -17.113   0.917   1.069  1.00  0.00    -0.237 OA
ATOM     98  O   UNL     1     -17.172  -1.089  -0.377  1.00  0.00    -0.237 OA
ATOM     99  O   UNL     1     -15.812  -1.093   1.677  1.00  0.00    -0.744 OA
ENDBRANCH  95  96
ENDBRANCH  63  88
BRANCH  75 100
ATOM    100  C   UNL     1     -10.779   7.569  -4.022  1.00  0.00     0.058 A 
ATOM    101  C   UNL     1     -10.661   8.231  -2.791  1.00  0.00     0.135 A 
ATOM    102  C   UNL     1     -11.370   8.267  -5.088  1.00  0.00     0.135 A 
ATOM    103  F   UNL     1     -10.111   7.607  -1.737  1.00  0.00    -0.206 F 
ATOM    104  C   UNL     1     -11.129   9.530  -2.617  1.00  0.00     0.059 A 
ATOM    105  C   UNL     1     -11.820   9.576  -4.944  1.00  0.00     0.059 A 
ATOM    106  F   UNL     1     -11.499   7.684  -6.290  1.00  0.00    -0.206 F 
ATOM    107  C   UNL     1     -11.705  10.196  -3.701  1.00  0.00     0.060 A 
BRANCH 107 108
ATOM    108  S   UNL     1     -12.274  11.894  -3.472  1.00  0.00     0.124 S 
ATOM    109  O   UNL     1     -13.486  11.694  -2.685  1.00  0.00    -0.237 OA
ATOM    110  O   UNL     1     -11.152  12.507  -2.767  1.00  0.00    -0.237 OA
ATOM    111  O   UNL     1     -12.483  12.369  -4.837  1.00  0.00    -0.744 OA
ENDBRANCH 107 108
ENDBRANCH  75 100
ENDBRANCH  49  50
ENDBRANCH  41  44
ENDBRANCH  39  40
ENDBRANCH  38  39
ENDBRANCH  37  38
ENDBRANCH   1  37
TORSDOF 19
