REMARK SMILES CCC(CC)(CC(=O)NNC(=O)C1CC1)C(=O)NCCCCNC(=O)c1ccc(-c2c3nc(c(-c4c(F)cc(S(=O)(=O)[O-])cc4F)c4ccc([nH]4)c(-c4c(F)cc(S(=O)(=O)[O-])cc4F)c4nc(c(-c5c(F)cc(S(=O)(=O)[O-])cc5F)c5ccc2[nH]5)C=C4)C=C3)cc1
REMARK SMILES IDX 20 1 19 2 18 3 16 4 17 5 3 7 2 8 1 9 4 10 5 11 6 12 7 13
REMARK SMILES IDX 8 14 9 15 10 17 11 18 12 20 13 21 14 22 15 23 21 24 22 25
REMARK SMILES IDX 23 26 24 27 25 29 26 30 27 31 91 32 28 33 90 34 29 35 30 36
REMARK SMILES IDX 31 37 84 38 32 39 89 40 83 41 85 42 33 43 88 44 82 45 81 46
REMARK SMILES IDX 34 48 68 49 47 50 67 51 48 52 51 53 66 54 86 55 49 56 50 57
REMARK SMILES IDX 65 59 87 60 52 61 35 62 36 63 45 64 37 65 38 66 44 67 46 68
REMARK SMILES IDX 39 69 40 70 41 71 42 72 43 73 69 74 70 75 79 76 71 77 72 78
REMARK SMILES IDX 78 79 80 80 73 81 74 82 75 83 76 84 77 85 53 86 54 87 63 88
REMARK SMILES IDX 55 89 56 90 62 91 64 92 57 93 58 94 59 95 60 96 61 97
REMARK H PARENT 18 6 9 16 10 19 23 28 85 47 51 58
REMARK Flexibility Score: inf
ROOT
ATOM      1  C   UNL     1       2.815   3.652   4.952  1.00  0.00     0.023 C 
ENDROOT
BRANCH   1   2
ATOM      2  C   UNL     1       2.392   3.634   3.486  1.00  0.00     0.116 C 
BRANCH   2   3
ATOM      3  N   UNL     1       2.959   2.516   2.755  1.00  0.00    -0.356 N 
ATOM      4  C   UNL     1       2.416   1.491   2.046  1.00  0.00     0.226 C 
ATOM      5  O   UNL     1       3.219   0.678   1.577  1.00  0.00    -0.274 OA
ATOM      6  H   UNL     1       3.943   2.495   2.777  1.00  0.00     0.163 HD
BRANCH   4   7
ATOM      7  C   UNL     1       0.890   1.324   1.831  1.00  0.00     0.057 C 
BRANCH   7   8
ATOM      8  C   UNL     1       0.638   0.061   0.929  1.00  0.00     0.014 C 
ATOM      9  C   UNL     1       1.047   0.161  -0.539  1.00  0.00     0.005 C 
ENDBRANCH   7   8
BRANCH   7  10
ATOM     10  C   UNL     1       0.310   2.588   1.122  1.00  0.00     0.014 C 
ATOM     11  C   UNL     1      -1.210   2.645   1.023  1.00  0.00     0.005 C 
ENDBRANCH   7  10
BRANCH   7  12
ATOM     12  C   UNL     1       0.202   1.062   3.201  1.00  0.00     0.118 C 
BRANCH  12  13
ATOM     13  C   UNL     1       0.826  -0.053   4.033  1.00  0.00     0.239 C 
ATOM     14  O   UNL     1       1.779   0.168   4.779  1.00  0.00    -0.273 OA
ATOM     15  N   UNL     1       0.294  -1.318   3.984  1.00  0.00    -0.268 N 
ATOM     16  H   UNL     1       0.718  -2.012   4.538  1.00  0.00     0.191 HD
BRANCH  15  17
ATOM     17  N   UNL     1      -0.798  -1.690   3.209  1.00  0.00    -0.267 N 
ATOM     18  C   UNL     1      -0.971  -2.939   2.661  1.00  0.00     0.241 C 
ATOM     19  H   UNL     1      -1.494  -1.015   3.042  1.00  0.00     0.191 HD
ATOM     20  O   UNL     1      -1.881  -3.149   1.860  1.00  0.00    -0.273 OA
BRANCH  18  21
ATOM     21  C   UNL     1      -0.063  -4.033   3.096  1.00  0.00     0.080 C 
ATOM     22  C   UNL     1      -0.077  -5.356   2.360  1.00  0.00     0.014 C 
ATOM     23  C   UNL     1       1.115  -4.453   2.251  1.00  0.00     0.014 C 
ENDBRANCH  18  21
ENDBRANCH  15  17
ENDBRANCH  12  13
ENDBRANCH   7  12
ENDBRANCH   4   7
ENDBRANCH   2   3
ENDBRANCH   1   2
BRANCH   1  24
ATOM     24  C   UNL     1       4.309   3.863   5.198  1.00  0.00     0.023 C 
BRANCH  24  25
ATOM     25  C   UNL     1       4.919   5.089   4.527  1.00  0.00     0.116 C 
BRANCH  25  26
ATOM     26  N   UNL     1       4.258   6.333   4.893  1.00  0.00    -0.352 N 
ATOM     27  C   UNL     1       4.813   7.534   5.265  1.00  0.00     0.251 C 
ATOM     28  H   UNL     1       3.273   6.311   4.870  1.00  0.00     0.163 HD
ATOM     29  O   UNL     1       4.092   8.449   5.650  1.00  0.00    -0.269 OA
BRANCH  27  30
ATOM     30  C   UNL     1       6.282   7.703   5.235  1.00  0.00     0.039 A 
ATOM     31  C   UNL     1       6.922   8.241   6.354  1.00  0.00     0.014 A 
ATOM     32  C   UNL     1       7.026   7.308   4.120  1.00  0.00     0.014 A 
ATOM     33  C   UNL     1       8.316   8.312   6.385  1.00  0.00     0.010 A 
ATOM     34  C   UNL     1       8.417   7.317   4.179  1.00  0.00     0.010 A 
ATOM     35  C   UNL     1       9.076   7.814   5.314  1.00  0.00    -0.014 A 
BRANCH  35  36
ATOM     36  C   UNL     1      10.561   7.791   5.366  1.00  0.00     0.031 A 
ATOM     37  C   UNL     1      11.363   8.612   4.394  1.00  0.00     0.074 A 
ATOM     38  C   UNL     1      11.184   6.974   6.238  1.00  0.00     0.049 A 
ATOM     39  N   UNL     1      12.659   8.661   4.228  1.00  0.00    -0.248 NA
ATOM     40  C   UNL     1      10.607   9.470   3.467  1.00  0.00     0.031 C 
ATOM     41  C   UNL     1      10.516   6.090   7.196  1.00  0.00     0.029 A 
ATOM     42  N   UNL     1      12.520   6.742   6.451  1.00  0.00    -0.354 N 
ATOM     43  C   UNL     1      12.873   9.534   3.168  1.00  0.00     0.074 A 
ATOM     44  C   UNL     1      11.571   9.959   2.702  1.00  0.00     0.031 C 
ATOM     45  C   UNL     1      11.445   5.429   7.907  1.00  0.00     0.029 A 
ATOM     46  C   UNL     1      12.771   5.814   7.434  1.00  0.00     0.049 A 
ATOM     47  H   UNL     1      13.232   7.198   5.947  1.00  0.00     0.167 HD
ATOM     48  C   UNL     1      14.049   9.957   2.644  1.00  0.00     0.037 A 
ATOM     49  C   UNL     1      13.937   5.325   7.899  1.00  0.00     0.037 A 
ATOM     50  C   UNL     1      15.342   9.560   3.136  1.00  0.00     0.049 A 
ATOM     51  C   UNL     1      15.229   5.825   7.313  1.00  0.00     0.074 A 
ATOM     52  C   UNL     1      16.590   9.990   2.719  1.00  0.00     0.029 A 
ATOM     53  N   UNL     1      15.554   8.642   4.154  1.00  0.00    -0.354 N 
ATOM     54  N   UNL     1      15.413   6.701   6.354  1.00  0.00    -0.248 NA
ATOM     55  C   UNL     1      16.471   5.276   7.874  1.00  0.00     0.031 C 
ATOM     56  C   UNL     1      17.558   9.306   3.463  1.00  0.00     0.029 A 
ATOM     57  C   UNL     1      16.912   8.480   4.369  1.00  0.00     0.049 A 
ATOM     58  H   UNL     1      14.844   8.175   4.650  1.00  0.00     0.167 HD
ATOM     59  C   UNL     1      16.791   6.827   6.215  1.00  0.00     0.074 A 
ATOM     60  C   UNL     1      17.392   5.945   7.194  1.00  0.00     0.031 C 
ATOM     61  C   UNL     1      17.494   7.605   5.355  1.00  0.00     0.037 A 
BRANCH  48  62
ATOM     62  C   UNL     1      13.989  10.908   1.481  1.00  0.00     0.058 A 
ATOM     63  C   UNL     1      13.586  12.243   1.641  1.00  0.00     0.135 A 
ATOM     64  C   UNL     1      14.369  10.489   0.196  1.00  0.00     0.135 A 
ATOM     65  F   UNL     1      13.197  12.692   2.846  1.00  0.00    -0.206 F 
ATOM     66  C   UNL     1      13.534  13.122   0.565  1.00  0.00     0.059 A 
ATOM     67  C   UNL     1      14.349  11.358  -0.892  1.00  0.00     0.059 A 
ATOM     68  F   UNL     1      14.762   9.223  -0.014  1.00  0.00    -0.206 F 
ATOM     69  C   UNL     1      13.915  12.669  -0.699  1.00  0.00     0.060 A 
BRANCH  69  70
ATOM     70  S   UNL     1      13.845  13.821  -2.087  1.00  0.00     0.124 S 
ATOM     71  O   UNL     1      12.408  13.882  -2.341  1.00  0.00    -0.237 OA
ATOM     72  O   UNL     1      14.440  15.029  -1.523  1.00  0.00    -0.237 OA
ATOM     73  O   UNL     1      14.636  13.159  -3.119  1.00  0.00    -0.744 OA
ENDBRANCH  69  70
ENDBRANCH  48  62
BRANCH  49  74
ATOM     74  C   UNL     1      13.938   4.324   8.998  1.00  0.00     0.058 A 
ATOM     75  C   UNL     1      14.355   4.679  10.290  1.00  0.00     0.135 A 
ATOM     76  C   UNL     1      13.517   3.003   8.786  1.00  0.00     0.135 A 
ATOM     77  F   UNL     1      14.773   5.929  10.539  1.00  0.00    -0.206 F 
ATOM     78  C   UNL     1      14.371   3.756  11.330  1.00  0.00     0.059 A 
ATOM     79  C   UNL     1      13.503   2.067   9.816  1.00  0.00     0.059 A 
ATOM     80  F   UNL     1      13.094   2.619   7.572  1.00  0.00    -0.206 F 
ATOM     81  C   UNL     1      13.942   2.451  11.083  1.00  0.00     0.060 A 
BRANCH  81  82
ATOM     82  S   UNL     1      13.923   1.271  12.450  1.00  0.00     0.124 S 
ATOM     83  O   UNL     1      15.340   0.958  12.588  1.00  0.00    -0.237 OA
ATOM     84  O   UNL     1      13.335   2.059  13.529  1.00  0.00    -0.237 OA
ATOM     85  O   UNL     1      13.082   0.189  11.946  1.00  0.00    -0.744 OA
ENDBRANCH  81  82
ENDBRANCH  49  74
BRANCH  61  86
ATOM     86  C   UNL     1      18.993   7.566   5.457  1.00  0.00     0.058 A 
ATOM     87  C   UNL     1      19.734   6.474   4.979  1.00  0.00     0.135 A 
ATOM     88  C   UNL     1      19.697   8.657   5.990  1.00  0.00     0.135 A 
ATOM     89  F   UNL     1      19.107   5.404   4.467  1.00  0.00    -0.206 F 
ATOM     90  C   UNL     1      21.124   6.458   5.045  1.00  0.00     0.059 A 
ATOM     91  C   UNL     1      21.087   8.672   6.044  1.00  0.00     0.059 A 
ATOM     92  F   UNL     1      19.034   9.729   6.452  1.00  0.00    -0.206 F 
ATOM     93  C   UNL     1      21.791   7.562   5.579  1.00  0.00     0.060 A 
BRANCH  93  94
ATOM     94  S   UNL     1      23.596   7.546   5.625  1.00  0.00     0.124 S 
ATOM     95  O   UNL     1      23.853   6.657   6.753  1.00  0.00    -0.237 OA
ATOM     96  O   UNL     1      23.940   7.017   4.309  1.00  0.00    -0.237 OA
ATOM     97  O   UNL     1      23.942   8.948   5.839  1.00  0.00    -0.744 OA
ENDBRANCH  93  94
ENDBRANCH  61  86
ENDBRANCH  35  36
ENDBRANCH  27  30
ENDBRANCH  25  26
ENDBRANCH  24  25
ENDBRANCH   1  24
TORSDOF 20
