REMARK SMILES O=C(NCCCCNC(=O)[C@H]1Cc2c([nH]c3ccccc23)[C@H](c2c[nH]c3ccccc23)[NH2+]1)c1ccc(-c2c3nc(c(-c4c(F)cc(S(=O)(=O)[O-])cc4F)c4ccc([nH]4)c(-c4c(F)cc(S(=O)(=O)[O-])cc4F)c4nc(c(-c5c(F)cc(S(=O)(=O)[O-])cc5F)c5ccc2[nH]5)C=C4)C=C3)cc1
REMARK SMILES IDX 4 1 3 2 1 3 2 4 33 6 34 7 98 8 35 9 97 10 36 11 37 12 38 13
REMARK SMILES IDX 91 14 39 15 96 16 90 17 92 18 40 19 95 20 89 21 88 22 41 24
REMARK SMILES IDX 75 25 54 26 74 27 55 28 58 29 73 30 93 31 56 32 57 33 72 35
REMARK SMILES IDX 94 36 59 37 42 38 43 39 52 40 44 41 45 42 51 43 53 44 46 45
REMARK SMILES IDX 47 46 48 47 49 48 50 49 76 50 77 51 86 52 78 53 79 54 85 55
REMARK SMILES IDX 87 56 80 57 81 58 82 59 83 60 84 61 60 62 61 63 70 64 62 65
REMARK SMILES IDX 63 66 69 67 71 68 64 69 65 70 66 71 67 72 68 73 5 74 6 75
REMARK SMILES IDX 7 76 8 77 9 78 10 80 11 81 12 82 32 83 13 84 22 85 14 88
REMARK SMILES IDX 21 89 15 90 16 91 20 92 17 94 19 95 18 96 23 97 24 98 31 99
REMARK SMILES IDX 25 100 26 101 30 102 27 104 29 105 28 106
REMARK H PARENT 3 5 92 23 58 34 8 79 32 86 32 87 15 93 25 103
REMARK Flexibility Score: inf
ROOT
ATOM      1  C   UNL     1       4.651   0.644   0.991  1.00  0.00     0.116 C 
ENDROOT
BRANCH   1   2
ATOM      2  N   UNL     1       3.219   0.385   0.974  1.00  0.00    -0.352 N 
ATOM      3  O   UNL     1       1.217  -0.110   0.058  1.00  0.00    -0.269 OA
ATOM      4  C   UNL     1       2.440  -0.105  -0.045  1.00  0.00     0.251 C 
ATOM      5  H   UNL     1       2.742   0.590   1.811  1.00  0.00     0.163 HD
BRANCH   4   6
ATOM      6  C   UNL     1       3.089  -0.604  -1.275  1.00  0.00     0.039 A 
ATOM      7  C   UNL     1       4.180  -1.473  -1.192  1.00  0.00     0.014 A 
ATOM      8  C   UNL     1       2.610  -0.187  -2.519  1.00  0.00     0.014 A 
ATOM      9  C   UNL     1       4.877  -1.814  -2.344  1.00  0.00     0.010 A 
ATOM     10  C   UNL     1       3.261  -0.601  -3.683  1.00  0.00     0.010 A 
ATOM     11  C   UNL     1       4.414  -1.398  -3.602  1.00  0.00    -0.014 A 
BRANCH  11  12
ATOM     12  C   UNL     1       5.098  -1.884  -4.825  1.00  0.00     0.031 A 
ATOM     13  C   UNL     1       5.808  -0.938  -5.751  1.00  0.00     0.074 A 
ATOM     14  C   UNL     1       5.067  -3.205  -5.088  1.00  0.00     0.049 A 
ATOM     15  N   UNL     1       6.428  -1.200  -6.873  1.00  0.00    -0.248 NA
ATOM     16  C   UNL     1       5.819   0.486  -5.380  1.00  0.00     0.031 C 
ATOM     17  C   UNL     1       4.389  -4.210  -4.262  1.00  0.00     0.029 A 
ATOM     18  N   UNL     1       5.615  -3.933  -6.111  1.00  0.00    -0.354 N 
ATOM     19  C   UNL     1       6.880   0.022  -7.356  1.00  0.00     0.074 A 
ATOM     20  C   UNL     1       6.454   1.031  -6.410  1.00  0.00     0.031 C 
ATOM     21  C   UNL     1       4.583  -5.424  -4.797  1.00  0.00     0.029 A 
ATOM     22  C   UNL     1       5.342  -5.278  -6.033  1.00  0.00     0.049 A 
ATOM     23  H   UNL     1       6.151  -3.532  -6.832  1.00  0.00     0.167 HD
ATOM     24  C   UNL     1       7.587   0.271  -8.485  1.00  0.00     0.037 A 
ATOM     25  C   UNL     1       5.640  -6.282  -6.877  1.00  0.00     0.037 A 
ATOM     26  C   UNL     1       8.028  -0.750  -9.402  1.00  0.00     0.049 A 
ATOM     27  C   UNL     1       6.410  -5.974  -8.127  1.00  0.00     0.074 A 
ATOM     28  C   UNL     1       8.810  -0.608 -10.535  1.00  0.00     0.029 A 
ATOM     29  N   UNL     1       7.717  -2.099  -9.299  1.00  0.00    -0.354 N 
ATOM     30  N   UNL     1       6.874  -4.819  -8.540  1.00  0.00    -0.248 NA
ATOM     31  C   UNL     1       6.689  -7.097  -9.029  1.00  0.00     0.031 C 
ATOM     32  C   UNL     1       8.935  -1.863 -11.141  1.00  0.00     0.029 A 
ATOM     33  C   UNL     1       8.264  -2.794 -10.365  1.00  0.00     0.049 A 
ATOM     34  H   UNL     1       7.186  -2.502  -8.575  1.00  0.00     0.167 HD
ATOM     35  C   UNL     1       7.504  -5.077  -9.750  1.00  0.00     0.074 A 
ATOM     36  C   UNL     1       7.381  -6.501  -9.991  1.00  0.00     0.031 C 
ATOM     37  C   UNL     1       8.124  -4.211 -10.589  1.00  0.00     0.037 A 
BRANCH  24  38
ATOM     38  C   UNL     1       7.920   1.700  -8.812  1.00  0.00     0.058 A 
ATOM     39  C   UNL     1       8.917   2.406  -8.122  1.00  0.00     0.135 A 
ATOM     40  C   UNL     1       7.279   2.349  -9.880  1.00  0.00     0.135 A 
ATOM     41  F   UNL     1       9.552   1.837  -7.085  1.00  0.00    -0.206 F 
ATOM     42  C   UNL     1       9.258   3.710  -8.470  1.00  0.00     0.059 A 
ATOM     43  C   UNL     1       7.617   3.646 -10.259  1.00  0.00     0.059 A 
ATOM     44  F   UNL     1       6.317   1.720 -10.574  1.00  0.00    -0.206 F 
ATOM     45  C   UNL     1       8.602   4.322  -9.540  1.00  0.00     0.060 A 
BRANCH  45  46
ATOM     46  S   UNL     1       9.069   6.007  -9.992  1.00  0.00     0.124 S 
ATOM     47  O   UNL     1       8.459   6.776  -8.913  1.00  0.00    -0.237 OA
ATOM     48  O   UNL     1      10.527   5.943  -9.977  1.00  0.00    -0.237 OA
ATOM     49  O   UNL     1       8.466   6.186 -11.309  1.00  0.00    -0.744 OA
ENDBRANCH  45  46
ENDBRANCH  24  38
BRANCH  25  50
ATOM     50  C   UNL     1       5.174  -7.659  -6.574  1.00  0.00     0.058 A 
ATOM     51  C   UNL     1       6.074  -8.661  -6.190  1.00  0.00     0.135 A 
ATOM     52  C   UNL     1       3.809  -7.987  -6.627  1.00  0.00     0.135 A 
ATOM     53  F   UNL     1       7.388  -8.395  -6.127  1.00  0.00    -0.206 F 
ATOM     54  C   UNL     1       5.641  -9.946  -5.879  1.00  0.00     0.059 A 
ATOM     55  C   UNL     1       3.350  -9.255  -6.296  1.00  0.00     0.059 A 
ATOM     56  F   UNL     1       2.907  -7.054  -6.970  1.00  0.00    -0.206 F 
ATOM     57  C   UNL     1       4.276 -10.232  -5.933  1.00  0.00     0.060 A 
BRANCH  57  58
ATOM     58  S   UNL     1       3.714 -11.887  -5.477  1.00  0.00     0.124 S 
ATOM     59  O   UNL     1       4.052 -12.649  -6.673  1.00  0.00    -0.237 OA
ATOM     60  O   UNL     1       4.515 -12.170  -4.290  1.00  0.00    -0.237 OA
ATOM     61  O   UNL     1       2.287 -11.698  -5.229  1.00  0.00    -0.744 OA
ENDBRANCH  57  58
ENDBRANCH  25  50
BRANCH  37  62
ATOM     62  C   UNL     1       8.720  -4.783 -11.842  1.00  0.00     0.058 A 
ATOM     63  C   UNL     1       7.914  -5.155 -12.929  1.00  0.00     0.135 A 
ATOM     64  C   UNL     1      10.111  -4.913 -11.976  1.00  0.00     0.135 A 
ATOM     65  F   UNL     1       6.578  -5.060 -12.843  1.00  0.00    -0.206 F 
ATOM     66  C   UNL     1       8.467  -5.651 -14.104  1.00  0.00     0.059 A 
ATOM     67  C   UNL     1      10.687  -5.385 -13.151  1.00  0.00     0.059 A 
ATOM     68  F   UNL     1      10.924  -4.566 -10.966  1.00  0.00    -0.206 F 
ATOM     69  C   UNL     1       9.856  -5.759 -14.207  1.00  0.00     0.060 A 
BRANCH  69  70
ATOM     70  S   UNL     1      10.565  -6.360 -15.754  1.00  0.00     0.124 S 
ATOM     71  O   UNL     1      10.299  -7.792 -15.662  1.00  0.00    -0.237 OA
ATOM     72  O   UNL     1       9.792  -5.635 -16.757  1.00  0.00    -0.237 OA
ATOM     73  O   UNL     1      11.970  -5.974 -15.655  1.00  0.00    -0.744 OA
ENDBRANCH  69  70
ENDBRANCH  37  62
ENDBRANCH  11  12
ENDBRANCH   4   6
ENDBRANCH   1   2
BRANCH   1  74
ATOM     74  C   UNL     1       4.980   2.107   1.258  1.00  0.00     0.023 C 
BRANCH  74  75
ATOM     75  C   UNL     1       4.467   2.649   2.588  1.00  0.00     0.023 C 
BRANCH  75  76
ATOM     76  C   UNL     1       4.817   1.805   3.807  1.00  0.00     0.116 C 
BRANCH  76  77
ATOM     77  N   UNL     1       6.250   1.654   3.992  1.00  0.00    -0.351 N 
ATOM     78  C   UNL     1       6.969   1.710   5.154  1.00  0.00     0.278 C 
ATOM     79  H   UNL     1       6.773   1.489   3.174  1.00  0.00     0.163 HD
ATOM     80  O   UNL     1       8.171   1.438   5.113  1.00  0.00    -0.268 OA
BRANCH  78  81
ATOM     81  C   UNL     1       6.298   2.129   6.469  1.00  0.00     0.277 C 
ATOM     82  C   UNL     1       6.044   3.652   6.435  1.00  0.00     0.114 C 
ATOM     83  N   UNL     1       5.102   1.272   6.713  1.00  0.00    -0.324 N 
ATOM     84  C   UNL     1       5.106   4.023   7.524  1.00  0.00    -0.006 A 
ATOM     85  C   UNL     1       4.365   1.583   7.938  1.00  0.00     0.264 C 
ATOM     86  H   UNL     1       5.412   0.302   6.768  1.00  0.00     0.347 HD
ATOM     87  H   UNL     1       4.461   1.446   5.939  1.00  0.00     0.347 HD
ATOM     88  C   UNL     1       4.353   3.067   8.177  1.00  0.00     0.083 A 
ATOM     89  C   UNL     1       4.786   5.292   8.070  1.00  0.00     0.003 A 
ATOM     90  N   UNL     1       3.540   3.724   9.061  1.00  0.00    -0.353 N 
ATOM     91  C   UNL     1       3.796   5.078   9.030  1.00  0.00     0.046 A 
ATOM     92  C   UNL     1       5.236   6.606   7.836  1.00  0.00     0.010 A 
ATOM     93  H   UNL     1       2.868   3.291   9.637  1.00  0.00     0.166 HD
ATOM     94  C   UNL     1       3.229   6.123   9.770  1.00  0.00     0.026 A 
ATOM     95  C   UNL     1       4.688   7.659   8.576  1.00  0.00     0.001 A 
ATOM     96  C   UNL     1       3.698   7.418   9.527  1.00  0.00     0.002 A 
BRANCH  85  97
ATOM     97  C   UNL     1       4.815   0.767   9.137  1.00  0.00     0.041 A 
ATOM     98  C   UNL     1       4.056   0.666  10.299  1.00  0.00     0.093 A 
ATOM     99  C   UNL     1       5.968  -0.090   9.355  1.00  0.00     0.009 A 
ATOM    100  N   UNL     1       4.709  -0.121  11.199  1.00  0.00    -0.361 N 
ATOM    101  C   UNL     1       5.871  -0.601  10.654  1.00  0.00     0.046 A 
ATOM    102  C   UNL     1       7.088  -0.508   8.595  1.00  0.00     0.011 A 
ATOM    103  H   UNL     1       4.392  -0.318  12.111  1.00  0.00     0.166 HD
ATOM    104  C   UNL     1       6.826  -1.457  11.223  1.00  0.00     0.026 A 
ATOM    105  C   UNL     1       8.051  -1.364   9.146  1.00  0.00     0.001 A 
ATOM    106  C   UNL     1       7.923  -1.827  10.446  1.00  0.00     0.002 A 
ENDBRANCH  85  97
ENDBRANCH  78  81
ENDBRANCH  76  77
ENDBRANCH  75  76
ENDBRANCH  74  75
ENDBRANCH   1  74
TORSDOF 15
