REMARK SMILES O=C(NCCCCNC(=O)[C@H]1CCCN(C(=O)C2CCN(S(=O)(=O)c3ccccc3)CC2)C1)c1ccc(-c2c3nc(c(-c4c(F)cc(S(=O)(=O)[O-])cc4F)c4ccc([nH]4)c(-c4c(F)cc(S(=O)(=O)[O-])cc4F)c4nc(c(-c5c(F)cc(S(=O)(=O)[O-])cc5F)c5ccc2[nH]5)C=C4)C=C3)cc1
REMARK SMILES IDX 6 1 5 2 4 3 3 4 1 5 2 6 34 8 35 9 99 10 36 11 98 12 37 13
REMARK SMILES IDX 38 14 39 15 92 16 40 17 97 18 91 19 93 20 41 21 96 22 90 23
REMARK SMILES IDX 89 24 42 26 76 27 55 28 75 29 56 30 59 31 74 32 94 33 57 34
REMARK SMILES IDX 58 35 73 37 95 38 60 39 43 40 44 41 53 42 45 43 46 44 52 45
REMARK SMILES IDX 54 46 47 47 48 48 49 49 50 50 51 51 77 52 78 53 87 54 79 55
REMARK SMILES IDX 80 56 86 57 88 58 81 59 82 60 83 61 84 62 85 63 61 64 62 65
REMARK SMILES IDX 71 66 63 67 64 68 70 69 72 70 65 71 66 72 67 73 68 74 69 75
REMARK SMILES IDX 7 76 8 77 9 78 10 80 11 81 12 82 33 83 13 84 15 85 14 86
REMARK SMILES IDX 16 87 17 88 18 89 19 90 32 91 20 92 31 93 21 94 22 95 23 96
REMARK SMILES IDX 24 97 25 98 26 99 30 100 27 101 29 102 28 103
REMARK H PARENT 3 7 93 25 59 36 8 79
REMARK Flexibility Score: inf
ROOT
ATOM      1  C   UNL     1       8.502  -0.659  -7.276  1.00  0.00     0.023 C 
ENDROOT
BRANCH   1   2
ATOM      2  C   UNL     1       9.305  -0.894  -8.556  1.00  0.00     0.023 C 
BRANCH   2   3
ATOM      3  C   UNL     1      10.811  -0.764  -8.401  1.00  0.00     0.116 C 
BRANCH   3   4
ATOM      4  N   UNL     1      11.367  -1.674  -7.413  1.00  0.00    -0.352 N 
ATOM      5  O   UNL     1      12.877  -3.150  -6.603  1.00  0.00    -0.269 OA
ATOM      6  C   UNL     1      12.574  -2.330  -7.462  1.00  0.00     0.251 C 
ATOM      7  H   UNL     1      10.814  -1.840  -6.615  1.00  0.00     0.163 HD
BRANCH   6   8
ATOM      8  C   UNL     1      13.478  -2.053  -8.597  1.00  0.00     0.039 A 
ATOM      9  C   UNL     1      13.784  -0.734  -8.939  1.00  0.00     0.014 A 
ATOM     10  C   UNL     1      13.960  -3.118  -9.362  1.00  0.00     0.014 A 
ATOM     11  C   UNL     1      14.458  -0.476 -10.124  1.00  0.00     0.010 A 
ATOM     12  C   UNL     1      14.709  -2.856 -10.512  1.00  0.00     0.010 A 
ATOM     13  C   UNL     1      14.938  -1.532 -10.917  1.00  0.00    -0.014 A 
BRANCH  13  14
ATOM     14  C   UNL     1      15.732  -1.211 -12.129  1.00  0.00     0.031 A 
ATOM     15  C   UNL     1      15.224  -1.529 -13.507  1.00  0.00     0.074 A 
ATOM     16  C   UNL     1      16.905  -0.570 -11.963  1.00  0.00     0.049 A 
ATOM     17  N   UNL     1      15.779  -1.270 -14.664  1.00  0.00    -0.248 NA
ATOM     18  C   UNL     1      13.937  -2.234 -13.605  1.00  0.00     0.031 C 
ATOM     19  C   UNL     1      17.503  -0.234 -10.667  1.00  0.00     0.029 A 
ATOM     20  N   UNL     1      17.789  -0.061 -12.877  1.00  0.00    -0.354 N 
ATOM     21  C   UNL     1      14.920  -1.787 -15.626  1.00  0.00     0.074 A 
ATOM     22  C   UNL     1      13.815  -2.398 -14.917  1.00  0.00     0.031 C 
ATOM     23  C   UNL     1      18.625   0.470 -10.869  1.00  0.00     0.029 A 
ATOM     24  C   UNL     1      18.854   0.590 -12.303  1.00  0.00     0.049 A 
ATOM     25  H   UNL     1      17.672  -0.153 -13.850  1.00  0.00     0.167 HD
ATOM     26  C   UNL     1      15.041  -1.747 -16.976  1.00  0.00     0.037 A 
ATOM     27  C   UNL     1      19.906   1.210 -12.868  1.00  0.00     0.037 A 
ATOM     28  C   UNL     1      16.140  -1.126 -17.672  1.00  0.00     0.049 A 
ATOM     29  C   UNL     1      20.001   1.260 -14.363  1.00  0.00     0.074 A 
ATOM     30  C   UNL     1      16.359  -1.038 -19.036  1.00  0.00     0.029 A 
ATOM     31  N   UNL     1      17.203  -0.478 -17.057  1.00  0.00    -0.354 N 
ATOM     32  N   UNL     1      19.178   0.762 -15.255  1.00  0.00    -0.248 NA
ATOM     33  C   UNL     1      21.163   1.954 -14.930  1.00  0.00     0.031 C 
ATOM     34  C   UNL     1      17.564  -0.356 -19.245  1.00  0.00     0.029 A 
ATOM     35  C   UNL     1      18.079   0.009 -18.012  1.00  0.00     0.049 A 
ATOM     36  H   UNL     1      17.316  -0.380 -16.084  1.00  0.00     0.167 HD
ATOM     37  C   UNL     1      19.726   1.077 -16.491  1.00  0.00     0.074 A 
ATOM     38  C   UNL     1      20.932   1.839 -16.231  1.00  0.00     0.031 C 
ATOM     39  C   UNL     1      19.279   0.755 -17.730  1.00  0.00     0.037 A 
BRANCH  26  40
ATOM     40  C   UNL     1      13.960  -2.397 -17.795  1.00  0.00     0.058 A 
ATOM     41  C   UNL     1      12.700  -1.799 -17.953  1.00  0.00     0.135 A 
ATOM     42  C   UNL     1      14.201  -3.603 -18.473  1.00  0.00     0.135 A 
ATOM     43  F   UNL     1      12.411  -0.654 -17.315  1.00  0.00    -0.206 F 
ATOM     44  C   UNL     1      11.712  -2.381 -18.742  1.00  0.00     0.059 A 
ATOM     45  C   UNL     1      13.234  -4.193 -19.283  1.00  0.00     0.059 A 
ATOM     46  F   UNL     1      15.389  -4.218 -18.356  1.00  0.00    -0.206 F 
ATOM     47  C   UNL     1      11.988  -3.579 -19.403  1.00  0.00     0.060 A 
BRANCH  47  48
ATOM     48  S   UNL     1      10.701  -4.317 -20.434  1.00  0.00     0.124 S 
ATOM     49  O   UNL     1       9.805  -4.874 -19.425  1.00  0.00    -0.237 OA
ATOM     50  O   UNL     1      10.188  -3.165 -21.169  1.00  0.00    -0.237 OA
ATOM     51  O   UNL     1      11.428  -5.295 -21.237  1.00  0.00    -0.744 OA
ENDBRANCH  47  48
ENDBRANCH  26  40
BRANCH  27  52
ATOM     52  C   UNL     1      20.948   1.819 -12.004  1.00  0.00     0.058 A 
ATOM     53  C   UNL     1      21.074   3.210 -11.889  1.00  0.00     0.135 A 
ATOM     54  C   UNL     1      21.814   1.015 -11.246  1.00  0.00     0.135 A 
ATOM     55  F   UNL     1      20.267   4.017 -12.594  1.00  0.00    -0.206 F 
ATOM     56  C   UNL     1      22.031   3.786 -11.060  1.00  0.00     0.059 A 
ATOM     57  C   UNL     1      22.761   1.567 -10.392  1.00  0.00     0.059 A 
ATOM     58  F   UNL     1      21.716  -0.322 -11.306  1.00  0.00    -0.206 F 
ATOM     59  C   UNL     1      22.870   2.955 -10.315  1.00  0.00     0.060 A 
BRANCH  59  60
ATOM     60  S   UNL     1      24.073   3.702  -9.195  1.00  0.00     0.124 S 
ATOM     61  O   UNL     1      25.149   4.052 -10.114  1.00  0.00    -0.237 OA
ATOM     62  O   UNL     1      23.324   4.822  -8.633  1.00  0.00    -0.237 OA
ATOM     63  O   UNL     1      24.366   2.623  -8.256  1.00  0.00    -0.744 OA
ENDBRANCH  59  60
ENDBRANCH  27  52
BRANCH  39  64
ATOM     64  C   UNL     1      20.107   1.232 -18.887  1.00  0.00     0.058 A 
ATOM     65  C   UNL     1      21.324   0.615 -19.216  1.00  0.00     0.135 A 
ATOM     66  C   UNL     1      19.679   2.311 -19.675  1.00  0.00     0.135 A 
ATOM     67  F   UNL     1      21.778  -0.416 -18.486  1.00  0.00    -0.206 F 
ATOM     68  C   UNL     1      22.107   1.074 -20.269  1.00  0.00     0.059 A 
ATOM     69  C   UNL     1      20.436   2.773 -20.747  1.00  0.00     0.059 A 
ATOM     70  F   UNL     1      18.518   2.928 -19.404  1.00  0.00    -0.206 F 
ATOM     71  C   UNL     1      21.657   2.159 -21.024  1.00  0.00     0.060 A 
BRANCH  71  72
ATOM     72  S   UNL     1      22.679   2.749 -22.391  1.00  0.00     0.124 S 
ATOM     73  O   UNL     1      23.688   3.531 -21.684  1.00  0.00    -0.237 OA
ATOM     74  O   UNL     1      23.149   1.506 -22.995  1.00  0.00    -0.237 OA
ATOM     75  O   UNL     1      21.742   3.518 -23.204  1.00  0.00    -0.744 OA
ENDBRANCH  71  72
ENDBRANCH  39  64
ENDBRANCH  13  14
ENDBRANCH   6   8
ENDBRANCH   3   4
ENDBRANCH   2   3
ENDBRANCH   1   2
BRANCH   1  76
ATOM     76  C   UNL     1       8.849   0.628  -6.529  1.00  0.00     0.116 C 
BRANCH  76  77
ATOM     77  N   UNL     1       8.701   1.797  -7.376  1.00  0.00    -0.356 N 
ATOM     78  C   UNL     1       7.754   2.772  -7.351  1.00  0.00     0.224 C 
ATOM     79  H   UNL     1       9.389   1.899  -8.072  1.00  0.00     0.163 HD
ATOM     80  O   UNL     1       7.809   3.657  -8.206  1.00  0.00    -0.275 OA
BRANCH  78  81
ATOM     81  C   UNL     1       6.685   2.744  -6.277  1.00  0.00     0.098 C 
ATOM     82  C   UNL     1       6.041   4.135  -6.144  1.00  0.00     0.017 C 
ATOM     83  C   UNL     1       5.619   1.688  -6.601  1.00  0.00     0.133 C 
ATOM     84  C   UNL     1       4.882   4.093  -5.160  1.00  0.00     0.022 C 
ATOM     85  N   UNL     1       4.535   1.717  -5.607  1.00  0.00    -0.342 N 
ATOM     86  C   UNL     1       3.883   3.007  -5.562  1.00  0.00     0.119 C 
BRANCH  85  87
ATOM     87  C   UNL     1       4.316   0.618  -4.798  1.00  0.00     0.225 C 
ATOM     88  O   UNL     1       5.079  -0.357  -4.888  1.00  0.00    -0.275 OA
BRANCH  87  89
ATOM     89  C   UNL     1       3.195   0.513  -3.729  1.00  0.00     0.081 C 
ATOM     90  C   UNL     1       1.738   0.671  -4.126  1.00  0.00     0.030 C 
ATOM     91  C   UNL     1       3.467   1.176  -2.392  1.00  0.00     0.030 C 
ATOM     92  C   UNL     1       1.063   2.008  -3.849  1.00  0.00     0.103 C 
ATOM     93  C   UNL     1       3.020   2.618  -2.323  1.00  0.00     0.103 C 
ATOM     94  N   UNL     1       1.623   2.869  -2.743  1.00  0.00    -0.198 NA
BRANCH  94  95
ATOM     95  S   UNL     1       1.209   4.538  -3.078  1.00  0.00     0.243 S 
ATOM     96  O   UNL     1       1.875   4.916  -4.312  1.00  0.00    -0.207 OA
ATOM     97  O   UNL     1      -0.232   4.617  -2.990  1.00  0.00    -0.207 OA
BRANCH  95  98
ATOM     98  C   UNL     1       1.905   5.595  -1.827  1.00  0.00     0.082 A 
ATOM     99  C   UNL     1       1.057   6.462  -1.131  1.00  0.00     0.022 A 
ATOM    100  C   UNL     1       3.293   5.758  -1.726  1.00  0.00     0.022 A 
ATOM    101  C   UNL     1       1.599   7.458  -0.316  1.00  0.00     0.001 A 
ATOM    102  C   UNL     1       3.830   6.723  -0.875  1.00  0.00     0.001 A 
ATOM    103  C   UNL     1       2.983   7.578  -0.176  1.00  0.00     0.000 A 
ENDBRANCH  95  98
ENDBRANCH  94  95
ENDBRANCH  87  89
ENDBRANCH  85  87
ENDBRANCH  78  81
ENDBRANCH  76  77
ENDBRANCH   1  76
TORSDOF 18
