REMARK SMILES CCCCOc1ccccc1C[C@@H]([NH3+])C(=O)NCCCCNC(=O)c1ccc(-c2c3nc(c(-c4c(F)cc(S(=O)(=O)[O-])cc4F)c4ccc([nH]4)c(-c4c(F)cc(S(=O)(=O)[O-])cc4F)c4nc(c(-c5c(F)cc(S(=O)(=O)[O-])cc5F)c5ccc2[nH]5)C=C4)C=C3)cc1
REMARK SMILES IDX 18 1 17 2 15 3 16 4 13 6 12 7 11 8 6 9 7 10 8 11 10 12 9 13
REMARK SMILES IDX 5 14 4 15 3 16 2 17 1 18 14 19 19 23 20 24 21 25 22 26 23 27
REMARK SMILES IDX 24 29 25 30 26 31 90 32 27 33 89 34 28 35 29 36 30 37 83 38
REMARK SMILES IDX 31 39 88 40 82 41 84 42 32 43 87 44 81 45 80 46 33 48 67 49
REMARK SMILES IDX 46 50 66 51 47 52 50 53 65 54 85 55 48 56 49 57 64 59 86 60
REMARK SMILES IDX 51 61 34 62 35 63 44 64 36 65 37 66 43 67 45 68 38 69 39 70
REMARK SMILES IDX 40 71 41 72 42 73 68 74 69 75 78 76 70 77 71 78 77 79 79 80
REMARK SMILES IDX 72 81 73 82 74 83 75 84 76 85 52 86 53 87 62 88 54 89 55 90
REMARK SMILES IDX 61 91 63 92 56 93 57 94 58 95 59 96 60 97
REMARK H PARENT 17 5 14 20 14 21 14 22 22 28 84 47 50 58
REMARK Flexibility Score: inf
ROOT
ATOM      1  C   UNL     1       1.899   1.613   2.885  1.00  0.00     0.116 C 
ENDROOT
BRANCH   1   2
ATOM      2  N   UNL     1       1.932   2.995   2.427  1.00  0.00    -0.351 N 
ATOM      3  C   UNL     1       0.910   3.855   2.120  1.00  0.00     0.278 C 
ATOM      4  O   UNL     1       1.201   5.039   1.923  1.00  0.00    -0.268 OA
ATOM      5  H   UNL     1       2.834   3.373   2.321  1.00  0.00     0.163 HD
BRANCH   3   6
ATOM      6  C   UNL     1      -0.565   3.378   1.974  1.00  0.00     0.275 C 
BRANCH   6   7
ATOM      7  C   UNL     1      -0.612   2.429   0.770  1.00  0.00     0.115 C 
BRANCH   7   8
ATOM      8  C   UNL     1      -1.862   1.773   0.220  1.00  0.00     0.001 A 
ATOM      9  C   UNL     1      -2.029   1.650  -1.178  1.00  0.00     0.122 A 
ATOM     10  C   UNL     1      -3.029   0.837  -1.718  1.00  0.00     0.047 A 
ATOM     11  C   UNL     1      -3.842   0.085  -0.875  1.00  0.00     0.004 A 
ATOM     12  C   UNL     1      -2.700   1.013   1.048  1.00  0.00     0.008 A 
ATOM     13  C   UNL     1      -3.680   0.175   0.505  1.00  0.00     0.001 A 
BRANCH   9  14
ATOM     14  O   UNL     1      -1.189   2.350  -2.009  1.00  0.00    -0.493 OA
BRANCH  14  15
ATOM     15  C   UNL     1      -0.363   1.535  -2.858  1.00  0.00     0.229 C 
BRANCH  15  16
ATOM     16  C   UNL     1       1.039   1.364  -2.267  1.00  0.00     0.041 C 
BRANCH  16  17
ATOM     17  C   UNL     1       1.063   0.364  -1.113  1.00  0.00     0.000 C 
ATOM     18  C   UNL     1       1.915  -0.866  -1.336  1.00  0.00     0.004 C 
ENDBRANCH  16  17
ENDBRANCH  15  16
ENDBRANCH  14  15
ENDBRANCH   9  14
ENDBRANCH   7   8
ENDBRANCH   6   7
BRANCH   6  19
ATOM     19  N   UNL     1      -1.044   2.847   3.268  1.00  0.00    -0.347 N 
ATOM     20  H   UNL     1      -0.441   2.080   3.564  1.00  0.00     0.345 HD
ATOM     21  H   UNL     1      -2.000   2.507   3.162  1.00  0.00     0.345 HD
ATOM     22  H   UNL     1      -1.022   3.588   3.969  1.00  0.00     0.345 HD
ENDBRANCH   6  19
ENDBRANCH   3   6
ENDBRANCH   1   2
BRANCH   1  23
ATOM     23  C   UNL     1       2.891   0.719   2.134  1.00  0.00     0.023 C 
BRANCH  23  24
ATOM     24  C   UNL     1       4.365   0.933   2.445  1.00  0.00     0.023 C 
BRANCH  24  25
ATOM     25  C   UNL     1       4.752   0.678   3.888  1.00  0.00     0.116 C 
BRANCH  25  26
ATOM     26  N   UNL     1       4.497  -0.690   4.317  1.00  0.00    -0.352 N 
ATOM     27  C   UNL     1       5.339  -1.568   4.968  1.00  0.00     0.251 C 
ATOM     28  H   UNL     1       3.598  -1.036   4.115  1.00  0.00     0.163 HD
ATOM     29  O   UNL     1       5.003  -2.727   5.143  1.00  0.00    -0.269 OA
BRANCH  27  30
ATOM     30  C   UNL     1       6.669  -1.091   5.414  1.00  0.00     0.039 A 
ATOM     31  C   UNL     1       7.791  -1.886   5.175  1.00  0.00     0.014 A 
ATOM     32  C   UNL     1       6.809   0.162   6.013  1.00  0.00     0.014 A 
ATOM     33  C   UNL     1       9.063  -1.385   5.463  1.00  0.00     0.010 A 
ATOM     34  C   UNL     1       8.075   0.702   6.190  1.00  0.00     0.010 A 
ATOM     35  C   UNL     1       9.217  -0.069   5.930  1.00  0.00    -0.014 A 
BRANCH  35  36
ATOM     36  C   UNL     1      10.557   0.521   6.177  1.00  0.00     0.031 A 
ATOM     37  C   UNL     1      10.918   1.001   7.558  1.00  0.00     0.074 A 
ATOM     38  C   UNL     1      11.415   0.696   5.151  1.00  0.00     0.049 A 
ATOM     39  N   UNL     1      11.995   1.622   7.963  1.00  0.00    -0.248 NA
ATOM     40  C   UNL     1       9.917   0.788   8.618  1.00  0.00     0.031 C 
ATOM     41  C   UNL     1      11.157   0.328   3.757  1.00  0.00     0.029 A 
ATOM     42  N   UNL     1      12.675   1.238   5.120  1.00  0.00    -0.354 N 
ATOM     43  C   UNL     1      11.791   1.891   9.311  1.00  0.00     0.074 A 
ATOM     44  C   UNL     1      10.463   1.427   9.641  1.00  0.00     0.031 C 
ATOM     45  C   UNL     1      12.236   0.626   3.015  1.00  0.00     0.029 A 
ATOM     46  C   UNL     1      13.245   1.244   3.868  1.00  0.00     0.049 A 
ATOM     47  H   UNL     1      13.129   1.590   5.920  1.00  0.00     0.167 HD
ATOM     48  C   UNL     1      12.646   2.444  10.204  1.00  0.00     0.037 A 
ATOM     49  C   UNL     1      14.444   1.701   3.455  1.00  0.00     0.037 A 
ATOM     50  C   UNL     1      13.980   2.870   9.875  1.00  0.00     0.049 A 
ATOM     51  C   UNL     1      15.382   2.304   4.466  1.00  0.00     0.074 A 
ATOM     52  C   UNL     1      14.951   3.383  10.716  1.00  0.00     0.029 A 
ATOM     53  N   UNL     1      14.531   2.832   8.602  1.00  0.00    -0.354 N 
ATOM     54  N   UNL     1      15.200   2.487   5.753  1.00  0.00    -0.248 NA
ATOM     55  C   UNL     1      16.690   2.755   3.973  1.00  0.00     0.031 C 
ATOM     56  C   UNL     1      16.073   3.700   9.943  1.00  0.00     0.029 A 
ATOM     57  C   UNL     1      15.822   3.332   8.630  1.00  0.00     0.049 A 
ATOM     58  H   UNL     1      14.072   2.499   7.797  1.00  0.00     0.167 HD
ATOM     59  C   UNL     1      16.381   3.048   6.228  1.00  0.00     0.074 A 
ATOM     60  C   UNL     1      17.273   3.162   5.092  1.00  0.00     0.031 C 
ATOM     61  C   UNL     1      16.699   3.431   7.489  1.00  0.00     0.037 A 
BRANCH  48  62
ATOM     62  C   UNL     1      12.164   2.609  11.620  1.00  0.00     0.058 A 
ATOM     63  C   UNL     1      11.931   1.504  12.455  1.00  0.00     0.135 A 
ATOM     64  C   UNL     1      11.948   3.889  12.156  1.00  0.00     0.135 A 
ATOM     65  F   UNL     1      12.103   0.256  11.990  1.00  0.00    -0.206 F 
ATOM     66  C   UNL     1      11.466   1.659  13.757  1.00  0.00     0.059 A 
ATOM     67  C   UNL     1      11.515   4.069  13.467  1.00  0.00     0.059 A 
ATOM     68  F   UNL     1      12.154   4.981  11.404  1.00  0.00    -0.206 F 
ATOM     69  C   UNL     1      11.261   2.947  14.254  1.00  0.00     0.060 A 
BRANCH  69  70
ATOM     70  S   UNL     1      10.658   3.130  15.945  1.00  0.00     0.124 S 
ATOM     71  O   UNL     1       9.269   2.702  15.806  1.00  0.00    -0.237 OA
ATOM     72  O   UNL     1      11.528   2.223  16.686  1.00  0.00    -0.237 OA
ATOM     73  O   UNL     1      10.852   4.549  16.224  1.00  0.00    -0.744 OA
ENDBRANCH  69  70
ENDBRANCH  48  62
BRANCH  49  74
ATOM     74  C   UNL     1      14.835   1.574   2.025  1.00  0.00     0.058 A 
ATOM     75  C   UNL     1      15.834   0.672   1.629  1.00  0.00     0.135 A 
ATOM     76  C   UNL     1      14.207   2.333   1.025  1.00  0.00     0.135 A 
ATOM     77  F   UNL     1      16.468  -0.072   2.547  1.00  0.00    -0.206 F 
ATOM     78  C   UNL     1      16.208   0.536   0.295  1.00  0.00     0.059 A 
ATOM     79  C   UNL     1      14.545   2.196  -0.318  1.00  0.00     0.059 A 
ATOM     80  F   UNL     1      13.233   3.197   1.348  1.00  0.00    -0.206 F 
ATOM     81  C   UNL     1      15.553   1.300  -0.672  1.00  0.00     0.060 A 
BRANCH  81  82
ATOM     82  S   UNL     1      16.009   1.076  -2.406  1.00  0.00     0.124 S 
ATOM     83  O   UNL     1      17.321   1.710  -2.449  1.00  0.00    -0.237 OA
ATOM     84  O   UNL     1      15.997  -0.378  -2.539  1.00  0.00    -0.237 OA
ATOM     85  O   UNL     1      14.946   1.772  -3.125  1.00  0.00    -0.744 OA
ENDBRANCH  81  82
ENDBRANCH  49  74
BRANCH  61  86
ATOM     86  C   UNL     1      18.082   3.974   7.721  1.00  0.00     0.058 A 
ATOM     87  C   UNL     1      18.464   5.245   7.265  1.00  0.00     0.135 A 
ATOM     88  C   UNL     1      19.018   3.234   8.462  1.00  0.00     0.135 A 
ATOM     89  F   UNL     1      17.609   5.991   6.547  1.00  0.00    -0.206 F 
ATOM     90  C   UNL     1      19.734   5.754   7.515  1.00  0.00     0.059 A 
ATOM     91  C   UNL     1      20.283   3.735   8.750  1.00  0.00     0.059 A 
ATOM     92  F   UNL     1      18.699   2.017   8.932  1.00  0.00    -0.206 F 
ATOM     93  C   UNL     1      20.636   4.992   8.262  1.00  0.00     0.060 A 
BRANCH  93  94
ATOM     94  S   UNL     1      22.268   5.680   8.611  1.00  0.00     0.124 S 
ATOM     95  O   UNL     1      22.917   5.571   7.308  1.00  0.00    -0.237 OA
ATOM     96  O   UNL     1      21.948   7.035   9.048  1.00  0.00    -0.237 OA
ATOM     97  O   UNL     1      22.793   4.800   9.650  1.00  0.00    -0.744 OA
ENDBRANCH  93  94
ENDBRANCH  61  86
ENDBRANCH  35  36
ENDBRANCH  27  30
ENDBRANCH  25  26
ENDBRANCH  24  25
ENDBRANCH  23  24
ENDBRANCH   1  23
TORSDOF 21
