REMARK SMILES O=C(COc1ccc(Cl)c2ccccc12)N[C@@H](Cc1c[nH]c2ccccc12)C(=O)NCCCCNC(=O)c1ccc(-c2c3nc(c(-c4c(F)cc(S(=O)(=O)[O-])cc4F)c4ccc([nH]4)c(-c4c(F)cc(S(=O)(=O)[O-])cc4F)c4nc(c(-c5c(F)cc(S(=O)(=O)[O-])cc5F)c5ccc2[nH]5)C=C4)C=C3)cc1
REMARK SMILES IDX 32 1 31 2 30 3 28 4 29 5 17 7 16 8 1 9 2 10 3 12 4 13 5 14
REMARK SMILES IDX 6 15 15 16 7 17 10 18 14 19 8 20 11 21 13 22 9 23 12 24
REMARK SMILES IDX 18 25 19 26 20 27 27 28 21 29 22 30 26 31 23 33 25 34 24 35
REMARK SMILES IDX 33 36 34 37 35 38 36 39 37 41 38 42 39 43 103 44 40 45
REMARK SMILES IDX 102 46 41 47 42 48 43 49 96 50 44 51 101 52 95 53 97 54
REMARK SMILES IDX 45 55 100 56 94 57 93 58 46 60 80 61 59 62 79 63 60 64 63 65
REMARK SMILES IDX 78 66 98 67 61 68 62 69 77 71 99 72 64 73 47 74 48 75 57 76
REMARK SMILES IDX 49 77 50 78 56 79 58 80 51 81 52 82 53 83 54 84 55 85 81 86
REMARK SMILES IDX 82 87 91 88 83 89 84 90 90 91 92 92 85 93 86 94 87 95 88 96
REMARK SMILES IDX 89 97 65 98 66 99 75 100 67 101 68 102 74 103 76 104 69 105
REMARK SMILES IDX 70 106 71 107 72 108 73 109
REMARK H PARENT 30 6 16 11 21 32 35 40 97 59 63 70
REMARK Flexibility Score: inf
ROOT
ATOM      1  C   UNL     1       6.111  -0.848   3.047  1.00  0.00     0.023 C 
ENDROOT
BRANCH   1   2
ATOM      2  C   UNL     1       5.173  -1.983   2.671  1.00  0.00     0.116 C 
BRANCH   2   3
ATOM      3  N   UNL     1       3.870  -1.933   3.291  1.00  0.00    -0.354 N 
ATOM      4  C   UNL     1       2.655  -2.211   2.723  1.00  0.00     0.242 C 
ATOM      5  O   UNL     1       1.726  -2.500   3.485  1.00  0.00    -0.273 OA
ATOM      6  H   UNL     1       3.852  -1.666   4.238  1.00  0.00     0.163 HD
BRANCH   4   7
ATOM      7  C   UNL     1       2.427  -2.183   1.189  1.00  0.00     0.175 C 
BRANCH   7   8
ATOM      8  N   UNL     1       2.959  -0.951   0.606  1.00  0.00    -0.341 N 
ATOM      9  O   UNL     1       1.197  -0.518  -0.800  1.00  0.00    -0.271 OA
ATOM     10  C   UNL     1       2.238  -0.160  -0.258  1.00  0.00     0.258 C 
ATOM     11  H   UNL     1       3.874  -0.675   0.842  1.00  0.00     0.164 HD
BRANCH  10  12
ATOM     12  C   UNL     1       2.849   1.227  -0.485  1.00  0.00     0.329 C 
BRANCH  12  13
ATOM     13  O   UNL     1       3.803   1.621   0.505  1.00  0.00    -0.483 OA
BRANCH  13  14
ATOM     14  C   UNL     1       3.276   2.385   1.524  1.00  0.00     0.128 A 
ATOM     15  C   UNL     1       2.252   1.883   2.332  1.00  0.00     0.048 A 
ATOM     16  C   UNL     1       3.874   3.638   1.807  1.00  0.00     0.025 A 
ATOM     17  C   UNL     1       1.797   2.623   3.417  1.00  0.00     0.025 A 
ATOM     18  C   UNL     1       3.413   4.395   2.918  1.00  0.00     0.004 A 
ATOM     19  C   UNL     1       4.918   4.165   1.014  1.00  0.00     0.012 A 
ATOM     20  C   UNL     1       2.366   3.862   3.710  1.00  0.00     0.049 A 
ATOM     21  C   UNL     1       4.028   5.643   3.183  1.00  0.00     0.010 A 
ATOM     22  C   UNL     1       5.499   5.401   1.295  1.00  0.00     0.001 A 
ATOM     23  Cl  UNL     1       1.725   4.702   5.085  1.00  0.00    -0.084 Cl
ATOM     24  C   UNL     1       5.057   6.139   2.382  1.00  0.00     0.001 A 
ENDBRANCH  13  14
ENDBRANCH  12  13
ENDBRANCH  10  12
ENDBRANCH   7   8
BRANCH   7  25
ATOM     25  C   UNL     1       2.732  -3.490   0.427  1.00  0.00     0.072 C 
BRANCH  25  26
ATOM     26  C   UNL     1       4.169  -3.896   0.235  1.00  0.00    -0.020 A 
ATOM     27  C   UNL     1       5.154  -3.195  -0.441  1.00  0.00     0.087 A 
ATOM     28  C   UNL     1       4.778  -5.126   0.661  1.00  0.00     0.003 A 
ATOM     29  N   UNL     1       6.345  -3.851  -0.279  1.00  0.00    -0.361 N 
ATOM     30  C   UNL     1       6.143  -5.039   0.379  1.00  0.00     0.046 A 
ATOM     31  C   UNL     1       4.301  -6.306   1.270  1.00  0.00     0.010 A 
ATOM     32  H   UNL     1       7.218  -3.519  -0.588  1.00  0.00     0.166 HD
ATOM     33  C   UNL     1       7.060  -6.038   0.731  1.00  0.00     0.026 A 
ATOM     34  C   UNL     1       5.196  -7.338   1.580  1.00  0.00     0.001 A 
ATOM     35  C   UNL     1       6.558  -7.196   1.329  1.00  0.00     0.002 A 
ENDBRANCH  25  26
ENDBRANCH   7  25
ENDBRANCH   4   7
ENDBRANCH   2   3
ENDBRANCH   1   2
BRANCH   1  36
ATOM     36  C   UNL     1       6.841  -1.010   4.373  1.00  0.00     0.023 C 
BRANCH  36  37
ATOM     37  C   UNL     1       7.557  -2.341   4.587  1.00  0.00     0.116 C 
BRANCH  37  38
ATOM     38  N   UNL     1       8.481  -2.707   3.519  1.00  0.00    -0.352 N 
ATOM     39  C   UNL     1       9.760  -3.207   3.619  1.00  0.00     0.251 C 
ATOM     40  H   UNL     1       8.144  -2.578   2.603  1.00  0.00     0.163 HD
ATOM     41  O   UNL     1      10.424  -3.420   2.607  1.00  0.00    -0.269 OA
BRANCH  39  42
ATOM     42  C   UNL     1      10.337  -3.440   4.961  1.00  0.00     0.039 A 
ATOM     43  C   UNL     1      11.565  -2.858   5.286  1.00  0.00     0.014 A 
ATOM     44  C   UNL     1       9.617  -4.152   5.923  1.00  0.00     0.014 A 
ATOM     45  C   UNL     1      12.017  -2.898   6.608  1.00  0.00     0.010 A 
ATOM     46  C   UNL     1      10.028  -4.120   7.252  1.00  0.00     0.010 A 
ATOM     47  C   UNL     1      11.223  -3.478   7.613  1.00  0.00    -0.014 A 
BRANCH  47  48
ATOM     48  C   UNL     1      11.600  -3.393   9.049  1.00  0.00     0.031 A 
ATOM     49  C   UNL     1      11.844  -4.647   9.843  1.00  0.00     0.074 A 
ATOM     50  C   UNL     1      11.628  -2.192   9.664  1.00  0.00     0.049 A 
ATOM     51  N   UNL     1      12.072  -4.782  11.124  1.00  0.00    -0.248 NA
ATOM     52  C   UNL     1      11.790  -5.920   9.106  1.00  0.00     0.031 C 
ATOM     53  C   UNL     1      11.342  -0.905   9.025  1.00  0.00     0.029 A 
ATOM     54  N   UNL     1      11.894  -1.859  10.970  1.00  0.00    -0.354 N 
ATOM     55  C   UNL     1      12.165  -6.149  11.351  1.00  0.00     0.074 A 
ATOM     56  C   UNL     1      11.922  -6.805  10.084  1.00  0.00     0.031 C 
ATOM     57  C   UNL     1      11.465   0.076   9.934  1.00  0.00     0.029 A 
ATOM     58  C   UNL     1      11.804  -0.510  11.226  1.00  0.00     0.049 A 
ATOM     59  H   UNL     1      12.126  -2.523  11.658  1.00  0.00     0.167 HD
ATOM     60  C   UNL     1      12.449  -6.800  12.504  1.00  0.00     0.037 A 
ATOM     61  C   UNL     1      11.969   0.179  12.373  1.00  0.00     0.037 A 
ATOM     62  C   UNL     1      12.732  -6.145  13.754  1.00  0.00     0.049 A 
ATOM     63  C   UNL     1      12.331  -0.561  13.631  1.00  0.00     0.074 A 
ATOM     64  C   UNL     1      13.098  -6.716  14.960  1.00  0.00     0.029 A 
ATOM     65  N   UNL     1      12.687  -4.774  13.958  1.00  0.00    -0.354 N 
ATOM     66  N   UNL     1      12.472  -1.853  13.813  1.00  0.00    -0.248 NA
ATOM     67  C   UNL     1      12.566   0.246  14.836  1.00  0.00     0.031 C 
ATOM     68  C   UNL     1      13.247  -5.693  15.902  1.00  0.00     0.029 A 
ATOM     69  C   UNL     1      13.012  -4.481  15.273  1.00  0.00     0.049 A 
ATOM     70  H   UNL     1      12.459  -4.107  13.271  1.00  0.00     0.167 HD
ATOM     71  C   UNL     1      12.830  -2.011  15.147  1.00  0.00     0.074 A 
ATOM     72  C   UNL     1      12.897  -0.684  15.723  1.00  0.00     0.031 C 
ATOM     73  C   UNL     1      13.081  -3.154  15.831  1.00  0.00     0.037 A 
BRANCH  60  74
ATOM     74  C   UNL     1      12.488  -8.302  12.464  1.00  0.00     0.058 A 
ATOM     75  C   UNL     1      13.531  -8.991  11.827  1.00  0.00     0.135 A 
ATOM     76  C   UNL     1      11.496  -9.061  13.106  1.00  0.00     0.135 A 
ATOM     77  F   UNL     1      14.495  -8.314  11.183  1.00  0.00    -0.206 F 
ATOM     78  C   UNL     1      13.579 -10.381  11.807  1.00  0.00     0.059 A 
ATOM     79  C   UNL     1      11.537 -10.452  13.120  1.00  0.00     0.059 A 
ATOM     80  F   UNL     1      10.475  -8.451  13.728  1.00  0.00    -0.206 F 
ATOM     81  C   UNL     1      12.576 -11.103  12.457  1.00  0.00     0.060 A 
BRANCH  81  82
ATOM     82  S   UNL     1      12.662 -12.906  12.436  1.00  0.00     0.124 S 
ATOM     83  O   UNL     1      12.253 -13.199  11.066  1.00  0.00    -0.237 OA
ATOM     84  O   UNL     1      14.066 -13.156  12.745  1.00  0.00    -0.237 OA
ATOM     85  O   UNL     1      11.714 -13.303  13.472  1.00  0.00    -0.744 OA
ENDBRANCH  81  82
ENDBRANCH  60  74
BRANCH  61  86
ATOM     86  C   UNL     1      11.822   1.658  12.373  1.00  0.00     0.058 A 
ATOM     87  C   UNL     1      12.945   2.493  12.469  1.00  0.00     0.135 A 
ATOM     88  C   UNL     1      10.564   2.266  12.242  1.00  0.00     0.135 A 
ATOM     89  F   UNL     1      14.168   1.957  12.603  1.00  0.00    -0.206 F 
ATOM     90  C   UNL     1      12.828   3.878  12.441  1.00  0.00     0.059 A 
ATOM     91  C   UNL     1      10.424   3.650  12.190  1.00  0.00     0.059 A 
ATOM     92  F   UNL     1       9.461   1.510  12.130  1.00  0.00    -0.206 F 
ATOM     93  C   UNL     1      11.562   4.448  12.296  1.00  0.00     0.060 A 
BRANCH  93  94
ATOM     94  S   UNL     1      11.428   6.246  12.185  1.00  0.00     0.124 S 
ATOM     95  O   UNL     1      11.635   6.642  13.573  1.00  0.00    -0.237 OA
ATOM     96  O   UNL     1      12.507   6.578  11.258  1.00  0.00    -0.237 OA
ATOM     97  O   UNL     1      10.080   6.449  11.662  1.00  0.00    -0.744 OA
ENDBRANCH  93  94
ENDBRANCH  61  86
BRANCH  73  98
ATOM     98  C   UNL     1      13.477  -3.026  17.274  1.00  0.00     0.058 A 
ATOM     99  C   UNL     1      12.539  -2.715  18.270  1.00  0.00     0.135 A 
ATOM    100  C   UNL     1      14.800  -3.280  17.673  1.00  0.00     0.135 A 
ATOM    101  F   UNL     1      11.263  -2.459  17.939  1.00  0.00    -0.206 F 
ATOM    102  C   UNL     1      12.901  -2.642  19.611  1.00  0.00     0.059 A 
ATOM    103  C   UNL     1      15.179  -3.235  19.011  1.00  0.00     0.059 A 
ATOM    104  F   UNL     1      15.733  -3.592  16.760  1.00  0.00    -0.206 F 
ATOM    105  C   UNL     1      14.224  -2.905  19.972  1.00  0.00     0.060 A 
BRANCH 105 106
ATOM    106  S   UNL     1      14.675  -2.846  21.719  1.00  0.00     0.124 S 
ATOM    107  O   UNL     1      14.729  -1.408  21.959  1.00  0.00    -0.237 OA
ATOM    108  O   UNL     1      13.566  -3.554  22.354  1.00  0.00    -0.237 OA
ATOM    109  O   UNL     1      15.959  -3.540  21.762  1.00  0.00    -0.744 OA
ENDBRANCH 105 106
ENDBRANCH  73  98
ENDBRANCH  47  48
ENDBRANCH  39  42
ENDBRANCH  37  38
ENDBRANCH  36  37
ENDBRANCH   1  36
TORSDOF 20
