REMARK SMILES CC[C@H]1CCC[C@@H]([NH2+][C@@](C)(CC)C(=O)NCCCCNC(=O)c2ccc(-c3c4nc(c(-c5c(F)cc(S(=O)(=O)[O-])cc5F)c5ccc([nH]5)c(-c5c(F)cc(S(=O)(=O)[O-])cc5F)c5nc(c(-c6c(F)cc(S(=O)(=O)[O-])cc6F)c6ccc3[nH]6)C=C5)C=C4)cc2)C1
REMARK SMILES IDX 17 1 16 2 15 3 13 4 14 5 9 7 10 8 8 9 7 12 3 13 4 14 89 15
REMARK SMILES IDX 5 16 6 17 2 18 1 19 11 20 12 21 18 22 19 23 20 24 21 25
REMARK SMILES IDX 22 27 23 28 24 29 88 30 25 31 87 32 26 33 27 34 28 35 81 36
REMARK SMILES IDX 29 37 86 38 80 39 82 40 30 41 85 42 79 43 78 44 31 46 65 47
REMARK SMILES IDX 44 48 64 49 45 50 48 51 63 52 83 53 46 54 47 55 62 57 84 58
REMARK SMILES IDX 49 59 32 60 33 61 42 62 34 63 35 64 41 65 43 66 36 67 37 68
REMARK SMILES IDX 38 69 39 70 40 71 66 72 67 73 76 74 68 75 69 76 75 77 77 78
REMARK SMILES IDX 70 79 71 80 72 81 73 82 74 83 50 84 51 85 60 86 52 87 53 88
REMARK SMILES IDX 59 89 61 90 54 91 55 92 56 93 57 94 58 95
REMARK H PARENT 15 6 8 10 8 11 20 26 82 45 48 56
REMARK Flexibility Score: inf
ROOT
ATOM      1  C   UNL     1       1.867  -3.923   9.439  1.00  0.00     0.023 C 
ENDROOT
BRANCH   1   2
ATOM      2  C   UNL     1       2.982  -3.616   8.444  1.00  0.00     0.116 C 
BRANCH   2   3
ATOM      3  N   UNL     1       2.632  -4.031   7.107  1.00  0.00    -0.351 N 
ATOM      4  C   UNL     1       2.357  -3.377   5.954  1.00  0.00     0.281 C 
ATOM      5  O   UNL     1       2.265  -4.142   4.989  1.00  0.00    -0.268 OA
ATOM      6  H   UNL     1       2.581  -5.010   7.013  1.00  0.00     0.163 HD
BRANCH   4   7
ATOM      7  C   UNL     1       2.293  -1.816   5.818  1.00  0.00     0.172 C 
ATOM      8  C   UNL     1       3.780  -1.364   5.893  1.00  0.00     0.090 C 
BRANCH   7   9
ATOM      9  N   UNL     1       1.901  -1.401   4.437  1.00  0.00    -0.331 N 
ATOM     10  H   UNL     1       2.202  -0.432   4.337  1.00  0.00     0.347 HD
ATOM     11  H   UNL     1       2.338  -2.128   3.870  1.00  0.00     0.347 HD
BRANCH   9  12
ATOM     12  C   UNL     1       0.519  -1.446   3.962  1.00  0.00     0.183 C 
ATOM     13  C   UNL     1       1.013  -1.664   1.406  1.00  0.00    -0.006 C 
ATOM     14  C   UNL     1       0.329  -3.035   1.393  1.00  0.00     0.004 C 
ATOM     15  C   UNL     1       0.473  -0.798   2.560  1.00  0.00     0.068 C 
ATOM     16  C   UNL     1       0.274  -3.723   2.753  1.00  0.00     0.006 C 
ATOM     17  C   UNL     1      -0.192  -2.807   3.887  1.00  0.00     0.065 C 
BRANCH  13  18
ATOM     18  C   UNL     1       2.555  -1.661   1.273  1.00  0.00     0.000 C 
ATOM     19  C   UNL     1       3.353  -2.815   1.859  1.00  0.00     0.004 C 
ENDBRANCH  13  18
ENDBRANCH   9  12
ENDBRANCH   7   9
BRANCH   7  20
ATOM     20  C   UNL     1       1.510  -1.055   6.918  1.00  0.00     0.075 C 
ATOM     21  C   UNL     1       0.082  -1.495   7.210  1.00  0.00     0.011 C 
ENDBRANCH   7  20
ENDBRANCH   4   7
ENDBRANCH   2   3
ENDBRANCH   1   2
BRANCH   1  22
ATOM     22  C   UNL     1       1.458  -5.398   9.505  1.00  0.00     0.023 C 
BRANCH  22  23
ATOM     23  C   UNL     1       2.607  -6.387   9.663  1.00  0.00     0.116 C 
BRANCH  23  24
ATOM     24  N   UNL     1       3.469  -6.070  10.792  1.00  0.00    -0.352 N 
ATOM     25  C   UNL     1       3.942  -6.896  11.780  1.00  0.00     0.251 C 
ATOM     26  H   UNL     1       3.752  -5.129  10.855  1.00  0.00     0.163 HD
ATOM     27  O   UNL     1       4.550  -6.423  12.735  1.00  0.00    -0.269 OA
BRANCH  25  28
ATOM     28  C   UNL     1       3.683  -8.346  11.698  1.00  0.00     0.039 A 
ATOM     29  C   UNL     1       3.173  -9.001  12.820  1.00  0.00     0.014 A 
ATOM     30  C   UNL     1       3.917  -9.047  10.512  1.00  0.00     0.014 A 
ATOM     31  C   UNL     1       2.837 -10.352  12.733  1.00  0.00     0.010 A 
ATOM     32  C   UNL     1       3.513 -10.374  10.406  1.00  0.00     0.010 A 
ATOM     33  C   UNL     1       2.971 -11.040  11.516  1.00  0.00    -0.014 A 
BRANCH  33  34
ATOM     34  C   UNL     1       2.546 -12.457  11.386  1.00  0.00     0.031 A 
ATOM     35  C   UNL     1       3.562 -13.522  11.077  1.00  0.00     0.074 A 
ATOM     36  C   UNL     1       1.240 -12.771  11.489  1.00  0.00     0.049 A 
ATOM     37  N   UNL     1       3.379 -14.800  10.869  1.00  0.00    -0.248 NA
ATOM     38  C   UNL     1       4.964 -13.090  10.959  1.00  0.00     0.031 C 
ATOM     39  C   UNL     1       0.157 -11.816  11.737  1.00  0.00     0.029 A 
ATOM     40  N   UNL     1       0.597 -13.979  11.388  1.00  0.00    -0.354 N 
ATOM     41  C   UNL     1       4.636 -15.322  10.585  1.00  0.00     0.074 A 
ATOM     42  C   UNL     1       5.565 -14.213  10.592  1.00  0.00     0.031 C 
ATOM     43  C   UNL     1      -1.010 -12.478  11.791  1.00  0.00     0.029 A 
ATOM     44  C   UNL     1      -0.767 -13.895  11.544  1.00  0.00     0.049 A 
ATOM     45  H   UNL     1       1.069 -14.827  11.220  1.00  0.00     0.167 HD
ATOM     46  C   UNL     1       4.987 -16.610  10.363  1.00  0.00     0.037 A 
ATOM     47  C   UNL     1      -1.714 -14.851  11.486  1.00  0.00     0.037 A 
ATOM     48  C   UNL     1       4.058 -17.710  10.379  1.00  0.00     0.049 A 
ATOM     49  C   UNL     1      -1.300 -16.276  11.235  1.00  0.00     0.074 A 
ATOM     50  C   UNL     1       4.320 -19.060  10.223  1.00  0.00     0.029 A 
ATOM     51  N   UNL     1       2.687 -17.588  10.560  1.00  0.00    -0.354 N 
ATOM     52  N   UNL     1      -0.097 -16.761  11.035  1.00  0.00    -0.248 NA
ATOM     53  C   UNL     1      -2.367 -17.284  11.207  1.00  0.00     0.031 C 
ATOM     54  C   UNL     1       3.104 -19.749  10.262  1.00  0.00     0.029 A 
ATOM     55  C   UNL     1       2.088 -18.835  10.498  1.00  0.00     0.049 A 
ATOM     56  H   UNL     1       2.211 -16.740  10.711  1.00  0.00     0.167 HD
ATOM     57  C   UNL     1      -0.260 -18.134  10.887  1.00  0.00     0.074 A 
ATOM     58  C   UNL     1      -1.677 -18.403  11.033  1.00  0.00     0.031 C 
ATOM     59  C   UNL     1       0.677 -19.086  10.653  1.00  0.00     0.037 A 
BRANCH  46  60
ATOM     60  C   UNL     1       6.437 -16.902  10.087  1.00  0.00     0.058 A 
ATOM     61  C   UNL     1       7.416 -16.781  11.086  1.00  0.00     0.135 A 
ATOM     62  C   UNL     1       6.849 -17.344   8.819  1.00  0.00     0.135 A 
ATOM     63  F   UNL     1       7.082 -16.347  12.312  1.00  0.00    -0.206 F 
ATOM     64  C   UNL     1       8.755 -17.059  10.832  1.00  0.00     0.059 A 
ATOM     65  C   UNL     1       8.179 -17.657   8.550  1.00  0.00     0.059 A 
ATOM     66  F   UNL     1       5.956 -17.477   7.826  1.00  0.00    -0.206 F 
ATOM     67  C   UNL     1       9.127 -17.497   9.560  1.00  0.00     0.060 A 
BRANCH  67  68
ATOM     68  S   UNL     1      10.867 -17.863   9.251  1.00  0.00     0.124 S 
ATOM     69  O   UNL     1      11.446 -16.524   9.226  1.00  0.00    -0.237 OA
ATOM     70  O   UNL     1      11.223 -18.685  10.403  1.00  0.00    -0.237 OA
ATOM     71  O   UNL     1      10.846 -18.561   7.969  1.00  0.00    -0.744 OA
ENDBRANCH  67  68
ENDBRANCH  46  60
BRANCH  47  72
ATOM     72  C   UNL     1      -3.144 -14.495  11.690  1.00  0.00     0.058 A 
ATOM     73  C   UNL     1      -3.831 -14.898  12.845  1.00  0.00     0.135 A 
ATOM     74  C   UNL     1      -3.850 -13.737  10.743  1.00  0.00     0.135 A 
ATOM     75  F   UNL     1      -3.202 -15.629  13.779  1.00  0.00    -0.206 F 
ATOM     76  C   UNL     1      -5.170 -14.579  13.047  1.00  0.00     0.059 A 
ATOM     77  C   UNL     1      -5.182 -13.383  10.934  1.00  0.00     0.059 A 
ATOM     78  F   UNL     1      -3.235 -13.312   9.628  1.00  0.00    -0.206 F 
ATOM     79  C   UNL     1      -5.837 -13.818  12.085  1.00  0.00     0.060 A 
BRANCH  79  80
ATOM     80  S   UNL     1      -7.562 -13.372  12.378  1.00  0.00     0.124 S 
ATOM     81  O   UNL     1      -8.236 -14.648  12.165  1.00  0.00    -0.237 OA
ATOM     82  O   UNL     1      -7.524 -12.892  13.756  1.00  0.00    -0.237 OA
ATOM     83  O   UNL     1      -7.819 -12.346  11.372  1.00  0.00    -0.744 OA
ENDBRANCH  79  80
ENDBRANCH  47  72
BRANCH  59  84
ATOM     84  C   UNL     1       0.210 -20.514  10.577  1.00  0.00     0.058 A 
ATOM     85  C   UNL     1      -0.520 -20.996   9.479  1.00  0.00     0.135 A 
ATOM     86  C   UNL     1       0.546 -21.425  11.592  1.00  0.00     0.135 A 
ATOM     87  F   UNL     1      -0.873 -20.166   8.485  1.00  0.00    -0.206 F 
ATOM     88  C   UNL     1      -0.921 -22.326   9.402  1.00  0.00     0.059 A 
ATOM     89  C   UNL     1       0.181 -22.765  11.521  1.00  0.00     0.059 A 
ATOM     90  F   UNL     1       1.253 -21.018  12.659  1.00  0.00    -0.206 F 
ATOM     91  C   UNL     1      -0.563 -23.204  10.427  1.00  0.00     0.060 A 
BRANCH  91  92
ATOM     92  S   UNL     1      -1.059 -24.935  10.297  1.00  0.00     0.124 S 
ATOM     93  O   UNL     1      -2.488 -24.852  10.576  1.00  0.00    -0.237 OA
ATOM     94  O   UNL     1      -0.699 -25.260   8.920  1.00  0.00    -0.237 OA
ATOM     95  O   UNL     1      -0.256 -25.597  11.321  1.00  0.00    -0.744 OA
ENDBRANCH  91  92
ENDBRANCH  59  84
ENDBRANCH  33  34
ENDBRANCH  25  28
ENDBRANCH  23  24
ENDBRANCH  22  23
ENDBRANCH   1  22
TORSDOF 18
