REMARK SMILES O=C(NCCCCNC(=O)c1ccc(S(=O)(=O)NCCCn2cccn2)cc1)c1ccc(-c2c3nc(c(-c4c(F)cc(S(=O)(=O)[O-])cc4F)c4ccc([nH]4)c(-c4c(F)cc(S(=O)(=O)[O-])cc4F)c4nc(c(-c5c(F)cc(S(=O)(=O)[O-])cc5F)c5ccc2[nH]5)C=C4)C=C3)cc1
REMARK SMILES IDX 7 1 6 2 5 3 4 4 3 5 1 6 2 7 29 9 30 10 94 11 31 12 93 13
REMARK SMILES IDX 32 14 33 15 34 16 87 17 35 18 92 19 86 20 88 21 36 22 91 23
REMARK SMILES IDX 85 24 84 25 37 27 71 28 50 29 70 30 51 31 54 32 69 33 89 34
REMARK SMILES IDX 52 35 53 36 68 38 90 39 55 40 38 41 39 42 48 43 40 44 41 45
REMARK SMILES IDX 47 46 49 47 42 48 43 49 44 50 45 51 46 52 72 53 73 54 82 55
REMARK SMILES IDX 74 56 75 57 81 58 83 59 76 60 77 61 78 62 79 63 80 64 56 65
REMARK SMILES IDX 57 66 66 67 58 68 59 69 65 70 67 71 60 72 61 73 62 74 63 75
REMARK SMILES IDX 64 76 8 77 9 78 10 80 11 81 12 82 28 83 13 84 27 85 14 86
REMARK SMILES IDX 15 87 16 88 17 89 18 90 19 92 20 93 21 94 22 95 23 96 26 97
REMARK SMILES IDX 24 98 25 99
REMARK H PARENT 3 8 88 26 54 37 8 79 18 91
REMARK Flexibility Score: inf
ROOT
ATOM      1  C   UNL     1       4.916   4.058   0.190  1.00  0.00     0.116 C 
ENDROOT
BRANCH   1   2
ATOM      2  C   UNL     1       4.504   3.340  -1.089  1.00  0.00     0.023 C 
BRANCH   2   3
ATOM      3  C   UNL     1       4.976   1.893  -1.236  1.00  0.00     0.023 C 
BRANCH   3   4
ATOM      4  C   UNL     1       4.615   0.957  -0.083  1.00  0.00     0.116 C 
BRANCH   4   5
ATOM      5  N   UNL     1       3.204   0.914   0.240  1.00  0.00    -0.352 N 
ATOM      6  O   UNL     1       1.118   0.289   0.529  1.00  0.00    -0.269 OA
ATOM      7  C   UNL     1       2.141   0.147  -0.149  1.00  0.00     0.251 C 
ATOM      8  H   UNL     1       2.949   1.602   0.897  1.00  0.00     0.163 HD
BRANCH   7   9
ATOM      9  C   UNL     1       2.101  -0.775  -1.322  1.00  0.00     0.039 A 
ATOM     10  C   UNL     1       3.175  -1.109  -2.146  1.00  0.00     0.014 A 
ATOM     11  C   UNL     1       0.834  -1.311  -1.632  1.00  0.00     0.014 A 
ATOM     12  C   UNL     1       2.973  -1.900  -3.282  1.00  0.00     0.010 A 
ATOM     13  C   UNL     1       0.628  -2.101  -2.761  1.00  0.00     0.010 A 
ATOM     14  C   UNL     1       1.694  -2.372  -3.610  1.00  0.00    -0.014 A 
BRANCH  14  15
ATOM     15  C   UNL     1       1.547  -3.265  -4.764  1.00  0.00     0.031 A 
ATOM     16  C   UNL     1       2.289  -4.557  -4.646  1.00  0.00     0.074 A 
ATOM     17  C   UNL     1       0.708  -3.061  -5.803  1.00  0.00     0.049 A 
ATOM     18  N   UNL     1       3.270  -4.989  -5.370  1.00  0.00    -0.248 NA
ATOM     19  C   UNL     1       1.964  -5.429  -3.506  1.00  0.00     0.031 C 
ATOM     20  C   UNL     1      -0.318  -2.026  -5.954  1.00  0.00     0.029 A 
ATOM     21  N   UNL     1       0.546  -3.811  -6.934  1.00  0.00    -0.354 N 
ATOM     22  C   UNL     1       3.561  -6.272  -4.906  1.00  0.00     0.074 A 
ATOM     23  C   UNL     1       2.828  -6.431  -3.677  1.00  0.00     0.031 C 
ATOM     24  C   UNL     1      -1.127  -2.341  -6.995  1.00  0.00     0.029 A 
ATOM     25  C   UNL     1      -0.595  -3.511  -7.673  1.00  0.00     0.049 A 
ATOM     26  H   UNL     1       1.185  -4.509  -7.204  1.00  0.00     0.167 HD
ATOM     27  C   UNL     1       4.237  -7.180  -5.665  1.00  0.00     0.037 A 
ATOM     28  C   UNL     1      -1.085  -4.197  -8.741  1.00  0.00     0.037 A 
ATOM     29  C   UNL     1       4.938  -6.543  -6.748  1.00  0.00     0.049 A 
ATOM     30  C   UNL     1       0.035  -4.992  -9.304  1.00  0.00     0.074 A 
ATOM     31  C   UNL     1       5.931  -5.587  -6.832  1.00  0.00     0.029 A 
ATOM     32  N   UNL     1       4.388  -6.616  -8.004  1.00  0.00    -0.354 N 
ATOM     33  N   UNL     1       1.086  -4.475  -9.878  1.00  0.00    -0.248 NA
ATOM     34  C   UNL     1       0.185  -6.362  -8.841  1.00  0.00     0.031 C 
ATOM     35  C   UNL     1       5.580  -4.793  -7.961  1.00  0.00     0.029 A 
ATOM     36  C   UNL     1       4.436  -5.352  -8.533  1.00  0.00     0.049 A 
ATOM     37  H   UNL     1       4.029  -7.422  -8.441  1.00  0.00     0.167 HD
ATOM     38  C   UNL     1       2.140  -5.279  -9.472  1.00  0.00     0.074 A 
ATOM     39  C   UNL     1       1.514  -6.469  -8.902  1.00  0.00     0.031 C 
ATOM     40  C   UNL     1       3.413  -4.794  -9.389  1.00  0.00     0.037 A 
BRANCH  27  41
ATOM     41  C   UNL     1       4.008  -8.674  -5.627  1.00  0.00     0.058 A 
ATOM     42  C   UNL     1       4.877  -9.534  -6.332  1.00  0.00     0.135 A 
ATOM     43  C   UNL     1       2.812  -9.267  -5.165  1.00  0.00     0.135 A 
ATOM     44  F   UNL     1       6.039  -9.079  -6.826  1.00  0.00    -0.206 F 
ATOM     45  C   UNL     1       4.550 -10.861  -6.617  1.00  0.00     0.059 A 
ATOM     46  C   UNL     1       2.489 -10.600  -5.393  1.00  0.00     0.059 A 
ATOM     47  F   UNL     1       1.855  -8.556  -4.556  1.00  0.00    -0.206 F 
ATOM     48  C   UNL     1       3.344 -11.380  -6.156  1.00  0.00     0.060 A 
BRANCH  48  49
ATOM     49  S   UNL     1       2.869 -13.057  -6.610  1.00  0.00     0.124 S 
ATOM     50  O   UNL     1       2.628 -12.914  -8.041  1.00  0.00    -0.237 OA
ATOM     51  O   UNL     1       4.056 -13.820  -6.235  1.00  0.00    -0.237 OA
ATOM     52  O   UNL     1       1.687 -13.306  -5.791  1.00  0.00    -0.744 OA
ENDBRANCH  48  49
ENDBRANCH  27  41
BRANCH  28  53
ATOM     53  C   UNL     1      -2.504  -4.485  -9.096  1.00  0.00     0.058 A 
ATOM     54  C   UNL     1      -2.859  -5.003 -10.357  1.00  0.00     0.135 A 
ATOM     55  C   UNL     1      -3.501  -4.548  -8.102  1.00  0.00     0.135 A 
ATOM     56  F   UNL     1      -1.966  -5.008 -11.359  1.00  0.00    -0.206 F 
ATOM     57  C   UNL     1      -4.106  -5.593 -10.603  1.00  0.00     0.059 A 
ATOM     58  C   UNL     1      -4.752  -5.125  -8.325  1.00  0.00     0.059 A 
ATOM     59  F   UNL     1      -3.252  -4.135  -6.851  1.00  0.00    -0.206 F 
ATOM     60  C   UNL     1      -5.041  -5.669  -9.571  1.00  0.00     0.060 A 
BRANCH  60  61
ATOM     61  S   UNL     1      -6.582  -6.585  -9.827  1.00  0.00     0.124 S 
ATOM     62  O   UNL     1      -7.300  -5.715 -10.753  1.00  0.00    -0.237 OA
ATOM     63  O   UNL     1      -6.105  -7.848 -10.379  1.00  0.00    -0.237 OA
ATOM     64  O   UNL     1      -7.151  -6.671  -8.484  1.00  0.00    -0.744 OA
ENDBRANCH  60  61
ENDBRANCH  28  53
BRANCH  40  65
ATOM     65  C   UNL     1       3.732  -3.470 -10.033  1.00  0.00     0.058 A 
ATOM     66  C   UNL     1       3.203  -2.234  -9.622  1.00  0.00     0.135 A 
ATOM     67  C   UNL     1       4.769  -3.442 -10.978  1.00  0.00     0.135 A 
ATOM     68  F   UNL     1       2.273  -2.166  -8.658  1.00  0.00    -0.206 F 
ATOM     69  C   UNL     1       3.678  -1.026 -10.139  1.00  0.00     0.059 A 
ATOM     70  C   UNL     1       5.278  -2.251 -11.484  1.00  0.00     0.059 A 
ATOM     71  F   UNL     1       5.351  -4.588 -11.371  1.00  0.00    -0.206 F 
ATOM     72  C   UNL     1       4.725  -1.044 -11.061  1.00  0.00     0.060 A 
BRANCH  72  73
ATOM     73  S   UNL     1       5.426   0.520 -11.633  1.00  0.00     0.124 S 
ATOM     74  O   UNL     1       4.375   1.026 -12.509  1.00  0.00    -0.237 OA
ATOM     75  O   UNL     1       5.622   1.254 -10.387  1.00  0.00    -0.237 OA
ATOM     76  O   UNL     1       6.659   0.116 -12.306  1.00  0.00    -0.744 OA
ENDBRANCH  72  73
ENDBRANCH  40  65
ENDBRANCH  14  15
ENDBRANCH   7   9
ENDBRANCH   4   5
ENDBRANCH   3   4
ENDBRANCH   2   3
ENDBRANCH   1   2
BRANCH   1  77
ATOM     77  N   UNL     1       6.355   4.235   0.332  1.00  0.00    -0.352 N 
ATOM     78  C   UNL     1       7.091   5.378   0.545  1.00  0.00     0.251 C 
ATOM     79  H   UNL     1       6.884   3.407   0.266  1.00  0.00     0.163 HD
ATOM     80  O   UNL     1       8.318   5.327   0.564  1.00  0.00    -0.269 OA
BRANCH  78  81
ATOM     81  C   UNL     1       6.420   6.683   0.742  1.00  0.00     0.039 A 
ATOM     82  C   UNL     1       6.934   7.819   0.105  1.00  0.00     0.015 A 
ATOM     83  C   UNL     1       5.295   6.796   1.562  1.00  0.00     0.015 A 
ATOM     84  C   UNL     1       6.295   9.054   0.255  1.00  0.00     0.022 A 
ATOM     85  C   UNL     1       4.601   8.000   1.633  1.00  0.00     0.022 A 
ATOM     86  C   UNL     1       5.120   9.136   1.013  1.00  0.00     0.082 A 
BRANCH  86  87
ATOM     87  S   UNL     1       4.382  10.734   1.245  1.00  0.00     0.240 S 
ATOM     88  O   UNL     1       5.417  11.630   1.703  1.00  0.00    -0.207 OA
ATOM     89  O   UNL     1       3.591  11.013   0.066  1.00  0.00    -0.207 OA
BRANCH  87  90
ATOM     90  N   UNL     1       3.282  10.562   2.494  1.00  0.00    -0.211 NA
ATOM     91  H   UNL     1       2.597   9.881   2.166  1.00  0.00     0.141 HD
BRANCH  90  92
ATOM     92  C   UNL     1       3.636  10.145   3.845  1.00  0.00     0.101 C 
BRANCH  92  93
ATOM     93  C   UNL     1       4.260  11.242   4.689  1.00  0.00     0.040 C 
BRANCH  93  94
ATOM     94  C   UNL     1       3.350  12.436   4.950  1.00  0.00     0.145 C 
BRANCH  94  95
ATOM     95  N   UNL     1       2.206  12.213   5.816  1.00  0.00    -0.273 N 
ATOM     96  C   UNL     1       1.843  11.095   6.513  1.00  0.00     0.108 A 
ATOM     97  N   UNL     1       1.358  13.244   6.017  1.00  0.00    -0.182 NA
ATOM     98  C   UNL     1       0.664  11.399   7.150  1.00  0.00     0.042 A 
ATOM     99  C   UNL     1       0.422  12.742   6.824  1.00  0.00     0.135 A 
ENDBRANCH  94  95
ENDBRANCH  93  94
ENDBRANCH  92  93
ENDBRANCH  90  92
ENDBRANCH  87  90
ENDBRANCH  86  87
ENDBRANCH  78  81
ENDBRANCH   1  77
TORSDOF 20
