REMARK SMILES COc1ccc(NS(=O)(=O)c2ccc(CCC(=O)NCCCCNC(=O)c3ccc(-c4c5nc(c(-c6c(F)cc(S(=O)(=O)[O-])cc6F)c6ccc([nH]6)c(-c6c(F)cc(S(=O)(=O)[O-])cc6F)c6nc(c(-c7c(F)cc(S(=O)(=O)[O-])cc7F)c7ccc4[nH]7)C=C6)C=C5)cc3)cc2)cn1
REMARK SMILES IDX 20 1 19 2 17 3 18 4 16 6 15 7 14 8 11 9 12 10 94 11 13 12
REMARK SMILES IDX 93 13 8 14 9 15 10 16 7 17 6 19 3 20 4 21 96 22 5 23 95 24
REMARK SMILES IDX 2 25 1 26 21 27 22 28 23 29 24 30 25 31 26 33 27 34 28 35
REMARK SMILES IDX 92 36 29 37 91 38 30 39 31 40 32 41 85 42 33 43 90 44 84 45
REMARK SMILES IDX 86 46 34 47 89 48 83 49 82 50 35 52 69 53 48 54 68 55 49 56
REMARK SMILES IDX 52 57 67 58 87 59 50 60 51 61 66 63 88 64 53 65 36 66 37 67
REMARK SMILES IDX 46 68 38 69 39 70 45 71 47 72 40 73 41 74 42 75 43 76 44 77
REMARK SMILES IDX 70 78 71 79 80 80 72 81 73 82 79 83 81 84 74 85 75 86 76 87
REMARK SMILES IDX 77 88 78 89 54 90 55 91 64 92 56 93 57 94 63 95 65 96 58 97
REMARK SMILES IDX 59 98 60 99 61 100 62 101
REMARK H PARENT 19 5 7 18 24 32 86 51 52 62
REMARK Flexibility Score: inf
ROOT
ATOM      1  C   UNL     1      -3.821   4.381   7.577  1.00  0.00     0.116 C 
ENDROOT
BRANCH   1   2
ATOM      2  N   UNL     1      -4.662   5.062   6.611  1.00  0.00    -0.356 N 
ATOM      3  C   UNL     1      -5.362   4.536   5.565  1.00  0.00     0.220 C 
ATOM      4  O   UNL     1      -5.804   5.304   4.708  1.00  0.00    -0.275 OA
ATOM      5  H   UNL     1      -4.738   6.037   6.726  1.00  0.00     0.163 HD
BRANCH   3   6
ATOM      6  C   UNL     1      -5.637   3.045   5.484  1.00  0.00     0.105 C 
BRANCH   6   7
ATOM      7  C   UNL     1      -4.881   2.344   4.349  1.00  0.00     0.045 C 
BRANCH   7   8
ATOM      8  C   UNL     1      -3.494   1.880   4.736  1.00  0.00    -0.047 A 
ATOM      9  C   UNL     1      -0.939   1.252   5.693  1.00  0.00     0.087 A 
ATOM     10  C   UNL     1      -1.091   2.225   4.699  1.00  0.00     0.022 A 
ATOM     11  C   UNL     1      -2.047   0.547   6.170  1.00  0.00     0.022 A 
ATOM     12  C   UNL     1      -2.364   2.512   4.200  1.00  0.00     0.005 A 
ATOM     13  C   UNL     1      -3.321   0.862   5.689  1.00  0.00     0.005 A 
BRANCH   9  14
ATOM     14  S   UNL     1       0.637   1.069   6.497  1.00  0.00     0.261 S 
ATOM     15  O   UNL     1       0.391   0.433   7.774  1.00  0.00    -0.201 OA
ATOM     16  O   UNL     1       1.338   2.330   6.403  1.00  0.00    -0.201 OA
BRANCH  14  17
ATOM     17  N   UNL     1       1.496  -0.069   5.568  1.00  0.00    -0.278 N 
ATOM     18  H   UNL     1       1.897  -0.872   5.973  1.00  0.00     0.180 HD
BRANCH  17  19
ATOM     19  C   UNL     1       1.605   0.201   4.169  1.00  0.00     0.067 A 
ATOM     20  C   UNL     1       1.621   0.760   1.498  1.00  0.00     0.213 A 
ATOM     21  C   UNL     1       2.663   1.235   2.281  1.00  0.00     0.070 A 
ATOM     22  N   UNL     1       0.574   0.062   1.983  1.00  0.00    -0.220 NA
ATOM     23  C   UNL     1       2.657   0.945   3.646  1.00  0.00     0.034 A 
ATOM     24  C   UNL     1       0.592  -0.203   3.305  1.00  0.00     0.141 A 
BRANCH  20  25
ATOM     25  O   UNL     1       1.622   1.093   0.165  1.00  0.00    -0.481 OA
ATOM     26  C   UNL     1       1.227  -0.008  -0.649  1.00  0.00     0.280 C 
ENDBRANCH  20  25
ENDBRANCH  17  19
ENDBRANCH  14  17
ENDBRANCH   9  14
ENDBRANCH   7   8
ENDBRANCH   6   7
ENDBRANCH   3   6
ENDBRANCH   1   2
BRANCH   1  27
ATOM     27  C   UNL     1      -2.414   4.226   7.017  1.00  0.00     0.023 C 
BRANCH  27  28
ATOM     28  C   UNL     1      -1.397   5.255   7.465  1.00  0.00     0.023 C 
BRANCH  28  29
ATOM     29  C   UNL     1      -0.999   5.124   8.922  1.00  0.00     0.116 C 
BRANCH  29  30
ATOM     30  N   UNL     1      -0.354   3.856   9.256  1.00  0.00    -0.352 N 
ATOM     31  C   UNL     1       0.860   3.628   9.867  1.00  0.00     0.251 C 
ATOM     32  H   UNL     1      -0.860   3.047   9.010  1.00  0.00     0.163 HD
ATOM     33  O   UNL     1       1.283   2.490  10.031  1.00  0.00    -0.269 OA
BRANCH  31  34
ATOM     34  C   UNL     1       1.666   4.780  10.312  1.00  0.00     0.039 A 
ATOM     35  C   UNL     1       3.031   4.827  10.018  1.00  0.00     0.014 A 
ATOM     36  C   UNL     1       1.047   5.841  10.967  1.00  0.00     0.014 A 
ATOM     37  C   UNL     1       3.755   5.983  10.314  1.00  0.00     0.010 A 
ATOM     38  C   UNL     1       1.726   7.036  11.113  1.00  0.00     0.010 A 
ATOM     39  C   UNL     1       3.097   7.113  10.823  1.00  0.00    -0.014 A 
BRANCH  39  40
ATOM     40  C   UNL     1       3.800   8.378  11.152  1.00  0.00     0.031 A 
ATOM     41  C   UNL     1       3.682   8.920  12.555  1.00  0.00     0.074 A 
ATOM     42  C   UNL     1       4.426   9.087  10.193  1.00  0.00     0.049 A 
ATOM     43  N   UNL     1       3.990  10.103  13.017  1.00  0.00    -0.248 NA
ATOM     44  C   UNL     1       3.061   8.032  13.555  1.00  0.00     0.031 C 
ATOM     45  C   UNL     1       4.555   8.697   8.787  1.00  0.00     0.029 A 
ATOM     46  N   UNL     1       5.057  10.303  10.256  1.00  0.00    -0.354 N 
ATOM     47  C   UNL     1       3.541  10.117  14.333  1.00  0.00     0.074 A 
ATOM     48  C   UNL     1       2.875   8.858  14.571  1.00  0.00     0.031 C 
ATOM     49  C   UNL     1       5.249   9.641   8.129  1.00  0.00     0.029 A 
ATOM     50  C   UNL     1       5.573  10.722   9.053  1.00  0.00     0.049 A 
ATOM     51  H   UNL     1       5.133  10.828  11.086  1.00  0.00     0.167 HD
ATOM     52  C   UNL     1       3.701  11.079  15.272  1.00  0.00     0.037 A 
ATOM     53  C   UNL     1       6.229  11.856   8.737  1.00  0.00     0.037 A 
ATOM     54  C   UNL     1       4.451  12.284  15.046  1.00  0.00     0.049 A 
ATOM     55  C   UNL     1       6.475  12.874   9.818  1.00  0.00     0.074 A 
ATOM     56  C   UNL     1       4.757  13.291  15.942  1.00  0.00     0.029 A 
ATOM     57  N   UNL     1       5.040  12.627  13.836  1.00  0.00    -0.354 N 
ATOM     58  N   UNL     1       6.075  12.862  11.068  1.00  0.00    -0.248 NA
ATOM     59  C   UNL     1       7.270  14.053   9.452  1.00  0.00     0.031 C 
ATOM     60  C   UNL     1       5.516  14.254  15.268  1.00  0.00     0.029 A 
ATOM     61  C   UNL     1       5.715  13.827  13.964  1.00  0.00     0.049 A 
ATOM     62  H   UNL     1       4.985  12.094  13.010  1.00  0.00     0.167 HD
ATOM     63  C   UNL     1       6.599  14.013  11.647  1.00  0.00     0.074 A 
ATOM     64  C   UNL     1       7.349  14.694  10.611  1.00  0.00     0.031 C 
ATOM     65  C   UNL     1       6.474  14.466  12.919  1.00  0.00     0.037 A 
BRANCH  52  66
ATOM     66  C   UNL     1       3.078  10.846  16.622  1.00  0.00     0.058 A 
ATOM     67  C   UNL     1       3.536   9.835  17.484  1.00  0.00     0.135 A 
ATOM     68  C   UNL     1       2.006  11.639  17.061  1.00  0.00     0.135 A 
ATOM     69  F   UNL     1       4.546   9.033  17.110  1.00  0.00    -0.206 F 
ATOM     70  C   UNL     1       2.923   9.586  18.707  1.00  0.00     0.059 A 
ATOM     71  C   UNL     1       1.401  11.432  18.297  1.00  0.00     0.059 A 
ATOM     72  F   UNL     1       1.526  12.620  16.280  1.00  0.00    -0.206 F 
ATOM     73  C   UNL     1       1.853  10.389  19.104  1.00  0.00     0.060 A 
BRANCH  73  74
ATOM     74  S   UNL     1       1.066  10.051  20.693  1.00  0.00     0.124 S 
ATOM     75  O   UNL     1       0.291   8.853  20.384  1.00  0.00    -0.237 OA
ATOM     76  O   UNL     1       2.211   9.854  21.575  1.00  0.00    -0.237 OA
ATOM     77  O   UNL     1       0.284  11.257  20.947  1.00  0.00    -0.744 OA
ENDBRANCH  73  74
ENDBRANCH  52  66
BRANCH  53  78
ATOM     78  C   UNL     1       6.742  12.060   7.356  1.00  0.00     0.058 A 
ATOM     79  C   UNL     1       8.117  11.982   7.085  1.00  0.00     0.135 A 
ATOM     80  C   UNL     1       5.879  12.312   6.278  1.00  0.00     0.135 A 
ATOM     81  F   UNL     1       8.983  11.746   8.082  1.00  0.00    -0.206 F 
ATOM     82  C   UNL     1       8.621  12.163   5.802  1.00  0.00     0.059 A 
ATOM     83  C   UNL     1       6.357  12.473   4.980  1.00  0.00     0.059 A 
ATOM     84  F   UNL     1       4.554  12.376   6.479  1.00  0.00    -0.206 F 
ATOM     85  C   UNL     1       7.732  12.406   4.754  1.00  0.00     0.060 A 
BRANCH  85  86
ATOM     86  S   UNL     1       8.395  12.587   3.083  1.00  0.00     0.124 S 
ATOM     87  O   UNL     1       9.006  13.909   3.151  1.00  0.00    -0.237 OA
ATOM     88  O   UNL     1       9.318  11.460   2.995  1.00  0.00    -0.237 OA
ATOM     89  O   UNL     1       7.208  12.482   2.239  1.00  0.00    -0.744 OA
ENDBRANCH  85  86
ENDBRANCH  53  78
BRANCH  65  90
ATOM     90  C   UNL     1       7.210  15.725  13.277  1.00  0.00     0.058 A 
ATOM     91  C   UNL     1       6.775  16.985  12.843  1.00  0.00     0.135 A 
ATOM     92  C   UNL     1       8.335  15.668  14.116  1.00  0.00     0.135 A 
ATOM     93  F   UNL     1       5.707  17.091  12.037  1.00  0.00    -0.206 F 
ATOM     94  C   UNL     1       7.444  18.148  13.209  1.00  0.00     0.059 A 
ATOM     95  C   UNL     1       9.004  16.819  14.517  1.00  0.00     0.059 A 
ATOM     96  F   UNL     1       8.782  14.486  14.569  1.00  0.00    -0.206 F 
ATOM     97  C   UNL     1       8.558  18.053  14.047  1.00  0.00     0.060 A 
BRANCH  97  98
ATOM     98  S   UNL     1       9.400  19.571  14.542  1.00  0.00     0.124 S 
ATOM     99  O   UNL     1      10.130  19.911  13.325  1.00  0.00    -0.237 OA
ATOM    100  O   UNL     1       8.286  20.452  14.881  1.00  0.00    -0.237 OA
ATOM    101  O   UNL     1      10.223  19.149  15.672  1.00  0.00    -0.744 OA
ENDBRANCH  97  98
ENDBRANCH  65  90
ENDBRANCH  39  40
ENDBRANCH  31  34
ENDBRANCH  29  30
ENDBRANCH  28  29
ENDBRANCH  27  28
ENDBRANCH   1  27
TORSDOF 20
