REMARK SMILES CC(=O)N[C@@H](C[NH2+]CCc1ccc(F)cc1C)C(=O)NCCCCNC(=O)c1ccc(-c2c3nc(c(-c4c(F)cc(S(=O)(=O)[O-])cc4F)c4ccc([nH]4)c(-c4c(F)cc(S(=O)(=O)[O-])cc4F)c4nc(c(-c5c(F)cc(S(=O)(=O)[O-])cc5F)c5ccc2[nH]5)C=C4)C=C3)cc1
REMARK SMILES IDX 21 1 20 2 18 3 19 4 5 6 4 7 1 8 2 9 3 10 6 12 7 13 8 16 9 17
REMARK SMILES IDX 10 18 11 19 16 20 12 21 15 22 17 23 13 24 14 25 22 26 23 27
REMARK SMILES IDX 24 28 25 29 26 30 27 32 28 33 29 34 93 35 30 36 92 37 31 38
REMARK SMILES IDX 32 39 33 40 86 41 34 42 91 43 85 44 87 45 35 46 90 47 84 48
REMARK SMILES IDX 83 49 36 51 70 52 49 53 69 54 50 55 53 56 68 57 88 58 51 59
REMARK SMILES IDX 52 60 67 62 89 63 54 64 37 65 38 66 47 67 39 68 40 69 46 70
REMARK SMILES IDX 48 71 41 72 42 73 43 74 44 75 45 76 71 77 72 78 81 79 73 80
REMARK SMILES IDX 74 81 80 82 82 83 75 84 76 85 77 86 78 87 79 88 55 89 56 90
REMARK SMILES IDX 65 91 57 92 58 93 64 94 66 95 59 96 60 97 61 98 62 99 63 100
REMARK H PARENT 20 5 4 11 7 14 7 15 25 31 87 50 53 61
REMARK Flexibility Score: inf
ROOT
ATOM      1  C   UNL     1       0.093   1.279   5.304  1.00  0.00     0.116 C 
ENDROOT
BRANCH   1   2
ATOM      2  N   UNL     1       0.031  -0.120   4.929  1.00  0.00    -0.354 N 
ATOM      3  C   UNL     1       0.767  -0.822   4.019  1.00  0.00     0.248 C 
ATOM      4  O   UNL     1       0.733  -2.056   4.095  1.00  0.00    -0.272 OA
ATOM      5  H   UNL     1      -0.649  -0.647   5.407  1.00  0.00     0.163 HD
BRANCH   3   6
ATOM      6  C   UNL     1       1.686  -0.145   2.978  1.00  0.00     0.226 C 
BRANCH   6   7
ATOM      7  N   UNL     1       1.020   0.927   2.223  1.00  0.00    -0.340 N 
ATOM      8  C   UNL     1       1.059  -0.168   0.013  1.00  0.00     0.114 C 
ATOM      9  C   UNL     1       0.644   0.955   0.918  1.00  0.00     0.217 C 
ATOM     10  O   UNL     1       0.004   1.921   0.505  1.00  0.00    -0.275 OA
ATOM     11  H   UNL     1       0.817   1.742   2.738  1.00  0.00     0.164 HD
ENDBRANCH   6   7
BRANCH   6  12
ATOM     12  C   UNL     1       3.064   0.279   3.558  1.00  0.00     0.296 C 
BRANCH  12  13
ATOM     13  N   UNL     1       3.027   1.424   4.474  1.00  0.00    -0.344 N 
ATOM     14  H   UNL     1       2.574   1.126   5.338  1.00  0.00     0.346 HD
ATOM     15  H   UNL     1       2.519   2.165   3.991  1.00  0.00     0.346 HD
BRANCH  13  16
ATOM     16  C   UNL     1       4.343   1.975   4.814  1.00  0.00     0.265 C 
BRANCH  16  17
ATOM     17  C   UNL     1       4.948   2.909   3.743  1.00  0.00     0.097 C 
BRANCH  17  18
ATOM     18  C   UNL     1       4.067   4.093   3.375  1.00  0.00    -0.039 A 
ATOM     19  C   UNL     1       3.078   3.901   2.386  1.00  0.00     0.007 A 
ATOM     20  C   UNL     1       4.173   5.357   3.993  1.00  0.00    -0.045 A 
ATOM     21  C   UNL     1       2.191   4.917   2.037  1.00  0.00     0.039 A 
ATOM     22  C   UNL     1       3.301   6.388   3.593  1.00  0.00     0.043 A 
ATOM     23  C   UNL     1       5.232   5.691   5.008  1.00  0.00     0.045 C 
ATOM     24  C   UNL     1       2.318   6.156   2.638  1.00  0.00     0.123 A 
ATOM     25  F   UNL     1       1.491   7.150   2.287  1.00  0.00    -0.207 F 
ENDBRANCH  17  18
ENDBRANCH  16  17
ENDBRANCH  13  16
ENDBRANCH  12  13
ENDBRANCH   6  12
ENDBRANCH   3   6
ENDBRANCH   1   2
BRANCH   1  26
ATOM     26  C   UNL     1      -1.275   1.905   5.530  1.00  0.00     0.023 C 
BRANCH  26  27
ATOM     27  C   UNL     1      -1.978   1.449   6.801  1.00  0.00     0.023 C 
BRANCH  27  28
ATOM     28  C   UNL     1      -1.155   1.581   8.076  1.00  0.00     0.116 C 
BRANCH  28  29
ATOM     29  N   UNL     1      -0.680   2.936   8.323  1.00  0.00    -0.352 N 
ATOM     30  C   UNL     1      -0.770   3.683   9.474  1.00  0.00     0.251 C 
ATOM     31  H   UNL     1      -0.236   3.376   7.563  1.00  0.00     0.163 HD
ATOM     32  O   UNL     1      -0.422   4.859   9.477  1.00  0.00    -0.269 OA
BRANCH  30  33
ATOM     33  C   UNL     1      -1.317   3.060  10.697  1.00  0.00     0.039 A 
ATOM     34  C   UNL     1      -2.297   3.737  11.425  1.00  0.00     0.014 A 
ATOM     35  C   UNL     1      -0.893   1.789  11.093  1.00  0.00     0.014 A 
ATOM     36  C   UNL     1      -2.893   3.110  12.521  1.00  0.00     0.010 A 
ATOM     37  C   UNL     1      -1.558   1.129  12.120  1.00  0.00     0.010 A 
ATOM     38  C   UNL     1      -2.551   1.789  12.859  1.00  0.00    -0.014 A 
BRANCH  38  39
ATOM     39  C   UNL     1      -3.189   1.099  14.009  1.00  0.00     0.031 A 
ATOM     40  C   UNL     1      -2.346   0.656  15.176  1.00  0.00     0.074 A 
ATOM     41  C   UNL     1      -4.510   0.829  13.985  1.00  0.00     0.049 A 
ATOM     42  N   UNL     1      -2.703   0.012  16.257  1.00  0.00    -0.248 NA
ATOM     43  C   UNL     1      -0.903   0.943  15.102  1.00  0.00     0.031 C 
ATOM     44  C   UNL     1      -5.421   1.147  12.883  1.00  0.00     0.029 A 
ATOM     45  N   UNL     1      -5.316   0.222  14.915  1.00  0.00    -0.354 N 
ATOM     46  C   UNL     1      -1.533  -0.194  16.979  1.00  0.00     0.074 A 
ATOM     47  C   UNL     1      -0.446   0.328  16.182  1.00  0.00     0.031 C 
ATOM     48  C   UNL     1      -6.665   0.764  13.216  1.00  0.00     0.029 A 
ATOM     49  C   UNL     1      -6.637   0.147  14.538  1.00  0.00     0.049 A 
ATOM     50  H   UNL     1      -4.980  -0.128  15.772  1.00  0.00     0.167 HD
ATOM     51  C   UNL     1      -1.379  -0.736  18.211  1.00  0.00     0.037 A 
ATOM     52  C   UNL     1      -7.703  -0.355  15.190  1.00  0.00     0.037 A 
ATOM     53  C   UNL     1      -2.469  -1.220  19.015  1.00  0.00     0.049 A 
ATOM     54  C   UNL     1      -7.513  -0.924  16.571  1.00  0.00     0.074 A 
ATOM     55  C   UNL     1      -2.430  -1.736  20.298  1.00  0.00     0.029 A 
ATOM     56  N   UNL     1      -3.798  -1.241  18.615  1.00  0.00    -0.354 N 
ATOM     57  N   UNL     1      -6.408  -1.050  17.267  1.00  0.00    -0.248 NA
ATOM     58  C   UNL     1      -8.718  -1.401  17.263  1.00  0.00     0.031 C 
ATOM     59  C   UNL     1      -3.731  -2.105  20.660  1.00  0.00     0.029 A 
ATOM     60  C   UNL     1      -4.587  -1.771  19.622  1.00  0.00     0.049 A 
ATOM     61  H   UNL     1      -4.130  -0.926  17.744  1.00  0.00     0.167 HD
ATOM     62  C   UNL     1      -6.789  -1.589  18.491  1.00  0.00     0.074 A 
ATOM     63  C   UNL     1      -8.228  -1.753  18.443  1.00  0.00     0.031 C 
ATOM     64  C   UNL     1      -6.020  -1.916  19.560  1.00  0.00     0.037 A 
BRANCH  51  65
ATOM     65  C   UNL     1       0.018  -0.818  18.764  1.00  0.00     0.058 A 
ATOM     66  C   UNL     1       0.735   0.333  19.132  1.00  0.00     0.135 A 
ATOM     67  C   UNL     1       0.645  -2.061  18.944  1.00  0.00     0.135 A 
ATOM     68  F   UNL     1       0.193   1.550  18.964  1.00  0.00    -0.206 F 
ATOM     69  C   UNL     1       2.033   0.258  19.626  1.00  0.00     0.059 A 
ATOM     70  C   UNL     1       1.931  -2.163  19.466  1.00  0.00     0.059 A 
ATOM     71  F   UNL     1       0.009  -3.195  18.608  1.00  0.00    -0.206 F 
ATOM     72  C   UNL     1       2.623  -0.996  19.788  1.00  0.00     0.060 A 
BRANCH  72  73
ATOM     73  S   UNL     1       4.308  -1.077  20.432  1.00  0.00     0.124 S 
ATOM     74  O   UNL     1       5.080  -0.613  19.284  1.00  0.00    -0.237 OA
ATOM     75  O   UNL     1       4.252  -0.164  21.569  1.00  0.00    -0.237 OA
ATOM     76  O   UNL     1       4.474  -2.487  20.771  1.00  0.00    -0.744 OA
ENDBRANCH  72  73
ENDBRANCH  51  65
BRANCH  52  77
ATOM     77  C   UNL     1      -9.053  -0.300  14.566  1.00  0.00     0.058 A 
ATOM     78  C   UNL     1     -10.044   0.560  15.062  1.00  0.00     0.135 A 
ATOM     79  C   UNL     1      -9.379  -1.100  13.460  1.00  0.00     0.135 A 
ATOM     80  F   UNL     1      -9.783   1.342  16.121  1.00  0.00    -0.206 F 
ATOM     81  C   UNL     1     -11.316   0.611  14.500  1.00  0.00     0.059 A 
ATOM     82  C   UNL     1     -10.635  -1.048  12.864  1.00  0.00     0.059 A 
ATOM     83  F   UNL     1      -8.461  -1.927  12.934  1.00  0.00    -0.206 F 
ATOM     84  C   UNL     1     -11.601  -0.198  13.399  1.00  0.00     0.060 A 
BRANCH  84  85
ATOM     85  S   UNL     1     -13.242  -0.094  12.652  1.00  0.00     0.124 S 
ATOM     86  O   UNL     1     -14.061  -0.781  13.643  1.00  0.00    -0.237 OA
ATOM     87  O   UNL     1     -13.441   1.349  12.547  1.00  0.00    -0.237 OA
ATOM     88  O   UNL     1     -13.075  -0.789  11.379  1.00  0.00    -0.744 OA
ENDBRANCH  84  85
ENDBRANCH  52  77
BRANCH  64  89
ATOM     89  C   UNL     1      -6.724  -2.434  20.784  1.00  0.00     0.058 A 
ATOM     90  C   UNL     1      -7.306  -3.711  20.821  1.00  0.00     0.135 A 
ATOM     91  C   UNL     1      -6.791  -1.649  21.946  1.00  0.00     0.135 A 
ATOM     92  F   UNL     1      -7.272  -4.501  19.736  1.00  0.00    -0.206 F 
ATOM     93  C   UNL     1      -7.966  -4.175  21.954  1.00  0.00     0.059 A 
ATOM     94  C   UNL     1      -7.418  -2.105  23.101  1.00  0.00     0.059 A 
ATOM     95  F   UNL     1      -6.237  -0.427  21.970  1.00  0.00    -0.206 F 
ATOM     96  C   UNL     1      -8.020  -3.363  23.088  1.00  0.00     0.060 A 
BRANCH  96  97
ATOM     97  S   UNL     1      -8.874  -3.977  24.555  1.00  0.00     0.124 S 
ATOM     98  O   UNL     1     -10.272  -3.832  24.162  1.00  0.00    -0.237 OA
ATOM     99  O   UNL     1      -8.382  -5.347  24.654  1.00  0.00    -0.237 OA
ATOM    100  O   UNL     1      -8.422  -3.077  25.613  1.00  0.00    -0.744 OA
ENDBRANCH  96  97
ENDBRANCH  64  89
ENDBRANCH  38  39
ENDBRANCH  30  33
ENDBRANCH  28  29
ENDBRANCH  27  28
ENDBRANCH  26  27
ENDBRANCH   1  26
TORSDOF 20
