REMARK SMILES C[C@H]1[C@@H](C(=O)NCCCCNC(=O)c2ccc(-c3c4nc(c(-c5c(F)cc(S(=O)(=O)[O-])cc5F)c5ccc([nH]5)c(-c5c(F)cc(S(=O)(=O)[O-])cc5F)c5nc(c(-c6c(F)cc(S(=O)(=O)[O-])cc6F)c6ccc3[nH]6)C=C5)C=C4)cc2)CCN1C(=O)/C=C/c1cccc(F)c1
REMARK SMILES IDX 8 1 7 2 6 3 4 4 5 5 3 7 1 8 2 9 82 10 80 11 81 12 83 13
REMARK SMILES IDX 84 14 85 15 86 16 87 17 88 18 93 19 89 20 91 21 90 22 92 23
REMARK SMILES IDX 9 24 10 25 11 26 12 27 13 29 14 30 15 31 79 32 16 33 78 34
REMARK SMILES IDX 17 35 18 36 19 37 72 38 20 39 77 40 71 41 73 42 21 43 76 44
REMARK SMILES IDX 70 45 69 46 22 48 56 49 35 50 55 51 36 52 39 53 54 54 74 55
REMARK SMILES IDX 37 56 38 57 53 59 75 60 40 61 23 62 24 63 33 64 25 65 26 66
REMARK SMILES IDX 32 67 34 68 27 69 28 70 29 71 30 72 31 73 57 74 58 75 67 76
REMARK SMILES IDX 59 77 60 78 66 79 68 80 61 81 62 82 63 83 64 84 65 85 41 86
REMARK SMILES IDX 42 87 51 88 43 89 44 90 50 91 52 92 45 93 46 94 47 95 48 96
REMARK SMILES IDX 49 97
REMARK H PARENT 6 6 11 28 73 47 39 58
REMARK Flexibility Score: inf
ROOT
ATOM      1  C   UNL     1       3.450   0.532  -1.997  1.00  0.00     0.023 C 
ENDROOT
BRANCH   1   2
ATOM      2  C   UNL     1       2.708   1.639  -1.244  1.00  0.00     0.116 C 
BRANCH   2   3
ATOM      3  N   UNL     1       1.401   1.853  -1.836  1.00  0.00    -0.356 N 
ATOM      4  C   UNL     1       0.168   1.407  -1.461  1.00  0.00     0.225 C 
ATOM      5  O   UNL     1      -0.755   1.596  -2.255  1.00  0.00    -0.275 OA
ATOM      6  H   UNL     1       1.405   2.416  -2.644  1.00  0.00     0.163 HD
BRANCH   4   7
ATOM      7  C   UNL     1      -0.071   0.807  -0.075  1.00  0.00     0.102 C 
ATOM      8  C   UNL     1       1.231  -1.365  -0.791  1.00  0.00     0.032 C 
ATOM      9  C   UNL     1       0.616  -0.521   0.320  1.00  0.00     0.094 C 
ATOM     10  N   UNL     1      -0.428  -1.316   0.967  1.00  0.00    -0.336 N 
ATOM     11  C   UNL     1      -1.575   0.566   0.216  1.00  0.00     0.037 C 
ATOM     12  C   UNL     1      -1.715  -0.927   0.443  1.00  0.00     0.121 C 
BRANCH  10  13
ATOM     13  C   UNL     1      -0.272  -2.460   1.726  1.00  0.00     0.246 C 
ATOM     14  O   UNL     1      -1.202  -3.176   2.084  1.00  0.00    -0.270 OA
BRANCH  13  15
ATOM     15  C   UNL     1       1.126  -2.900   1.993  1.00  0.00     0.072 C 
ATOM     16  C   UNL     1       1.982  -2.146   2.699  1.00  0.00     0.014 C 
BRANCH  16  17
ATOM     17  C   UNL     1       3.430  -2.379   2.845  1.00  0.00    -0.023 A 
ATOM     18  C   UNL     1       4.175  -1.463   3.609  1.00  0.00     0.008 A 
ATOM     19  C   UNL     1       4.120  -3.414   2.200  1.00  0.00     0.047 A 
ATOM     20  C   UNL     1       5.565  -1.574   3.724  1.00  0.00     0.004 A 
ATOM     21  C   UNL     1       5.505  -3.519   2.324  1.00  0.00     0.123 A 
ATOM     22  C   UNL     1       6.234  -2.608   3.076  1.00  0.00     0.039 A 
ATOM     23  F   UNL     1       6.146  -4.514   1.696  1.00  0.00    -0.207 F 
ENDBRANCH  16  17
ENDBRANCH  13  15
ENDBRANCH  10  13
ENDBRANCH   4   7
ENDBRANCH   2   3
ENDBRANCH   1   2
BRANCH   1  24
ATOM     24  C   UNL     1       4.281   0.976  -3.185  1.00  0.00     0.023 C 
BRANCH  24  25
ATOM     25  C   UNL     1       5.538   1.736  -2.815  1.00  0.00     0.116 C 
BRANCH  25  26
ATOM     26  N   UNL     1       6.441   0.998  -1.935  1.00  0.00    -0.352 N 
ATOM     27  C   UNL     1       7.802   0.822  -2.050  1.00  0.00     0.251 C 
ATOM     28  H   UNL     1       6.021   0.569  -1.155  1.00  0.00     0.163 HD
ATOM     29  O   UNL     1       8.412   0.112  -1.256  1.00  0.00    -0.269 OA
BRANCH  27  30
ATOM     30  C   UNL     1       8.500   1.466  -3.179  1.00  0.00     0.039 A 
ATOM     31  C   UNL     1       9.308   0.694  -4.014  1.00  0.00     0.014 A 
ATOM     32  C   UNL     1       8.231   2.802  -3.482  1.00  0.00     0.014 A 
ATOM     33  C   UNL     1       9.761   1.238  -5.217  1.00  0.00     0.010 A 
ATOM     34  C   UNL     1       8.572   3.293  -4.731  1.00  0.00     0.010 A 
ATOM     35  C   UNL     1       9.346   2.521  -5.611  1.00  0.00    -0.014 A 
BRANCH  35  36
ATOM     36  C   UNL     1       9.719   3.100  -6.926  1.00  0.00     0.031 A 
ATOM     37  C   UNL     1      10.475   4.401  -6.968  1.00  0.00     0.074 A 
ATOM     38  C   UNL     1       9.297   2.518  -8.066  1.00  0.00     0.049 A 
ATOM     39  N   UNL     1      10.779   5.148  -7.996  1.00  0.00    -0.248 NA
ATOM     40  C   UNL     1      10.897   4.965  -5.674  1.00  0.00     0.031 C 
ATOM     41  C   UNL     1       8.489   1.298  -8.154  1.00  0.00     0.029 A 
ATOM     42  N   UNL     1       9.482   2.883  -9.376  1.00  0.00    -0.354 N 
ATOM     43  C   UNL     1      11.388   6.281  -7.470  1.00  0.00     0.074 A 
ATOM     44  C   UNL     1      11.349   6.157  -6.031  1.00  0.00     0.031 C 
ATOM     45  C   UNL     1       8.280   0.998  -9.447  1.00  0.00     0.029 A 
ATOM     46  C   UNL     1       8.906   2.020 -10.279  1.00  0.00     0.049 A 
ATOM     47  H   UNL     1       9.981   3.688  -9.645  1.00  0.00     0.167 HD
ATOM     48  C   UNL     1      11.963   7.315  -8.126  1.00  0.00     0.037 A 
ATOM     49  C   UNL     1       8.891   2.051 -11.626  1.00  0.00     0.037 A 
ATOM     50  C   UNL     1      12.065   7.394  -9.557  1.00  0.00     0.049 A 
ATOM     51  C   UNL     1       9.599   3.173 -12.335  1.00  0.00     0.074 A 
ATOM     52  C   UNL     1      12.701   8.352 -10.324  1.00  0.00     0.029 A 
ATOM     53  N   UNL     1      11.530   6.463 -10.435  1.00  0.00    -0.354 N 
ATOM     54  N   UNL     1      10.224   4.206 -11.822  1.00  0.00    -0.248 NA
ATOM     55  C   UNL     1       9.607   3.132 -13.804  1.00  0.00     0.031 C 
ATOM     56  C   UNL     1      12.533   8.011 -11.671  1.00  0.00     0.029 A 
ATOM     57  C   UNL     1      11.819   6.825 -11.739  1.00  0.00     0.049 A 
ATOM     58  H   UNL     1      11.019   5.664 -10.171  1.00  0.00     0.167 HD
ATOM     59  C   UNL     1      10.721   4.925 -12.903  1.00  0.00     0.074 A 
ATOM     60  C   UNL     1      10.332   4.202 -14.098  1.00  0.00     0.031 C 
ATOM     61  C   UNL     1      11.432   6.079 -12.909  1.00  0.00     0.037 A 
BRANCH  48  62
ATOM     62  C   UNL     1      12.547   8.422  -7.293  1.00  0.00     0.058 A 
ATOM     63  C   UNL     1      13.704   8.227  -6.520  1.00  0.00     0.135 A 
ATOM     64  C   UNL     1      11.945   9.689  -7.264  1.00  0.00     0.135 A 
ATOM     65  F   UNL     1      14.306   7.028  -6.495  1.00  0.00    -0.206 F 
ATOM     66  C   UNL     1      14.219   9.237  -5.716  1.00  0.00     0.059 A 
ATOM     67  C   UNL     1      12.461  10.724  -6.489  1.00  0.00     0.059 A 
ATOM     68  F   UNL     1      10.836   9.928  -7.981  1.00  0.00    -0.206 F 
ATOM     69  C   UNL     1      13.588  10.481  -5.704  1.00  0.00     0.060 A 
BRANCH  69  70
ATOM     70  S   UNL     1      14.263  11.780  -4.648  1.00  0.00     0.124 S 
ATOM     71  O   UNL     1      13.798  11.354  -3.332  1.00  0.00    -0.237 OA
ATOM     72  O   UNL     1      15.698  11.661  -4.881  1.00  0.00    -0.237 OA
ATOM     73  O   UNL     1      13.645  12.995  -5.169  1.00  0.00    -0.744 OA
ENDBRANCH  69  70
ENDBRANCH  48  62
BRANCH  49  74
ATOM     74  C   UNL     1       8.225   0.963 -12.390  1.00  0.00     0.058 A 
ATOM     75  C   UNL     1       8.983   0.003 -13.078  1.00  0.00     0.135 A 
ATOM     76  C   UNL     1       6.827   0.849 -12.438  1.00  0.00     0.135 A 
ATOM     77  F   UNL     1      10.323   0.073 -13.064  1.00  0.00    -0.206 F 
ATOM     78  C   UNL     1       8.381  -1.022 -13.801  1.00  0.00     0.059 A 
ATOM     79  C   UNL     1       6.202  -0.180 -13.138  1.00  0.00     0.059 A 
ATOM     80  F   UNL     1       6.058   1.730 -11.782  1.00  0.00    -0.206 F 
ATOM     81  C   UNL     1       6.988  -1.105 -13.825  1.00  0.00     0.060 A 
BRANCH  81  82
ATOM     82  S   UNL     1       6.217  -2.468 -14.725  1.00  0.00     0.124 S 
ATOM     83  O   UNL     1       6.377  -2.033 -16.108  1.00  0.00    -0.237 OA
ATOM     84  O   UNL     1       7.030  -3.608 -14.316  1.00  0.00    -0.237 OA
ATOM     85  O   UNL     1       4.848  -2.470 -14.217  1.00  0.00    -0.744 OA
ENDBRANCH  81  82
ENDBRANCH  49  74
BRANCH  61  86
ATOM     86  C   UNL     1      11.863   6.615 -14.243  1.00  0.00     0.058 A 
ATOM     87  C   UNL     1      10.958   7.256 -15.101  1.00  0.00     0.135 A 
ATOM     88  C   UNL     1      13.209   6.542 -14.635  1.00  0.00     0.135 A 
ATOM     89  F   UNL     1       9.660   7.346 -14.771  1.00  0.00    -0.206 F 
ATOM     90  C   UNL     1      11.371   7.794 -16.316  1.00  0.00     0.059 A 
ATOM     91  C   UNL     1      13.647   7.092 -15.834  1.00  0.00     0.059 A 
ATOM     92  F   UNL     1      14.113   5.947 -13.841  1.00  0.00    -0.206 F 
ATOM     93  C   UNL     1      12.718   7.708 -16.672  1.00  0.00     0.060 A 
BRANCH  93  94
ATOM     94  S   UNL     1      13.251   8.446 -18.231  1.00  0.00     0.124 S 
ATOM     95  O   UNL     1      12.787   7.457 -19.197  1.00  0.00    -0.237 OA
ATOM     96  O   UNL     1      12.538   9.720 -18.235  1.00  0.00    -0.237 OA
ATOM     97  O   UNL     1      14.699   8.547 -18.079  1.00  0.00    -0.744 OA
ENDBRANCH  93  94
ENDBRANCH  61  86
ENDBRANCH  35  36
ENDBRANCH  27  30
ENDBRANCH  25  26
ENDBRANCH  24  25
ENDBRANCH   1  24
TORSDOF 17
