REMARK SMILES O=C(NCCCCNC(=O)c1cc([C@@H]2C=NN=C2c2ccc(F)cc2)c2c(ccc3ccccc32)n1)c1ccc(-c2c3nc(c(-c4c(F)cc(S(=O)(=O)[O-])cc4F)c4ccc([nH]4)c(-c4c(F)cc(S(=O)(=O)[O-])cc4F)c4nc(c(-c5c(F)cc(S(=O)(=O)[O-])cc5F)c5ccc2[nH]5)C=C4)C=C3)cc1
REMARK SMILES IDX 5 1 4 2 3 3 1 4 2 5 37 7 38 8 102 9 39 10 101 11 40 12 41 13
REMARK SMILES IDX 42 14 95 15 43 16 100 17 94 18 96 19 44 20 99 21 93 22 92 23
REMARK SMILES IDX 45 25 79 26 58 27 78 28 59 29 62 30 77 31 97 32 60 33 61 34
REMARK SMILES IDX 76 36 98 37 63 38 46 39 47 40 56 41 48 42 49 43 55 44 57 45
REMARK SMILES IDX 50 46 51 47 52 48 53 49 54 50 80 51 81 52 90 53 82 54 83 55
REMARK SMILES IDX 89 56 91 57 84 58 85 59 86 60 87 61 88 62 64 63 65 64 74 65
REMARK SMILES IDX 66 66 67 67 73 68 75 69 68 70 69 71 70 72 71 73 72 74 6 75
REMARK SMILES IDX 7 76 8 77 9 78 10 80 11 81 12 82 36 83 13 84 27 85 26 86
REMARK SMILES IDX 28 87 35 88 29 89 30 90 34 91 31 92 33 93 32 94 14 95 15 96
REMARK SMILES IDX 18 97 16 98 17 99 19 100 20 101 25 102 21 103 24 104 22 105
REMARK SMILES IDX 23 106
REMARK H PARENT 3 6 96 24 62 35 8 79
REMARK Flexibility Score: inf
ROOT
ATOM      1  C   UNL     1       5.026  -1.954   1.156  1.00  0.00     0.023 C 
ENDROOT
BRANCH   1   2
ATOM      2  C   UNL     1       4.722  -1.046  -0.035  1.00  0.00     0.116 C 
BRANCH   2   3
ATOM      3  N   UNL     1       3.319  -0.906  -0.365  1.00  0.00    -0.352 N 
ATOM      4  O   UNL     1       1.282  -0.086  -0.584  1.00  0.00    -0.269 OA
ATOM      5  C   UNL     1       2.308  -0.109   0.101  1.00  0.00     0.251 C 
ATOM      6  H   UNL     1       3.029  -1.517  -1.080  1.00  0.00     0.163 HD
BRANCH   5   7
ATOM      7  C   UNL     1       2.334   0.632   1.391  1.00  0.00     0.039 A 
ATOM      8  C   UNL     1       3.475   0.932   2.137  1.00  0.00     0.014 A 
ATOM      9  C   UNL     1       1.079   1.022   1.893  1.00  0.00     0.014 A 
ATOM     10  C   UNL     1       3.358   1.506   3.401  1.00  0.00     0.010 A 
ATOM     11  C   UNL     1       0.956   1.608   3.146  1.00  0.00     0.010 A 
ATOM     12  C   UNL     1       2.097   1.818   3.915  1.00  0.00    -0.014 A 
BRANCH  12  13
ATOM     13  C   UNL     1       2.023   2.600   5.149  1.00  0.00     0.031 A 
ATOM     14  C   UNL     1       2.554   3.984   4.978  1.00  0.00     0.074 A 
ATOM     15  C   UNL     1       1.388   2.190   6.267  1.00  0.00     0.049 A 
ATOM     16  N   UNL     1       3.599   4.511   5.528  1.00  0.00    -0.248 NA
ATOM     17  C   UNL     1       1.954   4.825   3.925  1.00  0.00     0.031 C 
ATOM     18  C   UNL     1       0.602   0.965   6.433  1.00  0.00     0.029 A 
ATOM     19  N   UNL     1       1.210   2.823   7.465  1.00  0.00    -0.354 N 
ATOM     20  C   UNL     1       3.618   5.835   5.094  1.00  0.00     0.074 A 
ATOM     21  C   UNL     1       2.744   5.899   3.955  1.00  0.00     0.031 C 
ATOM     22  C   UNL     1      -0.151   1.062   7.552  1.00  0.00     0.029 A 
ATOM     23  C   UNL     1       0.179   2.296   8.246  1.00  0.00     0.049 A 
ATOM     24  H   UNL     1       1.762   3.586   7.754  1.00  0.00     0.167 HD
ATOM     25  C   UNL     1       4.092   6.827   5.899  1.00  0.00     0.037 A 
ATOM     26  C   UNL     1      -0.403   2.863   9.339  1.00  0.00     0.037 A 
ATOM     27  C   UNL     1       4.918   6.284   6.949  1.00  0.00     0.049 A 
ATOM     28  C   UNL     1       0.548   3.877   9.858  1.00  0.00     0.074 A 
ATOM     29  C   UNL     1       6.076   5.537   7.016  1.00  0.00     0.029 A 
ATOM     30  N   UNL     1       4.344   6.214   8.192  1.00  0.00    -0.354 N 
ATOM     31  N   UNL     1       1.705   3.591  10.387  1.00  0.00    -0.248 NA
ATOM     32  C   UNL     1       0.388   5.252   9.414  1.00  0.00     0.031 C 
ATOM     33  C   UNL     1       5.923   4.711   8.170  1.00  0.00     0.029 A 
ATOM     34  C   UNL     1       4.711   5.037   8.781  1.00  0.00     0.049 A 
ATOM     35  H   UNL     1       3.763   6.899   8.594  1.00  0.00     0.167 HD
ATOM     36  C   UNL     1       2.551   4.590   9.933  1.00  0.00     0.074 A 
ATOM     37  C   UNL     1       1.663   5.643   9.446  1.00  0.00     0.031 C 
ATOM     38  C   UNL     1       3.878   4.336   9.732  1.00  0.00     0.037 A 
BRANCH  25  39
ATOM     39  C   UNL     1       3.432   8.191   6.038  1.00  0.00     0.058 A 
ATOM     40  C   UNL     1       2.101   8.477   5.656  1.00  0.00     0.135 A 
ATOM     41  C   UNL     1       4.032   9.151   6.884  1.00  0.00     0.135 A 
ATOM     42  F   UNL     1       1.364   7.648   4.910  1.00  0.00    -0.206 F 
ATOM     43  C   UNL     1       1.410   9.595   6.103  1.00  0.00     0.059 A 
ATOM     44  C   UNL     1       3.336  10.252   7.389  1.00  0.00     0.059 A 
ATOM     45  F   UNL     1       5.293   8.986   7.316  1.00  0.00    -0.206 F 
ATOM     46  C   UNL     1       2.020  10.459   6.997  1.00  0.00     0.060 A 
BRANCH  46  47
ATOM     47  S   UNL     1       1.025  11.792   7.682  1.00  0.00     0.124 S 
ATOM     48  O   UNL     1       0.805  12.621   6.501  1.00  0.00    -0.237 OA
ATOM     49  O   UNL     1      -0.140  11.069   8.180  1.00  0.00    -0.237 OA
ATOM     50  O   UNL     1       1.892  12.367   8.704  1.00  0.00    -0.744 OA
ENDBRANCH  46  47
ENDBRANCH  25  39
BRANCH  26  51
ATOM     51  C   UNL     1      -1.838   2.853   9.758  1.00  0.00     0.058 A 
ATOM     52  C   UNL     1      -2.874   2.584   8.843  1.00  0.00     0.135 A 
ATOM     53  C   UNL     1      -2.243   3.409  10.992  1.00  0.00     0.135 A 
ATOM     54  F   UNL     1      -2.614   2.087   7.625  1.00  0.00    -0.206 F 
ATOM     55  C   UNL     1      -4.207   2.904   9.099  1.00  0.00     0.059 A 
ATOM     56  C   UNL     1      -3.575   3.748  11.269  1.00  0.00     0.059 A 
ATOM     57  F   UNL     1      -1.330   3.707  11.930  1.00  0.00    -0.206 F 
ATOM     58  C   UNL     1      -4.546   3.521  10.298  1.00  0.00     0.060 A 
BRANCH  58  59
ATOM     59  S   UNL     1      -6.250   4.091  10.501  1.00  0.00     0.124 S 
ATOM     60  O   UNL     1      -6.370   5.065   9.420  1.00  0.00    -0.237 OA
ATOM     61  O   UNL     1      -7.007   2.856  10.320  1.00  0.00    -0.237 OA
ATOM     62  O   UNL     1      -6.271   4.644  11.851  1.00  0.00    -0.744 OA
ENDBRANCH  58  59
ENDBRANCH  26  51
BRANCH  38  63
ATOM     63  C   UNL     1       4.479   3.127  10.397  1.00  0.00     0.058 A 
ATOM     64  C   UNL     1       5.564   3.344  11.260  1.00  0.00     0.135 A 
ATOM     65  C   UNL     1       4.125   1.792  10.130  1.00  0.00     0.135 A 
ATOM     66  F   UNL     1       5.984   4.594  11.514  1.00  0.00    -0.206 F 
ATOM     67  C   UNL     1       6.268   2.295  11.836  1.00  0.00     0.059 A 
ATOM     68  C   UNL     1       4.795   0.722  10.729  1.00  0.00     0.059 A 
ATOM     69  F   UNL     1       3.163   1.496   9.243  1.00  0.00    -0.206 F 
ATOM     70  C   UNL     1       5.873   0.985  11.572  1.00  0.00     0.060 A 
BRANCH  70  71
ATOM     71  S   UNL     1       6.813  -0.350  12.339  1.00  0.00     0.124 S 
ATOM     72  O   UNL     1       8.111  -0.222  11.680  1.00  0.00    -0.237 OA
ATOM     73  O   UNL     1       6.786   0.023  13.750  1.00  0.00    -0.237 OA
ATOM     74  O   UNL     1       6.058  -1.551  11.997  1.00  0.00    -0.744 OA
ENDBRANCH  70  71
ENDBRANCH  38  63
ENDBRANCH  12  13
ENDBRANCH   5   7
ENDBRANCH   2   3
ENDBRANCH   1   2
BRANCH   1  75
ATOM     75  C   UNL     1       4.517  -3.389   1.036  1.00  0.00     0.023 C 
BRANCH  75  76
ATOM     76  C   UNL     1       4.932  -4.128  -0.227  1.00  0.00     0.116 C 
BRANCH  76  77
ATOM     77  N   UNL     1       6.372  -4.316  -0.343  1.00  0.00    -0.351 N 
ATOM     78  C   UNL     1       7.089  -5.484  -0.511  1.00  0.00     0.269 C 
ATOM     79  H   UNL     1       6.910  -3.494  -0.294  1.00  0.00     0.163 HD
ATOM     80  O   UNL     1       8.322  -5.445  -0.526  1.00  0.00    -0.268 OA
BRANCH  78  81
ATOM     81  C   UNL     1       6.370  -6.769  -0.730  1.00  0.00     0.129 A 
ATOM     82  C   UNL     1       5.371  -6.838  -1.668  1.00  0.00     0.039 A 
ATOM     83  N   UNL     1       6.740  -7.831  -0.007  1.00  0.00    -0.243 NA
ATOM     84  C   UNL     1       4.606  -8.017  -1.822  1.00  0.00    -0.021 A 
ATOM     85  C   UNL     1       6.086  -8.984  -0.182  1.00  0.00     0.072 A 
ATOM     86  C   UNL     1       4.977  -9.199  -1.063  1.00  0.00     0.012 A 
ATOM     87  C   UNL     1       6.603 -10.006   0.581  1.00  0.00     0.029 A 
ATOM     88  C   UNL     1       4.428 -10.573  -1.088  1.00  0.00    -0.009 A 
ATOM     89  C   UNL     1       6.090 -11.291   0.541  1.00  0.00     0.011 A 
ATOM     90  C   UNL     1       5.013 -11.588  -0.278  1.00  0.00    -0.018 A 
ATOM     91  C   UNL     1       3.343 -11.034  -1.869  1.00  0.00     0.009 A 
ATOM     92  C   UNL     1       4.541 -12.915  -0.278  1.00  0.00     0.009 A 
ATOM     93  C   UNL     1       2.867 -12.351  -1.869  1.00  0.00     0.001 A 
ATOM     94  C   UNL     1       3.470 -13.298  -1.071  1.00  0.00     0.001 A 
BRANCH  84  95
ATOM     95  C   UNL     1       3.519  -7.819  -2.853  1.00  0.00     0.115 C 
ATOM     96  C   UNL     1       2.109  -8.040  -2.448  1.00  0.00     0.123 C 
ATOM     97  C   UNL     1       3.509  -8.573  -4.142  1.00  0.00     0.083 C 
ATOM     98  N   UNL     1       1.416  -8.626  -3.371  1.00  0.00    -0.162 NA
ATOM     99  N   UNL     1       2.303  -8.961  -4.455  1.00  0.00    -0.154 NA
BRANCH  97 100
ATOM    100  C   UNL     1       4.676  -8.712  -5.042  1.00  0.00    -0.001 A 
ATOM    101  C   UNL     1       4.436  -8.730  -6.423  1.00  0.00     0.013 A 
ATOM    102  C   UNL     1       5.994  -8.799  -4.577  1.00  0.00     0.013 A 
ATOM    103  C   UNL     1       5.503  -8.795  -7.322  1.00  0.00     0.040 A 
ATOM    104  C   UNL     1       7.060  -8.860  -5.477  1.00  0.00     0.040 A 
ATOM    105  C   UNL     1       6.806  -8.851  -6.840  1.00  0.00     0.123 A 
ATOM    106  F   UNL     1       7.830  -8.900  -7.702  1.00  0.00    -0.207 F 
ENDBRANCH  97 100
ENDBRANCH  84  95
ENDBRANCH  78  81
ENDBRANCH  76  77
ENDBRANCH  75  76
ENDBRANCH   1  75
TORSDOF 16
