REMARK SMILES O=C(NCCCCNC(=O)c1nccnc1C(=O)Nc1ccc(-n2cncn2)c(Cl)c1)c1ccc(-c2c3nc(c(-c4c(F)cc(S(=O)(=O)[O-])cc4F)c4ccc([nH]4)c(-c4c(F)cc(S(=O)(=O)[O-])cc4F)c4nc(c(-c5c(F)cc(S(=O)(=O)[O-])cc5F)c5ccc2[nH]5)C=C4)C=C3)cc1
REMARK SMILES IDX 5 1 4 2 3 3 1 4 2 5 32 7 33 8 97 9 34 10 96 11 35 12 36 13
REMARK SMILES IDX 37 14 90 15 38 16 95 17 89 18 91 19 39 20 94 21 88 22 87 23
REMARK SMILES IDX 40 25 74 26 53 27 73 28 54 29 57 30 72 31 92 32 55 33 56 34
REMARK SMILES IDX 71 36 93 37 58 38 41 39 42 40 51 41 43 42 44 43 50 44 52 45
REMARK SMILES IDX 45 46 46 47 47 48 48 49 49 50 75 51 76 52 85 53 77 54 78 55
REMARK SMILES IDX 84 56 86 57 79 58 80 59 81 60 82 61 83 62 59 63 60 64 69 65
REMARK SMILES IDX 61 66 62 67 68 68 70 69 63 70 64 71 65 72 66 73 67 74 6 75
REMARK SMILES IDX 7 76 8 77 9 78 10 80 11 81 12 82 16 83 13 84 15 85 14 86
REMARK SMILES IDX 17 87 18 88 19 89 20 91 21 92 31 93 22 94 29 95 23 96 30 97
REMARK SMILES IDX 24 98 25 99 28 100 26 101 27 102
REMARK H PARENT 3 6 91 24 57 35 8 79 19 90
REMARK Flexibility Score: inf
ROOT
ATOM      1  C   UNL     1       4.503   2.194  -1.209  1.00  0.00     0.023 C 
ENDROOT
BRANCH   1   2
ATOM      2  C   UNL     1       4.383   1.177  -0.080  1.00  0.00     0.116 C 
BRANCH   2   3
ATOM      3  N   UNL     1       3.033   0.895   0.350  1.00  0.00    -0.352 N 
ATOM      4  O   UNL     1       1.072  -0.024   0.719  1.00  0.00    -0.269 OA
ATOM      5  C   UNL     1       2.056   0.017  -0.027  1.00  0.00     0.251 C 
ATOM      6  H   UNL     1       2.748   1.475   1.093  1.00  0.00     0.163 HD
BRANCH   5   7
ATOM      7  C   UNL     1       2.061  -0.834  -1.251  1.00  0.00     0.039 A 
ATOM      8  C   UNL     1       3.163  -1.132  -2.054  1.00  0.00     0.014 A 
ATOM      9  C   UNL     1       0.814  -1.390  -1.602  1.00  0.00     0.014 A 
ATOM     10  C   UNL     1       3.010  -1.924  -3.199  1.00  0.00     0.010 A 
ATOM     11  C   UNL     1       0.659  -2.184  -2.736  1.00  0.00     0.010 A 
ATOM     12  C   UNL     1       1.755  -2.435  -3.555  1.00  0.00    -0.014 A 
BRANCH  12  13
ATOM     13  C   UNL     1       1.652  -3.325  -4.718  1.00  0.00     0.031 A 
ATOM     14  C   UNL     1       2.397  -4.619  -4.619  1.00  0.00     0.074 A 
ATOM     15  C   UNL     1       0.811  -3.134  -5.758  1.00  0.00     0.049 A 
ATOM     16  N   UNL     1       3.346  -5.068  -5.377  1.00  0.00    -0.248 NA
ATOM     17  C   UNL     1       2.074  -5.502  -3.488  1.00  0.00     0.031 C 
ATOM     18  C   UNL     1      -0.244  -2.127  -5.896  1.00  0.00     0.029 A 
ATOM     19  N   UNL     1       0.665  -3.888  -6.889  1.00  0.00    -0.354 N 
ATOM     20  C   UNL     1       3.621  -6.364  -4.935  1.00  0.00     0.074 A 
ATOM     21  C   UNL     1       2.893  -6.531  -3.703  1.00  0.00     0.031 C 
ATOM     22  C   UNL     1      -1.045  -2.458  -6.935  1.00  0.00     0.029 A 
ATOM     23  C   UNL     1      -0.482  -3.609  -7.621  1.00  0.00     0.049 A 
ATOM     24  H   UNL     1       1.319  -4.571  -7.162  1.00  0.00     0.167 HD
ATOM     25  C   UNL     1       4.297  -7.272  -5.696  1.00  0.00     0.037 A 
ATOM     26  C   UNL     1      -0.962  -4.302  -8.685  1.00  0.00     0.037 A 
ATOM     27  C   UNL     1       5.012  -6.640  -6.771  1.00  0.00     0.049 A 
ATOM     28  C   UNL     1       0.163  -5.083  -9.255  1.00  0.00     0.074 A 
ATOM     29  C   UNL     1       6.013  -5.691  -6.849  1.00  0.00     0.029 A 
ATOM     30  N   UNL     1       4.498  -6.737  -8.040  1.00  0.00    -0.354 N 
ATOM     31  N   UNL     1       1.202  -4.559  -9.847  1.00  0.00    -0.248 NA
ATOM     32  C   UNL     1       0.319  -6.464  -8.828  1.00  0.00     0.031 C 
ATOM     33  C   UNL     1       5.703  -4.924  -8.008  1.00  0.00     0.029 A 
ATOM     34  C   UNL     1       4.561  -5.481  -8.586  1.00  0.00     0.049 A 
ATOM     35  H   UNL     1       4.151  -7.550  -8.473  1.00  0.00     0.167 HD
ATOM     36  C   UNL     1       2.260  -5.385  -9.502  1.00  0.00     0.074 A 
ATOM     37  C   UNL     1       1.640  -6.591  -8.963  1.00  0.00     0.031 C 
ATOM     38  C   UNL     1       3.539  -4.913  -9.438  1.00  0.00     0.037 A 
BRANCH  25  39
ATOM     39  C   UNL     1       4.082  -8.768  -5.649  1.00  0.00     0.058 A 
ATOM     40  C   UNL     1       4.982  -9.630  -6.314  1.00  0.00     0.135 A 
ATOM     41  C   UNL     1       2.879  -9.365  -5.215  1.00  0.00     0.135 A 
ATOM     42  F   UNL     1       6.153  -9.168  -6.782  1.00  0.00    -0.206 F 
ATOM     43  C   UNL     1       4.679 -10.966  -6.585  1.00  0.00     0.059 A 
ATOM     44  C   UNL     1       2.579 -10.707  -5.429  1.00  0.00     0.059 A 
ATOM     45  F   UNL     1       1.897  -8.650  -4.651  1.00  0.00    -0.206 F 
ATOM     46  C   UNL     1       3.465 -11.490  -6.153  1.00  0.00     0.060 A 
BRANCH  46  47
ATOM     47  S   UNL     1       3.018 -13.177  -6.605  1.00  0.00     0.124 S 
ATOM     48  O   UNL     1       2.777 -13.039  -8.037  1.00  0.00    -0.237 OA
ATOM     49  O   UNL     1       4.214 -13.922  -6.226  1.00  0.00    -0.237 OA
ATOM     50  O   UNL     1       1.837 -13.441  -5.787  1.00  0.00    -0.744 OA
ENDBRANCH  46  47
ENDBRANCH  25  39
BRANCH  26  51
ATOM     51  C   UNL     1      -2.377  -4.578  -9.051  1.00  0.00     0.058 A 
ATOM     52  C   UNL     1      -2.722  -5.073 -10.322  1.00  0.00     0.135 A 
ATOM     53  C   UNL     1      -3.384  -4.640  -8.067  1.00  0.00     0.135 A 
ATOM     54  F   UNL     1      -1.818  -5.075 -11.314  1.00  0.00    -0.206 F 
ATOM     55  C   UNL     1      -3.972  -5.644 -10.588  1.00  0.00     0.059 A 
ATOM     56  C   UNL     1      -4.640  -5.195  -8.312  1.00  0.00     0.059 A 
ATOM     57  F   UNL     1      -3.143  -4.250  -6.807  1.00  0.00    -0.206 F 
ATOM     58  C   UNL     1      -4.919  -5.719  -9.568  1.00  0.00     0.060 A 
BRANCH  58  59
ATOM     59  S   UNL     1      -6.465  -6.614  -9.854  1.00  0.00     0.124 S 
ATOM     60  O   UNL     1      -7.164  -5.722 -10.772  1.00  0.00    -0.237 OA
ATOM     61  O   UNL     1      -5.994  -7.872 -10.421  1.00  0.00    -0.237 OA
ATOM     62  O   UNL     1      -7.048  -6.717  -8.518  1.00  0.00    -0.744 OA
ENDBRANCH  58  59
ENDBRANCH  26  51
BRANCH  38  63
ATOM     63  C   UNL     1       3.854  -3.580 -10.062  1.00  0.00     0.058 A 
ATOM     64  C   UNL     1       3.333  -2.353  -9.616  1.00  0.00     0.135 A 
ATOM     65  C   UNL     1       4.876  -3.532 -11.024  1.00  0.00     0.135 A 
ATOM     66  F   UNL     1       2.423  -2.305  -8.633  1.00  0.00    -0.206 F 
ATOM     67  C   UNL     1       3.797  -1.135 -10.117  1.00  0.00     0.059 A 
ATOM     68  C   UNL     1       5.374  -2.329 -11.515  1.00  0.00     0.059 A 
ATOM     69  F   UNL     1       5.452  -4.669 -11.450  1.00  0.00    -0.206 F 
ATOM     70  C   UNL     1       4.827  -1.132 -11.058  1.00  0.00     0.060 A 
BRANCH  70  71
ATOM     71  S   UNL     1       5.523   0.444 -11.601  1.00  0.00     0.124 S 
ATOM     72  O   UNL     1       4.470   0.959 -12.475  1.00  0.00    -0.237 OA
ATOM     73  O   UNL     1       5.702   1.164 -10.339  1.00  0.00    -0.237 OA
ATOM     74  O   UNL     1       6.758   0.064 -12.268  1.00  0.00    -0.744 OA
ENDBRANCH  70  71
ENDBRANCH  38  63
ENDBRANCH  12  13
ENDBRANCH   5   7
ENDBRANCH   2   3
ENDBRANCH   1   2
BRANCH   1  75
ATOM     75  C   UNL     1       3.902   3.588  -0.977  1.00  0.00     0.023 C 
BRANCH  75  76
ATOM     76  C   UNL     1       4.113   4.283   0.370  1.00  0.00     0.116 C 
BRANCH  76  77
ATOM     77  N   UNL     1       5.464   4.250   0.903  1.00  0.00    -0.351 N 
ATOM     78  C   UNL     1       6.251   5.291   1.352  1.00  0.00     0.272 C 
ATOM     79  H   UNL     1       5.878   3.357   0.951  1.00  0.00     0.163 HD
ATOM     80  O   UNL     1       7.133   5.089   2.185  1.00  0.00    -0.267 OA
BRANCH  78  81
ATOM     81  C   UNL     1       5.972   6.676   0.968  1.00  0.00     0.159 A 
ATOM     82  N   UNL     1       4.865   7.146   1.652  1.00  0.00    -0.247 NA
ATOM     83  C   UNL     1       6.777   7.485   0.173  1.00  0.00     0.159 A 
ATOM     84  C   UNL     1       4.579   8.452   1.525  1.00  0.00     0.132 A 
ATOM     85  N   UNL     1       6.423   8.818   0.069  1.00  0.00    -0.247 NA
ATOM     86  C   UNL     1       5.346   9.276   0.743  1.00  0.00     0.132 A 
BRANCH  83  87
ATOM     87  C   UNL     1       8.023   7.236  -0.666  1.00  0.00     0.276 C 
ATOM     88  O   UNL     1       8.370   8.155  -1.429  1.00  0.00    -0.267 OA
ATOM     89  N   UNL     1       8.917   6.186  -0.686  1.00  0.00    -0.321 N 
ATOM     90  H   UNL     1       9.691   6.348  -1.273  1.00  0.00     0.170 HD
BRANCH  89  91
ATOM     91  C   UNL     1       8.957   4.956  -0.058  1.00  0.00     0.043 A 
ATOM     92  C   UNL     1       8.232   3.887  -0.570  1.00  0.00     0.028 A 
ATOM     93  C   UNL     1       9.831   4.763   1.009  1.00  0.00     0.049 A 
ATOM     94  C   UNL     1       8.162   2.703   0.166  1.00  0.00     0.032 A 
ATOM     95  C   UNL     1       9.728   3.598   1.775  1.00  0.00     0.068 A 
ATOM     96  C   UNL     1       8.770   2.636   1.433  1.00  0.00     0.085 A 
ATOM     97  Cl  UNL     1      10.854   3.417   3.073  1.00  0.00    -0.082 Cl
BRANCH  96  98
ATOM     98  N   UNL     1       8.175   1.766   2.388  1.00  0.00    -0.220 N 
ATOM     99  C   UNL     1       8.130   1.883   3.760  1.00  0.00     0.226 A 
ATOM    100  N   UNL     1       7.273   0.816   2.010  1.00  0.00    -0.155 NA
ATOM    101  N   UNL     1       7.293   1.013   4.278  1.00  0.00    -0.223 NA
ATOM    102  C   UNL     1       6.792   0.392   3.179  1.00  0.00     0.246 A 
ENDBRANCH  96  98
ENDBRANCH  89  91
ENDBRANCH  83  87
ENDBRANCH  78  81
ENDBRANCH  76  77
ENDBRANCH  75  76
ENDBRANCH   1  75
TORSDOF 17
