REMARK SMILES Cc1cnc(NC(=O)[C@H]2[C@H]3CC[C@H](CC3)[C@H]2C(=O)NCCCCNC(=O)c2ccc(-c3c4nc(c(-c5c(F)cc(S(=O)(=O)[O-])cc5F)c5ccc([nH]5)c(-c5c(F)cc(S(=O)(=O)[O-])cc5F)c5nc(c(-c6c(F)cc(S(=O)(=O)[O-])cc6F)c6ccc3[nH]6)C=C5)C=C4)cc2)s1
REMARK SMILES IDX 22 1 21 2 20 3 19 4 17 5 18 6 16 8 9 9 10 10 15 11 11 12
REMARK SMILES IDX 13 13 14 14 12 15 7 16 6 17 8 19 5 20 1 21 2 22 3 23 93 24
REMARK SMILES IDX 4 25 23 26 24 27 25 28 26 30 27 31 28 32 92 33 29 34 91 35
REMARK SMILES IDX 30 36 31 37 32 38 85 39 33 40 90 41 84 42 86 43 34 44 89 45
REMARK SMILES IDX 83 46 82 47 35 49 69 50 48 51 68 52 49 53 52 54 67 55 87 56
REMARK SMILES IDX 50 57 51 58 66 60 88 61 53 62 36 63 37 64 46 65 38 66 39 67
REMARK SMILES IDX 45 68 47 69 40 70 41 71 42 72 43 73 44 74 70 75 71 76 80 77
REMARK SMILES IDX 72 78 73 79 79 80 81 81 74 82 75 83 76 84 77 85 78 86 54 87
REMARK SMILES IDX 55 88 64 89 56 90 57 91 63 92 65 93 58 94 59 95 60 96 61 97
REMARK SMILES IDX 62 98
REMARK H PARENT 19 7 6 18 24 29 86 48 52 59
REMARK Flexibility Score: inf
ROOT
ATOM      1  C   UNL     1      -5.887   1.990   2.675  1.00  0.00     0.023 C 
ENDROOT
BRANCH   1   2
ATOM      2  C   UNL     1      -4.912   2.710   1.760  1.00  0.00     0.023 C 
BRANCH   2   3
ATOM      3  C   UNL     1      -3.526   2.969   2.329  1.00  0.00     0.116 C 
BRANCH   3   4
ATOM      4  N   UNL     1      -2.653   1.829   2.423  1.00  0.00    -0.356 N 
ATOM      5  C   UNL     1      -1.316   1.746   2.189  1.00  0.00     0.224 C 
ATOM      6  O   UNL     1      -0.738   0.750   2.643  1.00  0.00    -0.275 OA
ATOM      7  H   UNL     1      -3.086   0.988   2.695  1.00  0.00     0.163 HD
BRANCH   5   8
ATOM      8  C   UNL     1      -0.486   2.796   1.421  1.00  0.00     0.094 C 
ATOM      9  C   UNL     1      -0.984   3.422   0.095  1.00  0.00     0.094 C 
ATOM     10  C   UNL     1      -0.942   4.986   0.217  1.00  0.00     0.002 C 
ATOM     11  C   UNL     1      -1.512   5.573   1.529  1.00  0.00     0.005 C 
ATOM     12  C   UNL     1       0.560   5.358   0.255  1.00  0.00     0.005 C 
ATOM     13  C   UNL     1       0.178   3.884   2.300  1.00  0.00     0.002 C 
ATOM     14  C   UNL     1      -0.849   4.925   2.752  1.00  0.00     0.005 C 
ATOM     15  C   UNL     1       1.235   4.623   1.431  1.00  0.00     0.005 C 
BRANCH   9  16
ATOM     16  C   UNL     1      -2.218   2.801  -0.568  1.00  0.00     0.230 C 
ATOM     17  N   UNL     1      -2.286   1.463  -0.850  1.00  0.00    -0.302 N 
ATOM     18  H   UNL     1      -3.174   1.143  -1.128  1.00  0.00     0.172 HD
ATOM     19  O   UNL     1      -3.202   3.503  -0.824  1.00  0.00    -0.274 OA
BRANCH  17  20
ATOM     20  C   UNL     1      -1.313   0.500  -0.807  1.00  0.00     0.189 A 
ATOM     21  C   UNL     1       2.214  -0.967  -0.375  1.00  0.00     0.058 C 
ATOM     22  C   UNL     1       0.777  -0.666  -0.592  1.00  0.00     0.023 A 
ATOM     23  C   UNL     1      -0.351  -1.395  -0.273  1.00  0.00     0.128 A 
ATOM     24  S   UNL     1       0.288   0.806  -1.313  1.00  0.00    -0.102 S 
ATOM     25  N   UNL     1      -1.558  -0.749  -0.491  1.00  0.00    -0.228 NA
ENDBRANCH  17  20
ENDBRANCH   9  16
ENDBRANCH   5   8
ENDBRANCH   3   4
ENDBRANCH   2   3
ENDBRANCH   1   2
BRANCH   1  26
ATOM     26  C   UNL     1      -5.906   2.456   4.122  1.00  0.00     0.116 C 
BRANCH  26  27
ATOM     27  N   UNL     1      -6.127   3.886   4.297  1.00  0.00    -0.352 N 
ATOM     28  C   UNL     1      -6.941   4.524   5.209  1.00  0.00     0.251 C 
ATOM     29  H   UNL     1      -5.629   4.474   3.683  1.00  0.00     0.163 HD
ATOM     30  O   UNL     1      -7.041   5.742   5.215  1.00  0.00    -0.269 OA
BRANCH  28  31
ATOM     31  C   UNL     1      -7.736   3.696   6.141  1.00  0.00     0.039 A 
ATOM     32  C   UNL     1      -9.117   3.889   6.204  1.00  0.00     0.014 A 
ATOM     33  C   UNL     1      -7.128   2.663   6.856  1.00  0.00     0.014 A 
ATOM     34  C   UNL     1      -9.902   2.984   6.921  1.00  0.00     0.010 A 
ATOM     35  C   UNL     1      -7.920   1.706   7.475  1.00  0.00     0.010 A 
ATOM     36  C   UNL     1      -9.314   1.860   7.523  1.00  0.00    -0.014 A 
BRANCH  36  37
ATOM     37  C   UNL     1     -10.127   0.847   8.244  1.00  0.00     0.031 A 
ATOM     38  C   UNL     1      -9.870   0.600   9.707  1.00  0.00     0.074 A 
ATOM     39  C   UNL     1     -11.029   0.100   7.578  1.00  0.00     0.049 A 
ATOM     40  N   UNL     1     -10.389  -0.301  10.498  1.00  0.00    -0.248 NA
ATOM     41  C   UNL     1      -8.856   1.452  10.353  1.00  0.00     0.031 C 
ATOM     42  C   UNL     1     -11.320   0.192   6.144  1.00  0.00     0.029 A 
ATOM     43  N   UNL     1     -11.865  -0.895   8.019  1.00  0.00    -0.354 N 
ATOM     44  C   UNL     1      -9.740  -0.148  11.718  1.00  0.00     0.074 A 
ATOM     45  C   UNL     1      -8.746   0.886  11.544  1.00  0.00     0.031 C 
ATOM     46  C   UNL     1     -12.287  -0.687   5.833  1.00  0.00     0.029 A 
ATOM     47  C   UNL     1     -12.665  -1.425   7.034  1.00  0.00     0.049 A 
ATOM     48  H   UNL     1     -11.889  -1.202   8.954  1.00  0.00     0.167 HD
ATOM     49  C   UNL     1      -9.973  -0.787  12.889  1.00  0.00     0.037 A 
ATOM     50  C   UNL     1     -13.602  -2.391   7.097  1.00  0.00     0.037 A 
ATOM     51  C   UNL     1     -11.004  -1.772  13.071  1.00  0.00     0.049 A 
ATOM     52  C   UNL     1     -13.899  -3.034   8.425  1.00  0.00     0.074 A 
ATOM     53  C   UNL     1     -11.371  -2.433  14.229  1.00  0.00     0.029 A 
ATOM     54  N   UNL     1     -11.847  -2.224  12.066  1.00  0.00    -0.354 N 
ATOM     55  N   UNL     1     -13.315  -2.838   9.584  1.00  0.00    -0.248 NA
ATOM     56  C   UNL     1     -14.992  -4.015   8.459  1.00  0.00     0.031 C 
ATOM     57  C   UNL     1     -12.425  -3.302  13.919  1.00  0.00     0.029 A 
ATOM     58  C   UNL     1     -12.736  -3.153  12.577  1.00  0.00     0.049 A 
ATOM     59  H   UNL     1     -11.816  -1.928  11.128  1.00  0.00     0.167 HD
ATOM     60  C   UNL     1     -13.993  -3.644  10.492  1.00  0.00     0.074 A 
ATOM     61  C   UNL     1     -15.032  -4.327   9.748  1.00  0.00     0.031 C 
ATOM     62  C   UNL     1     -13.777  -3.804  11.821  1.00  0.00     0.037 A 
BRANCH  49  63
ATOM     63  C   UNL     1      -9.102  -0.419  14.059  1.00  0.00     0.058 A 
ATOM     64  C   UNL     1      -9.191   0.840  14.676  1.00  0.00     0.135 A 
ATOM     65  C   UNL     1      -8.157  -1.327  14.561  1.00  0.00     0.135 A 
ATOM     66  F   UNL     1     -10.064   1.755  14.223  1.00  0.00    -0.206 F 
ATOM     67  C   UNL     1      -8.344   1.202  15.717  1.00  0.00     0.059 A 
ATOM     68  C   UNL     1      -7.320  -0.997  15.623  1.00  0.00     0.059 A 
ATOM     69  F   UNL     1      -8.029  -2.544  14.009  1.00  0.00    -0.206 F 
ATOM     70  C   UNL     1      -7.406   0.279  16.179  1.00  0.00     0.060 A 
BRANCH  70  71
ATOM     71  S   UNL     1      -6.298   0.768  17.518  1.00  0.00     0.124 S 
ATOM     72  O   UNL     1      -5.344   1.615  16.809  1.00  0.00    -0.237 OA
ATOM     73  O   UNL     1      -7.199   1.460  18.435  1.00  0.00    -0.237 OA
ATOM     74  O   UNL     1      -5.771  -0.503  18.002  1.00  0.00    -0.744 OA
ENDBRANCH  70  71
ENDBRANCH  49  63
BRANCH  50  75
ATOM     75  C   UNL     1     -14.370  -2.763   5.878  1.00  0.00     0.058 A 
ATOM     76  C   UNL     1     -15.710  -2.376   5.729  1.00  0.00     0.135 A 
ATOM     77  C   UNL     1     -13.779  -3.489   4.833  1.00  0.00     0.135 A 
ATOM     78  F   UNL     1     -16.320  -1.684   6.703  1.00  0.00    -0.206 F 
ATOM     79  C   UNL     1     -16.443  -2.708   4.594  1.00  0.00     0.059 A 
ATOM     80  C   UNL     1     -14.485  -3.814   3.679  1.00  0.00     0.059 A 
ATOM     81  F   UNL     1     -12.494  -3.866   4.920  1.00  0.00    -0.206 F 
ATOM     82  C   UNL     1     -15.821  -3.426   3.572  1.00  0.00     0.060 A 
BRANCH  82  83
ATOM     83  S   UNL     1     -16.765  -3.803   2.079  1.00  0.00     0.124 S 
ATOM     84  O   UNL     1     -17.638  -4.873   2.545  1.00  0.00    -0.237 OA
ATOM     85  O   UNL     1     -17.414  -2.526   1.795  1.00  0.00    -0.237 OA
ATOM     86  O   UNL     1     -15.735  -4.198   1.123  1.00  0.00    -0.744 OA
ENDBRANCH  82  83
ENDBRANCH  50  75
BRANCH  62  87
ATOM     87  C   UNL     1     -14.716  -4.707  12.568  1.00  0.00     0.058 A 
ATOM     88  C   UNL     1     -14.653  -6.103  12.447  1.00  0.00     0.135 A 
ATOM     89  C   UNL     1     -15.662  -4.164  13.452  1.00  0.00     0.135 A 
ATOM     90  F   UNL     1     -13.767  -6.670  11.613  1.00  0.00    -0.206 F 
ATOM     91  C   UNL     1     -15.515  -6.931  13.158  1.00  0.00     0.059 A 
ATOM     92  C   UNL     1     -16.518  -4.974  14.191  1.00  0.00     0.059 A 
ATOM     93  F   UNL     1     -15.753  -2.834  13.613  1.00  0.00    -0.206 F 
ATOM     94  C   UNL     1     -16.447  -6.357  14.025  1.00  0.00     0.060 A 
BRANCH  94  95
ATOM     95  S   UNL     1     -17.548  -7.440  14.960  1.00  0.00     0.124 S 
ATOM     96  O   UNL     1     -18.524  -7.813  13.942  1.00  0.00    -0.237 OA
ATOM     97  O   UNL     1     -16.648  -8.504  15.396  1.00  0.00    -0.237 OA
ATOM     98  O   UNL     1     -18.048  -6.576  16.025  1.00  0.00    -0.744 OA
ENDBRANCH  94  95
ENDBRANCH  62  87
ENDBRANCH  36  37
ENDBRANCH  28  31
ENDBRANCH  26  27
ENDBRANCH   1  26
TORSDOF 16
