REMARK SMILES Cc1cccc(-c2ncc(C[NH+]3CCC4(CC3)NC(=O)C[C@H]4C(=O)NCCCCNC(=O)c3ccc(-c4c5nc(c(-c6c(F)cc(S(=O)(=O)[O-])cc6F)c6ccc([nH]6)c(-c6c(F)cc(S(=O)(=O)[O-])cc6F)c6nc(c(-c7c(F)cc(S(=O)(=O)[O-])cc7F)c7ccc4[nH]7)C=C6)C=C5)cc3)cn2)c1
REMARK SMILES IDX 27 1 26 2 25 3 23 4 24 5 22 7 12 8 13 9 17 10 14 12 16 13
REMARK SMILES IDX 15 14 18 15 19 16 21 18 20 19 11 20 10 21 7 22 8 23 100 24
REMARK SMILES IDX 9 25 99 26 6 27 1 28 2 29 3 30 101 31 4 32 5 33 28 34 29 35
REMARK SMILES IDX 30 36 31 37 32 39 33 40 34 41 98 42 35 43 97 44 36 45 37 46
REMARK SMILES IDX 38 47 91 48 39 49 96 50 90 51 92 52 40 53 95 54 89 55 88 56
REMARK SMILES IDX 41 58 75 59 54 60 74 61 55 62 58 63 73 64 93 65 56 66 57 67
REMARK SMILES IDX 72 69 94 70 59 71 42 72 43 73 52 74 44 75 45 76 51 77 53 78
REMARK SMILES IDX 46 79 47 80 48 81 49 82 50 83 76 84 77 85 86 86 78 87 79 88
REMARK SMILES IDX 85 89 87 90 80 91 81 92 82 93 83 94 84 95 60 96 61 97 70 98
REMARK SMILES IDX 62 99 63 100 69 101 71 102 64 103 65 104 66 105 67 106
REMARK SMILES IDX 68 107
REMARK H PARENT 25 6 12 11 18 17 30 38 92 57 58 68
REMARK Flexibility Score: inf
ROOT
ATOM      1  C   UNL     1      -0.373   2.896  -2.752  1.00  0.00     0.023 C 
ENDROOT
BRANCH   1   2
ATOM      2  C   UNL     1       0.950   3.681  -2.853  1.00  0.00     0.116 C 
BRANCH   2   3
ATOM      3  N   UNL     1       0.849   5.100  -3.210  1.00  0.00    -0.356 N 
ATOM      4  C   UNL     1       0.834   6.278  -2.533  1.00  0.00     0.226 C 
ATOM      5  O   UNL     1       0.812   7.305  -3.227  1.00  0.00    -0.275 OA
ATOM      6  H   UNL     1       0.773   5.231  -4.183  1.00  0.00     0.163 HD
BRANCH   4   7
ATOM      7  C   UNL     1       0.772   6.446  -1.010  1.00  0.00     0.114 C 
ATOM      8  N   UNL     1      -3.199   6.971   0.200  1.00  0.00    -0.331 N 
ATOM      9  C   UNL     1      -2.113   7.412   1.060  1.00  0.00     0.264 C 
ATOM     10  C   UNL     1      -2.722   6.734  -1.151  1.00  0.00     0.264 C 
ATOM     11  H   UNL     1      -3.833   7.769   0.165  1.00  0.00     0.348 HD
ATOM     12  C   UNL     1      -0.823   6.586   1.034  1.00  0.00     0.091 C 
ATOM     13  C   UNL     1      -1.664   5.647  -1.216  1.00  0.00     0.091 C 
ATOM     14  C   UNL     1      -0.453   5.842  -0.289  1.00  0.00     0.063 C 
ATOM     15  N   UNL     1       0.113   4.575   0.153  1.00  0.00    -0.349 N 
ATOM     16  C   UNL     1       1.480   4.608   0.321  1.00  0.00     0.221 C 
ATOM     17  H   UNL     1      -0.430   3.770   0.317  1.00  0.00     0.164 HD
ATOM     18  C   UNL     1       2.006   5.863  -0.315  1.00  0.00     0.116 C 
ATOM     19  O   UNL     1       2.137   3.770   0.910  1.00  0.00    -0.275 OA
BRANCH   8  20
ATOM     20  C   UNL     1      -4.195   6.024   0.731  1.00  0.00     0.302 C 
BRANCH  20  21
ATOM     21  C   UNL     1      -3.806   4.580   0.840  1.00  0.00     0.043 A 
ATOM     22  C   UNL     1      -2.700   2.090   0.803  1.00  0.00     0.159 A 
ATOM     23  N   UNL     1      -2.407   2.905   1.838  1.00  0.00    -0.236 NA
ATOM     24  N   UNL     1      -3.595   2.392  -0.158  1.00  0.00    -0.236 NA
ATOM     25  C   UNL     1      -3.001   4.111   1.851  1.00  0.00     0.124 A 
ATOM     26  C   UNL     1      -4.124   3.634  -0.119  1.00  0.00     0.124 A 
BRANCH  22  27
ATOM     27  C   UNL     1      -1.863   0.892   0.637  1.00  0.00     0.019 A 
ATOM     28  C   UNL     1       1.809  -0.070   1.124  1.00  0.00     0.044 C 
ATOM     29  C   UNL     1       0.348  -0.183   0.803  1.00  0.00    -0.050 A 
ATOM     30  C   UNL     1      -0.194  -1.357   0.283  1.00  0.00     0.003 A 
ATOM     31  C   UNL     1      -0.497   0.918   0.996  1.00  0.00     0.015 A 
ATOM     32  C   UNL     1      -1.539  -1.412  -0.081  1.00  0.00     0.001 A 
ATOM     33  C   UNL     1      -2.363  -0.295   0.081  1.00  0.00     0.012 A 
ENDBRANCH  22  27
ENDBRANCH  20  21
ENDBRANCH   8  20
ENDBRANCH   4   7
ENDBRANCH   2   3
ENDBRANCH   1   2
BRANCH   1  34
ATOM     34  C   UNL     1      -1.336   3.028  -3.936  1.00  0.00     0.023 C 
BRANCH  34  35
ATOM     35  C   UNL     1      -0.857   2.275  -5.168  1.00  0.00     0.116 C 
BRANCH  35  36
ATOM     36  N   UNL     1      -1.569   1.035  -5.452  1.00  0.00    -0.352 N 
ATOM     37  C   UNL     1      -1.333   0.160  -6.507  1.00  0.00     0.251 C 
ATOM     38  H   UNL     1      -2.294   0.791  -4.832  1.00  0.00     0.163 HD
ATOM     39  O   UNL     1      -2.097  -0.741  -6.803  1.00  0.00    -0.269 OA
BRANCH  37  40
ATOM     40  C   UNL     1      -0.040   0.320  -7.208  1.00  0.00     0.039 A 
ATOM     41  C   UNL     1       0.948  -0.636  -6.946  1.00  0.00     0.014 A 
ATOM     42  C   UNL     1       0.277   1.553  -7.771  1.00  0.00     0.014 A 
ATOM     43  C   UNL     1       2.288  -0.276  -7.047  1.00  0.00     0.010 A 
ATOM     44  C   UNL     1       1.602   1.938  -7.778  1.00  0.00     0.010 A 
ATOM     45  C   UNL     1       2.602   1.041  -7.366  1.00  0.00    -0.014 A 
BRANCH  45  46
ATOM     46  C   UNL     1       3.944   1.605  -7.268  1.00  0.00     0.031 A 
ATOM     47  C   UNL     1       4.685   1.913  -8.509  1.00  0.00     0.074 A 
ATOM     48  C   UNL     1       4.450   1.951  -6.064  1.00  0.00     0.049 A 
ATOM     49  N   UNL     1       5.942   2.190  -8.573  1.00  0.00    -0.248 NA
ATOM     50  C   UNL     1       4.044   1.872  -9.817  1.00  0.00     0.031 C 
ATOM     51  C   UNL     1       5.581   2.836  -5.801  1.00  0.00     0.029 A 
ATOM     52  N   UNL     1       4.167   1.371  -4.825  1.00  0.00    -0.354 N 
ATOM     53  C   UNL     1       6.218   2.626  -9.851  1.00  0.00     0.074 A 
ATOM     54  C   UNL     1       5.018   2.341 -10.599  1.00  0.00     0.031 C 
ATOM     55  C   UNL     1       6.071   2.566  -4.581  1.00  0.00     0.029 A 
ATOM     56  C   UNL     1       5.372   1.391  -4.092  1.00  0.00     0.049 A 
ATOM     57  H   UNL     1       3.299   1.018  -4.524  1.00  0.00     0.167 HD
ATOM     58  C   UNL     1       7.387   3.294 -10.081  1.00  0.00     0.037 A 
ATOM     59  C   UNL     1       5.979   0.231  -3.704  1.00  0.00     0.037 A 
ATOM     60  C   UNL     1       8.259   3.216  -8.906  1.00  0.00     0.049 A 
ATOM     61  C   UNL     1       7.373   0.056  -4.266  1.00  0.00     0.074 A 
ATOM     62  C   UNL     1       8.510   4.084  -7.856  1.00  0.00     0.029 A 
ATOM     63  N   UNL     1       8.780   1.982  -8.527  1.00  0.00    -0.354 N 
ATOM     64  N   UNL     1       7.833   0.723  -5.289  1.00  0.00    -0.248 NA
ATOM     65  C   UNL     1       8.359  -0.877  -3.727  1.00  0.00     0.031 C 
ATOM     66  C   UNL     1       9.109   3.342  -6.805  1.00  0.00     0.029 A 
ATOM     67  C   UNL     1       9.252   2.032  -7.229  1.00  0.00     0.049 A 
ATOM     68  H   UNL     1       8.808   1.185  -9.103  1.00  0.00     0.167 HD
ATOM     69  C   UNL     1       9.118   0.329  -5.561  1.00  0.00     0.074 A 
ATOM     70  C   UNL     1       9.409  -0.662  -4.541  1.00  0.00     0.031 C 
ATOM     71  C   UNL     1       9.830   0.849  -6.605  1.00  0.00     0.037 A 
BRANCH  58  72
ATOM     72  C   UNL     1       7.615   4.255 -11.240  1.00  0.00     0.058 A 
ATOM     73  C   UNL     1       8.541   5.318 -11.119  1.00  0.00     0.135 A 
ATOM     74  C   UNL     1       6.905   4.253 -12.457  1.00  0.00     0.135 A 
ATOM     75  F   UNL     1       9.369   5.410 -10.069  1.00  0.00    -0.206 F 
ATOM     76  C   UNL     1       8.659   6.345 -12.062  1.00  0.00     0.059 A 
ATOM     77  C   UNL     1       6.965   5.293 -13.390  1.00  0.00     0.059 A 
ATOM     78  F   UNL     1       6.162   3.211 -12.839  1.00  0.00    -0.206 F 
ATOM     79  C   UNL     1       7.838   6.346 -13.179  1.00  0.00     0.060 A 
BRANCH  79  80
ATOM     80  S   UNL     1       7.941   7.710 -14.352  1.00  0.00     0.124 S 
ATOM     81  O   UNL     1       7.671   8.866 -13.502  1.00  0.00    -0.237 OA
ATOM     82  O   UNL     1       9.308   7.586 -14.845  1.00  0.00    -0.237 OA
ATOM     83  O   UNL     1       6.896   7.402 -15.325  1.00  0.00    -0.744 OA
ENDBRANCH  79  80
ENDBRANCH  58  72
BRANCH  59  84
ATOM     84  C   UNL     1       5.003  -0.854  -3.400  1.00  0.00     0.058 A 
ATOM     85  C   UNL     1       4.087  -0.620  -2.355  1.00  0.00     0.135 A 
ATOM     86  C   UNL     1       4.671  -1.840  -4.339  1.00  0.00     0.135 A 
ATOM     87  F   UNL     1       4.357   0.306  -1.419  1.00  0.00    -0.206 F 
ATOM     88  C   UNL     1       2.826  -1.202  -2.345  1.00  0.00     0.059 A 
ATOM     89  C   UNL     1       3.420  -2.465  -4.324  1.00  0.00     0.059 A 
ATOM     90  F   UNL     1       5.500  -2.111  -5.357  1.00  0.00    -0.206 F 
ATOM     91  C   UNL     1       2.483  -2.089  -3.361  1.00  0.00     0.060 A 
BRANCH  91  92
ATOM     92  S   UNL     1       0.748  -2.583  -3.493  1.00  0.00     0.124 S 
ATOM     93  O   UNL     1       0.563  -3.365  -2.275  1.00  0.00    -0.237 OA
ATOM     94  O   UNL     1       0.074  -1.286  -3.529  1.00  0.00    -0.237 OA
ATOM     95  O   UNL     1       0.710  -3.343  -4.737  1.00  0.00    -0.744 OA
ENDBRANCH  91  92
ENDBRANCH  59  84
BRANCH  71  96
ATOM     96  C   UNL     1      11.166   0.355  -7.111  1.00  0.00     0.058 A 
ATOM     97  C   UNL     1      11.582  -0.986  -7.058  1.00  0.00     0.135 A 
ATOM     98  C   UNL     1      12.017   1.228  -7.835  1.00  0.00     0.135 A 
ATOM     99  F   UNL     1      10.822  -1.928  -6.482  1.00  0.00    -0.206 F 
ATOM    100  C   UNL     1      12.773  -1.424  -7.643  1.00  0.00     0.059 A 
ATOM    101  C   UNL     1      13.179   0.802  -8.473  1.00  0.00     0.059 A 
ATOM    102  F   UNL     1      11.734   2.534  -7.961  1.00  0.00    -0.206 F 
ATOM    103  C   UNL     1      13.561  -0.525  -8.356  1.00  0.00     0.060 A 
BRANCH 103 104
ATOM    104  S   UNL     1      15.049  -1.097  -9.198  1.00  0.00     0.124 S 
ATOM    105  O   UNL     1      16.071  -0.845  -8.187  1.00  0.00    -0.237 OA
ATOM    106  O   UNL     1      14.756  -2.503  -9.460  1.00  0.00    -0.237 OA
ATOM    107  O   UNL     1      15.106  -0.247 -10.383  1.00  0.00    -0.744 OA
ENDBRANCH 103 104
ENDBRANCH  71  96
ENDBRANCH  45  46
ENDBRANCH  37  40
ENDBRANCH  35  36
ENDBRANCH  34  35
ENDBRANCH   1  34
TORSDOF 17
