REMARK SMILES C[C@@](NC(=O)CCOC1CC[NH2+]CC1)(C(=O)NCCCCNC(=O)c1ccc(-c2c3nc(c(-c4c(F)cc(S(=O)(=O)[O-])cc4F)c4ccc([nH]4)c(-c4c(F)cc(S(=O)(=O)[O-])cc4F)c4nc(c(-c5c(F)cc(S(=O)(=O)[O-])cc5F)c5ccc2[nH]5)C=C4)C=C3)cc1)C(F)(F)F
REMARK SMILES IDX 18 1 17 2 15 3 16 4 2 6 1 7 3 8 4 9 5 11 6 12 7 13 8 14 9 15
REMARK SMILES IDX 10 16 14 17 11 18 13 19 12 20 91 23 92 24 93 25 94 26 19 27
REMARK SMILES IDX 20 28 21 29 22 30 23 31 24 33 25 34 26 35 90 36 27 37 89 38
REMARK SMILES IDX 28 39 29 40 30 41 83 42 31 43 88 44 82 45 84 46 32 47 87 48
REMARK SMILES IDX 81 49 80 50 33 52 67 53 46 54 66 55 47 56 50 57 65 58 85 59
REMARK SMILES IDX 48 60 49 61 64 63 86 64 51 65 34 66 35 67 44 68 36 69 37 70
REMARK SMILES IDX 43 71 45 72 38 73 39 74 40 75 41 76 42 77 68 78 69 79 78 80
REMARK SMILES IDX 70 81 71 82 77 83 79 84 72 85 73 86 74 87 75 88 76 89 52 90
REMARK SMILES IDX 53 91 62 92 54 93 55 94 61 95 63 96 56 97 57 98 58 99 59 100
REMARK SMILES IDX 60 101
REMARK H PARENT 17 5 3 10 12 21 12 22 22 32 84 51 50 62
REMARK Flexibility Score: inf
ROOT
ATOM      1  C   UNL     1      -1.836   0.208   1.240  1.00  0.00     0.116 C 
ENDROOT
BRANCH   1   2
ATOM      2  N   UNL     1      -2.746  -0.640   0.483  1.00  0.00    -0.354 N 
ATOM      3  C   UNL     1      -2.518  -1.745  -0.304  1.00  0.00     0.254 C 
ATOM      4  O   UNL     1      -3.456  -2.550  -0.333  1.00  0.00    -0.272 OA
ATOM      5  H   UNL     1      -3.692  -0.375   0.545  1.00  0.00     0.163 HD
BRANCH   3   6
ATOM      6  C   UNL     1      -1.181  -2.051  -1.036  1.00  0.00     0.212 C 
ATOM      7  C   UNL     1      -0.501  -0.766  -1.518  1.00  0.00     0.056 C 
BRANCH   6   8
ATOM      8  N   UNL     1      -0.170  -2.987  -0.421  1.00  0.00    -0.334 N 
ATOM      9  C   UNL     1      -0.014  -3.600   0.774  1.00  0.00     0.223 C 
ATOM     10  H   UNL     1       0.558  -3.206  -1.046  1.00  0.00     0.164 HD
ATOM     11  O   UNL     1       0.768  -4.553   0.827  1.00  0.00    -0.275 OA
BRANCH   9  12
ATOM     12  C   UNL     1      -0.629  -3.058   2.025  1.00  0.00     0.128 C 
BRANCH  12  13
ATOM     13  C   UNL     1       0.396  -2.114   2.642  1.00  0.00     0.170 C 
BRANCH  13  14
ATOM     14  O   UNL     1       0.762  -1.094   1.698  1.00  0.00    -0.377 OA
BRANCH  14  15
ATOM     15  C   UNL     1       2.118  -0.646   1.825  1.00  0.00     0.129 C 
ATOM     16  C   UNL     1       2.140   0.879   1.804  1.00  0.00     0.093 C 
ATOM     17  C   UNL     1       2.997  -1.256   0.726  1.00  0.00     0.093 C 
ATOM     18  C   UNL     1       2.025   1.474   0.407  1.00  0.00     0.263 C 
ATOM     19  C   UNL     1       2.973  -0.517  -0.612  1.00  0.00     0.263 C 
ATOM     20  N   UNL     1       3.038   0.937  -0.495  1.00  0.00    -0.346 N 
ATOM     21  H   UNL     1       3.959   1.195  -0.142  1.00  0.00     0.346 HD
ATOM     22  H   UNL     1       2.865   1.329  -1.421  1.00  0.00     0.346 HD
ENDBRANCH  14  15
ENDBRANCH  13  14
ENDBRANCH  12  13
ENDBRANCH   9  12
ENDBRANCH   6   8
BRANCH   6  23
ATOM     23  C   UNL     1      -1.633  -2.769  -2.348  1.00  0.00     0.420 C 
ATOM     24  F   UNL     1      -2.446  -2.014  -3.116  1.00  0.00    -0.168 F 
ATOM     25  F   UNL     1      -0.523  -3.031  -3.108  1.00  0.00    -0.168 F 
ATOM     26  F   UNL     1      -2.211  -3.970  -2.140  1.00  0.00    -0.168 F 
ENDBRANCH   6  23
ENDBRANCH   3   6
ENDBRANCH   1   2
BRANCH   1  27
ATOM     27  C   UNL     1      -2.378   1.570   1.673  1.00  0.00     0.023 C 
BRANCH  27  28
ATOM     28  C   UNL     1      -3.664   1.560   2.494  1.00  0.00     0.023 C 
BRANCH  28  29
ATOM     29  C   UNL     1      -3.731   0.554   3.637  1.00  0.00     0.116 C 
BRANCH  29  30
ATOM     30  N   UNL     1      -2.932   0.912   4.800  1.00  0.00    -0.352 N 
ATOM     31  C   UNL     1      -3.343   1.165   6.099  1.00  0.00     0.251 C 
ATOM     32  H   UNL     1      -1.963   0.986   4.641  1.00  0.00     0.163 HD
ATOM     33  O   UNL     1      -2.543   1.513   6.944  1.00  0.00    -0.269 OA
BRANCH  31  34
ATOM     34  C   UNL     1      -4.787   1.056   6.428  1.00  0.00     0.039 A 
ATOM     35  C   UNL     1      -5.428   2.147   7.020  1.00  0.00     0.014 A 
ATOM     36  C   UNL     1      -5.517  -0.076   6.064  1.00  0.00     0.014 A 
ATOM     37  C   UNL     1      -6.821   2.147   7.133  1.00  0.00     0.010 A 
ATOM     38  C   UNL     1      -6.908  -0.029   6.083  1.00  0.00     0.010 A 
ATOM     39  C   UNL     1      -7.579   1.088   6.604  1.00  0.00    -0.014 A 
BRANCH  39  40
ATOM     40  C   UNL     1      -9.066   1.137   6.564  1.00  0.00     0.031 A 
ATOM     41  C   UNL     1      -9.877   0.082   7.269  1.00  0.00     0.074 A 
ATOM     42  C   UNL     1      -9.689   2.081   5.827  1.00  0.00     0.049 A 
ATOM     43  N   UNL     1     -11.173  -0.094   7.281  1.00  0.00    -0.248 NA
ATOM     44  C   UNL     1      -9.129  -0.928   8.035  1.00  0.00     0.031 C 
ATOM     45  C   UNL     1      -9.021   3.121   5.040  1.00  0.00     0.029 A 
ATOM     46  N   UNL     1     -11.025   2.312   5.606  1.00  0.00    -0.354 N 
ATOM     47  C   UNL     1     -11.393  -1.238   8.039  1.00  0.00     0.074 A 
ATOM     48  C   UNL     1     -10.094  -1.752   8.413  1.00  0.00     0.031 C 
ATOM     49  C   UNL     1      -9.947   3.891   4.447  1.00  0.00     0.029 A 
ATOM     50  C   UNL     1     -11.274   3.381   4.774  1.00  0.00     0.049 A 
ATOM     51  H   UNL     1     -11.739   1.764   6.005  1.00  0.00     0.167 HD
ATOM     52  C   UNL     1     -12.569  -1.795   8.416  1.00  0.00     0.037 A 
ATOM     53  C   UNL     1     -12.438   3.888   4.320  1.00  0.00     0.037 A 
ATOM     54  C   UNL     1     -13.860  -1.266   8.064  1.00  0.00     0.049 A 
ATOM     55  C   UNL     1     -13.733   3.260   4.759  1.00  0.00     0.074 A 
ATOM     56  C   UNL     1     -15.110  -1.724   8.444  1.00  0.00     0.029 A 
ATOM     57  N   UNL     1     -14.069  -0.162   7.250  1.00  0.00    -0.354 N 
ATOM     58  N   UNL     1     -13.922   2.218   5.535  1.00  0.00    -0.248 NA
ATOM     59  C   UNL     1     -14.974   3.878   4.271  1.00  0.00     0.031 C 
ATOM     60  C   UNL     1     -16.075  -0.922   7.825  1.00  0.00     0.029 A 
ATOM     61  C   UNL     1     -15.427   0.066   7.102  1.00  0.00     0.049 A 
ATOM     62  H   UNL     1     -13.357   0.379   6.838  1.00  0.00     0.167 HD
ATOM     63  C   UNL     1     -15.300   2.073   5.648  1.00  0.00     0.074 A 
ATOM     64  C   UNL     1     -15.897   3.141   4.873  1.00  0.00     0.031 C 
ATOM     65  C   UNL     1     -16.007   1.140   6.333  1.00  0.00     0.037 A 
BRANCH  52  66
ATOM     66  C   UNL     1     -12.508  -3.034   9.268  1.00  0.00     0.058 A 
ATOM     67  C   UNL     1     -12.051  -2.992  10.596  1.00  0.00     0.135 A 
ATOM     68  C   UNL     1     -12.930  -4.274   8.762  1.00  0.00     0.135 A 
ATOM     69  F   UNL     1     -11.619  -1.836  11.126  1.00  0.00    -0.206 F 
ATOM     70  C   UNL     1     -11.980  -4.139  11.379  1.00  0.00     0.059 A 
ATOM     71  C   UNL     1     -12.897  -5.429   9.538  1.00  0.00     0.059 A 
ATOM     72  F   UNL     1     -13.377  -4.373   7.500  1.00  0.00    -0.206 F 
ATOM     73  C   UNL     1     -12.404  -5.354  10.840  1.00  0.00     0.060 A 
BRANCH  73  74
ATOM     74  S   UNL     1     -12.303  -6.832  11.871  1.00  0.00     0.124 S 
ATOM     75  O   UNL     1     -10.864  -7.074  11.891  1.00  0.00    -0.237 OA
ATOM     76  O   UNL     1     -12.886  -6.376  13.128  1.00  0.00    -0.237 OA
ATOM     77  O   UNL     1     -13.095  -7.814  11.136  1.00  0.00    -0.744 OA
ENDBRANCH  73  74
ENDBRANCH  52  66
BRANCH  53  78
ATOM     78  C   UNL     1     -12.432   5.071   3.416  1.00  0.00     0.058 A 
ATOM     79  C   UNL     1     -12.881   6.324   3.861  1.00  0.00     0.135 A 
ATOM     80  C   UNL     1     -11.968   4.978   2.094  1.00  0.00     0.135 A 
ATOM     81  F   UNL     1     -13.342   6.465   5.113  1.00  0.00    -0.206 F 
ATOM     82  C   UNL     1     -12.883   7.438   3.026  1.00  0.00     0.059 A 
ATOM     83  C   UNL     1     -11.936   6.083   1.249  1.00  0.00     0.059 A 
ATOM     84  F   UNL     1     -11.512   3.807   1.623  1.00  0.00    -0.206 F 
ATOM     85  C   UNL     1     -12.405   7.308   1.722  1.00  0.00     0.060 A 
BRANCH  85  86
ATOM     86  S   UNL     1     -12.360   8.772   0.665  1.00  0.00     0.124 S 
ATOM     87  O   UNL     1     -13.774   8.960   0.362  1.00  0.00    -0.237 OA
ATOM     88  O   UNL     1     -11.757   9.767   1.546  1.00  0.00    -0.237 OA
ATOM     89  O   UNL     1     -11.524   8.351  -0.456  1.00  0.00    -0.744 OA
ENDBRANCH  85  86
ENDBRANCH  53  78
BRANCH  65  90
ATOM     90  C   UNL     1     -17.507   1.248   6.308  1.00  0.00     0.058 A 
ATOM     91  C   UNL     1     -18.253   0.929   5.163  1.00  0.00     0.135 A 
ATOM     92  C   UNL     1     -18.210   1.619   7.466  1.00  0.00     0.135 A 
ATOM     93  F   UNL     1     -17.630   0.575   4.028  1.00  0.00    -0.206 F 
ATOM     94  C   UNL     1     -19.642   0.996   5.159  1.00  0.00     0.059 A 
ATOM     95  C   UNL     1     -19.601   1.664   7.494  1.00  0.00     0.059 A 
ATOM     96  F   UNL     1     -17.546   1.923   8.592  1.00  0.00    -0.206 F 
ATOM     97  C   UNL     1     -20.308   1.362   6.331  1.00  0.00     0.060 A 
BRANCH  97  98
ATOM     98  S   UNL     1     -22.112   1.409   6.324  1.00  0.00     0.124 S 
ATOM     99  O   UNL     1     -22.372   2.617   5.548  1.00  0.00    -0.237 OA
ATOM    100  O   UNL     1     -22.455   0.150   5.669  1.00  0.00    -0.237 OA
ATOM    101  O   UNL     1     -22.457   1.486   7.740  1.00  0.00    -0.744 OA
ENDBRANCH  97  98
ENDBRANCH  65  90
ENDBRANCH  39  40
ENDBRANCH  31  34
ENDBRANCH  29  30
ENDBRANCH  28  29
ENDBRANCH  27  28
ENDBRANCH   1  27
TORSDOF 20
