REMARK SMILES CC1(C)[C@H](C(=O)Nc2ccccc2C(N)=O)[C@@H]1C(=O)NCCCCNC(=O)c1ccc(-c2c3nc(c(-c4c(F)cc(S(=O)(=O)[O-])cc4F)c4ccc([nH]4)c(-c4c(F)cc(S(=O)(=O)[O-])cc4F)c4nc(c(-c5c(F)cc(S(=O)(=O)[O-])cc5F)c5ccc2[nH]5)C=C4)C=C3)cc1
REMARK SMILES IDX 22 1 21 2 20 3 18 4 19 5 17 7 1 8 2 9 3 10 4 11 5 12 6 13
REMARK SMILES IDX 7 14 8 16 9 17 13 18 10 19 12 20 11 21 14 22 15 23 16 24
REMARK SMILES IDX 23 27 24 28 25 29 26 30 27 32 28 33 29 34 93 35 30 36 92 37
REMARK SMILES IDX 31 38 32 39 33 40 86 41 34 42 91 43 85 44 87 45 35 46 90 47
REMARK SMILES IDX 84 48 83 49 36 51 70 52 49 53 69 54 50 55 53 56 68 57 88 58
REMARK SMILES IDX 51 59 52 60 67 62 89 63 54 64 37 65 38 66 47 67 39 68 40 69
REMARK SMILES IDX 46 70 48 71 41 72 42 73 43 74 44 75 45 76 71 77 72 78 81 79
REMARK SMILES IDX 73 80 74 81 80 82 82 83 75 84 76 85 77 86 78 87 79 88 55 89
REMARK SMILES IDX 56 90 65 91 57 92 58 93 64 94 66 95 59 96 60 97 61 98 62 99
REMARK SMILES IDX 63 100
REMARK H PARENT 20 6 7 15 15 25 15 26 25 31 87 50 53 61
REMARK Flexibility Score: inf
ROOT
ATOM      1  C   UNL     1      -5.534   0.795   0.577  1.00  0.00     0.023 C 
ENDROOT
BRANCH   1   2
ATOM      2  C   UNL     1      -4.074   0.862   0.151  1.00  0.00     0.116 C 
BRANCH   2   3
ATOM      3  N   UNL     1      -3.202   1.167   1.260  1.00  0.00    -0.356 N 
ATOM      4  C   UNL     1      -2.033   0.561   1.609  1.00  0.00     0.224 C 
ATOM      5  O   UNL     1      -1.556   0.797   2.714  1.00  0.00    -0.275 OA
ATOM      6  H   UNL     1      -3.490   1.909   1.839  1.00  0.00     0.163 HD
BRANCH   4   7
ATOM      7  C   UNL     1      -1.384  -0.428   0.694  1.00  0.00     0.098 C 
ATOM      8  C   UNL     1       0.940  -1.607   0.332  1.00  0.00     0.013 C 
ATOM      9  C   UNL     1       0.132  -0.320   0.458  1.00  0.00    -0.011 C 
ATOM     10  C   UNL     1       0.865   0.691   1.297  1.00  0.00     0.013 C 
ATOM     11  C   UNL     1      -0.832  -0.124  -0.694  1.00  0.00     0.098 C 
BRANCH  11  12
ATOM     12  C   UNL     1      -1.478   0.912  -1.538  1.00  0.00     0.228 C 
ATOM     13  O   UNL     1      -2.303   0.494  -2.357  1.00  0.00    -0.274 OA
ATOM     14  N   UNL     1      -1.398   2.267  -1.415  1.00  0.00    -0.325 N 
ATOM     15  H   UNL     1      -2.087   2.754  -1.923  1.00  0.00     0.169 HD
BRANCH  14  16
ATOM     16  C   UNL     1      -0.532   3.090  -0.710  1.00  0.00     0.053 A 
ATOM     17  C   UNL     1      -1.161   4.074   0.067  1.00  0.00     0.027 A 
ATOM     18  C   UNL     1       0.867   3.007  -0.751  1.00  0.00     0.063 A 
ATOM     19  C   UNL     1      -0.418   4.871   0.928  1.00  0.00     0.002 A 
ATOM     20  C   UNL     1       1.610   3.833   0.111  1.00  0.00     0.016 A 
ATOM     21  C   UNL     1       0.966   4.731   0.971  1.00  0.00     0.001 A 
BRANCH  18  22
ATOM     22  C   UNL     1       1.560   2.133  -1.744  1.00  0.00     0.250 C 
ATOM     23  N   UNL     1       2.794   1.642  -1.415  1.00  0.00    -0.366 N 
ATOM     24  O   UNL     1       1.069   1.841  -2.827  1.00  0.00    -0.269 OA
ATOM     25  H   UNL     1       3.199   1.870  -0.547  1.00  0.00     0.159 HD
ATOM     26  H   UNL     1       3.276   1.060  -2.045  1.00  0.00     0.159 HD
ENDBRANCH  18  22
ENDBRANCH  14  16
ENDBRANCH  11  12
ENDBRANCH   4   7
ENDBRANCH   2   3
ENDBRANCH   1   2
BRANCH   1  27
ATOM     27  C   UNL     1      -6.097   2.097   1.148  1.00  0.00     0.023 C 
BRANCH  27  28
ATOM     28  C   UNL     1      -5.861   3.342   0.300  1.00  0.00     0.116 C 
BRANCH  28  29
ATOM     29  N   UNL     1      -6.400   3.221  -1.044  1.00  0.00    -0.352 N 
ATOM     30  C   UNL     1      -7.348   3.988  -1.677  1.00  0.00     0.251 C 
ATOM     31  H   UNL     1      -6.033   2.480  -1.579  1.00  0.00     0.163 HD
ATOM     32  O   UNL     1      -7.811   3.622  -2.753  1.00  0.00    -0.269 OA
BRANCH  30  33
ATOM     33  C   UNL     1      -7.821   5.242  -1.052  1.00  0.00     0.039 A 
ATOM     34  C   UNL     1      -9.188   5.529  -1.062  1.00  0.00     0.014 A 
ATOM     35  C   UNL     1      -6.921   6.137  -0.467  1.00  0.00     0.014 A 
ATOM     36  C   UNL     1      -9.654   6.694  -0.449  1.00  0.00     0.010 A 
ATOM     37  C   UNL     1      -7.396   7.245   0.227  1.00  0.00     0.010 A 
ATOM     38  C   UNL     1      -8.765   7.552   0.220  1.00  0.00    -0.014 A 
BRANCH  38  39
ATOM     39  C   UNL     1      -9.244   8.804   0.863  1.00  0.00     0.031 A 
ATOM     40  C   UNL     1      -8.749  10.138   0.365  1.00  0.00     0.074 A 
ATOM     41  C   UNL     1     -10.092   8.745   1.909  1.00  0.00     0.049 A 
ATOM     42  N   UNL     1      -9.022  11.339   0.805  1.00  0.00    -0.248 NA
ATOM     43  C   UNL     1      -7.796  10.118  -0.758  1.00  0.00     0.031 C 
ATOM     44  C   UNL     1     -10.604   7.514   2.517  1.00  0.00     0.029 A 
ATOM     45  N   UNL     1     -10.674   9.744   2.648  1.00  0.00    -0.354 N 
ATOM     46  C   UNL     1      -8.269  12.210   0.025  1.00  0.00     0.074 A 
ATOM     47  C   UNL     1      -7.473  11.397  -0.867  1.00  0.00     0.031 C 
ATOM     48  C   UNL     1     -11.447   7.832   3.512  1.00  0.00     0.029 A 
ATOM     49  C   UNL     1     -11.511   9.285   3.639  1.00  0.00     0.049 A 
ATOM     50  H   UNL     1     -10.508  10.700   2.485  1.00  0.00     0.167 HD
ATOM     51  C   UNL     1      -8.265  13.564   0.026  1.00  0.00     0.037 A 
ATOM     52  C   UNL     1     -12.246   9.959   4.544  1.00  0.00     0.037 A 
ATOM     53  C   UNL     1      -9.082  14.367   0.897  1.00  0.00     0.049 A 
ATOM     54  C   UNL     1     -12.232  11.465   4.522  1.00  0.00     0.074 A 
ATOM     55  C   UNL     1      -9.189  15.746   0.948  1.00  0.00     0.029 A 
ATOM     56  N   UNL     1      -9.935  13.864   1.869  1.00  0.00    -0.354 N 
ATOM     57  N   UNL     1     -11.557  12.273   3.738  1.00  0.00    -0.248 NA
ATOM     58  C   UNL     1     -13.092  12.152   5.495  1.00  0.00     0.031 C 
ATOM     59  C   UNL     1     -10.069  16.078   1.983  1.00  0.00     0.029 A 
ATOM     60  C   UNL     1     -10.561  14.905   2.534  1.00  0.00     0.049 A 
ATOM     61  H   UNL     1     -10.075  12.908   2.058  1.00  0.00     0.167 HD
ATOM     62  C   UNL     1     -11.945  13.561   4.094  1.00  0.00     0.074 A 
ATOM     63  C   UNL     1     -12.916  13.422   5.160  1.00  0.00     0.031 C 
ATOM     64  C   UNL     1     -11.539  14.750   3.582  1.00  0.00     0.037 A 
BRANCH  51  65
ATOM     65  C   UNL     1      -7.351  14.260  -0.948  1.00  0.00     0.058 A 
ATOM     66  C   UNL     1      -7.573  14.212  -2.335  1.00  0.00     0.135 A 
ATOM     67  C   UNL     1      -6.255  15.008  -0.489  1.00  0.00     0.135 A 
ATOM     68  F   UNL     1      -8.595  13.498  -2.833  1.00  0.00    -0.206 F 
ATOM     69  C   UNL     1      -6.723  14.851  -3.232  1.00  0.00     0.059 A 
ATOM     70  C   UNL     1      -5.411  15.684  -1.367  1.00  0.00     0.059 A 
ATOM     71  F   UNL     1      -5.993  15.089   0.825  1.00  0.00    -0.206 F 
ATOM     72  C   UNL     1      -5.644  15.585  -2.737  1.00  0.00     0.060 A 
BRANCH  72  73
ATOM     73  S   UNL     1      -4.554  16.413  -3.914  1.00  0.00     0.124 S 
ATOM     74  O   UNL     1      -3.845  15.279  -4.501  1.00  0.00    -0.237 OA
ATOM     75  O   UNL     1      -5.502  17.091  -4.793  1.00  0.00    -0.237 OA
ATOM     76  O   UNL     1      -3.746  17.289  -3.072  1.00  0.00    -0.744 OA
ENDBRANCH  72  73
ENDBRANCH  51  65
BRANCH  52  77
ATOM     77  C   UNL     1     -13.087   9.218   5.524  1.00  0.00     0.058 A 
ATOM     78  C   UNL     1     -14.488   9.252   5.449  1.00  0.00     0.135 A 
ATOM     79  C   UNL     1     -12.508   8.459   6.553  1.00  0.00     0.135 A 
ATOM     80  F   UNL     1     -15.091   9.966   4.487  1.00  0.00    -0.206 F 
ATOM     81  C   UNL     1     -15.285   8.581   6.372  1.00  0.00     0.059 A 
ATOM     82  C   UNL     1     -13.284   7.756   7.470  1.00  0.00     0.059 A 
ATOM     83  F   UNL     1     -11.172   8.378   6.660  1.00  0.00    -0.206 F 
ATOM     84  C   UNL     1     -14.672   7.834   7.379  1.00  0.00     0.060 A 
BRANCH  84  85
ATOM     85  S   UNL     1     -15.716   6.936   8.547  1.00  0.00     0.124 S 
ATOM     86  O   UNL     1     -16.268   8.024   9.345  1.00  0.00    -0.237 OA
ATOM     87  O   UNL     1     -16.653   6.255   7.659  1.00  0.00    -0.237 OA
ATOM     88  O   UNL     1     -14.772   6.062   9.238  1.00  0.00    -0.744 OA
ENDBRANCH  84  85
ENDBRANCH  52  77
BRANCH  64  89
ATOM     89  C   UNL     1     -12.192  15.996   4.117  1.00  0.00     0.058 A 
ATOM     90  C   UNL     1     -11.949  16.470   5.416  1.00  0.00     0.135 A 
ATOM     91  C   UNL     1     -13.050  16.749   3.297  1.00  0.00     0.135 A 
ATOM     92  F   UNL     1     -11.140  15.789   6.243  1.00  0.00    -0.206 F 
ATOM     93  C   UNL     1     -12.564  17.622   5.896  1.00  0.00     0.059 A 
ATOM     94  C   UNL     1     -13.647  17.922   3.743  1.00  0.00     0.059 A 
ATOM     95  F   UNL     1     -13.305  16.351   2.040  1.00  0.00    -0.206 F 
ATOM     96  C   UNL     1     -13.412  18.341   5.052  1.00  0.00     0.060 A 
BRANCH  96  97
ATOM     97  S   UNL     1     -14.195  19.840   5.682  1.00  0.00     0.124 S 
ATOM     98  O   UNL     1     -15.198  19.289   6.588  1.00  0.00    -0.237 OA
ATOM     99  O   UNL     1     -13.078  20.532   6.318  1.00  0.00    -0.237 OA
ATOM    100  O   UNL     1     -14.719  20.482   4.480  1.00  0.00    -0.744 OA
ENDBRANCH  96  97
ENDBRANCH  64  89
ENDBRANCH  38  39
ENDBRANCH  30  33
ENDBRANCH  28  29
ENDBRANCH  27  28
ENDBRANCH   1  27
TORSDOF 17
