REMARK SMILES COc1cccc([C@H]2CC(c3ccc(S(C)(=O)=O)cc3)=NN2c2ccc(C(=O)NCCCCNC(=O)c3ccc(-c4c5nc(c(-c6c(F)cc(S(=O)(=O)[O-])cc6F)c6ccc([nH]6)c(-c6c(F)cc(S(=O)(=O)[O-])cc6F)c6nc(c(-c7c(F)cc(S(=O)(=O)[O-])cc7F)c7ccc4[nH]7)C=C6)C=C5)cc3)cc2)c1
REMARK SMILES IDX 31 1 30 2 29 3 27 4 28 5 26 7 23 8 24 9 104 10 25 11 103 12
REMARK SMILES IDX 22 13 8 14 9 15 10 16 21 17 7 18 3 19 4 20 105 21 5 22 6 23
REMARK SMILES IDX 2 24 1 25 11 26 12 27 20 28 13 29 19 30 14 31 15 32 16 33
REMARK SMILES IDX 17 34 18 35 32 36 33 37 34 38 35 39 36 41 37 42 38 43 102 44
REMARK SMILES IDX 39 45 101 46 40 47 41 48 42 49 95 50 43 51 100 52 94 53
REMARK SMILES IDX 96 54 44 55 99 56 93 57 92 58 45 60 79 61 58 62 78 63 59 64
REMARK SMILES IDX 62 65 77 66 97 67 60 68 61 69 76 71 98 72 63 73 46 74 47 75
REMARK SMILES IDX 56 76 48 77 49 78 55 79 57 80 50 81 51 82 52 83 53 84 54 85
REMARK SMILES IDX 80 86 81 87 90 88 82 89 83 90 89 91 91 92 84 93 85 94 86 95
REMARK SMILES IDX 87 96 88 97 64 98 65 99 74 100 66 101 67 102 73 103 75 104
REMARK SMILES IDX 68 105 69 106 70 107 71 108 72 109
REMARK H PARENT 29 6 34 40 96 59 62 70
REMARK Flexibility Score: inf
ROOT
ATOM      1  C   UNL     1       4.900 -10.863  -0.300  1.00  0.00     0.023 C 
ENDROOT
BRANCH   1   2
ATOM      2  C   UNL     1       3.683 -10.198   0.346  1.00  0.00     0.116 C 
BRANCH   2   3
ATOM      3  N   UNL     1       4.044  -9.613   1.620  1.00  0.00    -0.352 N 
ATOM      4  C   UNL     1       4.426  -8.346   1.978  1.00  0.00     0.251 C 
ATOM      5  O   UNL     1       4.675  -8.150   3.169  1.00  0.00    -0.269 OA
ATOM      6  H   UNL     1       4.010 -10.246   2.373  1.00  0.00     0.163 HD
BRANCH   4   7
ATOM      7  C   UNL     1       4.507  -7.200   1.025  1.00  0.00     0.039 A 
ATOM      8  C   UNL     1       4.598  -4.888  -0.618  1.00  0.00     0.060 A 
ATOM      9  C   UNL     1       4.478  -4.780   0.771  1.00  0.00     0.029 A 
ATOM     10  C   UNL     1       4.717  -6.165  -1.168  1.00  0.00     0.029 A 
ATOM     11  C   UNL     1       4.411  -5.917   1.580  1.00  0.00     0.016 A 
ATOM     12  C   UNL     1       4.711  -7.304  -0.353  1.00  0.00     0.016 A 
BRANCH   8  13
ATOM     13  N   UNL     1       4.636  -3.747  -1.398  1.00  0.00    -0.257 N 
ATOM     14  C   UNL     1       3.798  -3.507  -2.572  1.00  0.00     0.144 C 
ATOM     15  C   UNL     1       4.430  -2.248  -3.184  1.00  0.00     0.091 C 
ATOM     16  C   UNL     1       5.597  -2.066  -2.257  1.00  0.00     0.071 C 
ATOM     17  N   UNL     1       5.689  -2.903  -1.275  1.00  0.00    -0.176 NA
BRANCH  14  18
ATOM     18  C   UNL     1       2.345  -3.312  -2.170  1.00  0.00    -0.019 A 
ATOM     19  C   UNL     1       0.639  -2.168  -0.852  1.00  0.00     0.119 A 
ATOM     20  C   UNL     1      -0.326  -3.045  -1.346  1.00  0.00     0.046 A 
ATOM     21  C   UNL     1       1.970  -2.316  -1.246  1.00  0.00     0.052 A 
ATOM     22  C   UNL     1       0.026  -4.036  -2.261  1.00  0.00     0.004 A 
ATOM     23  C   UNL     1       1.353  -4.167  -2.676  1.00  0.00     0.006 A 
BRANCH  19  24
ATOM     24  O   UNL     1       0.193  -1.244   0.052  1.00  0.00    -0.497 OA
ATOM     25  C   UNL     1       0.857   0.014  -0.003  1.00  0.00     0.278 C 
ENDBRANCH  19  24
ENDBRANCH  14  18
BRANCH  16  26
ATOM     26  C   UNL     1       6.599  -1.024  -2.482  1.00  0.00    -0.002 A 
ATOM     27  C   UNL     1       7.929  -1.412  -2.674  1.00  0.00     0.011 A 
ATOM     28  C   UNL     1       6.236   0.323  -2.440  1.00  0.00     0.011 A 
ATOM     29  C   UNL     1       8.912  -0.439  -2.840  1.00  0.00     0.021 A 
ATOM     30  C   UNL     1       7.224   1.299  -2.580  1.00  0.00     0.021 A 
ATOM     31  C   UNL     1       8.556   0.912  -2.774  1.00  0.00     0.067 A 
BRANCH  31  32
ATOM     32  S   UNL     1       9.823   2.147  -2.945  1.00  0.00     0.175 S 
ATOM     33  C   UNL     1      10.913   1.845  -1.578  1.00  0.00     0.163 C 
ATOM     34  O   UNL     1      10.531   1.852  -4.175  1.00  0.00    -0.224 OA
ATOM     35  O   UNL     1       9.204   3.443  -2.732  1.00  0.00    -0.224 OA
ENDBRANCH  31  32
ENDBRANCH  16  26
ENDBRANCH   8  13
ENDBRANCH   4   7
ENDBRANCH   2   3
ENDBRANCH   1   2
BRANCH   1  36
ATOM     36  C   UNL     1       5.249 -12.234   0.287  1.00  0.00     0.023 C 
BRANCH  36  37
ATOM     37  C   UNL     1       4.170 -13.298   0.118  1.00  0.00     0.116 C 
BRANCH  37  38
ATOM     38  N   UNL     1       3.783 -13.502  -1.269  1.00  0.00    -0.352 N 
ATOM     39  C   UNL     1       3.357 -14.655  -1.879  1.00  0.00     0.251 C 
ATOM     40  H   UNL     1       3.835 -12.707  -1.847  1.00  0.00     0.163 HD
ATOM     41  O   UNL     1       3.183 -14.676  -3.094  1.00  0.00    -0.269 OA
BRANCH  39  42
ATOM     42  C   UNL     1       3.149 -15.874  -1.071  1.00  0.00     0.039 A 
ATOM     43  C   UNL     1       3.691 -17.078  -1.526  1.00  0.00     0.014 A 
ATOM     44  C   UNL     1       2.441 -15.828   0.133  1.00  0.00     0.014 A 
ATOM     45  C   UNL     1       3.568 -18.227  -0.744  1.00  0.00     0.010 A 
ATOM     46  C   UNL     1       2.380 -16.958   0.943  1.00  0.00     0.010 A 
ATOM     47  C   UNL     1       2.937 -18.170   0.510  1.00  0.00    -0.014 A 
BRANCH  47  48
ATOM     48  C   UNL     1       2.853 -19.374   1.373  1.00  0.00     0.031 A 
ATOM     49  C   UNL     1       1.518 -19.989   1.690  1.00  0.00     0.074 A 
ATOM     50  C   UNL     1       3.981 -19.887   1.904  1.00  0.00     0.049 A 
ATOM     51  N   UNL     1       1.245 -21.034   2.428  1.00  0.00    -0.248 NA
ATOM     52  C   UNL     1       0.330 -19.328   1.125  1.00  0.00     0.031 C 
ATOM     53  C   UNL     1       5.327 -19.340   1.721  1.00  0.00     0.029 A 
ATOM     54  N   UNL     1       4.175 -20.981   2.709  1.00  0.00    -0.354 N 
ATOM     55  C   UNL     1      -0.139 -21.151   2.424  1.00  0.00     0.074 A 
ATOM     56  C   UNL     1      -0.655 -20.037   1.658  1.00  0.00     0.031 C 
ATOM     57  C   UNL     1       6.210 -20.117   2.369  1.00  0.00     0.029 A 
ATOM     58  C   UNL     1       5.492 -21.200   3.035  1.00  0.00     0.049 A 
ATOM     59  H   UNL     1       3.439 -21.556   3.023  1.00  0.00     0.167 HD
ATOM     60  C   UNL     1      -0.910 -22.114   2.983  1.00  0.00     0.037 A 
ATOM     61  C   UNL     1       6.058 -22.166   3.783  1.00  0.00     0.037 A 
ATOM     62  C   UNL     1      -0.389 -23.234   3.723  1.00  0.00     0.049 A 
ATOM     63  C   UNL     1       5.183 -23.236   4.378  1.00  0.00     0.074 A 
ATOM     64  C   UNL     1      -1.079 -24.298   4.276  1.00  0.00     0.029 A 
ATOM     65  N   UNL     1       0.953 -23.433   4.016  1.00  0.00    -0.354 N 
ATOM     66  N   UNL     1       3.881 -23.375   4.298  1.00  0.00    -0.248 NA
ATOM     67  C   UNL     1       5.855 -24.287   5.153  1.00  0.00     0.031 C 
ATOM     68  C   UNL     1      -0.159 -25.121   4.935  1.00  0.00     0.029 A 
ATOM     69  C   UNL     1       1.109 -24.593   4.756  1.00  0.00     0.049 A 
ATOM     70  H   UNL     1       1.686 -22.838   3.737  1.00  0.00     0.167 HD
ATOM     71  C   UNL     1       3.579 -24.538   4.997  1.00  0.00     0.074 A 
ATOM     72  C   UNL     1       4.838 -25.075   5.474  1.00  0.00     0.031 C 
ATOM     73  C   UNL     1       2.371 -25.110   5.226  1.00  0.00     0.037 A 
BRANCH  60  74
ATOM     74  C   UNL     1      -2.400 -22.002   2.805  1.00  0.00     0.058 A 
ATOM     75  C   UNL     1      -3.009 -22.212   1.557  1.00  0.00     0.135 A 
ATOM     76  C   UNL     1      -3.232 -21.706   3.897  1.00  0.00     0.135 A 
ATOM     77  F   UNL     1      -2.259 -22.483   0.476  1.00  0.00    -0.206 F 
ATOM     78  C   UNL     1      -4.385 -22.102   1.390  1.00  0.00     0.059 A 
ATOM     79  C   UNL     1      -4.614 -21.617   3.759  1.00  0.00     0.059 A 
ATOM     80  F   UNL     1      -2.703 -21.495   5.112  1.00  0.00    -0.206 F 
ATOM     81  C   UNL     1      -5.180 -21.801   2.497  1.00  0.00     0.060 A 
BRANCH  81  82
ATOM     82  S   UNL     1      -6.964 -21.661   2.264  1.00  0.00     0.124 S 
ATOM     83  O   UNL     1      -7.067 -20.377   1.578  1.00  0.00    -0.237 OA
ATOM     84  O   UNL     1      -7.268 -22.837   1.455  1.00  0.00    -0.237 OA
ATOM     85  O   UNL     1      -7.489 -21.689   3.626  1.00  0.00    -0.744 OA
ENDBRANCH  81  82
ENDBRANCH  60  74
BRANCH  61  86
ATOM     86  C   UNL     1       7.531 -22.186   3.982  1.00  0.00     0.058 A 
ATOM     87  C   UNL     1       8.329 -23.160   3.363  1.00  0.00     0.135 A 
ATOM     88  C   UNL     1       8.171 -21.227   4.781  1.00  0.00     0.135 A 
ATOM     89  F   UNL     1       7.761 -24.101   2.593  1.00  0.00    -0.206 F 
ATOM     90  C   UNL     1       9.707 -23.195   3.543  1.00  0.00     0.059 A 
ATOM     91  C   UNL     1       9.552 -21.226   4.957  1.00  0.00     0.059 A 
ATOM     92  F   UNL     1       7.455 -20.263   5.380  1.00  0.00    -0.206 F 
ATOM     93  C   UNL     1      10.310 -22.222   4.342  1.00  0.00     0.060 A 
BRANCH  93  94
ATOM     94  S   UNL     1      12.106 -22.246   4.531  1.00  0.00     0.124 S 
ATOM     95  O   UNL     1      12.291 -23.375   5.436  1.00  0.00    -0.237 OA
ATOM     96  O   UNL     1      12.557 -22.449   3.157  1.00  0.00    -0.237 OA
ATOM     97  O   UNL     1      12.402 -20.931   5.091  1.00  0.00    -0.744 OA
ENDBRANCH  93  94
ENDBRANCH  61  86
BRANCH  73  98
ATOM     98  C   UNL     1       2.358 -26.392   6.012  1.00  0.00     0.058 A 
ATOM     99  C   UNL     1       2.611 -26.411   7.392  1.00  0.00     0.135 A 
ATOM    100  C   UNL     1       2.061 -27.611   5.382  1.00  0.00     0.135 A 
ATOM    101  F   UNL     1       2.905 -25.273   8.041  1.00  0.00    -0.206 F 
ATOM    102  C   UNL     1       2.604 -27.599   8.115  1.00  0.00     0.059 A 
ATOM    103  C   UNL     1       2.022 -28.808   6.090  1.00  0.00     0.059 A 
ATOM    104  F   UNL     1       1.799 -27.647   4.066  1.00  0.00    -0.206 F 
ATOM    105  C   UNL     1       2.311 -28.794   7.454  1.00  0.00     0.060 A 
BRANCH 105 106
ATOM    106  S   UNL     1       2.293 -30.328   8.404  1.00  0.00     0.124 S 
ATOM    107  O   UNL     1       3.720 -30.582   8.578  1.00  0.00    -0.237 OA
ATOM    108  O   UNL     1       1.566 -29.943   9.610  1.00  0.00    -0.237 OA
ATOM    109  O   UNL     1       1.591 -31.261   7.528  1.00  0.00    -0.744 OA
ENDBRANCH 105 106
ENDBRANCH  73  98
ENDBRANCH  47  48
ENDBRANCH  39  42
ENDBRANCH  37  38
ENDBRANCH  36  37
ENDBRANCH   1  36
TORSDOF 19
