REMARK SMILES O=C1C[N@@H+](Cc2ccc(C(=O)NCCCCNC(=O)c3ccc(-c4c5nc(c(-c6c(F)cc(S(=O)(=O)[O-])cc6F)c6ccc([nH]6)c(-c6c(F)cc(S(=O)(=O)[O-])cc6F)c6nc(c(-c7c(F)cc(S(=O)(=O)[O-])cc7F)c7ccc4[nH]7)C=C6)C=C5)cc3)cc2)CCN1
REMARK SMILES IDX 15 1 14 2 13 3 12 4 10 5 11 6 9 8 6 9 7 10 87 11 8 12 86 13
REMARK SMILES IDX 5 14 4 15 1 16 2 17 3 18 90 19 89 20 88 22 16 24 17 25 18 26
REMARK SMILES IDX 19 28 20 29 21 30 85 31 22 32 84 33 23 34 24 35 25 36 78 37
REMARK SMILES IDX 26 38 83 39 77 40 79 41 27 42 82 43 76 44 75 45 28 47 62 48
REMARK SMILES IDX 41 49 61 50 42 51 45 52 60 53 80 54 43 55 44 56 59 58 81 59
REMARK SMILES IDX 46 60 29 61 30 62 39 63 31 64 32 65 38 66 40 67 33 68 34 69
REMARK SMILES IDX 35 70 36 71 37 72 63 73 64 74 73 75 65 76 66 77 72 78 74 79
REMARK SMILES IDX 67 80 68 81 69 82 70 83 71 84 47 85 48 86 57 87 49 88 50 89
REMARK SMILES IDX 56 90 58 91 51 92 52 93 53 94 54 95 55 96
REMARK H PARENT 12 7 90 21 4 23 17 27 79 46 45 57
REMARK Flexibility Score: inf
ROOT
ATOM      1  C   UNL     1      -1.490   7.179   3.320  1.00  0.00     0.023 C 
ENDROOT
BRANCH   1   2
ATOM      2  C   UNL     1      -1.654   5.758   2.778  1.00  0.00     0.023 C 
BRANCH   2   3
ATOM      3  C   UNL     1      -0.337   5.017   2.541  1.00  0.00     0.116 C 
BRANCH   3   4
ATOM      4  N   UNL     1       0.301   4.668   3.798  1.00  0.00    -0.352 N 
ATOM      5  C   UNL     1       0.390   3.461   4.447  1.00  0.00     0.251 C 
ATOM      6  O   UNL     1       1.051   3.373   5.478  1.00  0.00    -0.269 OA
ATOM      7  H   UNL     1       0.739   5.418   4.261  1.00  0.00     0.163 HD
BRANCH   5   8
ATOM      8  C   UNL     1      -0.231   2.243   3.876  1.00  0.00     0.039 A 
ATOM      9  C   UNL     1      -1.189  -0.024   2.537  1.00  0.00     0.006 A 
ATOM     10  C   UNL     1       0.065  -0.049   3.162  1.00  0.00     0.010 A 
ATOM     11  C   UNL     1      -2.010   1.100   2.706  1.00  0.00     0.010 A 
ATOM     12  C   UNL     1       0.543   1.081   3.827  1.00  0.00     0.014 A 
ATOM     13  C   UNL     1      -1.536   2.223   3.383  1.00  0.00     0.014 A 
BRANCH   9  14
ATOM     14  C   UNL     1      -1.640  -1.165   1.660  1.00  0.00     0.299 C 
BRANCH  14  15
ATOM     15  N   UNL     1      -1.221  -1.127   0.257  1.00  0.00    -0.322 N 
ATOM     16  O   UNL     1       2.325  -0.251   0.190  1.00  0.00    -0.269 OA
ATOM     17  C   UNL     1       1.116  -0.172  -0.025  1.00  0.00     0.275 C 
ATOM     18  C   UNL     1       0.206  -1.401   0.018  1.00  0.00     0.363 C 
ATOM     19  N   UNL     1       0.578   1.016  -0.434  1.00  0.00    -0.346 N 
ATOM     20  C   UNL     1      -0.842   1.265  -0.520  1.00  0.00     0.177 C 
ATOM     21  H   UNL     1       1.193   1.743  -0.685  1.00  0.00     0.163 HD
ATOM     22  C   UNL     1      -1.705  -0.006  -0.553  1.00  0.00     0.284 C 
ATOM     23  H   UNL     1      -1.735  -1.933  -0.098  1.00  0.00     0.348 HD
ENDBRANCH  14  15
ENDBRANCH   9  14
ENDBRANCH   5   8
ENDBRANCH   3   4
ENDBRANCH   2   3
ENDBRANCH   1   2
BRANCH   1  24
ATOM     24  C   UNL     1      -0.768   8.140   2.385  1.00  0.00     0.116 C 
BRANCH  24  25
ATOM     25  N   UNL     1      -1.447   8.307   1.110  1.00  0.00    -0.352 N 
ATOM     26  C   UNL     1      -1.613   9.452   0.367  1.00  0.00     0.251 C 
ATOM     27  H   UNL     1      -1.841   7.490   0.728  1.00  0.00     0.163 HD
ATOM     28  O   UNL     1      -2.332   9.438  -0.622  1.00  0.00    -0.269 OA
BRANCH  26  29
ATOM     29  C   UNL     1      -0.940  10.700   0.791  1.00  0.00     0.039 A 
ATOM     30  C   UNL     1      -1.663  11.895   0.779  1.00  0.00     0.014 A 
ATOM     31  C   UNL     1       0.395  10.691   1.204  1.00  0.00     0.014 A 
ATOM     32  C   UNL     1      -1.059  13.073   1.224  1.00  0.00     0.010 A 
ATOM     33  C   UNL     1       0.968  11.846   1.725  1.00  0.00     0.010 A 
ATOM     34  C   UNL     1       0.255  13.054   1.722  1.00  0.00    -0.014 A 
BRANCH  34  35
ATOM     35  C   UNL     1       0.918  14.294   2.200  1.00  0.00     0.031 A 
ATOM     36  C   UNL     1       2.141  14.807   1.485  1.00  0.00     0.074 A 
ATOM     37  C   UNL     1       0.459  14.926   3.298  1.00  0.00     0.049 A 
ATOM     38  N   UNL     1       2.904  15.829   1.779  1.00  0.00    -0.248 NA
ATOM     39  C   UNL     1       2.584  14.053   0.300  1.00  0.00     0.031 C 
ATOM     40  C   UNL     1      -0.687  14.500   4.103  1.00  0.00     0.029 A 
ATOM     41  N   UNL     1       0.907  16.057   3.933  1.00  0.00    -0.354 N 
ATOM     42  C   UNL     1       3.920  15.828   0.830  1.00  0.00     0.074 A 
ATOM     43  C   UNL     1       3.714  14.670  -0.010  1.00  0.00     0.031 C 
ATOM     44  C   UNL     1      -0.867  15.371   5.109  1.00  0.00     0.029 A 
ATOM     45  C   UNL     1       0.171  16.396   5.044  1.00  0.00     0.049 A 
ATOM     46  H   UNL     1       1.682  16.578   3.621  1.00  0.00     0.167 HD
ATOM     47  C   UNL     1       4.917  16.727   0.655  1.00  0.00     0.037 A 
ATOM     48  C   UNL     1       0.320  17.415   5.913  1.00  0.00     0.037 A 
ATOM     49  C   UNL     1       5.097  17.895   1.476  1.00  0.00     0.049 A 
ATOM     50  C   UNL     1       1.433  18.406   5.695  1.00  0.00     0.074 A 
ATOM     51  C   UNL     1       6.043  18.897   1.352  1.00  0.00     0.029 A 
ATOM     52  N   UNL     1       4.313  18.219   2.574  1.00  0.00    -0.354 N 
ATOM     53  N   UNL     1       2.349  18.424   4.756  1.00  0.00    -0.248 NA
ATOM     54  C   UNL     1       1.526  19.522   6.646  1.00  0.00     0.031 C 
ATOM     55  C   UNL     1       5.859  19.804   2.401  1.00  0.00     0.029 A 
ATOM     56  C   UNL     1       4.763  19.398   3.145  1.00  0.00     0.049 A 
ATOM     57  H   UNL     1       3.550  17.689   2.899  1.00  0.00     0.167 HD
ATOM     58  C   UNL     1       3.103  19.571   4.982  1.00  0.00     0.074 A 
ATOM     59  C   UNL     1       2.531  20.223   6.141  1.00  0.00     0.031 C 
ATOM     60  C   UNL     1       4.170  20.044   4.290  1.00  0.00     0.037 A 
BRANCH  47  61
ATOM     61  C   UNL     1       5.885  16.486  -0.473  1.00  0.00     0.058 A 
ATOM     62  C   UNL     1       5.495  16.599  -1.817  1.00  0.00     0.135 A 
ATOM     63  C   UNL     1       7.227  16.167  -0.207  1.00  0.00     0.135 A 
ATOM     64  F   UNL     1       4.221  16.884  -2.131  1.00  0.00    -0.206 F 
ATOM     65  C   UNL     1       6.391  16.371  -2.857  1.00  0.00     0.059 A 
ATOM     66  C   UNL     1       8.148  15.967  -1.232  1.00  0.00     0.059 A 
ATOM     67  F   UNL     1       7.655  16.045   1.059  1.00  0.00    -0.206 F 
ATOM     68  C   UNL     1       7.716  16.056  -2.554  1.00  0.00     0.060 A 
BRANCH  68  69
ATOM     69  S   UNL     1       8.865  15.770  -3.916  1.00  0.00     0.124 S 
ATOM     70  O   UNL     1       8.412  14.474  -4.411  1.00  0.00    -0.237 OA
ATOM     71  O   UNL     1       8.602  16.909  -4.790  1.00  0.00    -0.237 OA
ATOM     72  O   UNL     1      10.171  15.771  -3.265  1.00  0.00    -0.744 OA
ENDBRANCH  68  69
ENDBRANCH  47  61
BRANCH  48  73
ATOM     73  C   UNL     1      -0.626  17.568   7.052  1.00  0.00     0.058 A 
ATOM     74  C   UNL     1      -1.548  18.626   7.088  1.00  0.00     0.135 A 
ATOM     75  C   UNL     1      -0.633  16.661   8.123  1.00  0.00     0.135 A 
ATOM     76  F   UNL     1      -1.577  19.523   6.091  1.00  0.00    -0.206 F 
ATOM     77  C   UNL     1      -2.426  18.793   8.153  1.00  0.00     0.059 A 
ATOM     78  C   UNL     1      -1.522  16.791   9.186  1.00  0.00     0.059 A 
ATOM     79  F   UNL     1       0.215  15.621   8.129  1.00  0.00    -0.206 F 
ATOM     80  C   UNL     1      -2.407  17.868   9.198  1.00  0.00     0.060 A 
BRANCH  80  81
ATOM     81  S   UNL     1      -3.580  18.071  10.556  1.00  0.00     0.124 S 
ATOM     82  O   UNL     1      -3.025  19.225  11.254  1.00  0.00    -0.237 OA
ATOM     83  O   UNL     1      -4.835  18.296   9.845  1.00  0.00    -0.237 OA
ATOM     84  O   UNL     1      -3.491  16.800  11.269  1.00  0.00    -0.744 OA
ENDBRANCH  80  81
ENDBRANCH  48  73
BRANCH  60  85
ATOM     85  C   UNL     1       4.757  21.358   4.729  1.00  0.00     0.058 A 
ATOM     86  C   UNL     1       5.498  21.483   5.913  1.00  0.00     0.135 A 
ATOM     87  C   UNL     1       4.619  22.497   3.918  1.00  0.00     0.135 A 
ATOM     88  F   UNL     1       5.657  20.426   6.726  1.00  0.00    -0.206 F 
ATOM     89  C   UNL     1       6.059  22.698   6.294  1.00  0.00     0.059 A 
ATOM     90  C   UNL     1       5.197  23.714   4.263  1.00  0.00     0.059 A 
ATOM     91  F   UNL     1       3.930  22.430   2.767  1.00  0.00    -0.206 F 
ATOM     92  C   UNL     1       5.904  23.808   5.460  1.00  0.00     0.060 A 
BRANCH  92  93
ATOM     93  S   UNL     1       6.663  25.371   5.950  1.00  0.00     0.124 S 
ATOM     94  O   UNL     1       5.785  25.795   7.037  1.00  0.00    -0.237 OA
ATOM     95  O   UNL     1       8.005  24.956   6.345  1.00  0.00    -0.237 OA
ATOM     96  O   UNL     1       6.594  26.178   4.736  1.00  0.00    -0.744 OA
ENDBRANCH  92  93
ENDBRANCH  60  85
ENDBRANCH  34  35
ENDBRANCH  26  29
ENDBRANCH  24  25
ENDBRANCH   1  24
TORSDOF 16
