REMARK SMILES O=C(NCCCCNC(=O)[C@H]1CCCCN1C(=O)c1cn2ccccc2n1)c1ccc(-c2c3nc(c(-c4c(F)cc(S(=O)(=O)[O-])cc4F)c4ccc([nH]4)c(-c4c(F)cc(S(=O)(=O)[O-])cc4F)c4nc(c(-c5c(F)cc(S(=O)(=O)[O-])cc5F)c5ccc2[nH]5)C=C4)C=C3)cc1
REMARK SMILES IDX 5 1 4 2 3 3 1 4 2 5 28 7 29 8 93 9 30 10 92 11 31 12 32 13
REMARK SMILES IDX 33 14 86 15 34 16 91 17 85 18 87 19 35 20 90 21 84 22 83 23
REMARK SMILES IDX 36 25 70 26 49 27 69 28 50 29 53 30 68 31 88 32 51 33 52 34
REMARK SMILES IDX 67 36 89 37 54 38 37 39 38 40 47 41 39 42 40 43 46 44 48 45
REMARK SMILES IDX 41 46 42 47 43 48 44 49 45 50 71 51 72 52 81 53 73 54 74 55
REMARK SMILES IDX 80 56 82 57 75 58 76 59 77 60 78 61 79 62 55 63 56 64 65 65
REMARK SMILES IDX 57 66 58 67 64 68 66 69 59 70 60 71 61 72 62 73 63 74 6 75
REMARK SMILES IDX 7 76 8 77 9 78 10 80 11 81 12 82 16 83 13 84 15 85 14 86
REMARK SMILES IDX 17 87 18 88 19 89 20 90 27 91 21 92 26 93 22 94 25 95 23 96
REMARK SMILES IDX 24 97
REMARK H PARENT 3 6 87 24 53 35 8 79
REMARK Flexibility Score: inf
ROOT
ATOM      1  C   UNL     1       3.599   4.952   1.915  1.00  0.00     0.023 C 
ENDROOT
BRANCH   1   2
ATOM      2  C   UNL     1       3.150   6.310   2.440  1.00  0.00     0.116 C 
BRANCH   2   3
ATOM      3  N   UNL     1       3.845   7.413   1.797  1.00  0.00    -0.352 N 
ATOM      4  O   UNL     1       4.136   9.114   0.349  1.00  0.00    -0.269 OA
ATOM      5  C   UNL     1       3.356   8.373   0.943  1.00  0.00     0.251 C 
ATOM      6  H   UNL     1       4.805   7.483   2.002  1.00  0.00     0.163 HD
BRANCH   5   7
ATOM      7  C   UNL     1       1.898   8.503   0.730  1.00  0.00     0.039 A 
ATOM      8  C   UNL     1       1.017   8.481   1.814  1.00  0.00     0.014 A 
ATOM      9  C   UNL     1       1.407   8.678  -0.567  1.00  0.00     0.014 A 
ATOM     10  C   UNL     1      -0.356   8.500   1.594  1.00  0.00     0.010 A 
ATOM     11  C   UNL     1       0.029   8.786  -0.780  1.00  0.00     0.010 A 
ATOM     12  C   UNL     1      -0.864   8.682   0.298  1.00  0.00    -0.014 A 
BRANCH  12  13
ATOM     13  C   UNL     1      -2.324   8.881   0.109  1.00  0.00     0.031 A 
ATOM     14  C   UNL     1      -3.154   7.904  -0.675  1.00  0.00     0.074 A 
ATOM     15  C   UNL     1      -2.890   9.978   0.652  1.00  0.00     0.049 A 
ATOM     16  N   UNL     1      -4.429   7.959  -0.962  1.00  0.00    -0.248 NA
ATOM     17  C   UNL     1      -2.470   6.717  -1.214  1.00  0.00     0.031 C 
ATOM     18  C   UNL     1      -2.171  11.005   1.415  1.00  0.00     0.029 A 
ATOM     19  N   UNL     1      -4.187  10.422   0.646  1.00  0.00    -0.354 N 
ATOM     20  C   UNL     1      -4.698   6.835  -1.734  1.00  0.00     0.074 A 
ATOM     21  C   UNL     1      -3.450   6.116  -1.878  1.00  0.00     0.031 C 
ATOM     22  C   UNL     1      -3.037  11.945   1.816  1.00  0.00     0.029 A 
ATOM     23  C   UNL     1      -4.356  11.629   1.284  1.00  0.00     0.049 A 
ATOM     24  H   UNL     1      -4.925   9.925   0.226  1.00  0.00     0.167 HD
ATOM     25  C   UNL     1      -5.880   6.447  -2.269  1.00  0.00     0.037 A 
ATOM     26  C   UNL     1      -5.440  12.419   1.394  1.00  0.00     0.037 A 
ATOM     27  C   UNL     1      -7.120   7.162  -2.091  1.00  0.00     0.049 A 
ATOM     28  C   UNL     1      -6.728  11.974   0.765  1.00  0.00     0.074 A 
ATOM     29  C   UNL     1      -8.386   6.801  -2.518  1.00  0.00     0.029 A 
ATOM     30  N   UNL     1      -7.248   8.387  -1.453  1.00  0.00    -0.354 N 
ATOM     31  N   UNL     1      -6.981  10.867   0.107  1.00  0.00    -0.248 NA
ATOM     32  C   UNL     1      -7.875  12.883   0.881  1.00  0.00     0.031 C 
ATOM     33  C   UNL     1      -9.269   7.836  -2.192  1.00  0.00     0.029 A 
ATOM     34  C   UNL     1      -8.563   8.818  -1.516  1.00  0.00     0.049 A 
ATOM     35  H   UNL     1      -6.513   8.878  -1.020  1.00  0.00     0.167 HD
ATOM     36  C   UNL     1      -8.316  10.946  -0.265  1.00  0.00     0.074 A 
ATOM     37  C   UNL     1      -8.826  12.194   0.264  1.00  0.00     0.031 C 
ATOM     38  C   UNL     1      -9.053  10.066  -0.986  1.00  0.00     0.037 A 
BRANCH  25  39
ATOM     39  C   UNL     1      -5.911   5.205  -3.118  1.00  0.00     0.058 A 
ATOM     40  C   UNL     1      -5.835   3.921  -2.558  1.00  0.00     0.135 A 
ATOM     41  C   UNL     1      -6.127   5.304  -4.503  1.00  0.00     0.135 A 
ATOM     42  F   UNL     1      -5.619   3.768  -1.242  1.00  0.00    -0.206 F 
ATOM     43  C   UNL     1      -5.968   2.778  -3.342  1.00  0.00     0.059 A 
ATOM     44  C   UNL     1      -6.284   4.176  -5.303  1.00  0.00     0.059 A 
ATOM     45  F   UNL     1      -6.207   6.509  -5.089  1.00  0.00    -0.206 F 
ATOM     46  C   UNL     1      -6.199   2.916  -4.713  1.00  0.00     0.060 A 
BRANCH  46  47
ATOM     47  S   UNL     1      -6.411   1.423  -5.707  1.00  0.00     0.124 S 
ATOM     48  O   UNL     1      -5.051   0.893  -5.732  1.00  0.00    -0.237 OA
ATOM     49  O   UNL     1      -7.374   0.659  -4.920  1.00  0.00    -0.237 OA
ATOM     50  O   UNL     1      -6.910   1.929  -6.982  1.00  0.00    -0.744 OA
ENDBRANCH  46  47
ENDBRANCH  25  39
BRANCH  26  51
ATOM     51  C   UNL     1      -5.332  13.732   2.081  1.00  0.00     0.058 A 
ATOM     52  C   UNL     1      -5.983  13.973   3.299  1.00  0.00     0.135 A 
ATOM     53  C   UNL     1      -4.566  14.774   1.531  1.00  0.00     0.135 A 
ATOM     54  F   UNL     1      -6.729  13.010   3.862  1.00  0.00    -0.206 F 
ATOM     55  C   UNL     1      -5.898  15.206   3.937  1.00  0.00     0.059 A 
ATOM     56  C   UNL     1      -4.441  16.004   2.165  1.00  0.00     0.059 A 
ATOM     57  F   UNL     1      -3.907  14.588   0.377  1.00  0.00    -0.206 F 
ATOM     58  C   UNL     1      -5.125  16.216   3.361  1.00  0.00     0.060 A 
BRANCH  58  59
ATOM     59  S   UNL     1      -5.000  17.805   4.207  1.00  0.00     0.124 S 
ATOM     60  O   UNL     1      -6.304  18.391   3.922  1.00  0.00    -0.237 OA
ATOM     61  O   UNL     1      -4.770  17.400   5.591  1.00  0.00    -0.237 OA
ATOM     62  O   UNL     1      -3.862  18.445   3.553  1.00  0.00    -0.744 OA
ENDBRANCH  58  59
ENDBRANCH  26  51
BRANCH  38  63
ATOM     63  C   UNL     1     -10.490  10.418  -1.243  1.00  0.00     0.058 A 
ATOM     64  C   UNL     1     -10.844  11.408  -2.172  1.00  0.00     0.135 A 
ATOM     65  C   UNL     1     -11.523   9.716  -0.602  1.00  0.00     0.135 A 
ATOM     66  F   UNL     1      -9.893  12.117  -2.800  1.00  0.00    -0.206 F 
ATOM     67  C   UNL     1     -12.175  11.697  -2.451  1.00  0.00     0.059 A 
ATOM     68  C   UNL     1     -12.861   9.970  -0.885  1.00  0.00     0.059 A 
ATOM     69  F   UNL     1     -11.236   8.757   0.292  1.00  0.00    -0.206 F 
ATOM     70  C   UNL     1     -13.177  10.967  -1.808  1.00  0.00     0.060 A 
BRANCH  70  71
ATOM     71  S   UNL     1     -14.899  11.312  -2.224  1.00  0.00     0.124 S 
ATOM     72  O   UNL     1     -15.109  12.597  -1.566  1.00  0.00    -0.237 OA
ATOM     73  O   UNL     1     -14.866  11.345  -3.683  1.00  0.00    -0.237 OA
ATOM     74  O   UNL     1     -15.621  10.184  -1.645  1.00  0.00    -0.744 OA
ENDBRANCH  70  71
ENDBRANCH  38  63
ENDBRANCH  12  13
ENDBRANCH   5   7
ENDBRANCH   2   3
ENDBRANCH   1   2
BRANCH   1  75
ATOM     75  C   UNL     1       5.055   4.589   2.206  1.00  0.00     0.023 C 
BRANCH  75  76
ATOM     76  C   UNL     1       5.481   4.691   3.667  1.00  0.00     0.116 C 
BRANCH  76  77
ATOM     77  N   UNL     1       4.673   3.884   4.559  1.00  0.00    -0.354 N 
ATOM     78  C   UNL     1       5.031   3.233   5.706  1.00  0.00     0.242 C 
ATOM     79  H   UNL     1       3.727   3.791   4.301  1.00  0.00     0.163 HD
ATOM     80  O   UNL     1       4.137   2.624   6.301  1.00  0.00    -0.273 OA
BRANCH  78  81
ATOM     81  C   UNL     1       6.503   3.265   6.203  1.00  0.00     0.174 C 
ATOM     82  C   UNL     1       7.035   4.670   6.518  1.00  0.00     0.035 C 
ATOM     83  N   UNL     1       6.694   2.415   7.399  1.00  0.00    -0.325 N 
ATOM     84  C   UNL     1       6.369   5.264   7.754  1.00  0.00     0.004 C 
ATOM     85  C   UNL     1       6.105   2.915   8.648  1.00  0.00     0.121 C 
ATOM     86  C   UNL     1       6.555   4.341   8.952  1.00  0.00     0.022 C 
BRANCH  83  87
ATOM     87  C   UNL     1       7.421   1.228   7.258  1.00  0.00     0.274 C 
ATOM     88  O   UNL     1       7.925   0.900   6.184  1.00  0.00    -0.267 OA
BRANCH  87  89
ATOM     89  C   UNL     1       7.625   0.399   8.450  1.00  0.00     0.147 A 
ATOM     90  C   UNL     1       6.658  -0.229   9.216  1.00  0.00     0.127 A 
ATOM     91  N   UNL     1       8.887   0.112   8.948  1.00  0.00    -0.223 NA
ATOM     92  N   UNL     1       7.335  -0.874  10.219  1.00  0.00    -0.306 N 
ATOM     93  C   UNL     1       8.690  -0.649  10.002  1.00  0.00     0.137 A 
ATOM     94  C   UNL     1       6.842  -1.620  11.287  1.00  0.00     0.093 A 
ATOM     95  C   UNL     1       9.603  -1.243  10.918  1.00  0.00     0.048 A 
ATOM     96  C   UNL     1       7.708  -2.167  12.159  1.00  0.00     0.018 A 
ATOM     97  C   UNL     1       9.136  -1.970  11.952  1.00  0.00     0.005 A 
ENDBRANCH  87  89
ENDBRANCH  83  87
ENDBRANCH  78  81
ENDBRANCH  76  77
ENDBRANCH  75  76
ENDBRANCH   1  75
TORSDOF 16
