REMARK SMILES O=C(CCCCC(=O)c1ccc(-c2ccccc2)cc1)NCCCCNC(=O)c1ccc(-c2c3nc(c(-c4c(F)cc(S(=O)(=O)[O-])cc4F)c4ccc([nH]4)c(-c4c(F)cc(S(=O)(=O)[O-])cc4F)c4nc(c(-c5c(F)cc(S(=O)(=O)[O-])cc5F)c5ccc2[nH]5)C=C4)C=C3)cc1
REMARK SMILES IDX 22 1 21 2 1 3 2 4 3 6 4 7 5 8 6 9 7 10 8 11 9 12 10 13 20 14
REMARK SMILES IDX 11 15 19 16 12 17 13 18 14 19 18 20 15 21 17 22 16 23 23 24
REMARK SMILES IDX 24 25 25 26 26 27 27 28 28 30 29 31 30 32 94 33 31 34 93 35
REMARK SMILES IDX 32 36 33 37 34 38 87 39 35 40 92 41 86 42 88 43 36 44 91 45
REMARK SMILES IDX 85 46 84 47 37 49 71 50 50 51 70 52 51 53 54 54 69 55 89 56
REMARK SMILES IDX 52 57 53 58 68 60 90 61 55 62 38 63 39 64 48 65 40 66 41 67
REMARK SMILES IDX 47 68 49 69 42 70 43 71 44 72 45 73 46 74 72 75 73 76 82 77
REMARK SMILES IDX 74 78 75 79 81 80 83 81 76 82 77 83 78 84 79 85 80 86 56 87
REMARK SMILES IDX 57 88 66 89 58 90 59 91 65 92 67 93 60 94 61 95 62 96 63 97
REMARK SMILES IDX 64 98
REMARK H PARENT 21 5 26 29 88 48 54 59
REMARK Flexibility Score: inf
ROOT
ATOM      1  C   UNL     1       1.808   0.940  -2.632  1.00  0.00     0.116 C 
ENDROOT
BRANCH   1   2
ATOM      2  N   UNL     1       2.443   0.606  -1.377  1.00  0.00    -0.356 N 
ATOM      3  O   UNL     1       0.519   0.122  -0.215  1.00  0.00    -0.275 OA
ATOM      4  C   UNL     1       1.744   0.187  -0.274  1.00  0.00     0.219 C 
ATOM      5  H   UNL     1       3.422   0.682  -1.311  1.00  0.00     0.163 HD
BRANCH   4   6
ATOM      6  C   UNL     1       2.629  -0.203   0.887  1.00  0.00     0.100 C 
BRANCH   6   7
ATOM      7  C   UNL     1       3.427  -1.473   0.587  1.00  0.00     0.010 C 
BRANCH   7   8
ATOM      8  C   UNL     1       4.832  -1.320  -0.029  1.00  0.00     0.009 C 
BRANCH   8   9
ATOM      9  C   UNL     1       5.785  -0.272   0.551  1.00  0.00     0.081 C 
BRANCH   9  10
ATOM     10  C   UNL     1       6.676  -0.692   1.713  1.00  0.00     0.162 C 
ATOM     11  O   UNL     1       7.900  -0.630   1.662  1.00  0.00    -0.294 OA
BRANCH  10  12
ATOM     12  C   UNL     1       6.047  -1.037   2.999  1.00  0.00     0.018 A 
ATOM     13  C   UNL     1       6.158  -0.160   4.075  1.00  0.00     0.012 A 
ATOM     14  C   UNL     1       5.357  -2.233   3.140  1.00  0.00     0.012 A 
ATOM     15  C   UNL     1       5.496  -0.453   5.274  1.00  0.00     0.009 A 
ATOM     16  C   UNL     1       4.652  -2.490   4.316  1.00  0.00     0.009 A 
ATOM     17  C   UNL     1       4.699  -1.607   5.411  1.00  0.00    -0.018 A 
BRANCH  17  18
ATOM     18  C   UNL     1       3.953  -1.901   6.657  1.00  0.00    -0.018 A 
ATOM     19  C   UNL     1       3.398  -0.876   7.446  1.00  0.00     0.009 A 
ATOM     20  C   UNL     1       3.761  -3.224   7.098  1.00  0.00     0.009 A 
ATOM     21  C   UNL     1       2.701  -1.161   8.625  1.00  0.00     0.001 A 
ATOM     22  C   UNL     1       3.053  -3.513   8.267  1.00  0.00     0.001 A 
ATOM     23  C   UNL     1       2.528  -2.480   9.034  1.00  0.00     0.000 A 
ENDBRANCH  17  18
ENDBRANCH  10  12
ENDBRANCH   9  10
ENDBRANCH   8   9
ENDBRANCH   7   8
ENDBRANCH   6   7
ENDBRANCH   4   6
ENDBRANCH   1   2
BRANCH   1  24
ATOM     24  C   UNL     1       2.307   2.276  -3.171  1.00  0.00     0.023 C 
BRANCH  24  25
ATOM     25  C   UNL     1       3.820   2.353  -3.406  1.00  0.00     0.023 C 
BRANCH  25  26
ATOM     26  C   UNL     1       4.395   1.274  -4.320  1.00  0.00     0.116 C 
BRANCH  26  27
ATOM     27  N   UNL     1       3.826   1.324  -5.657  1.00  0.00    -0.352 N 
ATOM     28  C   UNL     1       4.449   1.500  -6.868  1.00  0.00     0.251 C 
ATOM     29  H   UNL     1       2.848   1.216  -5.700  1.00  0.00     0.163 HD
ATOM     30  O   UNL     1       3.772   1.714  -7.871  1.00  0.00    -0.269 OA
BRANCH  28  31
ATOM     31  C   UNL     1       5.925   1.453  -6.966  1.00  0.00     0.039 A 
ATOM     32  C   UNL     1       6.579   2.409  -7.747  1.00  0.00     0.014 A 
ATOM     33  C   UNL     1       6.662   0.464  -6.309  1.00  0.00     0.014 A 
ATOM     34  C   UNL     1       7.975   2.411  -7.817  1.00  0.00     0.010 A 
ATOM     35  C   UNL     1       8.055   0.513  -6.319  1.00  0.00     0.010 A 
ATOM     36  C   UNL     1       8.728   1.486  -7.074  1.00  0.00    -0.014 A 
BRANCH  36  37
ATOM     37  C   UNL     1      10.215   1.531  -7.069  1.00  0.00     0.031 A 
ATOM     38  C   UNL     1      11.014   0.372  -7.604  1.00  0.00     0.074 A 
ATOM     39  C   UNL     1      10.847   2.592  -6.528  1.00  0.00     0.049 A 
ATOM     40  N   UNL     1      12.311   0.202  -7.623  1.00  0.00    -0.248 NA
ATOM     41  C   UNL     1      10.254  -0.754  -8.170  1.00  0.00     0.031 C 
ATOM     42  C   UNL     1      10.187   3.757  -5.936  1.00  0.00     0.029 A 
ATOM     43  N   UNL     1      12.185   2.859  -6.377  1.00  0.00    -0.354 N 
ATOM     44  C   UNL     1      12.523  -1.048  -8.193  1.00  0.00     0.074 A 
ATOM     45  C   UNL     1      11.219  -1.618  -8.453  1.00  0.00     0.031 C 
ATOM     46  C   UNL     1      11.120   4.620  -5.503  1.00  0.00     0.029 A 
ATOM     47  C   UNL     1      12.443   4.054  -5.745  1.00  0.00     0.049 A 
ATOM     48  H   UNL     1      12.894   2.252  -6.690  1.00  0.00     0.167 HD
ATOM     49  C   UNL     1      13.696  -1.656  -8.494  1.00  0.00     0.037 A 
ATOM     50  C   UNL     1      13.610   4.625  -5.388  1.00  0.00     0.037 A 
ATOM     51  C   UNL     1      14.992  -1.077  -8.244  1.00  0.00     0.049 A 
ATOM     52  C   UNL     1      14.901   3.923  -5.717  1.00  0.00     0.074 A 
ATOM     53  C   UNL     1      16.238  -1.593  -8.555  1.00  0.00     0.029 A 
ATOM     54  N   UNL     1      15.211   0.141  -7.617  1.00  0.00    -0.354 N 
ATOM     55  N   UNL     1      15.083   2.769  -6.314  1.00  0.00    -0.248 NA
ATOM     56  C   UNL     1      16.145   4.603  -5.332  1.00  0.00     0.031 C 
ATOM     57  C   UNL     1      17.211  -0.711  -8.071  1.00  0.00     0.029 A 
ATOM     58  C   UNL     1      16.571   0.384  -7.512  1.00  0.00     0.049 A 
ATOM     59  H   UNL     1      14.503   0.745  -7.294  1.00  0.00     0.167 HD
ATOM     60  C   UNL     1      16.460   2.599  -6.402  1.00  0.00     0.074 A 
ATOM     61  C   UNL     1      17.064   3.774  -5.809  1.00  0.00     0.031 C 
ATOM     62  C   UNL     1      17.161   1.562  -6.926  1.00  0.00     0.037 A 
BRANCH  49  63
ATOM     63  C   UNL     1      13.635  -3.018  -9.133  1.00  0.00     0.058 A 
ATOM     64  C   UNL     1      13.165  -3.197 -10.445  1.00  0.00     0.135 A 
ATOM     65  C   UNL     1      14.088  -4.154  -8.443  1.00  0.00     0.135 A 
ATOM     66  F   UNL     1      12.706  -2.149 -11.148  1.00  0.00    -0.206 F 
ATOM     67  C   UNL     1      13.116  -4.455 -11.037  1.00  0.00     0.059 A 
ATOM     68  C   UNL     1      14.078  -5.418  -9.027  1.00  0.00     0.059 A 
ATOM     69  F   UNL     1      14.550  -4.044  -7.188  1.00  0.00    -0.206 F 
ATOM     70  C   UNL     1      13.575  -5.560 -10.320  1.00  0.00     0.060 A 
BRANCH  70  71
ATOM     71  S   UNL     1      13.508  -7.184 -11.106  1.00  0.00     0.124 S 
ATOM     72  O   UNL     1      12.072  -7.447 -11.105  1.00  0.00    -0.237 OA
ATOM     73  O   UNL     1      14.103  -6.922 -12.412  1.00  0.00    -0.237 OA
ATOM     74  O   UNL     1      14.300  -8.027 -10.216  1.00  0.00    -0.744 OA
ENDBRANCH  70  71
ENDBRANCH  49  63
BRANCH  50  75
ATOM     75  C   UNL     1      13.611   5.938  -4.687  1.00  0.00     0.058 A 
ATOM     76  C   UNL     1      14.083   7.097  -5.320  1.00  0.00     0.135 A 
ATOM     77  C   UNL     1      13.130   6.061  -3.374  1.00  0.00     0.135 A 
ATOM     78  F   UNL     1      14.560   7.031  -6.572  1.00  0.00    -0.206 F 
ATOM     79  C   UNL     1      14.094   8.329  -4.672  1.00  0.00     0.059 A 
ATOM     80  C   UNL     1      13.104   7.287  -2.715  1.00  0.00     0.059 A 
ATOM     81  F   UNL     1      12.652   4.986  -2.728  1.00  0.00    -0.206 F 
ATOM     82  C   UNL     1      13.599   8.414  -3.370  1.00  0.00     0.060 A 
BRANCH  82  83
ATOM     83  S   UNL     1      13.573  10.026  -2.557  1.00  0.00     0.124 S 
ATOM     84  O   UNL     1      14.990  10.244  -2.291  1.00  0.00    -0.237 OA
ATOM     85  O   UNL     1      12.977  10.876  -3.582  1.00  0.00    -0.237 OA
ATOM     86  O   UNL     1      12.738   9.796  -1.381  1.00  0.00    -0.744 OA
ENDBRANCH  82  83
ENDBRANCH  50  75
BRANCH  62  87
ATOM     87  C   UNL     1      18.663   1.665  -6.922  1.00  0.00     0.058 A 
ATOM     88  C   UNL     1      19.411   1.558  -5.739  1.00  0.00     0.135 A 
ATOM     89  C   UNL     1      19.366   1.821  -8.128  1.00  0.00     0.135 A 
ATOM     90  F   UNL     1      18.790   1.415  -4.557  1.00  0.00    -0.206 F 
ATOM     91  C   UNL     1      20.801   1.626  -5.749  1.00  0.00     0.059 A 
ATOM     92  C   UNL     1      20.756   1.860  -8.165  1.00  0.00     0.059 A 
ATOM     93  F   UNL     1      18.702   1.919  -9.291  1.00  0.00    -0.206 F 
ATOM     94  C   UNL     1      21.465   1.774  -6.968  1.00  0.00     0.060 A 
BRANCH  94  95
ATOM     95  S   UNL     1      23.270   1.825  -6.969  1.00  0.00     0.124 S 
ATOM     96  O   UNL     1      23.527   3.143  -6.400  1.00  0.00    -0.237 OA
ATOM     97  O   UNL     1      23.614   0.689  -6.120  1.00  0.00    -0.237 OA
ATOM     98  O   UNL     1      23.614   1.672  -8.380  1.00  0.00    -0.744 OA
ENDBRANCH  94  95
ENDBRANCH  62  87
ENDBRANCH  36  37
ENDBRANCH  28  31
ENDBRANCH  26  27
ENDBRANCH  25  26
ENDBRANCH  24  25
ENDBRANCH   1  24
TORSDOF 20
