REMARK SMILES O=C(CSc1cccs1)N[C@H]1CCCCC[C@H]1C(=O)NCCCCNC(=O)c1ccc(-c2c3nc(c(-c4c(F)cc(S(=O)(=O)[O-])cc4F)c4ccc([nH]4)c(-c4c(F)cc(S(=O)(=O)[O-])cc4F)c4nc(c(-c5c(F)cc(S(=O)(=O)[O-])cc5F)c5ccc2[nH]5)C=C4)C=C3)cc1
REMARK SMILES IDX 21 1 20 2 18 3 19 4 17 6 11 7 10 9 1 10 2 11 3 13 4 14 5 15
REMARK SMILES IDX 6 16 9 17 7 18 8 19 16 20 15 21 14 22 13 23 12 24 22 26
REMARK SMILES IDX 23 27 24 28 25 29 26 30 27 32 28 33 29 34 93 35 30 36 92 37
REMARK SMILES IDX 31 38 32 39 33 40 86 41 34 42 91 43 85 44 87 45 35 46 90 47
REMARK SMILES IDX 84 48 83 49 36 51 70 52 49 53 69 54 50 55 53 56 68 57 88 58
REMARK SMILES IDX 51 59 52 60 67 62 89 63 54 64 37 65 38 66 47 67 39 68 40 69
REMARK SMILES IDX 46 70 48 71 41 72 42 73 43 74 44 75 45 76 71 77 72 78 81 79
REMARK SMILES IDX 73 80 74 81 80 82 82 83 75 84 76 85 77 86 78 87 79 88 55 89
REMARK SMILES IDX 56 90 65 91 57 92 58 93 64 94 66 95 59 96 60 97 61 98 62 99
REMARK SMILES IDX 63 100
REMARK H PARENT 20 5 10 12 25 31 87 50 53 61
REMARK Flexibility Score: 90.00
ROOT
ATOM      1  C   UNL     1       0.782   3.593   4.378  1.00  0.00     0.116 C 
ENDROOT
BRANCH   1   2
ATOM      2  N   UNL     1       0.331   2.223   4.457  1.00  0.00    -0.356 N 
ATOM      3  C   UNL     1       0.917   1.061   4.076  1.00  0.00     0.225 C 
ATOM      4  O   UNL     1       0.290   0.027   4.338  1.00  0.00    -0.275 OA
ATOM      5  H   UNL     1      -0.561   2.113   4.860  1.00  0.00     0.163 HD
BRANCH   3   6
ATOM      6  C   UNL     1       2.255   0.949   3.319  1.00  0.00     0.101 C 
BRANCH   6   7
ATOM      7  C   UNL     1       2.307   1.496   1.867  1.00  0.00     0.094 CG0
ATOM      8  G   UNL     1       3.539   2.346   1.508  1.00  0.00     0.000 G0
BRANCH   7   9
ATOM      9  N   UNL     1       0.987   1.919   1.383  1.00  0.00    -0.352 N 
ATOM     10  O   UNL     1       1.465   3.607  -0.118  1.00  0.00    -0.274 OA
ATOM     11  C   UNL     1       0.670   2.830   0.397  1.00  0.00     0.230 C 
ATOM     12  H   UNL     1       0.219   1.492   1.825  1.00  0.00     0.163 HD
BRANCH  11  13
ATOM     13  C   UNL     1      -0.816   2.858   0.045  1.00  0.00     0.175 C 
BRANCH  13  14
ATOM     14  S   UNL     1      -1.363   1.266  -0.637  1.00  0.00    -0.105 SA
BRANCH  14  15
ATOM     15  C   UNL     1      -0.531   1.254  -2.181  1.00  0.00     0.060 A 
ATOM     16  C   UNL     1      -0.494   2.270  -3.112  1.00  0.00     0.027 A 
ATOM     17  S   UNL     1       0.335  -0.122  -2.711  1.00  0.00    -0.137 S 
ATOM     18  C   UNL     1       0.278   1.923  -4.259  1.00  0.00     0.013 A 
ATOM     19  C   UNL     1       0.786   0.647  -4.170  1.00  0.00     0.066 A 
ENDBRANCH  14  15
ENDBRANCH  13  14
ENDBRANCH  11  13
ENDBRANCH   7   9
ENDBRANCH   6   7
BRANCH   6  20
ATOM     20  C   UNL     1       3.511   1.069   4.199  1.00  0.00     0.015 C 
BRANCH  20  21
ATOM     21  C   UNL     1       3.978   2.436   4.675  1.00  0.00     0.001 C 
BRANCH  21  22
ATOM     22  C   UNL     1       4.553   3.380   3.621  1.00  0.00     0.000 C 
BRANCH  22  23
ATOM     23  C   UNL     1       3.780   3.607   2.322  1.00  0.00     0.002 C 
BRANCH  23  24
ATOM     24  C   UNL     1       3.539   2.346   1.508  1.00  0.00     0.026 CG0
ATOM     25  G   UNL     1       2.307   1.496   1.867  1.00  0.00     0.000 G0
ENDBRANCH  23  24
ENDBRANCH  22  23
ENDBRANCH  21  22
ENDBRANCH  20  21
ENDBRANCH   6  20
ENDBRANCH   3   6
ENDBRANCH   1   2
BRANCH   1  26
ATOM     26  C   UNL     1       0.001   4.443   3.385  1.00  0.00     0.023 C 
BRANCH  26  27
ATOM     27  C   UNL     1      -0.972   5.450   3.982  1.00  0.00     0.023 C 
BRANCH  27  28
ATOM     28  C   UNL     1      -0.406   6.392   5.032  1.00  0.00     0.116 C 
BRANCH  28  29
ATOM     29  N   UNL     1       0.764   7.156   4.621  1.00  0.00    -0.352 N 
ATOM     30  C   UNL     1       1.117   8.424   5.040  1.00  0.00     0.251 C 
ATOM     31  H   UNL     1       1.369   6.722   3.976  1.00  0.00     0.163 HD
ATOM     32  O   UNL     1       2.125   8.976   4.611  1.00  0.00    -0.269 OA
BRANCH  30  33
ATOM     33  C   UNL     1       0.208   9.129   5.970  1.00  0.00     0.039 A 
ATOM     34  C   UNL     1      -0.357  10.341   5.568  1.00  0.00     0.014 A 
ATOM     35  C   UNL     1      -0.212   8.503   7.146  1.00  0.00     0.014 A 
ATOM     36  C   UNL     1      -1.433  10.866   6.288  1.00  0.00     0.010 A 
ATOM     37  C   UNL     1      -1.339   8.980   7.805  1.00  0.00     0.010 A 
ATOM     38  C   UNL     1      -1.976  10.153   7.370  1.00  0.00    -0.014 A 
BRANCH  38  39
ATOM     39  C   UNL     1      -3.233  10.588   8.036  1.00  0.00     0.031 A 
ATOM     40  C   UNL     1      -3.235  10.910   9.505  1.00  0.00     0.074 A 
ATOM     41  C   UNL     1      -4.391  10.592   7.344  1.00  0.00     0.049 A 
ATOM     42  N   UNL     1      -4.245  11.188  10.288  1.00  0.00    -0.248 NA
ATOM     43  C   UNL     1      -1.934  10.872  10.192  1.00  0.00     0.031 C 
ATOM     44  C   UNL     1      -4.544  10.222   5.934  1.00  0.00     0.029 A 
ATOM     45  N   UNL     1      -5.668  10.909   7.739  1.00  0.00    -0.354 N 
ATOM     46  C   UNL     1      -3.708  11.319  11.563  1.00  0.00     0.074 A 
ATOM     47  C   UNL     1      -2.291  11.047  11.455  1.00  0.00     0.031 C 
ATOM     48  C   UNL     1      -5.831  10.364   5.576  1.00  0.00     0.029 A 
ATOM     49  C   UNL     1      -6.602  10.803   6.734  1.00  0.00     0.049 A 
ATOM     50  H   UNL     1      -5.894  11.186   8.656  1.00  0.00     0.167 HD
ATOM     51  C   UNL     1      -4.333  11.658  12.715  1.00  0.00     0.037 A 
ATOM     52  C   UNL     1      -7.928  11.037   6.743  1.00  0.00     0.037 A 
ATOM     53  C   UNL     1      -5.729  11.990  12.811  1.00  0.00     0.049 A 
ATOM     54  C   UNL     1      -8.585  11.496   8.015  1.00  0.00     0.074 A 
ATOM     55  C   UNL     1      -6.439  12.421  13.917  1.00  0.00     0.029 A 
ATOM     56  N   UNL     1      -6.625  11.944  11.753  1.00  0.00    -0.354 N 
ATOM     57  N   UNL     1      -8.050  11.668   9.200  1.00  0.00    -0.248 NA
ATOM     58  C   UNL     1     -10.021  11.800   7.951  1.00  0.00     0.031 C 
ATOM     59  C   UNL     1      -7.769  12.625  13.530  1.00  0.00     0.029 A 
ATOM     60  C   UNL     1      -7.880  12.342  12.178  1.00  0.00     0.049 A 
ATOM     61  H   UNL     1      -6.400  11.669  10.834  1.00  0.00     0.167 HD
ATOM     62  C   UNL     1      -9.080  12.118  10.018  1.00  0.00     0.074 A 
ATOM     63  C   UNL     1     -10.266  12.202   9.191  1.00  0.00     0.031 C 
ATOM     64  C   UNL     1      -9.046  12.431  11.337  1.00  0.00     0.037 A 
BRANCH  51  65
ATOM     65  C   UNL     1      -3.495  11.703  13.961  1.00  0.00     0.058 A 
ATOM     66  C   UNL     1      -2.557  12.725  14.175  1.00  0.00     0.135 A 
ATOM     67  C   UNL     1      -3.625  10.713  14.947  1.00  0.00     0.135 A 
ATOM     68  F   UNL     1      -2.382  13.685  13.254  1.00  0.00    -0.206 F 
ATOM     69  C   UNL     1      -1.747  12.743  15.305  1.00  0.00     0.059 A 
ATOM     70  C   UNL     1      -2.842  10.724  16.098  1.00  0.00     0.059 A 
ATOM     71  F   UNL     1      -4.507   9.713  14.790  1.00  0.00    -0.206 F 
ATOM     72  C   UNL     1      -1.891  11.732  16.257  1.00  0.00     0.060 A 
BRANCH  72  73
ATOM     73  S   UNL     1      -0.820  11.749  17.709  1.00  0.00     0.124 S 
ATOM     74  O   UNL     1       0.413  11.189  17.165  1.00  0.00    -0.237 OA
ATOM     75  O   UNL     1      -0.772  13.167  18.052  1.00  0.00    -0.237 OA
ATOM     76  O   UNL     1      -1.530  10.902  18.662  1.00  0.00    -0.744 OA
ENDBRANCH  72  73
ENDBRANCH  51  65
BRANCH  52  77
ATOM     77  C   UNL     1      -8.718  10.888   5.494  1.00  0.00     0.058 A 
ATOM     78  C   UNL     1      -9.147  12.017   4.782  1.00  0.00     0.135 A 
ATOM     79  C   UNL     1      -9.045   9.625   4.980  1.00  0.00     0.135 A 
ATOM     80  F   UNL     1      -8.861  13.246   5.239  1.00  0.00    -0.206 F 
ATOM     81  C   UNL     1      -9.885  11.902   3.609  1.00  0.00     0.059 A 
ATOM     82  C   UNL     1      -9.768   9.483   3.799  1.00  0.00     0.059 A 
ATOM     83  F   UNL     1      -8.641   8.515   5.617  1.00  0.00    -0.206 F 
ATOM     84  C   UNL     1     -10.191  10.629   3.125  1.00  0.00     0.060 A 
BRANCH  84  85
ATOM     85  S   UNL     1     -11.101  10.484   1.571  1.00  0.00     0.124 S 
ATOM     86  O   UNL     1     -12.466  10.754   2.005  1.00  0.00    -0.237 OA
ATOM     87  O   UNL     1     -10.476  11.516   0.748  1.00  0.00    -0.237 OA
ATOM     88  O   UNL     1     -10.828   9.112   1.154  1.00  0.00    -0.744 OA
ENDBRANCH  84  85
ENDBRANCH  52  77
BRANCH  64  89
ATOM     89  C   UNL     1     -10.320  12.921  11.959  1.00  0.00     0.058 A 
ATOM     90  C   UNL     1     -11.354  12.037  12.300  1.00  0.00     0.135 A 
ATOM     91  C   UNL     1     -10.487  14.281  12.259  1.00  0.00     0.135 A 
ATOM     92  F   UNL     1     -11.242  10.727  12.026  1.00  0.00    -0.206 F 
ATOM     93  C   UNL     1     -12.522  12.488  12.906  1.00  0.00     0.059 A 
ATOM     94  C   UNL     1     -11.639  14.752  12.881  1.00  0.00     0.059 A 
ATOM     95  F   UNL     1      -9.522  15.164  11.958  1.00  0.00    -0.206 F 
ATOM     96  C   UNL     1     -12.655  13.848  13.192  1.00  0.00     0.060 A 
BRANCH  96  97
ATOM     97  S   UNL     1     -14.157  14.423  14.013  1.00  0.00     0.124 S 
ATOM     98  O   UNL     1     -15.095  14.486  12.897  1.00  0.00    -0.237 OA
ATOM     99  O   UNL     1     -14.406  13.370  14.992  1.00  0.00    -0.237 OA
ATOM    100  O   UNL     1     -13.761  15.711  14.576  1.00  0.00    -0.744 OA
ENDBRANCH  96  97
ENDBRANCH  64  89
ENDBRANCH  38  39
ENDBRANCH  30  33
ENDBRANCH  28  29
ENDBRANCH  27  28
ENDBRANCH  26  27
ENDBRANCH   1  26
TORSDOF 18
