REMARK SMILES Cc1ccc(O)c(C(=O)CCCC(=O)NCCCCNC(=O)c2ccc(-c3c4nc(c(-c5c(F)cc(S(=O)(=O)[O-])cc5F)c5ccc([nH]5)c(-c5c(F)cc(S(=O)(=O)[O-])cc5F)c5nc(c(-c6c(F)cc(S(=O)(=O)[O-])cc6F)c6ccc3[nH]6)C=C5)C=C4)cc2)c1
REMARK SMILES IDX 16 1 15 2 13 3 14 4 12 6 11 7 10 8 8 9 9 10 7 11 1 12 2 13
REMARK SMILES IDX 3 14 89 15 4 16 5 17 6 18 17 20 18 21 19 22 20 23 21 24
REMARK SMILES IDX 22 26 23 27 24 28 88 29 25 30 87 31 26 32 27 33 28 34 81 35
REMARK SMILES IDX 29 36 86 37 80 38 82 39 30 40 85 41 79 42 78 43 31 45 65 46
REMARK SMILES IDX 44 47 64 48 45 49 48 50 63 51 83 52 46 53 47 54 62 56 84 57
REMARK SMILES IDX 49 58 32 59 33 60 42 61 34 62 35 63 41 64 43 65 36 66 37 67
REMARK SMILES IDX 38 68 39 69 40 70 66 71 67 72 76 73 68 74 69 75 75 76 77 77
REMARK SMILES IDX 70 78 71 79 72 80 73 81 74 82 50 83 51 84 60 85 52 86 53 87
REMARK SMILES IDX 59 88 61 89 54 90 55 91 56 92 57 93 58 94
REMARK H PARENT 15 5 6 19 20 25 82 44 48 55
REMARK Flexibility Score: inf
ROOT
ATOM      1  C   UNL     1       1.047  -3.287   1.728  1.00  0.00     0.116 C 
ENDROOT
BRANCH   1   2
ATOM      2  N   UNL     1       2.127  -3.954   1.032  1.00  0.00    -0.356 N 
ATOM      3  C   UNL     1       2.451  -4.159  -0.265  1.00  0.00     0.220 C 
ATOM      4  O   UNL     1       3.485  -4.812  -0.456  1.00  0.00    -0.275 OA
ATOM      5  H   UNL     1       2.781  -4.355   1.649  1.00  0.00     0.163 HD
BRANCH   3   6
ATOM      6  C   UNL     1       1.741  -3.555  -1.475  1.00  0.00     0.100 C 
BRANCH   6   7
ATOM      7  C   UNL     1       0.280  -3.837  -1.829  1.00  0.00     0.018 C 
BRANCH   7   8
ATOM      8  C   UNL     1      -0.902  -3.380  -0.983  1.00  0.00     0.082 C 
BRANCH   8   9
ATOM      9  C   UNL     1      -1.550  -1.993  -1.092  1.00  0.00     0.166 C 
ATOM     10  O   UNL     1      -2.742  -1.929  -1.427  1.00  0.00    -0.294 OA
BRANCH   9  11
ATOM     11  C   UNL     1      -0.908  -0.693  -0.689  1.00  0.00     0.060 A 
ATOM     12  C   UNL     1       2.542   0.772   0.074  1.00  0.00     0.044 C 
ATOM     13  C   UNL     1       1.055   0.677  -0.123  1.00  0.00    -0.050 A 
ATOM     14  C   UNL     1       0.251   1.809  -0.026  1.00  0.00     0.007 A 
ATOM     15  C   UNL     1       0.457  -0.553  -0.444  1.00  0.00     0.019 A 
ATOM     16  C   UNL     1      -1.123   1.698  -0.223  1.00  0.00     0.047 A 
ATOM     17  C   UNL     1      -1.694   0.464  -0.551  1.00  0.00     0.126 A 
BRANCH  17  18
ATOM     18  O   UNL     1      -3.056   0.473  -0.706  1.00  0.00    -0.507 OA
ATOM     19  H   UNL     1      -3.534   1.272  -0.603  1.00  0.00     0.293 HD
ENDBRANCH  17  18
ENDBRANCH   9  11
ENDBRANCH   8   9
ENDBRANCH   7   8
ENDBRANCH   6   7
ENDBRANCH   3   6
ENDBRANCH   1   2
BRANCH   1  20
ATOM     20  C   UNL     1       0.076  -4.294   2.352  1.00  0.00     0.023 C 
BRANCH  20  21
ATOM     21  C   UNL     1       0.332  -4.547   3.834  1.00  0.00     0.023 C 
BRANCH  21  22
ATOM     22  C   UNL     1       0.009  -3.356   4.731  1.00  0.00     0.116 C 
BRANCH  22  23
ATOM     23  N   UNL     1      -1.408  -3.013   4.761  1.00  0.00    -0.352 N 
ATOM     24  C   UNL     1      -2.174  -2.664   5.851  1.00  0.00     0.251 C 
ATOM     25  H   UNL     1      -1.875  -3.033   3.894  1.00  0.00     0.163 HD
ATOM     26  O   UNL     1      -3.381  -2.483   5.739  1.00  0.00    -0.269 OA
BRANCH  24  27
ATOM     27  C   UNL     1      -1.517  -2.563   7.170  1.00  0.00     0.039 A 
ATOM     28  C   UNL     1      -2.007  -3.328   8.230  1.00  0.00     0.014 A 
ATOM     29  C   UNL     1      -0.356  -1.800   7.318  1.00  0.00     0.014 A 
ATOM     30  C   UNL     1      -1.276  -3.400   9.417  1.00  0.00     0.010 A 
ATOM     31  C   UNL     1       0.410  -1.938   8.470  1.00  0.00     0.010 A 
ATOM     32  C   UNL     1      -0.036  -2.747   9.527  1.00  0.00    -0.014 A 
BRANCH  32  33
ATOM     33  C   UNL     1       0.819  -2.908  10.730  1.00  0.00     0.031 A 
ATOM     34  C   UNL     1       1.152  -1.712  11.579  1.00  0.00     0.074 A 
ATOM     35  C   UNL     1       1.361  -4.110  11.011  1.00  0.00     0.049 A 
ATOM     36  N   UNL     1       1.948  -1.629  12.613  1.00  0.00    -0.248 NA
ATOM     37  C   UNL     1       0.537  -0.433  11.190  1.00  0.00     0.031 C 
ATOM     38  C   UNL     1       1.165  -5.334  10.229  1.00  0.00     0.029 A 
ATOM     39  N   UNL     1       2.198  -4.500  12.027  1.00  0.00    -0.354 N 
ATOM     40  C   UNL     1       1.949  -0.289  12.981  1.00  0.00     0.074 A 
ATOM     41  C   UNL     1       1.116   0.412  12.029  1.00  0.00     0.031 C 
ATOM     42  C   UNL     1       1.838  -6.341  10.810  1.00  0.00     0.029 A 
ATOM     43  C   UNL     1       2.538  -5.832  11.984  1.00  0.00     0.049 A 
ATOM     44  H   UNL     1       2.524  -3.883  12.721  1.00  0.00     0.167 HD
ATOM     45  C   UNL     1       2.567   0.299  14.033  1.00  0.00     0.037 A 
ATOM     46  C   UNL     1       3.326  -6.559  12.800  1.00  0.00     0.037 A 
ATOM     47  C   UNL     1       3.357  -0.410  15.004  1.00  0.00     0.049 A 
ATOM     48  C   UNL     1       3.974  -5.890  13.982  1.00  0.00     0.074 A 
ATOM     49  C   UNL     1       3.962   0.081  16.147  1.00  0.00     0.029 A 
ATOM     50  N   UNL     1       3.646  -1.766  14.948  1.00  0.00    -0.354 N 
ATOM     51  N   UNL     1       3.910  -4.634  14.354  1.00  0.00    -0.248 NA
ATOM     52  C   UNL     1       4.797  -6.737  14.857  1.00  0.00     0.031 C 
ATOM     53  C   UNL     1       4.642  -0.973  16.768  1.00  0.00     0.029 A 
ATOM     54  C   UNL     1       4.430  -2.127  16.030  1.00  0.00     0.049 A 
ATOM     55  H   UNL     1       3.338  -2.381  14.243  1.00  0.00     0.167 HD
ATOM     56  C   UNL     1       4.661  -4.545  15.520  1.00  0.00     0.074 A 
ATOM     57  C   UNL     1       5.163  -5.875  15.796  1.00  0.00     0.031 C 
ATOM     58  C   UNL     1       4.911  -3.460  16.294  1.00  0.00     0.037 A 
BRANCH  45  59
ATOM     59  C   UNL     1       2.400   1.785  14.188  1.00  0.00     0.058 A 
ATOM     60  C   UNL     1       1.173   2.350  14.573  1.00  0.00     0.135 A 
ATOM     61  C   UNL     1       3.477   2.654  13.953  1.00  0.00     0.135 A 
ATOM     62  F   UNL     1       0.106   1.565  14.793  1.00  0.00    -0.206 F 
ATOM     63  C   UNL     1       1.010   3.727  14.683  1.00  0.00     0.059 A 
ATOM     64  C   UNL     1       3.343   4.033  14.083  1.00  0.00     0.059 A 
ATOM     65  F   UNL     1       4.671   2.166  13.582  1.00  0.00    -0.206 F 
ATOM     66  C   UNL     1       2.100   4.561  14.429  1.00  0.00     0.060 A 
BRANCH  66  67
ATOM     67  S   UNL     1       1.870   6.346  14.559  1.00  0.00     0.124 S 
ATOM     68  O   UNL     1       1.157   6.637  13.319  1.00  0.00    -0.237 OA
ATOM     69  O   UNL     1       1.087   6.475  15.784  1.00  0.00    -0.237 OA
ATOM     70  O   UNL     1       3.235   6.859  14.635  1.00  0.00    -0.744 OA
ENDBRANCH  66  67
ENDBRANCH  45  59
BRANCH  46  71
ATOM     71  C   UNL     1       3.513  -8.013  12.554  1.00  0.00     0.058 A 
ATOM     72  C   UNL     1       2.906  -8.965  13.387  1.00  0.00     0.135 A 
ATOM     73  C   UNL     1       4.286  -8.482  11.481  1.00  0.00     0.135 A 
ATOM     74  F   UNL     1       2.162  -8.564  14.430  1.00  0.00    -0.206 F 
ATOM     75  C   UNL     1       3.070 -10.329  13.177  1.00  0.00     0.059 A 
ATOM     76  C   UNL     1       4.448  -9.842  11.237  1.00  0.00     0.059 A 
ATOM     77  F   UNL     1       4.873  -7.612  10.644  1.00  0.00    -0.206 F 
ATOM     78  C   UNL     1       3.844 -10.759  12.098  1.00  0.00     0.060 A 
BRANCH  78  79
ATOM     79  S   UNL     1       4.011 -12.533  11.803  1.00  0.00     0.124 S 
ATOM     80  O   UNL     1       4.958 -12.916  12.843  1.00  0.00    -0.237 OA
ATOM     81  O   UNL     1       2.642 -13.006  11.979  1.00  0.00    -0.237 OA
ATOM     82  O   UNL     1       4.515 -12.597  10.434  1.00  0.00    -0.744 OA
ENDBRANCH  78  79
ENDBRANCH  46  71
BRANCH  58  83
ATOM     83  C   UNL     1       5.737  -3.670  17.530  1.00  0.00     0.058 A 
ATOM     84  C   UNL     1       7.125  -3.858  17.464  1.00  0.00     0.135 A 
ATOM     85  C   UNL     1       5.137  -3.629  18.799  1.00  0.00     0.135 A 
ATOM     86  F   UNL     1       7.744  -3.912  16.274  1.00  0.00    -0.206 F 
ATOM     87  C   UNL     1       7.891  -4.016  18.614  1.00  0.00     0.059 A 
ATOM     88  C   UNL     1       5.886  -3.763  19.964  1.00  0.00     0.059 A 
ATOM     89  F   UNL     1       3.813  -3.443  18.916  1.00  0.00    -0.206 F 
ATOM     90  C   UNL     1       7.262  -3.966  19.860  1.00  0.00     0.060 A 
BRANCH  90  91
ATOM     91  S   UNL     1       8.270  -4.133  21.349  1.00  0.00     0.124 S 
ATOM     92  O   UNL     1       8.518  -5.570  21.376  1.00  0.00    -0.237 OA
ATOM     93  O   UNL     1       9.426  -3.295  21.042  1.00  0.00    -0.237 OA
ATOM     94  O   UNL     1       7.400  -3.624  22.405  1.00  0.00    -0.744 OA
ENDBRANCH  90  91
ENDBRANCH  58  83
ENDBRANCH  32  33
ENDBRANCH  24  27
ENDBRANCH  22  23
ENDBRANCH  21  22
ENDBRANCH  20  21
ENDBRANCH   1  20
TORSDOF 19
