REMARK SMILES COc1ccc([C@H](CC(=O)NCCCCNC(=O)c2ccc(-c3c4nc(c(-c5c(F)cc(S(=O)(=O)[O-])cc5F)c5ccc([nH]5)c(-c5c(F)cc(S(=O)(=O)[O-])cc5F)c5nc(c(-c6c(F)cc(S(=O)(=O)[O-])cc6F)c6ccc3[nH]6)C=C5)C=C4)cc2)NC(C)=O)cc1
REMARK SMILES IDX 13 1 12 2 11 3 9 4 10 5 8 7 7 8 6 9 3 10 4 11 90 12 5 13
REMARK SMILES IDX 89 14 2 15 1 16 85 17 86 18 87 20 88 21 14 22 15 23 16 24
REMARK SMILES IDX 17 25 18 27 19 28 20 29 84 30 21 31 83 32 22 33 23 34 24 35
REMARK SMILES IDX 77 36 25 37 82 38 76 39 78 40 26 41 81 42 75 43 74 44 27 46
REMARK SMILES IDX 61 47 40 48 60 49 41 50 44 51 59 52 79 53 42 54 43 55 58 57
REMARK SMILES IDX 80 58 45 59 28 60 29 61 38 62 30 63 31 64 37 65 39 66 32 67
REMARK SMILES IDX 33 68 34 69 35 70 36 71 62 72 63 73 72 74 64 75 65 76 71 77
REMARK SMILES IDX 73 78 66 79 67 80 68 81 69 82 70 83 46 84 47 85 56 86 48 87
REMARK SMILES IDX 49 88 55 89 57 90 50 91 51 92 52 93 53 94 54 95
REMARK H PARENT 11 6 85 19 16 26 78 45 44 56
REMARK Flexibility Score: inf
ROOT
ATOM      1  C   UNL     1       2.902  -3.262   6.878  1.00  0.00     0.023 C 
ENDROOT
BRANCH   1   2
ATOM      2  C   UNL     1       2.023  -2.462   5.911  1.00  0.00     0.116 C 
BRANCH   2   3
ATOM      3  N   UNL     1       2.665  -2.343   4.614  1.00  0.00    -0.356 N 
ATOM      4  C   UNL     1       2.453  -3.009   3.448  1.00  0.00     0.222 C 
ATOM      5  O   UNL     1       3.202  -2.768   2.499  1.00  0.00    -0.275 OA
ATOM      6  H   UNL     1       3.376  -1.663   4.572  1.00  0.00     0.163 HD
BRANCH   4   7
ATOM      7  C   UNL     1       1.305  -3.984   3.291  1.00  0.00     0.129 C 
BRANCH   7   8
ATOM      8  C   UNL     1       1.674  -5.412   3.730  1.00  0.00     0.121 C 
BRANCH   8   9
ATOM      9  C   UNL     1       1.225  -5.783   5.138  1.00  0.00    -0.025 A 
ATOM     10  C   UNL     1       0.443  -6.502   7.753  1.00  0.00     0.118 A 
ATOM     11  C   UNL     1       1.687  -6.891   7.253  1.00  0.00     0.047 A 
ATOM     12  C   UNL     1      -0.433  -5.801   6.928  1.00  0.00     0.047 A 
ATOM     13  C   UNL     1       2.075  -6.542   5.956  1.00  0.00     0.010 A 
ATOM     14  C   UNL     1      -0.052  -5.462   5.626  1.00  0.00     0.010 A 
BRANCH  10  15
ATOM     15  O   UNL     1       0.201  -6.865   9.046  1.00  0.00    -0.497 OA
ATOM     16  C   UNL     1      -0.965  -6.323   9.659  1.00  0.00     0.278 C 
ENDBRANCH  10  15
ENDBRANCH   8   9
BRANCH   8  17
ATOM     17  N   UNL     1       1.077  -6.407   2.839  1.00  0.00    -0.349 N 
ATOM     18  C   UNL     1       1.775  -7.516   2.421  1.00  0.00     0.217 C 
ATOM     19  H   UNL     1       0.151  -6.279   2.530  1.00  0.00     0.164 HD
ATOM     20  C   UNL     1       0.932  -8.537   1.707  1.00  0.00     0.114 C 
ATOM     21  O   UNL     1       2.977  -7.683   2.600  1.00  0.00    -0.275 OA
ENDBRANCH   8  17
ENDBRANCH   7   8
ENDBRANCH   4   7
ENDBRANCH   2   3
ENDBRANCH   1   2
BRANCH   1  22
ATOM     22  C   UNL     1       3.347  -2.489   8.116  1.00  0.00     0.023 C 
BRANCH  22  23
ATOM     23  C   UNL     1       2.214  -2.125   9.071  1.00  0.00     0.116 C 
BRANCH  23  24
ATOM     24  N   UNL     1       1.583  -3.268   9.717  1.00  0.00    -0.352 N 
ATOM     25  C   UNL     1       1.035  -3.340  10.984  1.00  0.00     0.251 C 
ATOM     26  H   UNL     1       1.542  -4.095   9.184  1.00  0.00     0.163 HD
ATOM     27  O   UNL     1       0.598  -4.390  11.424  1.00  0.00    -0.269 OA
BRANCH  25  28
ATOM     28  C   UNL     1       1.038  -2.135  11.843  1.00  0.00     0.039 A 
ATOM     29  C   UNL     1       1.512  -2.262  13.152  1.00  0.00     0.014 A 
ATOM     30  C   UNL     1       0.663  -0.888  11.343  1.00  0.00     0.014 A 
ATOM     31  C   UNL     1       1.731  -1.117  13.915  1.00  0.00     0.010 A 
ATOM     32  C   UNL     1       0.960   0.257  12.072  1.00  0.00     0.010 A 
ATOM     33  C   UNL     1       1.524   0.152  13.351  1.00  0.00    -0.014 A 
BRANCH  33  34
ATOM     34  C   UNL     1       1.973   1.378  14.052  1.00  0.00     0.031 A 
ATOM     35  C   UNL     1       0.981   2.423  14.467  1.00  0.00     0.074 A 
ATOM     36  C   UNL     1       3.295   1.585  14.213  1.00  0.00     0.049 A 
ATOM     37  N   UNL     1       1.193   3.585  15.026  1.00  0.00    -0.248 NA
ATOM     38  C   UNL     1      -0.434   2.140  14.180  1.00  0.00     0.031 C 
ATOM     39  C   UNL     1       4.353   0.675  13.762  1.00  0.00     0.029 A 
ATOM     40  N   UNL     1       3.979   2.628  14.782  1.00  0.00    -0.354 N 
ATOM     41  C   UNL     1      -0.055   4.183  15.138  1.00  0.00     0.074 A 
ATOM     42  C   UNL     1      -1.013   3.274  14.544  1.00  0.00     0.031 C 
ATOM     43  C   UNL     1       5.547   1.190  14.090  1.00  0.00     0.029 A 
ATOM     44  C   UNL     1       5.345   2.476  14.746  1.00  0.00     0.049 A 
ATOM     45  H   UNL     1       3.534   3.411  15.179  1.00  0.00     0.167 HD
ATOM     46  C   UNL     1      -0.374   5.372  15.702  1.00  0.00     0.037 A 
ATOM     47  C   UNL     1       6.325   3.284  15.192  1.00  0.00     0.037 A 
ATOM     48  C   UNL     1       0.590   6.254  16.306  1.00  0.00     0.049 A 
ATOM     49  C   UNL     1       5.949   4.566  15.876  1.00  0.00     0.074 A 
ATOM     50  C   UNL     1       0.373   7.449  16.969  1.00  0.00     0.029 A 
ATOM     51  N   UNL     1       1.962   6.034  16.316  1.00  0.00    -0.354 N 
ATOM     52  N   UNL     1       4.754   5.079  16.055  1.00  0.00    -0.248 NA
ATOM     53  C   UNL     1       7.043   5.371  16.431  1.00  0.00     0.031 C 
ATOM     54  C   UNL     1       1.617   7.966  17.353  1.00  0.00     0.029 A 
ATOM     55  C   UNL     1       2.607   7.077  16.960  1.00  0.00     0.049 A 
ATOM     56  H   UNL     1       2.410   5.251  15.922  1.00  0.00     0.167 HD
ATOM     57  C   UNL     1       4.950   6.265  16.750  1.00  0.00     0.074 A 
ATOM     58  C   UNL     1       6.378   6.383  16.975  1.00  0.00     0.031 C 
ATOM     59  C   UNL     1       4.032   7.174  17.164  1.00  0.00     0.037 A 
BRANCH  46  60
ATOM     60  C   UNL     1      -1.823   5.773  15.673  1.00  0.00     0.058 A 
ATOM     61  C   UNL     1      -2.789   5.099  16.439  1.00  0.00     0.135 A 
ATOM     62  C   UNL     1      -2.261   6.811  14.835  1.00  0.00     0.135 A 
ATOM     63  F   UNL     1      -2.428   4.088  17.245  1.00  0.00    -0.206 F 
ATOM     64  C   UNL     1      -4.144   5.396  16.328  1.00  0.00     0.059 A 
ATOM     65  C   UNL     1      -3.609   7.145  14.730  1.00  0.00     0.059 A 
ATOM     66  F   UNL     1      -1.381   7.492  14.085  1.00  0.00    -0.206 F 
ATOM     67  C   UNL     1      -4.545   6.411  15.458  1.00  0.00     0.060 A 
BRANCH  67  68
ATOM     68  S   UNL     1      -6.309   6.744  15.269  1.00  0.00     0.124 S 
ATOM     69  O   UNL     1      -6.715   5.653  14.388  1.00  0.00    -0.237 OA
ATOM     70  O   UNL     1      -6.796   6.662  16.642  1.00  0.00    -0.237 OA
ATOM     71  O   UNL     1      -6.340   8.077  14.676  1.00  0.00    -0.744 OA
ENDBRANCH  67  68
ENDBRANCH  46  60
BRANCH  47  72
ATOM     72  C   UNL     1       7.742   2.865  15.032  1.00  0.00     0.058 A 
ATOM     73  C   UNL     1       8.471   2.364  16.119  1.00  0.00     0.135 A 
ATOM     74  C   UNL     1       8.362   2.869  13.773  1.00  0.00     0.135 A 
ATOM     75  F   UNL     1       7.921   2.342  17.343  1.00  0.00    -0.206 F 
ATOM     76  C   UNL     1       9.764   1.873  15.965  1.00  0.00     0.059 A 
ATOM     77  C   UNL     1       9.647   2.366  13.589  1.00  0.00     0.059 A 
ATOM     78  F   UNL     1       7.697   3.319  12.697  1.00  0.00    -0.206 F 
ATOM     79  C   UNL     1      10.339   1.868  14.693  1.00  0.00     0.060 A 
BRANCH  79  80
ATOM     80  S   UNL     1      11.974   1.127  14.483  1.00  0.00     0.124 S 
ATOM     81  O   UNL     1      12.838   2.157  15.048  1.00  0.00    -0.237 OA
ATOM     82  O   UNL     1      11.856  -0.103  15.259  1.00  0.00    -0.237 OA
ATOM     83  O   UNL     1      12.073   0.940  13.039  1.00  0.00    -0.744 OA
ENDBRANCH  79  80
ENDBRANCH  47  72
BRANCH  59  84
ATOM     84  C   UNL     1       4.547   8.374  17.905  1.00  0.00     0.058 A 
ATOM     85  C   UNL     1       5.186   9.427  17.234  1.00  0.00     0.135 A 
ATOM     86  C   UNL     1       4.350   8.494  19.289  1.00  0.00     0.135 A 
ATOM     87  F   UNL     1       5.404   9.354  15.912  1.00  0.00    -0.206 F 
ATOM     88  C   UNL     1       5.629  10.556  17.915  1.00  0.00     0.059 A 
ATOM     89  C   UNL     1       4.765   9.623  19.987  1.00  0.00     0.059 A 
ATOM     90  F   UNL     1       3.736   7.516  19.973  1.00  0.00    -0.206 F 
ATOM     91  C   UNL     1       5.412  10.645  19.292  1.00  0.00     0.060 A 
BRANCH  91  92
ATOM     92  S   UNL     1       5.953  12.132  20.161  1.00  0.00     0.124 S 
ATOM     93  O   UNL     1       7.390  11.903  20.267  1.00  0.00    -0.237 OA
ATOM     94  O   UNL     1       5.546  13.196  19.247  1.00  0.00    -0.237 OA
ATOM     95  O   UNL     1       5.212  12.078  21.417  1.00  0.00    -0.744 OA
ENDBRANCH  91  92
ENDBRANCH  59  84
ENDBRANCH  33  34
ENDBRANCH  25  28
ENDBRANCH  23  24
ENDBRANCH  22  23
ENDBRANCH   1  22
TORSDOF 18
