REMARK SMILES Cc1cc(C)cc(CSc2cc(C(=O)NCCCCNC(=O)c3ccc(-c4c5nc(c(-c6c(F)cc(S(=O)(=O)[O-])cc6F)c6ccc([nH]6)c(-c6c(F)cc(S(=O)(=O)[O-])cc6F)c6nc(c(-c7c(F)cc(S(=O)(=O)[O-])cc7F)c7ccc4[nH]7)C=C6)C=C5)cc3)cc(Cl)n2)c1
REMARK SMILES IDX 17 1 16 2 15 3 13 4 14 5 12 7 10 8 11 9 92 10 90 11 89 12
REMARK SMILES IDX 91 13 9 14 8 15 7 16 1 17 2 18 3 19 93 20 4 21 5 22 6 23
REMARK SMILES IDX 18 24 19 25 20 26 21 27 22 29 23 30 24 31 88 32 25 33 87 34
REMARK SMILES IDX 26 35 27 36 28 37 81 38 29 39 86 40 80 41 82 42 30 43 85 44
REMARK SMILES IDX 79 45 78 46 31 48 65 49 44 50 64 51 45 52 48 53 63 54 83 55
REMARK SMILES IDX 46 56 47 57 62 59 84 60 49 61 32 62 33 63 42 64 34 65 35 66
REMARK SMILES IDX 41 67 43 68 36 69 37 70 38 71 39 72 40 73 66 74 67 75 76 76
REMARK SMILES IDX 68 77 69 78 75 79 77 80 70 81 71 82 72 83 73 84 74 85 50 86
REMARK SMILES IDX 51 87 60 88 52 89 53 90 59 91 61 92 54 93 55 94 56 95 57 96
REMARK SMILES IDX 58 97
REMARK H PARENT 15 6 20 28 82 47 48 58
REMARK Flexibility Score: inf
ROOT
ATOM      1  C   UNL     1       1.783  -2.461   8.576  1.00  0.00     0.023 C 
ENDROOT
BRANCH   1   2
ATOM      2  C   UNL     1       2.721  -2.748   7.403  1.00  0.00     0.116 C 
BRANCH   2   3
ATOM      3  N   UNL     1       2.423  -4.037   6.811  1.00  0.00    -0.352 N 
ATOM      4  C   UNL     1       1.677  -4.446   5.739  1.00  0.00     0.251 C 
ATOM      5  O   UNL     1       1.652  -5.659   5.518  1.00  0.00    -0.269 OA
ATOM      6  H   UNL     1       2.852  -4.785   7.286  1.00  0.00     0.163 HD
BRANCH   4   7
ATOM      7  C   UNL     1       0.927  -3.547   4.815  1.00  0.00     0.045 A 
ATOM      8  C   UNL     1      -0.240  -3.363   2.712  1.00  0.00     0.099 A 
ATOM      9  C   UNL     1       0.473  -4.130   3.619  1.00  0.00     0.049 A 
ATOM     10  N   UNL     1      -0.517  -2.067   2.927  1.00  0.00    -0.230 NA
ATOM     11  C   UNL     1      -0.071  -1.528   4.070  1.00  0.00     0.131 A 
ATOM     12  C   UNL     1       0.614  -2.216   5.053  1.00  0.00     0.055 A 
ATOM     13  Cl  UNL     1      -0.419   0.144   4.246  1.00  0.00    -0.062 Cl
BRANCH   8  14
ATOM     14  S   UNL     1      -0.946  -4.105   1.258  1.00  0.00    -0.102 SA
BRANCH  14  15
ATOM     15  C   UNL     1       0.032  -3.299  -0.051  1.00  0.00     0.112 C 
BRANCH  15  16
ATOM     16  C   UNL     1       0.002  -1.790  -0.076  1.00  0.00    -0.037 A 
ATOM     17  C   UNL     1       2.501   1.094   0.003  1.00  0.00     0.044 C 
ATOM     18  C   UNL     1       1.212   0.329  -0.046  1.00  0.00    -0.051 A 
ATOM     19  C   UNL     1      -0.008   1.015  -0.057  1.00  0.00     0.006 A 
ATOM     20  C   UNL     1       1.207  -1.071  -0.056  1.00  0.00     0.008 A 
ATOM     21  C   UNL     1      -1.223   0.319  -0.088  1.00  0.00    -0.051 A 
ATOM     22  C   UNL     1      -2.517   1.076  -0.058  1.00  0.00     0.044 C 
ATOM     23  C   UNL     1      -1.208  -1.081  -0.119  1.00  0.00     0.008 A 
ENDBRANCH  15  16
ENDBRANCH  14  15
ENDBRANCH   8  14
ENDBRANCH   4   7
ENDBRANCH   2   3
ENDBRANCH   1   2
BRANCH   1  24
ATOM     24  C   UNL     1       2.199  -3.144   9.888  1.00  0.00     0.023 C 
BRANCH  24  25
ATOM     25  C   UNL     1       3.584  -2.764  10.411  1.00  0.00     0.116 C 
BRANCH  25  26
ATOM     26  N   UNL     1       3.772  -1.328  10.542  1.00  0.00    -0.352 N 
ATOM     27  C   UNL     1       4.513  -0.630  11.465  1.00  0.00     0.251 C 
ATOM     28  H   UNL     1       3.300  -0.778   9.876  1.00  0.00     0.163 HD
ATOM     29  O   UNL     1       4.454   0.592  11.489  1.00  0.00    -0.269 OA
BRANCH  27  30
ATOM     30  C   UNL     1       5.347  -1.360  12.445  1.00  0.00     0.039 A 
ATOM     31  C   UNL     1       5.304  -0.960  13.782  1.00  0.00     0.014 A 
ATOM     32  C   UNL     1       6.160  -2.429  12.056  1.00  0.00     0.014 A 
ATOM     33  C   UNL     1       6.032  -1.670  14.737  1.00  0.00     0.010 A 
ATOM     34  C   UNL     1       6.826  -3.181  13.021  1.00  0.00     0.010 A 
ATOM     35  C   UNL     1       6.771  -2.809  14.372  1.00  0.00    -0.014 A 
BRANCH  35  36
ATOM     36  C   UNL     1       7.463  -3.620  15.407  1.00  0.00     0.031 A 
ATOM     37  C   UNL     1       8.962  -3.744  15.413  1.00  0.00     0.074 A 
ATOM     38  C   UNL     1       6.726  -4.269  16.331  1.00  0.00     0.049 A 
ATOM     39  N   UNL     1       9.732  -4.376  16.261  1.00  0.00    -0.248 NA
ATOM     40  C   UNL     1       9.692  -3.095  14.312  1.00  0.00     0.031 C 
ATOM     41  C   UNL     1       5.261  -4.283  16.384  1.00  0.00     0.029 A 
ATOM     42  N   UNL     1       7.102  -5.035  17.404  1.00  0.00    -0.354 N 
ATOM     43  C   UNL     1      11.032  -4.203  15.798  1.00  0.00     0.074 A 
ATOM     44  C   UNL     1      10.942  -3.460  14.561  1.00  0.00     0.031 C 
ATOM     45  C   UNL     1       4.866  -4.986  17.457  1.00  0.00     0.029 A 
ATOM     46  C   UNL     1       6.044  -5.499  18.149  1.00  0.00     0.049 A 
ATOM     47  H   UNL     1       8.042  -5.234  17.621  1.00  0.00     0.167 HD
ATOM     48  C   UNL     1      12.194  -4.604  16.367  1.00  0.00     0.037 A 
ATOM     49  C   UNL     1       6.023  -6.248  19.268  1.00  0.00     0.037 A 
ATOM     50  C   UNL     1      12.275  -5.333  17.608  1.00  0.00     0.049 A 
ATOM     51  C   UNL     1       7.328  -6.666  19.889  1.00  0.00     0.074 A 
ATOM     52  C   UNL     1      13.405  -5.734  18.299  1.00  0.00     0.029 A 
ATOM     53  N   UNL     1      11.182  -5.775  18.341  1.00  0.00    -0.354 N 
ATOM     54  N   UNL     1       8.551  -6.422  19.482  1.00  0.00    -0.248 NA
ATOM     55  C   UNL     1       7.250  -7.448  21.130  1.00  0.00     0.031 C 
ATOM     56  C   UNL     1      12.996  -6.462  19.422  1.00  0.00     0.029 A 
ATOM     57  C   UNL     1      11.612  -6.466  19.463  1.00  0.00     0.049 A 
ATOM     58  H   UNL     1      10.241  -5.621  18.099  1.00  0.00     0.167 HD
ATOM     59  C   UNL     1       9.389  -7.002  20.428  1.00  0.00     0.074 A 
ATOM     60  C   UNL     1       8.531  -7.585  21.440  1.00  0.00     0.031 C 
ATOM     61  C   UNL     1      10.745  -7.050  20.457  1.00  0.00     0.037 A 
BRANCH  48  62
ATOM     62  C   UNL     1      13.477  -4.258  15.657  1.00  0.00     0.058 A 
ATOM     63  C   UNL     1      13.938  -2.934  15.569  1.00  0.00     0.135 A 
ATOM     64  C   UNL     1      14.278  -5.265  15.095  1.00  0.00     0.135 A 
ATOM     65  F   UNL     1      13.207  -1.928  16.075  1.00  0.00    -0.206 F 
ATOM     66  C   UNL     1      15.130  -2.618  14.926  1.00  0.00     0.059 A 
ATOM     67  C   UNL     1      15.490  -4.976  14.473  1.00  0.00     0.059 A 
ATOM     68  F   UNL     1      13.887  -6.548  15.148  1.00  0.00    -0.206 F 
ATOM     69  C   UNL     1      15.901  -3.647  14.382  1.00  0.00     0.060 A 
BRANCH  69  70
ATOM     70  S   UNL     1      17.452  -3.220  13.563  1.00  0.00     0.124 S 
ATOM     71  O   UNL     1      16.969  -2.586  12.339  1.00  0.00    -0.237 OA
ATOM     72  O   UNL     1      18.081  -2.329  14.532  1.00  0.00    -0.237 OA
ATOM     73  O   UNL     1      18.109  -4.511  13.383  1.00  0.00    -0.744 OA
ENDBRANCH  69  70
ENDBRANCH  48  62
BRANCH  49  74
ATOM     74  C   UNL     1       4.724  -6.623  19.889  1.00  0.00     0.058 A 
ATOM     75  C   UNL     1       4.325  -6.082  21.121  1.00  0.00     0.135 A 
ATOM     76  C   UNL     1       3.849  -7.522  19.258  1.00  0.00     0.135 A 
ATOM     77  F   UNL     1       5.127  -5.222  21.766  1.00  0.00    -0.206 F 
ATOM     78  C   UNL     1       3.118  -6.435  21.717  1.00  0.00     0.059 A 
ATOM     79  C   UNL     1       2.624  -7.867  19.819  1.00  0.00     0.059 A 
ATOM     80  F   UNL     1       4.174  -8.053  18.069  1.00  0.00    -0.206 F 
ATOM     81  C   UNL     1       2.273  -7.327  21.056  1.00  0.00     0.060 A 
BRANCH  81  82
ATOM     82  S   UNL     1       0.688  -7.743  21.815  1.00  0.00     0.124 S 
ATOM     83  O   UNL     1       1.107  -8.602  22.916  1.00  0.00    -0.237 OA
ATOM     84  O   UNL     1       0.173  -6.429  22.188  1.00  0.00    -0.237 OA
ATOM     85  O   UNL     1      -0.036  -8.408  20.735  1.00  0.00    -0.744 OA
ENDBRANCH  81  82
ENDBRANCH  49  74
BRANCH  61  86
ATOM     86  C   UNL     1      11.379  -7.740  21.636  1.00  0.00     0.058 A 
ATOM     87  C   UNL     1      11.294  -9.130  21.814  1.00  0.00     0.135 A 
ATOM     88  C   UNL     1      12.088  -7.000  22.596  1.00  0.00     0.135 A 
ATOM     89  F   UNL     1      10.626  -9.885  20.927  1.00  0.00    -0.206 F 
ATOM     90  C   UNL     1      11.845  -9.756  22.927  1.00  0.00     0.059 A 
ATOM     91  C   UNL     1      12.676  -7.609  23.700  1.00  0.00     0.059 A 
ATOM     92  F   UNL     1      12.215  -5.669  22.468  1.00  0.00    -0.206 F 
ATOM     93  C   UNL     1      12.529  -8.985  23.869  1.00  0.00     0.060 A 
BRANCH  93  94
ATOM     94  S   UNL     1      13.229  -9.806  25.315  1.00  0.00     0.124 S 
ATOM     95  O   UNL     1      12.033 -10.077  26.106  1.00  0.00    -0.237 OA
ATOM     96  O   UNL     1      13.880 -10.974  24.729  1.00  0.00    -0.237 OA
ATOM     97  O   UNL     1      14.135  -8.804  25.869  1.00  0.00    -0.744 OA
ENDBRANCH  93  94
ENDBRANCH  61  86
ENDBRANCH  35  36
ENDBRANCH  27  30
ENDBRANCH  25  26
ENDBRANCH  24  25
ENDBRANCH   1  24
TORSDOF 17
