REMARK SMILES [NH3+][C@@H](C(=O)NCCCCNC(=O)c1ccc(-c2c3nc(c(-c4c(F)cc(S(=O)(=O)[O-])cc4F)c4ccc([nH]4)c(-c4c(F)cc(S(=O)(=O)[O-])cc4F)c4nc(c(-c5c(F)cc(S(=O)(=O)[O-])cc5F)c5ccc2[nH]5)C=C4)C=C3)cc1)[C@@H](O)c1cccs1
REMARK SMILES IDX 8 1 7 2 6 3 5 4 3 5 4 6 2 8 1 9 79 13 80 14 81 16 82 17
REMARK SMILES IDX 85 18 83 19 84 20 9 21 10 22 11 23 12 25 13 26 14 27 78 28
REMARK SMILES IDX 15 29 77 30 16 31 17 32 18 33 71 34 19 35 76 36 70 37 72 38
REMARK SMILES IDX 20 39 75 40 69 41 68 42 21 44 55 45 34 46 54 47 35 48 38 49
REMARK SMILES IDX 53 50 73 51 36 52 37 53 52 55 74 56 39 57 22 58 23 59 32 60
REMARK SMILES IDX 24 61 25 62 31 63 33 64 26 65 27 66 28 67 29 68 30 69 56 70
REMARK SMILES IDX 57 71 66 72 58 73 59 74 65 75 67 76 60 77 61 78 62 79 63 80
REMARK SMILES IDX 64 81 40 82 41 83 50 84 42 85 43 86 49 87 51 88 44 89 45 90
REMARK SMILES IDX 46 91 47 92 48 93
REMARK H PARENT 5 7 1 10 1 11 1 12 80 15 10 24 72 43 38 54
REMARK Flexibility Score: inf
ROOT
ATOM      1  C   UNL     1       5.039   0.675  -2.210  1.00  0.00     0.023 C 
ENDROOT
BRANCH   1   2
ATOM      2  C   UNL     1       4.229   0.487  -0.923  1.00  0.00     0.023 C 
BRANCH   2   3
ATOM      3  C   UNL     1       3.353   1.682  -0.541  1.00  0.00     0.116 C 
BRANCH   3   4
ATOM      4  N   UNL     1       2.317   1.906  -1.533  1.00  0.00    -0.351 N 
ATOM      5  C   UNL     1       0.977   1.645  -1.468  1.00  0.00     0.281 C 
ATOM      6  O   UNL     1       0.314   1.741  -2.501  1.00  0.00    -0.268 OA
ATOM      7  H   UNL     1       2.626   2.305  -2.378  1.00  0.00     0.163 HD
BRANCH   5   8
ATOM      8  C   UNL     1       0.366   1.176  -0.140  1.00  0.00     0.305 C 
BRANCH   8   9
ATOM      9  N   UNL     1       0.621  -0.293   0.038  1.00  0.00    -0.345 N 
ATOM     10  H   UNL     1       1.625  -0.469   0.021  1.00  0.00     0.345 HD
ATOM     11  H   UNL     1       0.172  -0.810  -0.719  1.00  0.00     0.345 HD
ATOM     12  H   UNL     1       0.237  -0.599   0.932  1.00  0.00     0.345 HD
ENDBRANCH   8   9
BRANCH   8  13
ATOM     13  C   UNL     1      -1.161   1.426  -0.112  1.00  0.00     0.222 C 
BRANCH  13  14
ATOM     14  O   UNL     1      -1.695   0.895   1.113  1.00  0.00    -0.381 OA
ATOM     15  H   UNL     1      -1.322   1.380   1.866  1.00  0.00     0.211 HD
ENDBRANCH  13  14
BRANCH  13  16
ATOM     16  C   UNL     1      -1.611   2.861  -0.188  1.00  0.00     0.040 A 
ATOM     17  C   UNL     1      -2.757   3.329  -0.807  1.00  0.00     0.018 A 
ATOM     18  S   UNL     1      -0.720   4.154   0.505  1.00  0.00    -0.146 S 
ATOM     19  C   UNL     1      -2.870   4.747  -0.760  1.00  0.00     0.012 A 
ATOM     20  C   UNL     1      -1.815   5.322  -0.092  1.00  0.00     0.065 A 
ENDBRANCH  13  16
ENDBRANCH   8  13
ENDBRANCH   5   8
ENDBRANCH   3   4
ENDBRANCH   2   3
ENDBRANCH   1   2
BRANCH   1  21
ATOM     21  C   UNL     1       6.011   1.851  -2.198  1.00  0.00     0.116 C 
BRANCH  21  22
ATOM     22  N   UNL     1       7.034   1.726  -1.171  1.00  0.00    -0.352 N 
ATOM     23  C   UNL     1       8.383   1.975  -1.272  1.00  0.00     0.251 C 
ATOM     24  H   UNL     1       6.720   1.424  -0.289  1.00  0.00     0.163 HD
ATOM     25  O   UNL     1       9.135   1.689  -0.346  1.00  0.00    -0.269 OA
BRANCH  23  26
ATOM     26  C   UNL     1       8.920   2.557  -2.520  1.00  0.00     0.039 A 
ATOM     27  C   UNL     1      10.008   1.941  -3.144  1.00  0.00     0.014 A 
ATOM     28  C   UNL     1       8.322   3.683  -3.090  1.00  0.00     0.014 A 
ATOM     29  C   UNL     1      10.449   2.410  -4.384  1.00  0.00     0.010 A 
ATOM     30  C   UNL     1       8.723   4.110  -4.352  1.00  0.00     0.010 A 
ATOM     31  C   UNL     1       9.784   3.473  -5.015  1.00  0.00    -0.014 A 
BRANCH  31  32
ATOM     32  C   UNL     1      10.158   3.932  -6.377  1.00  0.00     0.031 A 
ATOM     33  C   UNL     1      10.678   5.327  -6.580  1.00  0.00     0.074 A 
ATOM     34  C   UNL     1       9.917   3.138  -7.439  1.00  0.00     0.049 A 
ATOM     35  N   UNL     1      10.908   5.969  -7.695  1.00  0.00    -0.248 NA
ATOM     36  C   UNL     1      10.941   6.114  -5.365  1.00  0.00     0.031 C 
ATOM     37  C   UNL     1       9.363   1.784  -7.374  1.00  0.00     0.029 A 
ATOM     38  N   UNL     1      10.074   3.369  -8.783  1.00  0.00    -0.354 N 
ATOM     39  C   UNL     1      11.309   7.245  -7.320  1.00  0.00     0.074 A 
ATOM     40  C   UNL     1      11.258   7.295  -5.874  1.00  0.00     0.031 C 
ATOM     41  C   UNL     1       9.220   1.308  -8.621  1.00  0.00     0.029 A 
ATOM     42  C   UNL     1       9.634   2.334  -9.574  1.00  0.00     0.049 A 
ATOM     43  H   UNL     1      10.464   4.197  -9.145  1.00  0.00     0.167 HD
ATOM     44  C   UNL     1      11.695   8.277  -8.109  1.00  0.00     0.037 A 
ATOM     45  C   UNL     1       9.549   2.230 -10.915  1.00  0.00     0.037 A 
ATOM     46  C   UNL     1      11.775   8.207  -9.544  1.00  0.00     0.049 A 
ATOM     47  C   UNL     1      10.012   3.374 -11.774  1.00  0.00     0.074 A 
ATOM     48  C   UNL     1      12.236   9.167 -10.427  1.00  0.00     0.029 A 
ATOM     49  N   UNL     1      11.381   7.117 -10.306  1.00  0.00    -0.354 N 
ATOM     50  N   UNL     1      10.462   4.549 -11.402  1.00  0.00    -0.248 NA
ATOM     51  C   UNL     1       9.963   3.181 -13.229  1.00  0.00     0.031 C 
ATOM     52  C   UNL     1      12.085   8.672 -11.727  1.00  0.00     0.029 A 
ATOM     53  C   UNL     1      11.569   7.388 -11.651  1.00  0.00     0.049 A 
ATOM     54  H   UNL     1      11.021   6.275  -9.945  1.00  0.00     0.167 HD
ATOM     55  C   UNL     1      10.769   5.228 -12.576  1.00  0.00     0.074 A 
ATOM     56  C   UNL     1      10.459   4.330 -13.671  1.00  0.00     0.031 C 
ATOM     57  C   UNL     1      11.266   6.479 -12.730  1.00  0.00     0.037 A 
BRANCH  44  58
ATOM     58  C   UNL     1      12.049   9.570  -7.430  1.00  0.00     0.058 A 
ATOM     59  C   UNL     1      13.216   9.706  -6.661  1.00  0.00     0.135 A 
ATOM     60  C   UNL     1      11.210  10.689  -7.550  1.00  0.00     0.135 A 
ATOM     61  F   UNL     1      14.047   8.663  -6.503  1.00  0.00    -0.206 F 
ATOM     62  C   UNL     1      13.515  10.890  -5.997  1.00  0.00     0.059 A 
ATOM     63  C   UNL     1      11.504  11.893  -6.917  1.00  0.00     0.059 A 
ATOM     64  F   UNL     1      10.083  10.616  -8.276  1.00  0.00    -0.206 F 
ATOM     65  C   UNL     1      12.648  11.976  -6.123  1.00  0.00     0.060 A 
BRANCH  65  66
ATOM     66  S   UNL     1      13.030  13.498  -5.230  1.00  0.00     0.124 S 
ATOM     67  O   UNL     1      12.636  13.141  -3.871  1.00  0.00    -0.237 OA
ATOM     68  O   UNL     1      14.464  13.644  -5.455  1.00  0.00    -0.237 OA
ATOM     69  O   UNL     1      12.190  14.495  -5.886  1.00  0.00    -0.744 OA
ENDBRANCH  65  66
ENDBRANCH  44  58
BRANCH  45  70
ATOM     70  C   UNL     1       9.009   0.984 -11.517  1.00  0.00     0.058 A 
ATOM     71  C   UNL     1       9.858   0.051 -12.129  1.00  0.00     0.135 A 
ATOM     72  C   UNL     1       7.642   0.673 -11.437  1.00  0.00     0.135 A 
ATOM     73  F   UNL     1      11.170   0.308 -12.234  1.00  0.00    -0.206 F 
ATOM     74  C   UNL     1       9.373  -1.148 -12.640  1.00  0.00     0.059 A 
ATOM     75  C   UNL     1       7.137  -0.529 -11.923  1.00  0.00     0.059 A 
ATOM     76  F   UNL     1       6.792   1.526 -10.845  1.00  0.00    -0.206 F 
ATOM     77  C   UNL     1       8.011  -1.433 -12.525  1.00  0.00     0.060 A 
BRANCH  77  78
ATOM     78  S   UNL     1       7.407  -3.032 -13.109  1.00  0.00     0.124 S 
ATOM     79  O   UNL     1       7.417  -2.839 -14.555  1.00  0.00    -0.237 OA
ATOM     80  O   UNL     1       8.409  -3.951 -12.580  1.00  0.00    -0.237 OA
ATOM     81  O   UNL     1       6.087  -3.136 -12.494  1.00  0.00    -0.744 OA
ENDBRANCH  77  78
ENDBRANCH  45  70
BRANCH  57  82
ATOM     82  C   UNL     1      11.538   6.956 -14.128  1.00  0.00     0.058 A 
ATOM     83  C   UNL     1      10.502   7.375 -14.976  1.00  0.00     0.135 A 
ATOM     84  C   UNL     1      12.859   7.085 -14.588  1.00  0.00     0.135 A 
ATOM     85  F   UNL     1       9.223   7.264 -14.586  1.00  0.00    -0.206 F 
ATOM     86  C   UNL     1      10.767   7.907 -16.235  1.00  0.00     0.059 A 
ATOM     87  C   UNL     1      13.147   7.633 -15.833  1.00  0.00     0.059 A 
ATOM     88  F   UNL     1      13.885   6.704 -13.810  1.00  0.00    -0.206 F 
ATOM     89  C   UNL     1      12.093   8.040 -16.651  1.00  0.00     0.060 A 
BRANCH  89  90
ATOM     90  S   UNL     1      12.427   8.800 -18.254  1.00  0.00     0.124 S 
ATOM     91  O   UNL     1      12.072   7.723 -19.171  1.00  0.00    -0.237 OA
ATOM     92  O   UNL     1      11.529   9.951 -18.249  1.00  0.00    -0.237 OA
ATOM     93  O   UNL     1      13.849   9.124 -18.186  1.00  0.00    -0.744 OA
ENDBRANCH  89  90
ENDBRANCH  57  82
ENDBRANCH  31  32
ENDBRANCH  23  26
ENDBRANCH  21  22
ENDBRANCH   1  21
TORSDOF 18
