REMARK SMILES C[NH2+]C[C@H](C)C(=O)NC[C@](C)(O)C(=O)NCCCCNC(=O)c1ccc(-c2c3nc(c(-c4c(F)cc(S(=O)(=O)[O-])cc4F)c4ccc([nH]4)c(-c4c(F)cc(S(=O)(=O)[O-])cc4F)c4nc(c(-c5c(F)cc(S(=O)(=O)[O-])cc5F)c5ccc2[nH]5)C=C4)C=C3)cc1
REMARK SMILES IDX 16 1 15 2 13 3 14 4 10 6 11 7 9 8 8 9 6 10 7 11 4 13 5 14
REMARK SMILES IDX 3 15 2 16 1 17 12 20 17 22 18 23 19 24 20 25 21 26 22 28
REMARK SMILES IDX 23 29 24 30 88 31 25 32 87 33 26 34 27 35 28 36 81 37 29 38
REMARK SMILES IDX 86 39 80 40 82 41 30 42 85 43 79 44 78 45 31 47 65 48 44 49
REMARK SMILES IDX 64 50 45 51 48 52 63 53 83 54 46 55 47 56 62 58 84 59 49 60
REMARK SMILES IDX 32 61 33 62 42 63 34 64 35 65 41 66 43 67 36 68 37 69 38 70
REMARK SMILES IDX 39 71 40 72 66 73 67 74 76 75 68 76 69 77 75 78 77 79 70 80
REMARK SMILES IDX 71 81 72 82 73 83 74 84 50 85 51 86 60 87 52 88 53 89 59 90
REMARK SMILES IDX 61 91 54 92 55 93 56 94 57 95 58 96
REMARK H PARENT 15 5 8 12 2 18 2 19 12 21 20 27 82 46 48 57
REMARK Flexibility Score: inf
ROOT
ATOM      1  C   UNL     1      -3.484   2.682   5.424  1.00  0.00     0.116 C 
ENDROOT
BRANCH   1   2
ATOM      2  N   UNL     1      -2.873   2.419   4.136  1.00  0.00    -0.354 N 
ATOM      3  C   UNL     1      -2.552   1.236   3.540  1.00  0.00     0.253 C 
ATOM      4  O   UNL     1      -1.933   1.300   2.474  1.00  0.00    -0.272 OA
ATOM      5  H   UNL     1      -2.655   3.221   3.608  1.00  0.00     0.163 HD
BRANCH   3   6
ATOM      6  C   UNL     1      -3.038  -0.121   4.125  1.00  0.00     0.157 C 
ATOM      7  C   UNL     1      -2.445  -1.263   3.281  1.00  0.00     0.055 C 
BRANCH   6   8
ATOM      8  C   UNL     1      -4.578  -0.205   4.100  1.00  0.00     0.160 C 
BRANCH   8   9
ATOM      9  N   UNL     1      -5.214   0.217   2.867  1.00  0.00    -0.352 N 
ATOM     10  C   UNL     1      -6.361  -0.199   2.279  1.00  0.00     0.228 C 
ATOM     11  O   UNL     1      -6.763   0.446   1.306  1.00  0.00    -0.275 OA
ATOM     12  H   UNL     1      -4.733   0.923   2.376  1.00  0.00     0.163 HD
BRANCH  10  13
ATOM     13  C   UNL     1      -7.112  -1.442   2.729  1.00  0.00     0.130 C 
ATOM     14  C   UNL     1      -6.319  -2.693   2.340  1.00  0.00     0.024 C 
BRANCH  13  15
ATOM     15  C   UNL     1      -7.588  -1.501   4.192  1.00  0.00     0.273 C 
BRANCH  15  16
ATOM     16  N   UNL     1      -7.932  -0.257   4.882  1.00  0.00    -0.348 N 
ATOM     17  C   UNL     1      -9.021   0.482   4.262  1.00  0.00     0.330 C 
ATOM     18  H   UNL     1      -8.202  -0.485   5.839  1.00  0.00     0.346 HD
ATOM     19  H   UNL     1      -7.107   0.342   4.839  1.00  0.00     0.346 HD
ENDBRANCH  15  16
ENDBRANCH  13  15
ENDBRANCH  10  13
ENDBRANCH   8   9
ENDBRANCH   6   8
BRANCH   6  20
ATOM     20  O   UNL     1      -2.637  -0.318   5.487  1.00  0.00    -0.378 OA
ATOM     21  H   UNL     1      -1.670  -0.272   5.550  1.00  0.00     0.212 HD
ENDBRANCH   6  20
ENDBRANCH   3   6
ENDBRANCH   1   2
BRANCH   1  22
ATOM     22  C   UNL     1      -2.582   3.539   6.307  1.00  0.00     0.023 C 
BRANCH  22  23
ATOM     23  C   UNL     1      -2.287   4.937   5.761  1.00  0.00     0.023 C 
BRANCH  23  24
ATOM     24  C   UNL     1      -3.515   5.784   5.447  1.00  0.00     0.116 C 
BRANCH  24  25
ATOM     25  N   UNL     1      -4.330   6.051   6.624  1.00  0.00    -0.352 N 
ATOM     26  C   UNL     1      -4.802   7.260   7.078  1.00  0.00     0.251 C 
ATOM     27  H   UNL     1      -4.576   5.265   7.163  1.00  0.00     0.163 HD
ATOM     28  O   UNL     1      -5.363   7.344   8.166  1.00  0.00    -0.269 OA
BRANCH  26  29
ATOM     29  C   UNL     1      -4.594   8.463   6.247  1.00  0.00     0.039 A 
ATOM     30  C   UNL     1      -3.956   9.575   6.801  1.00  0.00     0.014 A 
ATOM     31  C   UNL     1      -4.967   8.453   4.901  1.00  0.00     0.014 A 
ATOM     32  C   UNL     1      -3.616  10.653   5.981  1.00  0.00     0.010 A 
ATOM     33  C   UNL     1      -4.571   9.498   4.075  1.00  0.00     0.010 A 
ATOM     34  C   UNL     1      -3.884  10.604   4.603  1.00  0.00    -0.014 A 
BRANCH  34  35
ATOM     35  C   UNL     1      -3.466  11.685   3.676  1.00  0.00     0.031 A 
ATOM     36  C   UNL     1      -4.515  12.457   2.926  1.00  0.00     0.074 A 
ATOM     37  C   UNL     1      -2.158  11.891   3.421  1.00  0.00     0.049 A 
ATOM     38  N   UNL     1      -4.376  13.280   1.921  1.00  0.00    -0.248 NA
ATOM     39  C   UNL     1      -5.911  12.242   3.342  1.00  0.00     0.031 C 
ATOM     40  C   UNL     1      -1.046  11.189   4.065  1.00  0.00     0.029 A 
ATOM     41  N   UNL     1      -1.544  12.732   2.526  1.00  0.00    -0.354 N 
ATOM     42  C   UNL     1      -5.665  13.653   1.559  1.00  0.00     0.074 A 
ATOM     43  C   UNL     1      -6.573  12.941   2.433  1.00  0.00     0.031 C 
ATOM     44  C   UNL     1       0.112  11.630   3.546  1.00  0.00     0.029 A 
ATOM     45  C   UNL     1      -0.174  12.608   2.502  1.00  0.00     0.049 A 
ATOM     46  H   UNL     1      -2.037  13.365   1.956  1.00  0.00     0.167 HD
ATOM     47  C   UNL     1      -6.054  14.518   0.594  1.00  0.00     0.037 A 
ATOM     48  C   UNL     1       0.744  13.197   1.710  1.00  0.00     0.037 A 
ATOM     49  C   UNL     1      -5.143  15.253  -0.242  1.00  0.00     0.049 A 
ATOM     50  C   UNL     1       0.289  14.166   0.652  1.00  0.00     0.074 A 
ATOM     51  C   UNL     1      -5.435  16.191  -1.216  1.00  0.00     0.029 A 
ATOM     52  N   UNL     1      -3.761  15.140  -0.195  1.00  0.00    -0.354 N 
ATOM     53  N   UNL     1      -0.932  14.530   0.340  1.00  0.00    -0.248 NA
ATOM     54  C   UNL     1       1.333  14.805  -0.164  1.00  0.00     0.031 C 
ATOM     55  C   UNL     1      -4.231  16.627  -1.776  1.00  0.00     0.029 A 
ATOM     56  C   UNL     1      -3.187  15.988  -1.125  1.00  0.00     0.049 A 
ATOM     57  H   UNL     1      -3.264  14.544   0.411  1.00  0.00     0.167 HD
ATOM     58  C   UNL     1      -0.802  15.463  -0.682  1.00  0.00     0.074 A 
ATOM     59  C   UNL     1       0.615  15.607  -0.940  1.00  0.00     0.031 C 
ATOM     60  C   UNL     1      -1.771  16.142  -1.343  1.00  0.00     0.037 A 
BRANCH  47  61
ATOM     61  C   UNL     1      -7.530  14.715   0.392  1.00  0.00     0.058 A 
ATOM     62  C   UNL     1      -8.313  15.414   1.323  1.00  0.00     0.135 A 
ATOM     63  C   UNL     1      -8.165  14.217  -0.758  1.00  0.00     0.135 A 
ATOM     64  F   UNL     1      -7.758  15.896   2.447  1.00  0.00    -0.206 F 
ATOM     65  C   UNL     1      -9.680  15.586   1.139  1.00  0.00     0.059 A 
ATOM     66  C   UNL     1      -9.527  14.400  -0.975  1.00  0.00     0.059 A 
ATOM     67  F   UNL     1      -7.462  13.541  -1.680  1.00  0.00    -0.206 F 
ATOM     68  C   UNL     1     -10.280  15.071  -0.012  1.00  0.00     0.060 A 
BRANCH  68  69
ATOM     69  S   UNL     1     -12.056  15.297  -0.235  1.00  0.00     0.124 S 
ATOM     70  O   UNL     1     -12.593  14.303   0.690  1.00  0.00    -0.237 OA
ATOM     71  O   UNL     1     -12.248  16.691   0.153  1.00  0.00    -0.237 OA
ATOM     72  O   UNL     1     -12.259  15.011  -1.652  1.00  0.00    -0.744 OA
ENDBRANCH  68  69
ENDBRANCH  47  61
BRANCH  48  73
ATOM     73  C   UNL     1       2.188  12.896   1.896  1.00  0.00     0.058 A 
ATOM     74  C   UNL     1       3.052  13.846   2.460  1.00  0.00     0.135 A 
ATOM     75  C   UNL     1       2.731  11.654   1.531  1.00  0.00     0.135 A 
ATOM     76  F   UNL     1       2.580  15.051   2.818  1.00  0.00    -0.206 F 
ATOM     77  C   UNL     1       4.405  13.583   2.645  1.00  0.00     0.059 A 
ATOM     78  C   UNL     1       4.077  11.359   1.726  1.00  0.00     0.059 A 
ATOM     79  F   UNL     1       1.943  10.705   1.003  1.00  0.00    -0.206 F 
ATOM     80  C   UNL     1       4.909  12.335   2.276  1.00  0.00     0.060 A 
BRANCH  80  81
ATOM     81  S   UNL     1       6.656  11.984   2.568  1.00  0.00     0.124 S 
ATOM     82  O   UNL     1       7.290  12.744   1.497  1.00  0.00    -0.237 OA
ATOM     83  O   UNL     1       6.853  12.498   3.920  1.00  0.00    -0.237 OA
ATOM     84  O   UNL     1       6.731  10.531   2.442  1.00  0.00    -0.744 OA
ENDBRANCH  80  81
ENDBRANCH  48  73
BRANCH  60  85
ATOM     85  C   UNL     1      -1.345  17.149  -2.371  1.00  0.00     0.058 A 
ATOM     86  C   UNL     1      -0.928  16.763  -3.653  1.00  0.00     0.135 A 
ATOM     87  C   UNL     1      -1.465  18.522  -2.102  1.00  0.00     0.135 A 
ATOM     88  F   UNL     1      -0.790  15.462  -3.955  1.00  0.00    -0.206 F 
ATOM     89  C   UNL     1      -0.649  17.705  -4.637  1.00  0.00     0.059 A 
ATOM     90  C   UNL     1      -1.210  19.481  -3.076  1.00  0.00     0.059 A 
ATOM     91  F   UNL     1      -1.867  18.941  -0.891  1.00  0.00    -0.206 F 
ATOM     92  C   UNL     1      -0.802  19.062  -4.342  1.00  0.00     0.060 A 
BRANCH  92  93
ATOM     93  S   UNL     1      -0.522  20.272  -5.653  1.00  0.00     0.124 S 
ATOM     94  O   UNL     1       0.934  20.290  -5.731  1.00  0.00    -0.237 OA
ATOM     95  O   UNL     1      -1.210  19.668  -6.790  1.00  0.00    -0.237 OA
ATOM     96  O   UNL     1      -1.139  21.488  -5.130  1.00  0.00    -0.744 OA
ENDBRANCH  92  93
ENDBRANCH  60  85
ENDBRANCH  34  35
ENDBRANCH  26  29
ENDBRANCH  24  25
ENDBRANCH  23  24
ENDBRANCH  22  23
ENDBRANCH   1  22
TORSDOF 20
