REMARK SMILES O=C(NCCCCNC(=O)c1ccc(-c2c3nc(c(-c4c(F)cc(S(=O)(=O)[O-])cc4F)c4ccc([nH]4)c(-c4c(F)cc(S(=O)(=O)[O-])cc4F)c4nc(c(-c5c(F)cc(S(=O)(=O)[O-])cc5F)c5ccc2[nH]5)C=C4)C=C3)cc1)C1=Cc2c(Cl)cc(Cl)cc2O[C@@H]1C(F)(F)F
REMARK SMILES IDX 6 1 5 2 4 3 3 4 1 5 2 6 77 8 78 9 88 10 79 11 87 12 80 13
REMARK SMILES IDX 86 14 81 15 82 16 85 17 83 18 84 19 89 20 90 21 91 22 92 23
REMARK SMILES IDX 7 24 8 25 9 26 10 28 11 29 12 30 76 31 13 32 75 33 14 34
REMARK SMILES IDX 15 35 16 36 69 37 17 38 74 39 68 40 70 41 18 42 73 43 67 44
REMARK SMILES IDX 66 45 19 47 53 48 32 49 52 50 33 51 36 52 51 53 71 54 34 55
REMARK SMILES IDX 35 56 50 58 72 59 37 60 20 61 21 62 30 63 22 64 23 65 29 66
REMARK SMILES IDX 31 67 24 68 25 69 26 70 27 71 28 72 54 73 55 74 64 75 56 76
REMARK SMILES IDX 57 77 63 78 65 79 58 80 59 81 60 82 61 83 62 84 38 85 39 86
REMARK SMILES IDX 48 87 40 88 41 89 47 90 49 91 42 92 43 93 44 94 45 95 46 96
REMARK H PARENT 3 7 8 27 70 46 36 57
REMARK Flexibility Score: inf
ROOT
ATOM      1  C   UNL     1       4.059  -0.557   4.301  1.00  0.00     0.023 C 
ENDROOT
BRANCH   1   2
ATOM      2  C   UNL     1       4.317   0.365   3.110  1.00  0.00     0.023 C 
BRANCH   2   3
ATOM      3  C   UNL     1       3.827  -0.167   1.762  1.00  0.00     0.116 C 
BRANCH   3   4
ATOM      4  N   UNL     1       2.634   0.506   1.250  1.00  0.00    -0.352 N 
ATOM      5  O   UNL     1       1.148   1.182  -0.321  1.00  0.00    -0.270 OA
ATOM      6  C   UNL     1       2.291   0.840  -0.041  1.00  0.00     0.251 C 
ATOM      7  H   UNL     1       1.973   0.760   1.935  1.00  0.00     0.163 HD
BRANCH   6   8
ATOM      8  C   UNL     1       3.289   0.616  -1.112  1.00  0.00     0.067 C 
ATOM      9  C   UNL     1       4.456   1.274  -1.172  1.00  0.00     0.027 C 
ATOM     10  C   UNL     1       3.075  -0.580  -1.986  1.00  0.00     0.314 C 
ATOM     11  C   UNL     1       5.601   0.323  -1.151  1.00  0.00     0.036 A 
ATOM     12  O   UNL     1       4.134  -1.547  -1.811  1.00  0.00    -0.475 OA
ATOM     13  C   UNL     1       6.830   0.667  -0.547  1.00  0.00     0.053 A 
ATOM     14  C   UNL     1       5.343  -1.050  -1.380  1.00  0.00     0.130 A 
ATOM     15  Cl  UNL     1       7.215   2.295  -0.094  1.00  0.00    -0.083 Cl
ATOM     16  C   UNL     1       7.740  -0.323  -0.155  1.00  0.00     0.042 A 
ATOM     17  C   UNL     1       6.264  -2.032  -1.011  1.00  0.00     0.067 A 
ATOM     18  C   UNL     1       7.447  -1.665  -0.380  1.00  0.00     0.046 A 
ATOM     19  Cl  UNL     1       8.518  -2.883   0.189  1.00  0.00    -0.084 Cl
BRANCH  10  20
ATOM     20  C   UNL     1       2.944  -0.166  -3.467  1.00  0.00     0.429 C 
ATOM     21  F   UNL     1       2.639  -1.228  -4.249  1.00  0.00    -0.167 F 
ATOM     22  F   UNL     1       1.967   0.753  -3.654  1.00  0.00    -0.167 F 
ATOM     23  F   UNL     1       4.089   0.369  -3.958  1.00  0.00    -0.167 F 
ENDBRANCH  10  20
ENDBRANCH   6   8
ENDBRANCH   3   4
ENDBRANCH   2   3
ENDBRANCH   1   2
BRANCH   1  24
ATOM     24  C   UNL     1       4.643  -1.966   4.208  1.00  0.00     0.116 C 
BRANCH  24  25
ATOM     25  N   UNL     1       6.088  -2.016   4.034  1.00  0.00    -0.352 N 
ATOM     26  C   UNL     1       6.998  -2.846   4.654  1.00  0.00     0.251 C 
ATOM     27  H   UNL     1       6.464  -1.373   3.390  1.00  0.00     0.163 HD
ATOM     28  O   UNL     1       8.201  -2.709   4.440  1.00  0.00    -0.269 OA
BRANCH  26  29
ATOM     29  C   UNL     1       6.521  -3.864   5.617  1.00  0.00     0.039 A 
ATOM     30  C   UNL     1       7.123  -3.939   6.876  1.00  0.00     0.014 A 
ATOM     31  C   UNL     1       5.439  -4.691   5.306  1.00  0.00     0.014 A 
ATOM     32  C   UNL     1       6.578  -4.777   7.853  1.00  0.00     0.010 A 
ATOM     33  C   UNL     1       4.846  -5.457   6.306  1.00  0.00     0.010 A 
ATOM     34  C   UNL     1       5.406  -5.507   7.591  1.00  0.00    -0.014 A 
BRANCH  34  35
ATOM     35  C   UNL     1       4.760  -6.332   8.647  1.00  0.00     0.031 A 
ATOM     36  C   UNL     1       4.637  -7.822   8.468  1.00  0.00     0.074 A 
ATOM     37  C   UNL     1       4.237  -5.736   9.739  1.00  0.00     0.049 A 
ATOM     38  N   UNL     1       4.058  -8.703   9.242  1.00  0.00    -0.248 NA
ATOM     39  C   UNL     1       5.212  -8.393   7.239  1.00  0.00     0.031 C 
ATOM     40  C   UNL     1       4.227  -4.293   9.997  1.00  0.00     0.029 A 
ATOM     41  N   UNL     1       3.606  -6.269  10.836  1.00  0.00    -0.354 N 
ATOM     42  C   UNL     1       4.197  -9.925   8.595  1.00  0.00     0.074 A 
ATOM     43  C   UNL     1       4.848  -9.663   7.331  1.00  0.00     0.031 C 
ATOM     44  C   UNL     1       3.643  -4.060  11.184  1.00  0.00     0.029 A 
ATOM     45  C   UNL     1       3.215  -5.329  11.762  1.00  0.00     0.049 A 
ATOM     46  H   UNL     1       3.448  -7.234  10.949  1.00  0.00     0.167 HD
ATOM     47  C   UNL     1       3.849 -11.161   9.028  1.00  0.00     0.037 A 
ATOM     48  C   UNL     1       2.588  -5.477  12.946  1.00  0.00     0.037 A 
ATOM     49  C   UNL     1       3.225 -11.423  10.298  1.00  0.00     0.049 A 
ATOM     50  C   UNL     1       2.253  -6.865  13.425  1.00  0.00     0.074 A 
ATOM     51  C   UNL     1       2.839 -12.637  10.838  1.00  0.00     0.029 A 
ATOM     52  N   UNL     1       2.914 -10.452  11.239  1.00  0.00    -0.354 N 
ATOM     53  N   UNL     1       2.427  -8.013  12.813  1.00  0.00    -0.248 NA
ATOM     54  C   UNL     1       1.660  -6.981  14.764  1.00  0.00     0.031 C 
ATOM     55  C   UNL     1       2.281 -12.399  12.099  1.00  0.00     0.029 A 
ATOM     56  C   UNL     1       2.355 -11.040  12.360  1.00  0.00     0.049 A 
ATOM     57  H   UNL     1       3.067  -9.486  11.125  1.00  0.00     0.167 HD
ATOM     58  C   UNL     1       1.997  -8.988  13.706  1.00  0.00     0.074 A 
ATOM     59  C   UNL     1       1.568  -8.296  14.904  1.00  0.00     0.031 C 
ATOM     60  C   UNL     1       1.958 -10.335  13.551  1.00  0.00     0.037 A 
BRANCH  47  61
ATOM     61  C   UNL     1       4.171 -12.324   8.131  1.00  0.00     0.058 A 
ATOM     62  C   UNL     1       5.498 -12.738   7.927  1.00  0.00     0.135 A 
ATOM     63  C   UNL     1       3.154 -13.047   7.489  1.00  0.00     0.135 A 
ATOM     64  F   UNL     1       6.511 -12.069   8.500  1.00  0.00    -0.206 F 
ATOM     65  C   UNL     1       5.808 -13.809   7.096  1.00  0.00     0.059 A 
ATOM     66  C   UNL     1       3.439 -14.140   6.675  1.00  0.00     0.059 A 
ATOM     67  F   UNL     1       1.869 -12.693   7.647  1.00  0.00    -0.206 F 
ATOM     68  C   UNL     1       4.770 -14.505   6.474  1.00  0.00     0.060 A 
BRANCH  68  69
ATOM     69  S   UNL     1       5.189 -15.899   5.407  1.00  0.00     0.124 S 
ATOM     70  O   UNL     1       5.715 -15.215   4.229  1.00  0.00    -0.237 OA
ATOM     71  O   UNL     1       6.169 -16.624   6.209  1.00  0.00    -0.237 OA
ATOM     72  O   UNL     1       3.911 -16.578   5.219  1.00  0.00    -0.744 OA
ENDBRANCH  68  69
ENDBRANCH  47  61
BRANCH  48  73
ATOM     73  C   UNL     1       2.265  -4.289  13.782  1.00  0.00     0.058 A 
ATOM     74  C   UNL     1       2.942  -4.045  14.988  1.00  0.00     0.135 A 
ATOM     75  C   UNL     1       1.259  -3.387  13.406  1.00  0.00     0.135 A 
ATOM     76  F   UNL     1       3.912  -4.879  15.392  1.00  0.00    -0.206 F 
ATOM     77  C   UNL     1       2.607  -2.974  15.810  1.00  0.00     0.059 A 
ATOM     78  C   UNL     1       0.923  -2.293  14.199  1.00  0.00     0.059 A 
ATOM     79  F   UNL     1       0.597  -3.560  12.252  1.00  0.00    -0.206 F 
ATOM     80  C   UNL     1       1.590  -2.106  15.409  1.00  0.00     0.060 A 
BRANCH  80  81
ATOM     81  S   UNL     1       1.167  -0.710  16.474  1.00  0.00     0.124 S 
ATOM     82  O   UNL     1       0.396  -1.366  17.524  1.00  0.00    -0.237 OA
ATOM     83  O   UNL     1       2.481  -0.209  16.865  1.00  0.00    -0.237 OA
ATOM     84  O   UNL     1       0.410   0.168  15.587  1.00  0.00    -0.744 OA
ENDBRANCH  80  81
ENDBRANCH  48  73
BRANCH  60  85
ATOM     85  C   UNL     1       1.493 -11.147  14.726  1.00  0.00     0.058 A 
ATOM     86  C   UNL     1       0.146 -11.181  15.118  1.00  0.00     0.135 A 
ATOM     87  C   UNL     1       2.412 -11.916  15.459  1.00  0.00     0.135 A 
ATOM     88  F   UNL     1      -0.770 -10.462  14.451  1.00  0.00    -0.206 F 
ATOM     89  C   UNL     1      -0.269 -11.918  16.223  1.00  0.00     0.059 A 
ATOM     90  C   UNL     1       2.014 -12.682  16.550  1.00  0.00     0.059 A 
ATOM     91  F   UNL     1       3.709 -11.929  15.116  1.00  0.00    -0.206 F 
ATOM     92  C   UNL     1       0.675 -12.660  16.936  1.00  0.00     0.060 A 
BRANCH  92  93
ATOM     93  S   UNL     1       0.128 -13.613  18.369  1.00  0.00     0.124 S 
ATOM     94  O   UNL     1      -0.010 -12.569  19.379  1.00  0.00    -0.237 OA
ATOM     95  O   UNL     1      -1.119 -14.206  17.896  1.00  0.00    -0.237 OA
ATOM     96  O   UNL     1       1.221 -14.556  18.585  1.00  0.00    -0.744 OA
ENDBRANCH  92  93
ENDBRANCH  60  85
ENDBRANCH  34  35
ENDBRANCH  26  29
ENDBRANCH  24  25
ENDBRANCH   1  24
TORSDOF 15
