REMARK SMILES CS(=O)(=O)CC(=O)N1CCO[C@@H](CC(=O)NCCCCNC(=O)c2ccc(-c3c4nc(c(-c5c(F)cc(S(=O)(=O)[O-])cc5F)c5ccc([nH]5)c(-c5c(F)cc(S(=O)(=O)[O-])cc5F)c5nc(c(-c6c(F)cc(S(=O)(=O)[O-])cc6F)c6ccc3[nH]6)C=C5)C=C4)cc2)C1
REMARK SMILES IDX 18 1 17 2 16 3 14 4 15 5 13 7 12 8 8 9 9 10 90 11 10 12
REMARK SMILES IDX 11 13 6 14 7 15 5 16 2 17 1 18 3 19 4 20 19 21 20 22 21 23
REMARK SMILES IDX 22 24 23 26 24 27 25 28 89 29 26 30 88 31 27 32 28 33 29 34
REMARK SMILES IDX 82 35 30 36 87 37 81 38 83 39 31 40 86 41 80 42 79 43 32 45
REMARK SMILES IDX 66 46 45 47 65 48 46 49 49 50 64 51 84 52 47 53 48 54 63 56
REMARK SMILES IDX 85 57 50 58 33 59 34 60 43 61 35 62 36 63 42 64 44 65 37 66
REMARK SMILES IDX 38 67 39 68 40 69 41 70 67 71 68 72 77 73 69 74 70 75 76 76
REMARK SMILES IDX 78 77 71 78 72 79 73 80 74 81 75 82 51 83 52 84 61 85 53 86
REMARK SMILES IDX 54 87 60 88 62 89 55 90 56 91 57 92 58 93 59 94
REMARK H PARENT 16 6 21 25 83 44 49 55
REMARK Flexibility Score: inf
ROOT
ATOM      1  C   UNL     1       0.096  -1.155   6.121  1.00  0.00     0.023 C 
ENDROOT
BRANCH   1   2
ATOM      2  C   UNL     1      -1.188  -1.267   6.947  1.00  0.00     0.116 C 
BRANCH   2   3
ATOM      3  N   UNL     1      -1.528   0.003   7.574  1.00  0.00    -0.356 N 
ATOM      4  C   UNL     1      -2.486   0.922   7.256  1.00  0.00     0.222 C 
ATOM      5  O   UNL     1      -2.508   1.986   7.875  1.00  0.00    -0.275 OA
ATOM      6  H   UNL     1      -0.976   0.237   8.354  1.00  0.00     0.163 HD
BRANCH   4   7
ATOM      7  C   UNL     1      -3.482   0.656   6.149  1.00  0.00     0.133 C 
BRANCH   7   8
ATOM      8  C   UNL     1      -3.111   1.345   4.831  1.00  0.00     0.147 C 
ATOM      9  N   UNL     1      -1.418   1.208   2.964  1.00  0.00    -0.337 N 
ATOM     10  C   UNL     1      -2.514   0.863   2.065  1.00  0.00     0.148 C 
ATOM     11  C   UNL     1      -1.729   0.888   4.346  1.00  0.00     0.152 C 
ATOM     12  C   UNL     1      -3.819   1.478   2.560  1.00  0.00     0.182 C 
ATOM     13  O   UNL     1      -4.133   0.989   3.873  1.00  0.00    -0.374 OA
BRANCH   9  14
ATOM     14  C   UNL     1      -0.134   0.862   2.551  1.00  0.00     0.237 C 
ATOM     15  O   UNL     1       0.329  -0.265   2.720  1.00  0.00    -0.274 OA
BRANCH  14  16
ATOM     16  C   UNL     1       0.680   1.976   1.979  1.00  0.00     0.236 C 
BRANCH  16  17
ATOM     17  S   UNL     1       0.744   1.882   0.215  1.00  0.00     0.156 S 
ATOM     18  C   UNL     1       1.097   0.184  -0.181  1.00  0.00     0.158 C 
ATOM     19  O   UNL     1       1.883   2.672  -0.217  1.00  0.00    -0.229 OA
ATOM     20  O   UNL     1      -0.575   2.191  -0.307  1.00  0.00    -0.229 OA
ENDBRANCH  16  17
ENDBRANCH  14  16
ENDBRANCH   9  14
ENDBRANCH   7   8
ENDBRANCH   4   7
ENDBRANCH   2   3
ENDBRANCH   1   2
BRANCH   1  21
ATOM     21  C   UNL     1       1.388  -1.357   6.894  1.00  0.00     0.023 C 
BRANCH  21  22
ATOM     22  C   UNL     1       1.625  -2.786   7.341  1.00  0.00     0.116 C 
BRANCH  22  23
ATOM     23  N   UNL     1       1.710  -3.736   6.238  1.00  0.00    -0.352 N 
ATOM     24  C   UNL     1       2.616  -4.756   6.049  1.00  0.00     0.251 C 
ATOM     25  H   UNL     1       1.030  -3.634   5.534  1.00  0.00     0.163 HD
ATOM     26  O   UNL     1       2.606  -5.416   5.019  1.00  0.00    -0.269 OA
BRANCH  24  27
ATOM     27  C   UNL     1       3.633  -5.001   7.093  1.00  0.00     0.039 A 
ATOM     28  C   UNL     1       4.975  -5.100   6.722  1.00  0.00     0.014 A 
ATOM     29  C   UNL     1       3.263  -5.030   8.438  1.00  0.00     0.014 A 
ATOM     30  C   UNL     1       5.957  -5.139   7.713  1.00  0.00     0.010 A 
ATOM     31  C   UNL     1       4.243  -4.953   9.416  1.00  0.00     0.010 A 
ATOM     32  C   UNL     1       5.601  -5.015   9.066  1.00  0.00    -0.014 A 
BRANCH  32  33
ATOM     33  C   UNL     1       6.621  -4.966  10.142  1.00  0.00     0.031 A 
ATOM     34  C   UNL     1       6.606  -6.010  11.226  1.00  0.00     0.074 A 
ATOM     35  C   UNL     1       7.486  -3.934  10.203  1.00  0.00     0.049 A 
ATOM     36  N   UNL     1       7.326  -6.083  12.314  1.00  0.00    -0.248 NA
ATOM     37  C   UNL     1       5.611  -7.088  11.093  1.00  0.00     0.031 C 
ATOM     38  C   UNL     1       7.540  -2.813   9.261  1.00  0.00     0.029 A 
ATOM     39  N   UNL     1       8.474  -3.649  11.111  1.00  0.00    -0.354 N 
ATOM     40  C   UNL     1       6.843  -7.183  13.012  1.00  0.00     0.074 A 
ATOM     41  C   UNL     1       5.732  -7.713  12.254  1.00  0.00     0.031 C 
ATOM     42  C   UNL     1       8.521  -1.974   9.630  1.00  0.00     0.029 A 
ATOM     43  C   UNL     1       9.146  -2.479  10.848  1.00  0.00     0.049 A 
ATOM     44  H   UNL     1       8.682  -4.228  11.880  1.00  0.00     0.167 HD
ATOM     45  C   UNL     1       7.302  -7.723  14.166  1.00  0.00     0.037 A 
ATOM     46  C   UNL     1      10.150  -1.879  11.517  1.00  0.00     0.037 A 
ATOM     47  C   UNL     1       8.449  -7.228  14.876  1.00  0.00     0.049 A 
ATOM     48  C   UNL     1      10.703  -2.541  12.749  1.00  0.00     0.074 A 
ATOM     49  C   UNL     1       9.067  -7.762  15.992  1.00  0.00     0.029 A 
ATOM     50  N   UNL     1       9.158  -6.086  14.532  1.00  0.00    -0.354 N 
ATOM     51  N   UNL     1      10.293  -3.634  13.348  1.00  0.00    -0.248 NA
ATOM     52  C   UNL     1      11.859  -1.899  13.389  1.00  0.00     0.031 C 
ATOM     53  C   UNL     1      10.132  -6.924  16.342  1.00  0.00     0.029 A 
ATOM     54  C   UNL     1      10.199  -5.889  15.422  1.00  0.00     0.049 A 
ATOM     55  H   UNL     1       8.950  -5.501  13.768  1.00  0.00     0.167 HD
ATOM     56  C   UNL     1      11.151  -3.821  14.425  1.00  0.00     0.074 A 
ATOM     57  C   UNL     1      12.111  -2.736  14.387  1.00  0.00     0.031 C 
ATOM     58  C   UNL     1      11.145  -4.802  15.362  1.00  0.00     0.037 A 
BRANCH  45  59
ATOM     59  C   UNL     1       6.563  -8.912  14.714  1.00  0.00     0.058 A 
ATOM     60  C   UNL     1       6.594 -10.161  14.073  1.00  0.00     0.135 A 
ATOM     61  C   UNL     1       5.805  -8.799  15.890  1.00  0.00     0.135 A 
ATOM     62  F   UNL     1       7.289 -10.321  12.935  1.00  0.00    -0.206 F 
ATOM     63  C   UNL     1       5.861 -11.242  14.550  1.00  0.00     0.059 A 
ATOM     64  C   UNL     1       5.088  -9.876  16.403  1.00  0.00     0.059 A 
ATOM     65  F   UNL     1       5.741  -7.628  16.544  1.00  0.00    -0.206 F 
ATOM     66  C   UNL     1       5.104 -11.087  15.712  1.00  0.00     0.060 A 
BRANCH  66  67
ATOM     67  S   UNL     1       4.137 -12.491  16.308  1.00  0.00     0.124 S 
ATOM     68  O   UNL     1       3.007 -12.475  15.384  1.00  0.00    -0.237 OA
ATOM     69  O   UNL     1       5.068 -13.604  16.150  1.00  0.00    -0.237 OA
ATOM     70  O   UNL     1       3.828 -12.127  17.687  1.00  0.00    -0.744 OA
ENDBRANCH  66  67
ENDBRANCH  45  59
BRANCH  46  71
ATOM     71  C   UNL     1      10.716  -0.603  11.005  1.00  0.00     0.058 A 
ATOM     72  C   UNL     1      11.965  -0.572  10.369  1.00  0.00     0.135 A 
ATOM     73  C   UNL     1       9.998   0.599  11.097  1.00  0.00     0.135 A 
ATOM     74  F   UNL     1      12.690  -1.696  10.261  1.00  0.00    -0.206 F 
ATOM     75  C   UNL     1      12.487   0.606   9.845  1.00  0.00     0.059 A 
ATOM     76  C   UNL     1      10.490   1.786  10.562  1.00  0.00     0.059 A 
ATOM     77  F   UNL     1       8.789   0.618  11.679  1.00  0.00    -0.206 F 
ATOM     78  C   UNL     1      11.738   1.780   9.941  1.00  0.00     0.060 A 
BRANCH  78  79
ATOM     79  S   UNL     1      12.388   3.288   9.186  1.00  0.00     0.124 S 
ATOM     80  O   UNL     1      13.425   3.669  10.137  1.00  0.00    -0.237 OA
ATOM     81  O   UNL     1      12.856   2.805   7.890  1.00  0.00    -0.237 OA
ATOM     82  O   UNL     1      11.222   4.164   9.134  1.00  0.00    -0.744 OA
ENDBRANCH  78  79
ENDBRANCH  46  71
BRANCH  58  83
ATOM     83  C   UNL     1      12.218  -4.760  16.411  1.00  0.00     0.058 A 
ATOM     84  C   UNL     1      12.174  -3.839  17.468  1.00  0.00     0.135 A 
ATOM     85  C   UNL     1      13.266  -5.694  16.393  1.00  0.00     0.135 A 
ATOM     86  F   UNL     1      11.194  -2.923  17.526  1.00  0.00    -0.206 F 
ATOM     87  C   UNL     1      13.143  -3.834  18.465  1.00  0.00     0.059 A 
ATOM     88  C   UNL     1      14.232  -5.723  17.392  1.00  0.00     0.059 A 
ATOM     89  F   UNL     1      13.345  -6.603  15.408  1.00  0.00    -0.206 F 
ATOM     90  C   UNL     1      14.168  -4.781  18.419  1.00  0.00     0.060 A 
BRANCH  90  91
ATOM     91  S   UNL     1      15.398  -4.793  19.741  1.00  0.00     0.124 S 
ATOM     92  O   UNL     1      16.230  -3.651  19.377  1.00  0.00    -0.237 OA
ATOM     93  O   UNL     1      14.577  -4.624  20.936  1.00  0.00    -0.237 OA
ATOM     94  O   UNL     1      16.030  -6.102  19.604  1.00  0.00    -0.744 OA
ENDBRANCH  90  91
ENDBRANCH  58  83
ENDBRANCH  32  33
ENDBRANCH  24  27
ENDBRANCH  22  23
ENDBRANCH  21  22
ENDBRANCH   1  21
TORSDOF 18
