REMARK SMILES O=C(CN1C(=O)CN(C(=O)OCC2c3ccccc3-c3ccccc32)c2ccccc21)NCCCCNC(=O)c1ccc(-c2c3nc(c(-c4c(F)cc(S(=O)(=O)[O-])cc4F)c4ccc([nH]4)c(-c4c(F)cc(S(=O)(=O)[O-])cc4F)c4nc(c(-c5c(F)cc(S(=O)(=O)[O-])cc5F)c5ccc2[nH]5)C=C4)C=C3)cc1
REMARK SMILES IDX 33 1 32 2 1 3 2 4 3 6 4 7 5 8 31 9 6 10 7 11 26 12 30 13
REMARK SMILES IDX 8 14 27 15 29 16 28 17 9 18 10 19 11 20 12 21 13 22 14 23
REMARK SMILES IDX 25 24 15 25 19 26 20 27 24 28 16 29 18 30 21 31 23 32 17 33
REMARK SMILES IDX 22 34 34 35 35 36 36 37 37 38 38 39 39 41 40 42 41 43 105 44
REMARK SMILES IDX 42 45 104 46 43 47 44 48 45 49 98 50 46 51 103 52 97 53
REMARK SMILES IDX 99 54 47 55 102 56 96 57 95 58 48 60 82 61 61 62 81 63 62 64
REMARK SMILES IDX 65 65 80 66 100 67 63 68 64 69 79 71 101 72 66 73 49 74
REMARK SMILES IDX 50 75 59 76 51 77 52 78 58 79 60 80 53 81 54 82 55 83 56 84
REMARK SMILES IDX 57 85 83 86 84 87 93 88 85 89 86 90 92 91 94 92 87 93 88 94
REMARK SMILES IDX 89 95 90 96 91 97 67 98 68 99 77 100 69 101 70 102 76 103
REMARK SMILES IDX 78 104 71 105 72 106 73 107 74 108 75 109
REMARK H PARENT 32 5 37 40 99 59 65 70
REMARK Flexibility Score: inf
ROOT
ATOM      1  C   UNL     1       2.207  -1.807  -1.676  1.00  0.00     0.116 C 
ENDROOT
BRANCH   1   2
ATOM      2  N   UNL     1       2.867  -0.944  -0.717  1.00  0.00    -0.355 N 
ATOM      3  O   UNL     1       1.160   0.574  -0.583  1.00  0.00    -0.273 OA
ATOM      4  C   UNL     1       2.200   0.104  -0.119  1.00  0.00     0.240 C 
ATOM      5  H   UNL     1       3.811  -1.108  -0.488  1.00  0.00     0.163 HD
BRANCH   4   6
ATOM      6  C   UNL     1       2.908   0.787   1.070  1.00  0.00     0.225 C 
BRANCH   6   7
ATOM      7  N   UNL     1       3.852  -0.005   1.874  1.00  0.00    -0.299 N 
ATOM      8  C   UNL     1       3.425  -1.252   2.313  1.00  0.00     0.247 C 
ATOM      9  C   UNL     1       5.002   0.607   2.484  1.00  0.00     0.068 A 
ATOM     10  O   UNL     1       2.295  -1.688   2.085  1.00  0.00    -0.272 OA
ATOM     11  C   UNL     1       4.388  -2.073   3.144  1.00  0.00     0.229 C 
ATOM     12  C   UNL     1       5.944  -0.182   3.189  1.00  0.00     0.071 A 
ATOM     13  C   UNL     1       5.227   1.994   2.386  1.00  0.00     0.028 A 
ATOM     14  N   UNL     1       5.752  -1.594   3.254  1.00  0.00    -0.266 N 
ATOM     15  C   UNL     1       7.083   0.440   3.728  1.00  0.00     0.029 A 
ATOM     16  C   UNL     1       6.359   2.592   2.943  1.00  0.00     0.002 A 
ATOM     17  C   UNL     1       7.289   1.814   3.610  1.00  0.00     0.002 A 
BRANCH  14  18
ATOM     18  C   UNL     1       6.785  -2.506   3.478  1.00  0.00     0.414 C 
ATOM     19  O   UNL     1       7.838  -2.277   4.048  1.00  0.00    -0.224 OA
BRANCH  18  20
ATOM     20  O   UNL     1       6.532  -3.697   2.848  1.00  0.00    -0.448 OA
BRANCH  20  21
ATOM     21  C   UNL     1       7.677  -4.555   2.663  1.00  0.00     0.248 C 
BRANCH  21  22
ATOM     22  C   UNL     1       8.289  -4.415   1.250  1.00  0.00     0.088 C 
ATOM     23  C   UNL     1       8.840  -3.026   0.935  1.00  0.00    -0.029 A 
ATOM     24  C   UNL     1       9.551  -5.268   1.148  1.00  0.00    -0.029 A 
ATOM     25  C   UNL     1       8.151  -1.843   0.709  1.00  0.00     0.005 A 
ATOM     26  C   UNL     1      10.247  -3.066   0.850  1.00  0.00    -0.014 A 
ATOM     27  C   UNL     1      10.681  -4.440   0.961  1.00  0.00    -0.014 A 
ATOM     28  C   UNL     1       9.676  -6.647   1.232  1.00  0.00     0.005 A 
ATOM     29  C   UNL     1       8.885  -0.673   0.507  1.00  0.00     0.000 A 
ATOM     30  C   UNL     1      10.977  -1.907   0.644  1.00  0.00     0.009 A 
ATOM     31  C   UNL     1      11.948  -4.986   0.869  1.00  0.00     0.009 A 
ATOM     32  C   UNL     1      10.956  -7.196   1.142  1.00  0.00     0.000 A 
ATOM     33  C   UNL     1      10.287  -0.702   0.491  1.00  0.00     0.001 A 
ATOM     34  C   UNL     1      12.080  -6.372   0.967  1.00  0.00     0.001 A 
ENDBRANCH  21  22
ENDBRANCH  20  21
ENDBRANCH  18  20
ENDBRANCH  14  18
ENDBRANCH   6   7
ENDBRANCH   4   6
ENDBRANCH   1   2
BRANCH   1  35
ATOM     35  C   UNL     1       2.572  -1.506  -3.126  1.00  0.00     0.023 C 
BRANCH  35  36
ATOM     36  C   UNL     1       4.052  -1.673  -3.475  1.00  0.00     0.023 C 
BRANCH  36  37
ATOM     37  C   UNL     1       4.672  -3.026  -3.133  1.00  0.00     0.116 C 
BRANCH  37  38
ATOM     38  N   UNL     1       4.051  -4.141  -3.829  1.00  0.00    -0.352 N 
ATOM     39  C   UNL     1       4.638  -5.190  -4.498  1.00  0.00     0.251 C 
ATOM     40  H   UNL     1       3.067  -4.146  -3.820  1.00  0.00     0.163 HD
ATOM     41  O   UNL     1       3.935  -5.983  -5.119  1.00  0.00    -0.269 OA
BRANCH  39  42
ATOM     42  C   UNL     1       6.112  -5.349  -4.504  1.00  0.00     0.039 A 
ATOM     43  C   UNL     1       6.749  -5.643  -5.714  1.00  0.00     0.014 A 
ATOM     44  C   UNL     1       6.867  -5.215  -3.335  1.00  0.00     0.014 A 
ATOM     45  C   UNL     1       8.143  -5.726  -5.766  1.00  0.00     0.010 A 
ATOM     46  C   UNL     1       8.261  -5.236  -3.399  1.00  0.00     0.010 A 
ATOM     47  C   UNL     1       8.914  -5.485  -4.616  1.00  0.00    -0.014 A 
BRANCH  47  48
ATOM     48  C   UNL     1      10.400  -5.467  -4.675  1.00  0.00     0.031 A 
ATOM     49  C   UNL     1      11.204  -6.498  -3.929  1.00  0.00     0.074 A 
ATOM     50  C   UNL     1      11.027  -4.482  -5.348  1.00  0.00     0.049 A 
ATOM     51  N   UNL     1      12.503  -6.605  -3.810  1.00  0.00    -0.248 NA
ATOM     52  C   UNL     1      10.448  -7.536  -3.212  1.00  0.00     0.031 C 
ATOM     53  C   UNL     1      10.362  -3.399  -6.079  1.00  0.00     0.029 A 
ATOM     54  N   UNL     1      12.364  -4.223  -5.519  1.00  0.00    -0.354 N 
ATOM     55  C   UNL     1      12.720  -7.708  -2.991  1.00  0.00     0.074 A 
ATOM     56  C   UNL     1      11.418  -8.213  -2.614  1.00  0.00     0.031 C 
ATOM     57  C   UNL     1      11.293  -2.603  -6.629  1.00  0.00     0.029 A 
ATOM     58  C   UNL     1      12.618  -3.095  -6.265  1.00  0.00     0.049 A 
ATOM     59  H   UNL     1      13.075  -4.790  -5.142  1.00  0.00     0.167 HD
ATOM     60  C   UNL     1      13.897  -8.259  -2.605  1.00  0.00     0.037 A 
ATOM     61  C   UNL     1      13.785  -2.517  -6.609  1.00  0.00     0.037 A 
ATOM     62  C   UNL     1      15.190  -7.762  -2.998  1.00  0.00     0.049 A 
ATOM     63  C   UNL     1      15.078  -3.142  -6.160  1.00  0.00     0.074 A 
ATOM     64  C   UNL     1      16.438  -8.285  -2.707  1.00  0.00     0.029 A 
ATOM     65  N   UNL     1      15.403  -6.624  -3.763  1.00  0.00    -0.354 N 
ATOM     66  N   UNL     1      15.264  -4.218  -5.434  1.00  0.00    -0.248 NA
ATOM     67  C   UNL     1      16.319  -2.476  -6.580  1.00  0.00     0.031 C 
ATOM     68  C   UNL     1      17.407  -7.443  -3.263  1.00  0.00     0.029 A 
ATOM     69  C   UNL     1      16.762  -6.419  -3.937  1.00  0.00     0.049 A 
ATOM     70  H   UNL     1      14.693  -6.048  -4.128  1.00  0.00     0.167 HD
ATOM     71  C   UNL     1      16.641  -4.372  -5.332  1.00  0.00     0.074 A 
ATOM     72  C   UNL     1      17.242  -3.284  -6.075  1.00  0.00     0.031 C 
ATOM     73  C   UNL     1      17.345  -5.332  -4.683  1.00  0.00     0.037 A 
BRANCH  60  74
ATOM     74  C   UNL     1      13.841  -9.464  -1.707  1.00  0.00     0.058 A 
ATOM     75  C   UNL     1      13.394 -10.711  -2.171  1.00  0.00     0.135 A 
ATOM     76  C   UNL     1      14.270  -9.381  -0.372  1.00  0.00     0.135 A 
ATOM     77  F   UNL     1      12.976 -10.851  -3.439  1.00  0.00    -0.206 F 
ATOM     78  C   UNL     1      13.328 -11.819  -1.331  1.00  0.00     0.059 A 
ATOM     79  C   UNL     1      14.226 -10.478   0.482  1.00  0.00     0.059 A 
ATOM     80  F   UNL     1      14.742  -8.224   0.116  1.00  0.00    -0.206 F 
ATOM     81  C   UNL     1      13.737 -11.689  -0.003  1.00  0.00     0.060 A 
BRANCH  81  82
ATOM     82  S   UNL     1      13.626 -13.128   1.081  1.00  0.00     0.124 S 
ATOM     83  O   UNL     1      12.187 -13.203   1.313  1.00  0.00    -0.237 OA
ATOM     84  O   UNL     1      14.191 -14.188   0.253  1.00  0.00    -0.237 OA
ATOM     85  O   UNL     1      14.429 -12.744   2.237  1.00  0.00    -0.744 OA
ENDBRANCH  81  82
ENDBRANCH  60  74
BRANCH  61  86
ATOM     86  C   UNL     1      13.786  -1.286  -7.441  1.00  0.00     0.058 A 
ATOM     87  C   UNL     1      14.183  -1.328  -8.785  1.00  0.00     0.135 A 
ATOM     88  C   UNL     1      13.380  -0.049  -6.916  1.00  0.00     0.135 A 
ATOM     89  F   UNL     1      14.586  -2.487  -9.328  1.00  0.00    -0.206 F 
ATOM     90  C   UNL     1      14.191  -0.186  -9.579  1.00  0.00     0.059 A 
ATOM     91  C   UNL     1      13.360   1.103  -7.696  1.00  0.00     0.059 A 
ATOM     92  F   UNL     1      12.979   0.040  -5.638  1.00  0.00    -0.206 F 
ATOM     93  C   UNL     1      13.776   1.026  -9.024  1.00  0.00     0.060 A 
BRANCH  93  94
ATOM     94  S   UNL     1      13.741   2.495 -10.075  1.00  0.00     0.124 S 
ATOM     95  O   UNL     1      15.156   2.838 -10.146  1.00  0.00    -0.237 OA
ATOM     96  O   UNL     1      13.146   1.981 -11.305  1.00  0.00    -0.237 OA
ATOM     97  O   UNL     1      12.902   3.422  -9.322  1.00  0.00    -0.744 OA
ENDBRANCH  93  94
ENDBRANCH  61  86
BRANCH  73  98
ATOM     98  C   UNL     1      18.843  -5.269  -4.771  1.00  0.00     0.058 A 
ATOM     99  C   UNL     1      19.584  -4.329  -4.038  1.00  0.00     0.135 A 
ATOM    100  C   UNL     1      19.548  -6.193  -5.559  1.00  0.00     0.135 A 
ATOM    101  F   UNL     1      18.955  -3.420  -3.275  1.00  0.00    -0.206 F 
ATOM    102  C   UNL     1      20.973  -4.296  -4.096  1.00  0.00     0.059 A 
ATOM    103  C   UNL     1      20.938  -6.192  -5.615  1.00  0.00     0.059 A 
ATOM    104  F   UNL     1      18.886  -7.117  -6.272  1.00  0.00    -0.206 F 
ATOM    105  C   UNL     1      21.642  -5.232  -4.888  1.00  0.00     0.060 A 
BRANCH 105 106
ATOM    106  S   UNL     1      23.447  -5.205  -4.927  1.00  0.00     0.124 S 
ATOM    107  O   UNL     1      23.704  -4.074  -5.812  1.00  0.00    -0.237 OA
ATOM    108  O   UNL     1      23.790  -5.003  -3.523  1.00  0.00    -0.237 OA
ATOM    109  O   UNL     1      23.793  -6.517  -5.467  1.00  0.00    -0.744 OA
ENDBRANCH 105 106
ENDBRANCH  73  98
ENDBRANCH  47  48
ENDBRANCH  39  42
ENDBRANCH  37  38
ENDBRANCH  36  37
ENDBRANCH  35  36
ENDBRANCH   1  35
TORSDOF 19
