REMARK SMILES C[C@@H](C(=O)NCCCCNC(=O)c1ccc(-c2c3nc(c(-c4c(F)cc(S(=O)(=O)[O-])cc4F)c4ccc([nH]4)c(-c4c(F)cc(S(=O)(=O)[O-])cc4F)c4nc(c(-c5c(F)cc(S(=O)(=O)[O-])cc5F)c5ccc2[nH]5)C=C4)C=C3)cc1)c1cc(C(=O)c2ccccc2)ccc1O
REMARK SMILES IDX 7 1 6 2 5 3 3 4 4 5 2 7 1 8 79 9 80 10 92 11 81 12 91 13
REMARK SMILES IDX 90 14 93 15 82 17 83 18 84 19 85 20 89 21 86 22 88 23 87 24
REMARK SMILES IDX 8 25 9 26 10 27 11 28 12 30 13 31 14 32 78 33 15 34 77 35
REMARK SMILES IDX 16 36 17 37 18 38 71 39 19 40 76 41 70 42 72 43 20 44 75 45
REMARK SMILES IDX 69 46 68 47 21 49 55 50 34 51 54 52 35 53 38 54 53 55 73 56
REMARK SMILES IDX 36 57 37 58 52 60 74 61 39 62 22 63 23 64 32 65 24 66 25 67
REMARK SMILES IDX 31 68 33 69 26 70 27 71 28 72 29 73 30 74 56 75 57 76 66 77
REMARK SMILES IDX 58 78 59 79 65 80 67 81 60 82 61 83 62 84 63 85 64 86 40 87
REMARK SMILES IDX 41 88 50 89 42 90 43 91 49 92 51 93 44 94 45 95 46 96 47 97
REMARK SMILES IDX 48 98
REMARK H PARENT 5 6 93 16 10 29 72 48 38 59
REMARK Flexibility Score: inf
ROOT
ATOM      1  C   UNL     1       4.287   0.752   1.043  1.00  0.00     0.023 C 
ENDROOT
BRANCH   1   2
ATOM      2  C   UNL     1       3.527  -0.317   1.828  1.00  0.00     0.116 C 
BRANCH   2   3
ATOM      3  N   UNL     1       2.491   0.274   2.647  1.00  0.00    -0.356 N 
ATOM      4  C   UNL     1       1.138   0.302   2.477  1.00  0.00     0.227 C 
ATOM      5  O   UNL     1       0.491   0.916   3.327  1.00  0.00    -0.274 OA
ATOM      6  H   UNL     1       2.814   0.730   3.458  1.00  0.00     0.163 HD
BRANCH   4   7
ATOM      7  C   UNL     1       0.495  -0.462   1.302  1.00  0.00     0.109 C 
ATOM      8  C   UNL     1       0.799   0.171  -0.060  1.00  0.00     0.023 C 
BRANCH   7   9
ATOM      9  C   UNL     1      -1.019  -0.615   1.442  1.00  0.00     0.007 A 
ATOM     10  C   UNL     1      -1.806   0.552   1.570  1.00  0.00     0.020 A 
ATOM     11  C   UNL     1      -1.690  -1.844   1.397  1.00  0.00     0.119 A 
ATOM     12  C   UNL     1      -3.201   0.498   1.679  1.00  0.00     0.023 A 
ATOM     13  C   UNL     1      -3.082  -1.905   1.483  1.00  0.00     0.047 A 
ATOM     14  C   UNL     1      -3.839  -0.741   1.613  1.00  0.00     0.016 A 
BRANCH  11  15
ATOM     15  O   UNL     1      -1.083  -3.058   1.243  1.00  0.00    -0.508 OA
ATOM     16  H   UNL     1      -0.150  -3.110   1.177  1.00  0.00     0.293 HD
ENDBRANCH  11  15
BRANCH  12  17
ATOM     17  C   UNL     1      -3.949   1.780   1.796  1.00  0.00     0.193 C 
ATOM     18  O   UNL     1      -3.443   2.822   1.385  1.00  0.00    -0.289 OA
BRANCH  17  19
ATOM     19  C   UNL     1      -5.323   1.828   2.345  1.00  0.00     0.022 A 
ATOM     20  C   UNL     1      -6.262   2.637   1.697  1.00  0.00     0.012 A 
ATOM     21  C   UNL     1      -5.692   1.094   3.478  1.00  0.00     0.012 A 
ATOM     22  C   UNL     1      -7.582   2.667   2.146  1.00  0.00     0.001 A 
ATOM     23  C   UNL     1      -7.016   1.123   3.920  1.00  0.00     0.001 A 
ATOM     24  C   UNL     1      -7.960   1.901   3.248  1.00  0.00     0.000 A 
ENDBRANCH  17  19
ENDBRANCH  12  17
ENDBRANCH   7   9
ENDBRANCH   4   7
ENDBRANCH   2   3
ENDBRANCH   1   2
BRANCH   1  25
ATOM     25  C   UNL     1       5.070   1.743   1.908  1.00  0.00     0.023 C 
BRANCH  25  26
ATOM     26  C   UNL     1       6.058   1.112   2.878  1.00  0.00     0.116 C 
BRANCH  26  27
ATOM     27  N   UNL     1       7.037   0.270   2.211  1.00  0.00    -0.352 N 
ATOM     28  C   UNL     1       8.387   0.174   2.432  1.00  0.00     0.251 C 
ATOM     29  H   UNL     1       6.682  -0.312   1.500  1.00  0.00     0.163 HD
ATOM     30  O   UNL     1       9.081  -0.483   1.657  1.00  0.00    -0.269 OA
BRANCH  28  31
ATOM     31  C   UNL     1       9.005   0.873   3.579  1.00  0.00     0.039 A 
ATOM     32  C   UNL     1      10.231   1.516   3.393  1.00  0.00     0.014 A 
ATOM     33  C   UNL     1       8.394   0.881   4.836  1.00  0.00     0.014 A 
ATOM     34  C   UNL     1      10.826   2.192   4.460  1.00  0.00     0.010 A 
ATOM     35  C   UNL     1       8.944   1.629   5.873  1.00  0.00     0.010 A 
ATOM     36  C   UNL     1      10.180   2.269   5.705  1.00  0.00    -0.014 A 
BRANCH  36  37
ATOM     37  C   UNL     1      10.812   2.974   6.850  1.00  0.00     0.031 A 
ATOM     38  C   UNL     1      11.201   2.205   8.086  1.00  0.00     0.074 A 
ATOM     39  C   UNL     1      11.010   4.306   6.789  1.00  0.00     0.049 A 
ATOM     40  N   UNL     1      11.766   2.638   9.185  1.00  0.00    -0.248 NA
ATOM     41  C   UNL     1      10.890   0.766   8.104  1.00  0.00     0.031 C 
ATOM     42  C   UNL     1      10.628   5.168   5.668  1.00  0.00     0.029 A 
ATOM     43  N   UNL     1      11.586   5.168   7.688  1.00  0.00    -0.354 N 
ATOM     44  C   UNL     1      11.862   1.533  10.024  1.00  0.00     0.074 A 
ATOM     45  C   UNL     1      11.242   0.424   9.334  1.00  0.00     0.031 C 
ATOM     46  C   UNL     1      11.015   6.427   5.930  1.00  0.00     0.029 A 
ATOM     47  C   UNL     1      11.640   6.470   7.248  1.00  0.00     0.049 A 
ATOM     48  H   UNL     1      11.927   4.881   8.566  1.00  0.00     0.167 HD
ATOM     49  C   UNL     1      12.439   1.442  11.246  1.00  0.00     0.037 A 
ATOM     50  C   UNL     1      12.144   7.571   7.839  1.00  0.00     0.037 A 
ATOM     51  C   UNL     1      13.081   2.545  11.912  1.00  0.00     0.049 A 
ATOM     52  C   UNL     1      12.792   7.442   9.192  1.00  0.00     0.074 A 
ATOM     53  C   UNL     1      13.753   2.546  13.122  1.00  0.00     0.029 A 
ATOM     54  N   UNL     1      13.129   3.845  11.428  1.00  0.00    -0.354 N 
ATOM     55  N   UNL     1      12.942   6.373   9.938  1.00  0.00    -0.248 NA
ATOM     56  C   UNL     1      13.354   8.667   9.776  1.00  0.00     0.031 C 
ATOM     57  C   UNL     1      14.161   3.856  13.395  1.00  0.00     0.029 A 
ATOM     58  C   UNL     1      13.800   4.660  12.325  1.00  0.00     0.049 A 
ATOM     59  H   UNL     1      12.743   4.143  10.573  1.00  0.00     0.167 HD
ATOM     60  C   UNL     1      13.649   6.790  11.062  1.00  0.00     0.074 A 
ATOM     61  C   UNL     1      13.904   8.206  10.890  1.00  0.00     0.031 C 
ATOM     62  C   UNL     1      14.055   6.066  12.135  1.00  0.00     0.037 A 
BRANCH  49  63
ATOM     63  C   UNL     1      12.400   0.107  11.941  1.00  0.00     0.058 A 
ATOM     64  C   UNL     1      13.129  -0.997  11.469  1.00  0.00     0.135 A 
ATOM     65  C   UNL     1      11.646  -0.064  13.113  1.00  0.00     0.135 A 
ATOM     66  F   UNL     1      13.856  -0.898  10.345  1.00  0.00    -0.206 F 
ATOM     67  C   UNL     1      13.084  -2.230  12.113  1.00  0.00     0.059 A 
ATOM     68  C   UNL     1      11.612  -1.278  13.793  1.00  0.00     0.059 A 
ATOM     69  F   UNL     1      10.928   0.956  13.611  1.00  0.00    -0.206 F 
ATOM     70  C   UNL     1      12.322  -2.361  13.275  1.00  0.00     0.060 A 
BRANCH  70  71
ATOM     71  S   UNL     1      12.276  -3.966  14.099  1.00  0.00     0.124 S 
ATOM     72  O   UNL     1      11.458  -4.744  13.174  1.00  0.00    -0.237 OA
ATOM     73  O   UNL     1      13.688  -4.328  14.154  1.00  0.00    -0.237 OA
ATOM     74  O   UNL     1      11.656  -3.670  15.387  1.00  0.00    -0.744 OA
ENDBRANCH  70  71
ENDBRANCH  49  63
BRANCH  50  75
ATOM     75  C   UNL     1      12.098   8.882   7.136  1.00  0.00     0.058 A 
ATOM     76  C   UNL     1      13.272   9.486   6.659  1.00  0.00     0.135 A 
ATOM     77  C   UNL     1      10.886   9.554   6.922  1.00  0.00     0.135 A 
ATOM     78  F   UNL     1      14.458   8.886   6.843  1.00  0.00    -0.206 F 
ATOM     79  C   UNL     1      13.249  10.720   6.017  1.00  0.00     0.059 A 
ATOM     80  C   UNL     1      10.833  10.776   6.257  1.00  0.00     0.059 A 
ATOM     81  F   UNL     1       9.732   9.011   7.341  1.00  0.00    -0.206 F 
ATOM     82  C   UNL     1      12.023  11.357   5.819  1.00  0.00     0.060 A 
BRANCH  82  83
ATOM     83  S   UNL     1      12.001  12.939   4.948  1.00  0.00     0.124 S 
ATOM     84  O   UNL     1      12.583  13.831   5.944  1.00  0.00    -0.237 OA
ATOM     85  O   UNL     1      12.831  12.656   3.781  1.00  0.00    -0.237 OA
ATOM     86  O   UNL     1      10.584  13.146   4.665  1.00  0.00    -0.744 OA
ENDBRANCH  82  83
ENDBRANCH  50  75
BRANCH  62  87
ATOM     87  C   UNL     1      14.868   6.779  13.182  1.00  0.00     0.058 A 
ATOM     88  C   UNL     1      14.307   7.743  14.034  1.00  0.00     0.135 A 
ATOM     89  C   UNL     1      16.228   6.467  13.353  1.00  0.00     0.135 A 
ATOM     90  F   UNL     1      13.014   8.082  13.913  1.00  0.00    -0.206 F 
ATOM     91  C   UNL     1      15.074   8.402  14.990  1.00  0.00     0.059 A 
ATOM     92  C   UNL     1      17.004   7.088  14.325  1.00  0.00     0.059 A 
ATOM     93  F   UNL     1      16.812   5.541  12.576  1.00  0.00    -0.206 F 
ATOM     94  C   UNL     1      16.423   8.069  15.126  1.00  0.00     0.060 A 
BRANCH  94  95
ATOM     95  S   UNL     1      17.406   8.926  16.374  1.00  0.00     0.124 S 
ATOM     96  O   UNL     1      17.574  10.241  15.763  1.00  0.00    -0.237 OA
ATOM     97  O   UNL     1      16.536   8.877  17.545  1.00  0.00    -0.237 OA
ATOM     98  O   UNL     1      18.618   8.117  16.467  1.00  0.00    -0.744 OA
ENDBRANCH  94  95
ENDBRANCH  62  87
ENDBRANCH  36  37
ENDBRANCH  28  31
ENDBRANCH  26  27
ENDBRANCH  25  26
ENDBRANCH   1  25
TORSDOF 18
