REMARK SMILES Cc1ccc(-c2cc(OCC(=O)NCCCCNC(=O)c3ccc(-c4c5nc(c(-c6c(F)cc(S(=O)(=O)[O-])cc6F)c6ccc([nH]6)c(-c6c(F)cc(S(=O)(=O)[O-])cc6F)c6nc(c(-c7c(F)cc(S(=O)(=O)[O-])cc7F)c7ccc4[nH]7)C=C6)C=C5)cc3)nc(NCc3ccc4c(c3)OCO4)n2)cc1
REMARK SMILES IDX 14 1 13 2 11 3 12 4 10 6 9 7 8 8 6 9 7 10 100 11 88 12 87 13
REMARK SMILES IDX 5 14 1 15 2 16 3 17 102 18 4 19 101 20 89 21 90 23 91 24
REMARK SMILES IDX 92 25 96 26 93 27 95 28 94 29 97 30 99 31 98 32 15 33 16 34
REMARK SMILES IDX 17 35 18 36 19 37 20 39 21 40 22 41 86 42 23 43 85 44 24 45
REMARK SMILES IDX 25 46 26 47 79 48 27 49 84 50 78 51 80 52 28 53 83 54 77 55
REMARK SMILES IDX 76 56 29 58 63 59 42 60 62 61 43 62 46 63 61 64 81 65 44 66
REMARK SMILES IDX 45 67 60 69 82 70 47 71 30 72 31 73 40 74 32 75 33 76 39 77
REMARK SMILES IDX 41 78 34 79 35 80 36 81 37 82 38 83 64 84 65 85 74 86 66 87
REMARK SMILES IDX 67 88 73 89 75 90 68 91 69 92 70 93 71 94 72 95 48 96 49 97
REMARK SMILES IDX 58 98 50 99 51 100 57 101 59 102 52 103 53 104 54 105 55 106
REMARK SMILES IDX 56 107
REMARK H PARENT 13 5 89 22 18 38 80 57 46 68
REMARK Flexibility Score: inf
ROOT
ATOM      1  C   UNL     1      -6.872   4.027  -1.554  1.00  0.00     0.116 C 
ENDROOT
BRANCH   1   2
ATOM      2  N   UNL     1      -5.452   4.000  -1.869  1.00  0.00    -0.353 N 
ATOM      3  C   UNL     1      -4.736   3.046  -2.529  1.00  0.00     0.258 C 
ATOM      4  O   UNL     1      -3.529   3.219  -2.715  1.00  0.00    -0.271 OA
ATOM      5  H   UNL     1      -4.935   4.780  -1.563  1.00  0.00     0.163 HD
BRANCH   3   6
ATOM      6  C   UNL     1      -5.433   1.776  -3.026  1.00  0.00     0.331 C 
BRANCH   6   7
ATOM      7  O   UNL     1      -6.004   0.938  -2.038  1.00  0.00    -0.467 OA
BRANCH   7   8
ATOM      8  C   UNL     1      -5.182   0.483  -1.048  1.00  0.00     0.219 A 
ATOM      9  C   UNL     1      -3.172  -0.070  -0.002  1.00  0.00     0.080 A 
ATOM     10  C   UNL     1      -3.818   0.388  -1.132  1.00  0.00     0.097 A 
ATOM     11  N   UNL     1      -3.831  -0.466   1.106  1.00  0.00    -0.213 NA
ATOM     12  C   UNL     1      -5.160  -0.325   1.096  1.00  0.00     0.226 A 
ATOM     13  N   UNL     1      -5.857   0.130   0.053  1.00  0.00    -0.177 NA
BRANCH   9  14
ATOM     14  C   UNL     1      -1.707  -0.085   0.064  1.00  0.00     0.000 A 
ATOM     15  C   UNL     1       2.622  -0.085   0.042  1.00  0.00     0.044 C 
ATOM     16  C   UNL     1       1.123  -0.078   0.074  1.00  0.00    -0.051 A 
ATOM     17  C   UNL     1       0.412  -1.281   0.165  1.00  0.00     0.004 A 
ATOM     18  C   UNL     1       0.413   1.123  -0.012  1.00  0.00     0.004 A 
ATOM     19  C   UNL     1      -0.988  -1.284   0.170  1.00  0.00     0.010 A 
ATOM     20  C   UNL     1      -0.983   1.117  -0.018  1.00  0.00     0.010 A 
ENDBRANCH   9  14
BRANCH  12  21
ATOM     21  N   UNL     1      -5.914  -0.622   2.198  1.00  0.00    -0.350 N 
ATOM     22  H   UNL     1      -6.772  -0.157   2.326  1.00  0.00     0.164 HD
BRANCH  21  23
ATOM     23  C   UNL     1      -5.497  -1.589   3.173  1.00  0.00     0.152 C 
BRANCH  23  24
ATOM     24  C   UNL     1      -5.820  -3.018   2.771  1.00  0.00    -0.025 A 
ATOM     25  C   UNL     1      -5.217  -4.078   3.494  1.00  0.00     0.009 A 
ATOM     26  C   UNL     1      -6.713  -3.331   1.728  1.00  0.00     0.056 A 
ATOM     27  C   UNL     1      -5.458  -5.416   3.163  1.00  0.00     0.051 A 
ATOM     28  C   UNL     1      -6.914  -4.657   1.410  1.00  0.00     0.166 A 
ATOM     29  C   UNL     1      -6.300  -5.672   2.103  1.00  0.00     0.165 A 
ATOM     30  O   UNL     1      -7.699  -5.120   0.400  1.00  0.00    -0.454 OA
ATOM     31  O   UNL     1      -6.616  -6.900   1.611  1.00  0.00    -0.454 OA
ATOM     32  C   UNL     1      -7.401  -6.527   0.458  1.00  0.00     0.468 C 
ENDBRANCH  23  24
ENDBRANCH  21  23
ENDBRANCH  12  21
ENDBRANCH   7   8
ENDBRANCH   6   7
ENDBRANCH   3   6
ENDBRANCH   1   2
BRANCH   1  33
ATOM     33  C   UNL     1      -7.193   3.662  -0.098  1.00  0.00     0.023 C 
BRANCH  33  34
ATOM     34  C   UNL     1      -6.373   4.384   0.975  1.00  0.00     0.023 C 
BRANCH  34  35
ATOM     35  C   UNL     1      -6.481   5.902   0.936  1.00  0.00     0.116 C 
BRANCH  35  36
ATOM     36  N   UNL     1      -7.452   6.477   1.847  1.00  0.00    -0.352 N 
ATOM     37  C   UNL     1      -7.515   7.822   2.190  1.00  0.00     0.251 C 
ATOM     38  H   UNL     1      -8.114   5.871   2.252  1.00  0.00     0.163 HD
ATOM     39  O   UNL     1      -7.824   8.217   3.302  1.00  0.00    -0.269 OA
BRANCH  37  40
ATOM     40  C   UNL     1      -7.345   8.778   1.070  1.00  0.00     0.039 A 
ATOM     41  C   UNL     1      -8.478   9.462   0.612  1.00  0.00     0.014 A 
ATOM     42  C   UNL     1      -6.161   8.793   0.341  1.00  0.00     0.014 A 
ATOM     43  C   UNL     1      -8.471  10.029  -0.663  1.00  0.00     0.010 A 
ATOM     44  C   UNL     1      -6.186   9.270  -0.954  1.00  0.00     0.010 A 
ATOM     45  C   UNL     1      -7.348   9.861  -1.472  1.00  0.00    -0.014 A 
BRANCH  45  46
ATOM     46  C   UNL     1      -7.303  10.181  -2.896  1.00  0.00     0.031 A 
ATOM     47  C   UNL     1      -6.473  11.303  -3.397  1.00  0.00     0.074 A 
ATOM     48  C   UNL     1      -7.897   9.360  -3.789  1.00  0.00     0.049 A 
ATOM     49  N   UNL     1      -6.639  11.870  -4.546  1.00  0.00    -0.248 NA
ATOM     50  C   UNL     1      -5.384  11.892  -2.623  1.00  0.00     0.031 C 
ATOM     51  C   UNL     1      -7.627   9.281  -5.222  1.00  0.00     0.029 A 
ATOM     52  N   UNL     1      -9.004   8.536  -3.606  1.00  0.00    -0.354 N 
ATOM     53  C   UNL     1      -5.537  12.659  -4.785  1.00  0.00     0.074 A 
ATOM     54  C   UNL     1      -4.815  12.686  -3.534  1.00  0.00     0.031 C 
ATOM     55  C   UNL     1      -8.649   8.662  -5.829  1.00  0.00     0.029 A 
ATOM     56  C   UNL     1      -9.684   8.456  -4.833  1.00  0.00     0.049 A 
ATOM     57  H   UNL     1      -9.264   8.090  -2.767  1.00  0.00     0.167 HD
ATOM     58  C   UNL     1      -5.267  13.089  -6.052  1.00  0.00     0.037 A 
ATOM     59  C   UNL     1     -10.975   8.887  -4.960  1.00  0.00     0.037 A 
ATOM     60  C   UNL     1      -6.274  12.630  -7.003  1.00  0.00     0.049 A 
ATOM     61  C   UNL     1     -11.152  10.025  -5.940  1.00  0.00     0.074 A 
ATOM     62  C   UNL     1      -6.306  11.561  -7.884  1.00  0.00     0.029 A 
ATOM     63  N   UNL     1      -7.575  13.116  -6.930  1.00  0.00    -0.354 N 
ATOM     64  N   UNL     1     -10.172  10.760  -6.389  1.00  0.00    -0.248 NA
ATOM     65  C   UNL     1     -12.441  10.433  -6.490  1.00  0.00     0.031 C 
ATOM     66  C   UNL     1      -7.639  11.383  -8.319  1.00  0.00     0.029 A 
ATOM     67  C   UNL     1      -8.420  12.347  -7.708  1.00  0.00     0.049 A 
ATOM     68  H   UNL     1      -7.855  13.896  -6.399  1.00  0.00     0.167 HD
ATOM     69  C   UNL     1     -10.661  11.726  -7.234  1.00  0.00     0.074 A 
ATOM     70  C   UNL     1     -12.085  11.459  -7.285  1.00  0.00     0.031 C 
ATOM     71  C   UNL     1      -9.840  12.655  -7.812  1.00  0.00     0.037 A 
BRANCH  58  72
ATOM     72  C   UNL     1      -3.920  13.654  -6.448  1.00  0.00     0.058 A 
ATOM     73  C   UNL     1      -3.333  13.344  -7.694  1.00  0.00     0.135 A 
ATOM     74  C   UNL     1      -3.133  14.469  -5.611  1.00  0.00     0.135 A 
ATOM     75  F   UNL     1      -3.995  12.661  -8.636  1.00  0.00    -0.206 F 
ATOM     76  C   UNL     1      -2.026  13.702  -8.028  1.00  0.00     0.059 A 
ATOM     77  C   UNL     1      -1.803  14.797  -5.899  1.00  0.00     0.059 A 
ATOM     78  F   UNL     1      -3.642  14.992  -4.484  1.00  0.00    -0.206 F 
ATOM     79  C   UNL     1      -1.252  14.394  -7.109  1.00  0.00     0.060 A 
BRANCH  79  80
ATOM     80  S   UNL     1       0.472  14.731  -7.513  1.00  0.00     0.124 S 
ATOM     81  O   UNL     1       0.955  13.418  -7.931  1.00  0.00    -0.237 OA
ATOM     82  O   UNL     1       0.347  15.728  -8.570  1.00  0.00    -0.237 OA
ATOM     83  O   UNL     1       1.026  15.217  -6.252  1.00  0.00    -0.744 OA
ENDBRANCH  79  80
ENDBRANCH  58  72
BRANCH  59  84
ATOM     84  C   UNL     1     -11.783   8.653  -3.732  1.00  0.00     0.058 A 
ATOM     85  C   UNL     1     -12.052   7.313  -3.390  1.00  0.00     0.135 A 
ATOM     86  C   UNL     1     -11.841   9.610  -2.709  1.00  0.00     0.135 A 
ATOM     87  F   UNL     1     -12.029   6.361  -4.338  1.00  0.00    -0.206 F 
ATOM     88  C   UNL     1     -12.175   6.909  -2.066  1.00  0.00     0.059 A 
ATOM     89  C   UNL     1     -11.975   9.227  -1.373  1.00  0.00     0.059 A 
ATOM     90  F   UNL     1     -11.607  10.902  -2.979  1.00  0.00    -0.206 F 
ATOM     91  C   UNL     1     -12.055   7.867  -1.062  1.00  0.00     0.060 A 
BRANCH  91  92
ATOM     92  S   UNL     1     -11.820   7.284   0.635  1.00  0.00     0.124 S 
ATOM     93  O   UNL     1     -12.975   6.413   0.821  1.00  0.00    -0.237 OA
ATOM     94  O   UNL     1     -10.527   6.605   0.541  1.00  0.00    -0.237 OA
ATOM     95  O   UNL     1     -11.826   8.516   1.415  1.00  0.00    -0.744 OA
ENDBRANCH  91  92
ENDBRANCH  59  84
BRANCH  71  96
ATOM     96  C   UNL     1     -10.254  13.873  -8.616  1.00  0.00     0.058 A 
ATOM     97  C   UNL     1     -11.487  14.533  -8.485  1.00  0.00     0.135 A 
ATOM     98  C   UNL     1      -9.323  14.506  -9.483  1.00  0.00     0.135 A 
ATOM     99  F   UNL     1     -12.416  14.111  -7.617  1.00  0.00    -0.206 F 
ATOM    100  C   UNL     1     -11.800  15.692  -9.203  1.00  0.00     0.059 A 
ATOM    101  C   UNL     1      -9.594  15.690 -10.164  1.00  0.00     0.059 A 
ATOM    102  F   UNL     1      -8.098  14.000  -9.691  1.00  0.00    -0.206 F 
ATOM    103  C   UNL     1     -10.847  16.266 -10.038  1.00  0.00     0.060 A 
BRANCH 103 104
ATOM    104  S   UNL     1     -11.212  17.802 -10.907  1.00  0.00     0.124 S 
ATOM    105  O   UNL     1     -11.733  17.303 -12.176  1.00  0.00    -0.237 OA
ATOM    106  O   UNL     1     -12.190  18.446 -10.035  1.00  0.00    -0.237 OA
ATOM    107  O   UNL     1      -9.912  18.463 -10.972  1.00  0.00    -0.744 OA
ENDBRANCH 103 104
ENDBRANCH  71  96
ENDBRANCH  45  46
ENDBRANCH  37  40
ENDBRANCH  35  36
ENDBRANCH  34  35
ENDBRANCH  33  34
ENDBRANCH   1  33
TORSDOF 20
