REMARK SMILES CC(C)(C)OCC[C@@H]1CCC[C@]1([NH2+]C1CC1)C(=O)NCCCCNC(=O)c1ccc(-c2c3nc(c(-c4c(F)cc(S(=O)(=O)[O-])cc4F)c4ccc([nH]4)c(-c4c(F)cc(S(=O)(=O)[O-])cc4F)c4nc(c(-c5c(F)cc(S(=O)(=O)[O-])cc5F)c5ccc2[nH]5)C=C4)C=C3)cc1
REMARK SMILES IDX 21 1 20 2 19 3 17 4 18 5 12 7 8 8 9 9 10 10 11 11 7 12 6 13
REMARK SMILES IDX 5 14 2 15 1 16 3 17 4 18 13 19 14 22 15 23 16 24 22 25 23 26
REMARK SMILES IDX 24 27 25 28 26 30 27 31 28 32 92 33 29 34 91 35 30 36 31 37
REMARK SMILES IDX 32 38 85 39 33 40 90 41 84 42 86 43 34 44 89 45 83 46 82 47
REMARK SMILES IDX 35 49 69 50 48 51 68 52 49 53 52 54 67 55 87 56 50 57 51 58
REMARK SMILES IDX 66 60 88 61 53 62 36 63 37 64 46 65 38 66 39 67 45 68 47 69
REMARK SMILES IDX 40 70 41 71 42 72 43 73 44 74 70 75 71 76 80 77 72 78 73 79
REMARK SMILES IDX 79 80 81 81 74 82 75 83 76 84 77 85 78 86 54 87 55 88 64 89
REMARK SMILES IDX 56 90 57 91 63 92 65 93 58 94 59 95 60 96 61 97 62 98
REMARK H PARENT 19 6 13 20 13 21 24 29 86 48 52 59
REMARK Flexibility Score: inf
ROOT
ATOM      1  C   UNL     1       1.994   3.935   4.938  1.00  0.00     0.023 C 
ENDROOT
BRANCH   1   2
ATOM      2  C   UNL     1       1.828   5.215   4.106  1.00  0.00     0.116 C 
BRANCH   2   3
ATOM      3  N   UNL     1       2.732   5.263   2.967  1.00  0.00    -0.351 N 
ATOM      4  C   UNL     1       2.518   5.349   1.620  1.00  0.00     0.281 C 
ATOM      5  O   UNL     1       3.535   5.530   0.935  1.00  0.00    -0.268 OA
ATOM      6  H   UNL     1       3.684   5.227   3.216  1.00  0.00     0.163 HD
BRANCH   4   7
ATOM      7  C   UNL     1       1.108   5.163   0.928  1.00  0.00     0.178 C 
ATOM      8  C   UNL     1       0.745   3.615   0.797  1.00  0.00     0.063 C 
ATOM      9  C   UNL     1       1.765   3.231  -0.291  1.00  0.00     0.011 C 
ATOM     10  C   UNL     1       1.605   4.306  -1.345  1.00  0.00     0.008 C 
ATOM     11  C   UNL     1       1.161   5.542  -0.583  1.00  0.00     0.079 C 
BRANCH   8  12
ATOM     12  C   UNL     1       0.849   2.784   2.086  1.00  0.00     0.039 C 
BRANCH  12  13
ATOM     13  C   UNL     1      -0.126   1.647   2.441  1.00  0.00     0.161 C 
BRANCH  13  14
ATOM     14  O   UNL     1       0.276   0.318   2.142  1.00  0.00    -0.376 OA
BRANCH  14  15
ATOM     15  C   UNL     1      -0.180  -0.314   0.943  1.00  0.00     0.060 C 
ATOM     16  C   UNL     1       0.135  -1.811   1.081  1.00  0.00     0.042 C 
ATOM     17  C   UNL     1       0.630   0.206  -0.225  1.00  0.00     0.042 C 
ATOM     18  C   UNL     1      -1.681  -0.145   0.685  1.00  0.00     0.042 C 
ENDBRANCH  14  15
ENDBRANCH  13  14
ENDBRANCH  12  13
ENDBRANCH   8  12
BRANCH   7  19
ATOM     19  N   UNL     1       0.082   6.003   1.585  1.00  0.00    -0.331 N 
ATOM     20  H   UNL     1      -0.066   5.615   2.517  1.00  0.00     0.347 HD
ATOM     21  H   UNL     1      -0.704   5.968   0.936  1.00  0.00     0.347 HD
BRANCH  19  22
ATOM     22  C   UNL     1       0.322   7.457   1.759  1.00  0.00     0.183 C 
ATOM     23  C   UNL     1       1.495   8.249   1.247  1.00  0.00     0.071 C 
ATOM     24  C   UNL     1       0.155   8.404   0.595  1.00  0.00     0.071 C 
ENDBRANCH  19  22
ENDBRANCH   7  19
ENDBRANCH   4   7
ENDBRANCH   2   3
ENDBRANCH   1   2
BRANCH   1  25
ATOM     25  C   UNL     1       3.289   3.832   5.726  1.00  0.00     0.023 C 
BRANCH  25  26
ATOM     26  C   UNL     1       3.444   4.899   6.789  1.00  0.00     0.116 C 
BRANCH  26  27
ATOM     27  N   UNL     1       2.369   4.882   7.771  1.00  0.00    -0.352 N 
ATOM     28  C   UNL     1       2.465   4.967   9.143  1.00  0.00     0.251 C 
ATOM     29  H   UNL     1       1.457   4.798   7.408  1.00  0.00     0.163 HD
ATOM     30  O   UNL     1       1.486   4.797   9.851  1.00  0.00    -0.269 OA
BRANCH  28  31
ATOM     31  C   UNL     1       3.793   5.236   9.729  1.00  0.00     0.039 A 
ATOM     32  C   UNL     1       4.262   4.420  10.759  1.00  0.00     0.014 A 
ATOM     33  C   UNL     1       4.602   6.236   9.185  1.00  0.00     0.014 A 
ATOM     34  C   UNL     1       5.579   4.566  11.197  1.00  0.00     0.010 A 
ATOM     35  C   UNL     1       5.940   6.302   9.542  1.00  0.00     0.010 A 
ATOM     36  C   UNL     1       6.438   5.480  10.563  1.00  0.00    -0.014 A 
BRANCH  36  37
ATOM     37  C   UNL     1       7.857   5.623  10.967  1.00  0.00     0.031 A 
ATOM     38  C   UNL     1       8.347   6.947  11.488  1.00  0.00     0.074 A 
ATOM     39  C   UNL     1       8.711   4.595  10.796  1.00  0.00     0.049 A 
ATOM     40  N   UNL     1       9.559   7.308  11.820  1.00  0.00    -0.248 NA
ATOM     41  C   UNL     1       7.348   8.022  11.613  1.00  0.00     0.031 C 
ATOM     42  C   UNL     1       8.363   3.283  10.245  1.00  0.00     0.029 A 
ATOM     43  N   UNL     1      10.052   4.494  11.065  1.00  0.00    -0.354 N 
ATOM     44  C   UNL     1       9.469   8.650  12.170  1.00  0.00     0.074 A 
ATOM     45  C   UNL     1       8.102   9.059  11.941  1.00  0.00     0.031 C 
ATOM     46  C   UNL     1       9.452   2.498  10.255  1.00  0.00     0.029 A 
ATOM     47  C   UNL     1      10.584   3.260  10.773  1.00  0.00     0.049 A 
ATOM     48  H   UNL     1      10.585   5.236  11.433  1.00  0.00     0.167 HD
ATOM     49  C   UNL     1      10.431   9.461  12.670  1.00  0.00     0.037 A 
ATOM     50  C   UNL     1      11.841   2.799  10.911  1.00  0.00     0.037 A 
ATOM     51  C   UNL     1      11.778   9.032  12.929  1.00  0.00     0.049 A 
ATOM     52  C   UNL     1      12.894   3.716  11.473  1.00  0.00     0.074 A 
ATOM     53  C   UNL     1      12.816   9.749  13.496  1.00  0.00     0.029 A 
ATOM     54  N   UNL     1      12.274   7.769  12.638  1.00  0.00    -0.354 N 
ATOM     55  N   UNL     1      12.777   4.963  11.866  1.00  0.00    -0.248 NA
ATOM     56  C   UNL     1      14.248   3.164  11.615  1.00  0.00     0.031 C 
ATOM     57  C   UNL     1      13.952   8.932  13.508  1.00  0.00     0.029 A 
ATOM     58  C   UNL     1      13.609   7.691  12.994  1.00  0.00     0.049 A 
ATOM     59  H   UNL     1      11.753   7.036  12.237  1.00  0.00     0.167 HD
ATOM     60  C   UNL     1      14.034   5.334  12.331  1.00  0.00     0.074 A 
ATOM     61  C   UNL     1      14.892   4.176  12.178  1.00  0.00     0.031 C 
ATOM     62  C   UNL     1      14.441   6.523  12.841  1.00  0.00     0.037 A 
BRANCH  49  63
ATOM     63  C   UNL     1      10.047  10.885  12.970  1.00  0.00     0.058 A 
ATOM     64  C   UNL     1       9.155  11.208  14.007  1.00  0.00     0.135 A 
ATOM     65  C   UNL     1      10.574  11.942  12.210  1.00  0.00     0.135 A 
ATOM     66  F   UNL     1       8.607  10.236  14.754  1.00  0.00    -0.206 F 
ATOM     67  C   UNL     1       8.763  12.520  14.249  1.00  0.00     0.059 A 
ATOM     68  C   UNL     1      10.221  13.266  12.457  1.00  0.00     0.059 A 
ATOM     69  F   UNL     1      11.431  11.693  11.207  1.00  0.00    -0.206 F 
ATOM     70  C   UNL     1       9.298  13.542  13.465  1.00  0.00     0.060 A 
BRANCH  70  71
ATOM     71  S   UNL     1       8.765  15.238  13.779  1.00  0.00     0.124 S 
ATOM     72  O   UNL     1       7.416  15.225  13.223  1.00  0.00    -0.237 OA
ATOM     73  O   UNL     1       8.850  15.328  15.233  1.00  0.00    -0.237 OA
ATOM     74  O   UNL     1       9.739  16.041  13.047  1.00  0.00    -0.744 OA
ENDBRANCH  70  71
ENDBRANCH  49  63
BRANCH  50  75
ATOM     75  C   UNL     1      12.163   1.390  10.556  1.00  0.00     0.058 A 
ATOM     76  C   UNL     1      12.456   0.450  11.555  1.00  0.00     0.135 A 
ATOM     77  C   UNL     1      12.170   0.950   9.223  1.00  0.00     0.135 A 
ATOM     78  F   UNL     1      12.467   0.822  12.844  1.00  0.00    -0.206 F 
ATOM     79  C   UNL     1      12.762  -0.872  11.247  1.00  0.00     0.059 A 
ATOM     80  C   UNL     1      12.448  -0.373   8.892  1.00  0.00     0.059 A 
ATOM     81  F   UNL     1      11.879   1.806   8.231  1.00  0.00    -0.206 F 
ATOM     82  C   UNL     1      12.752  -1.275   9.911  1.00  0.00     0.060 A 
BRANCH  82  83
ATOM     83  S   UNL     1      13.106  -3.004   9.527  1.00  0.00     0.124 S 
ATOM     84  O   UNL     1      14.540  -3.074   9.780  1.00  0.00    -0.237 OA
ATOM     85  O   UNL     1      12.254  -3.709  10.480  1.00  0.00    -0.237 OA
ATOM     86  O   UNL     1      12.704  -3.126   8.129  1.00  0.00    -0.744 OA
ENDBRANCH  82  83
ENDBRANCH  50  75
BRANCH  62  87
ATOM     87  C   UNL     1      15.867   6.622  13.308  1.00  0.00     0.058 A 
ATOM     88  C   UNL     1      16.938   6.678  12.404  1.00  0.00     0.135 A 
ATOM     89  C   UNL     1      16.157   6.717  14.679  1.00  0.00     0.135 A 
ATOM     90  F   UNL     1      16.714   6.585  11.084  1.00  0.00    -0.206 F 
ATOM     91  C   UNL     1      18.252   6.803  12.843  1.00  0.00     0.059 A 
ATOM     92  C   UNL     1      17.460   6.872  15.139  1.00  0.00     0.059 A 
ATOM     93  F   UNL     1      15.167   6.680  15.585  1.00  0.00    -0.206 F 
ATOM     94  C   UNL     1      18.502   6.902  14.214  1.00  0.00     0.060 A 
BRANCH  94  95
ATOM     95  S   UNL     1      20.208   7.102  14.769  1.00  0.00     0.124 S 
ATOM     96  O   UNL     1      20.743   5.760  14.564  1.00  0.00    -0.237 OA
ATOM     97  O   UNL     1      20.713   8.131  13.864  1.00  0.00    -0.237 OA
ATOM     98  O   UNL     1      20.066   7.516  16.161  1.00  0.00    -0.744 OA
ENDBRANCH  94  95
ENDBRANCH  62  87
ENDBRANCH  36  37
ENDBRANCH  28  31
ENDBRANCH  26  27
ENDBRANCH  25  26
ENDBRANCH   1  25
TORSDOF 20
