REMARK SMILES CCCCCn1c(SCC(=O)NCCCCNC(=O)c2ccc(-c3c4nc(c(-c5c(F)cc(S(=O)(=O)[O-])cc5F)c5ccc([nH]5)c(-c5c(F)cc(S(=O)(=O)[O-])cc5F)c5nc(c(-c6c(F)cc(S(=O)(=O)[O-])cc6F)c6ccc3[nH]6)C=C5)C=C4)cc2)nc2ccccc2c1=O
REMARK SMILES IDX 13 1 12 2 10 3 11 4 9 6 8 7 7 8 6 9 93 10 86 11 92 12 94 13
REMARK SMILES IDX 87 14 91 15 88 16 90 17 89 18 5 19 4 20 3 21 2 22 1 23 14 24
REMARK SMILES IDX 15 25 16 26 17 27 18 28 19 30 20 31 21 32 85 33 22 34 84 35
REMARK SMILES IDX 23 36 24 37 25 38 78 39 26 40 83 41 77 42 79 43 27 44 82 45
REMARK SMILES IDX 76 46 75 47 28 49 62 50 41 51 61 52 42 53 45 54 60 55 80 56
REMARK SMILES IDX 43 57 44 58 59 60 81 61 46 62 29 63 30 64 39 65 31 66 32 67
REMARK SMILES IDX 38 68 40 69 33 70 34 71 35 72 36 73 37 74 63 75 64 76 73 77
REMARK SMILES IDX 65 78 66 79 72 80 74 81 67 82 68 83 69 84 70 85 71 86 47 87
REMARK SMILES IDX 48 88 57 89 49 90 50 91 56 92 58 93 51 94 52 95 53 96 54 97
REMARK SMILES IDX 55 98
REMARK H PARENT 12 5 17 29 79 48 45 59
REMARK Flexibility Score: inf
ROOT
ATOM      1  C   UNL     1       3.664   3.674  -1.976  1.00  0.00     0.116 C 
ENDROOT
BRANCH   1   2
ATOM      2  N   UNL     1       2.941   2.435  -2.209  1.00  0.00    -0.355 N 
ATOM      3  C   UNL     1       1.883   2.145  -3.021  1.00  0.00     0.230 C 
ATOM      4  O   UNL     1       1.604   0.948  -3.167  1.00  0.00    -0.274 OA
ATOM      5  H   UNL     1       3.272   1.669  -1.688  1.00  0.00     0.163 HD
BRANCH   3   6
ATOM      6  C   UNL     1       1.083   3.190  -3.781  1.00  0.00     0.178 C 
BRANCH   6   7
ATOM      7  S   UNL     1       0.631   4.642  -2.876  1.00  0.00    -0.078 SA
BRANCH   7   8
ATOM      8  C   UNL     1      -0.883   4.630  -2.016  1.00  0.00     0.171 A 
ATOM      9  N   UNL     1      -1.616   3.541  -1.566  1.00  0.00    -0.287 N 
ATOM     10  C   UNL     1      -2.830   3.753  -0.885  1.00  0.00     0.262 A 
ATOM     11  N   UNL     1      -1.231   5.855  -1.770  1.00  0.00    -0.224 NA
ATOM     12  C   UNL     1      -3.168   5.129  -0.508  1.00  0.00     0.066 A 
ATOM     13  O   UNL     1      -3.627   2.865  -0.584  1.00  0.00    -0.269 OA
ATOM     14  C   UNL     1      -2.339   6.131  -0.980  1.00  0.00     0.079 A 
ATOM     15  C   UNL     1      -4.257   5.422   0.322  1.00  0.00     0.016 A 
ATOM     16  C   UNL     1      -2.602   7.454  -0.617  1.00  0.00     0.029 A 
ATOM     17  C   UNL     1      -4.509   6.745   0.687  1.00  0.00     0.001 A 
ATOM     18  C   UNL     1      -3.680   7.762   0.216  1.00  0.00     0.002 A 
BRANCH   9  19
ATOM     19  C   UNL     1      -1.283   2.132  -1.739  1.00  0.00     0.128 C 
BRANCH  19  20
ATOM     20  C   UNL     1      -0.237   1.603  -0.755  1.00  0.00     0.022 C 
BRANCH  20  21
ATOM     21  C   UNL     1      -0.545   1.740   0.735  1.00  0.00     0.002 C 
BRANCH  21  22
ATOM     22  C   UNL     1      -0.388   0.451   1.550  1.00  0.00    -0.003 C 
ATOM     23  C   UNL     1       0.841  -0.388   1.224  1.00  0.00     0.004 C 
ENDBRANCH  21  22
ENDBRANCH  20  21
ENDBRANCH  19  20
ENDBRANCH   9  19
ENDBRANCH   7   8
ENDBRANCH   6   7
ENDBRANCH   3   6
ENDBRANCH   1   2
BRANCH   1  24
ATOM     24  C   UNL     1       3.301   4.406  -0.679  1.00  0.00     0.023 C 
BRANCH  24  25
ATOM     25  C   UNL     1       3.440   3.629   0.629  1.00  0.00     0.023 C 
BRANCH  25  26
ATOM     26  C   UNL     1       4.776   2.948   0.893  1.00  0.00     0.116 C 
BRANCH  26  27
ATOM     27  N   UNL     1       5.926   3.830   0.782  1.00  0.00    -0.352 N 
ATOM     28  C   UNL     1       7.003   4.017   1.616  1.00  0.00     0.251 C 
ATOM     29  H   UNL     1       5.935   4.389  -0.029  1.00  0.00     0.163 HD
ATOM     30  O   UNL     1       7.846   4.860   1.310  1.00  0.00    -0.269 OA
BRANCH  28  31
ATOM     31  C   UNL     1       7.143   3.269   2.890  1.00  0.00     0.039 A 
ATOM     32  C   UNL     1       6.808   1.920   3.003  1.00  0.00     0.014 A 
ATOM     33  C   UNL     1       7.636   3.949   4.012  1.00  0.00     0.014 A 
ATOM     34  C   UNL     1       6.787   1.310   4.257  1.00  0.00     0.010 A 
ATOM     35  C   UNL     1       7.698   3.309   5.255  1.00  0.00     0.010 A 
ATOM     36  C   UNL     1       7.217   2.000   5.402  1.00  0.00    -0.014 A 
BRANCH  36  37
ATOM     37  C   UNL     1       7.135   1.341   6.735  1.00  0.00     0.031 A 
ATOM     38  C   UNL     1       6.215   1.877   7.803  1.00  0.00     0.074 A 
ATOM     39  C   UNL     1       7.848   0.221   6.968  1.00  0.00     0.049 A 
ATOM     40  N   UNL     1       5.980   1.403   9.001  1.00  0.00    -0.248 NA
ATOM     41  C   UNL     1       5.466   3.106   7.494  1.00  0.00     0.031 C 
ATOM     42  C   UNL     1       8.783  -0.395   6.024  1.00  0.00     0.029 A 
ATOM     43  N   UNL     1       7.881  -0.614   8.058  1.00  0.00    -0.354 N 
ATOM     44  C   UNL     1       5.075   2.278   9.590  1.00  0.00     0.074 A 
ATOM     45  C   UNL     1       4.823   3.332   8.632  1.00  0.00     0.031 C 
ATOM     46  C   UNL     1       9.257  -1.533   6.553  1.00  0.00     0.029 A 
ATOM     47  C   UNL     1       8.700  -1.706   7.892  1.00  0.00     0.049 A 
ATOM     48  H   UNL     1       7.367  -0.446   8.881  1.00  0.00     0.167 HD
ATOM     49  C   UNL     1       4.492   2.203  10.811  1.00  0.00     0.037 A 
ATOM     50  C   UNL     1       8.978  -2.731   8.721  1.00  0.00     0.037 A 
ATOM     51  C   UNL     1       4.709   1.134  11.751  1.00  0.00     0.049 A 
ATOM     52  C   UNL     1       8.329  -2.784  10.075  1.00  0.00     0.074 A 
ATOM     53  C   UNL     1       4.118   0.948  12.989  1.00  0.00     0.029 A 
ATOM     54  N   UNL     1       5.580   0.073  11.559  1.00  0.00    -0.354 N 
ATOM     55  N   UNL     1       7.452  -1.962  10.598  1.00  0.00    -0.248 NA
ATOM     56  C   UNL     1       8.716  -3.895  10.957  1.00  0.00     0.031 C 
ATOM     57  C   UNL     1       4.659  -0.207  13.562  1.00  0.00     0.029 A 
ATOM     58  C   UNL     1       5.561  -0.758  12.666  1.00  0.00     0.049 A 
ATOM     59  H   UNL     1       6.130  -0.068  10.755  1.00  0.00     0.167 HD
ATOM     60  C   UNL     1       7.181  -2.455  11.868  1.00  0.00     0.074 A 
ATOM     61  C   UNL     1       7.970  -3.659  12.029  1.00  0.00     0.031 C 
ATOM     62  C   UNL     1       6.356  -1.950  12.817  1.00  0.00     0.037 A 
BRANCH  49  63
ATOM     63  C   UNL     1       3.550   3.304  11.211  1.00  0.00     0.058 A 
ATOM     64  C   UNL     1       2.252   3.387  10.684  1.00  0.00     0.135 A 
ATOM     65  C   UNL     1       3.924   4.243  12.186  1.00  0.00     0.135 A 
ATOM     66  F   UNL     1       1.850   2.522   9.739  1.00  0.00    -0.206 F 
ATOM     67  C   UNL     1       1.361   4.370  11.101  1.00  0.00     0.059 A 
ATOM     68  C   UNL     1       3.042   5.223  12.632  1.00  0.00     0.059 A 
ATOM     69  F   UNL     1       5.154   4.207  12.722  1.00  0.00    -0.206 F 
ATOM     70  C   UNL     1       1.764   5.283  12.077  1.00  0.00     0.060 A 
BRANCH  70  71
ATOM     71  S   UNL     1       0.586   6.538  12.622  1.00  0.00     0.124 S 
ATOM     72  O   UNL     1       0.556   7.430  11.466  1.00  0.00    -0.237 OA
ATOM     73  O   UNL     1      -0.624   5.755  12.847  1.00  0.00    -0.237 OA
ATOM     74  O   UNL     1       1.206   7.090  13.823  1.00  0.00    -0.744 OA
ENDBRANCH  70  71
ENDBRANCH  49  63
BRANCH  50  75
ATOM     75  C   UNL     1       9.919  -3.793   8.282  1.00  0.00     0.058 A 
ATOM     76  C   UNL     1       9.457  -5.073   7.946  1.00  0.00     0.135 A 
ATOM     77  C   UNL     1      11.293  -3.536   8.153  1.00  0.00     0.135 A 
ATOM     78  F   UNL     1       8.153  -5.367   8.061  1.00  0.00    -0.206 F 
ATOM     79  C   UNL     1      10.324  -6.063   7.495  1.00  0.00     0.059 A 
ATOM     80  C   UNL     1      12.176  -4.502   7.684  1.00  0.00     0.059 A 
ATOM     81  F   UNL     1      11.780  -2.321   8.451  1.00  0.00    -0.206 F 
ATOM     82  C   UNL     1      11.682  -5.766   7.362  1.00  0.00     0.060 A 
BRANCH  82  83
ATOM     83  S   UNL     1      12.788  -7.034   6.706  1.00  0.00     0.124 S 
ATOM     84  O   UNL     1      12.918  -7.929   7.850  1.00  0.00    -0.237 OA
ATOM     85  O   UNL     1      12.026  -7.551   5.574  1.00  0.00    -0.237 OA
ATOM     86  O   UNL     1      13.987  -6.281   6.352  1.00  0.00    -0.744 OA
ENDBRANCH  82  83
ENDBRANCH  50  75
BRANCH  62  87
ATOM     87  C   UNL     1       6.264  -2.683  14.124  1.00  0.00     0.058 A 
ATOM     88  C   UNL     1       7.272  -2.567  15.092  1.00  0.00     0.135 A 
ATOM     89  C   UNL     1       5.119  -3.427  14.449  1.00  0.00     0.135 A 
ATOM     90  F   UNL     1       8.389  -1.874  14.825  1.00  0.00    -0.206 F 
ATOM     91  C   UNL     1       7.147  -3.163  16.343  1.00  0.00     0.059 A 
ATOM     92  C   UNL     1       4.965  -4.016  15.701  1.00  0.00     0.059 A 
ATOM     93  F   UNL     1       4.124  -3.561  13.558  1.00  0.00    -0.206 F 
ATOM     94  C   UNL     1       5.986  -3.879  16.641  1.00  0.00     0.060 A 
BRANCH  94  95
ATOM     95  S   UNL     1       5.808  -4.586  18.293  1.00  0.00     0.124 S 
ATOM     96  O   UNL     1       6.733  -5.712  18.233  1.00  0.00    -0.237 OA
ATOM     97  O   UNL     1       6.213  -3.478  19.152  1.00  0.00    -0.237 OA
ATOM     98  O   UNL     1       4.393  -4.939  18.360  1.00  0.00    -0.744 OA
ENDBRANCH  94  95
ENDBRANCH  62  87
ENDBRANCH  36  37
ENDBRANCH  28  31
ENDBRANCH  26  27
ENDBRANCH  25  26
ENDBRANCH  24  25
ENDBRANCH   1  24
TORSDOF 20
