REMARK SMILES CCc1cc(OC(F)(F)F)cc2c1O[C@@H](C(F)(F)F)C(C(=O)NCCCCNC(=O)c1ccc(-c3c4nc(c(-c5c(F)cc(S(=O)(=O)[O-])cc5F)c5ccc([nH]5)c(-c5c(F)cc(S(=O)(=O)[O-])cc5F)c5nc(c(-c6c(F)cc(S(=O)(=O)[O-])cc6F)c6ccc3[nH]6)C=C5)C=C4)cc1)=C2
REMARK SMILES IDX 26 1 25 2 24 3 23 4 21 5 22 6 20 8 3 9 4 10 13 11 5 12 12 13
REMARK SMILES IDX 14 14 11 15 97 16 15 17 2 18 1 19 6 20 7 21 8 22 9 23 10 24
REMARK SMILES IDX 16 25 17 26 18 27 19 28 27 29 28 30 29 31 30 33 31 34 32 35
REMARK SMILES IDX 96 36 33 37 95 38 34 39 35 40 36 41 89 42 37 43 94 44 88 45
REMARK SMILES IDX 90 46 38 47 93 48 87 49 86 50 39 52 73 53 52 54 72 55 53 56
REMARK SMILES IDX 56 57 71 58 91 59 54 60 55 61 70 63 92 64 57 65 40 66 41 67
REMARK SMILES IDX 50 68 42 69 43 70 49 71 51 72 44 73 45 74 46 75 47 76 48 77
REMARK SMILES IDX 74 78 75 79 84 80 76 81 77 82 83 83 85 84 78 85 79 86 80 87
REMARK SMILES IDX 81 88 82 89 58 90 59 91 68 92 60 93 61 94 67 95 69 96 62 97
REMARK SMILES IDX 63 98 64 99 65 100 66 101
REMARK H PARENT 23 7 28 32 90 51 56 62
REMARK Flexibility Score: inf
ROOT
ATOM      1  C   UNL     1       0.685   8.975   3.959  1.00  0.00     0.023 C 
ENDROOT
BRANCH   1   2
ATOM      2  C   UNL     1       0.667   7.444   4.006  1.00  0.00     0.023 C 
BRANCH   2   3
ATOM      3  C   UNL     1      -0.647   6.815   3.529  1.00  0.00     0.116 C 
BRANCH   3   4
ATOM      4  N   UNL     1      -0.704   6.822   2.078  1.00  0.00    -0.352 N 
ATOM      5  C   UNL     1      -0.295   5.926   1.143  1.00  0.00     0.251 C 
ATOM      6  O   UNL     1      -0.319   6.267  -0.037  1.00  0.00    -0.270 OA
ATOM      7  H   UNL     1      -1.118   7.631   1.699  1.00  0.00     0.163 HD
BRANCH   5   8
ATOM      8  C   UNL     1       0.113   4.535   1.477  1.00  0.00     0.067 C 
ATOM      9  C   UNL     1       0.958   0.486   2.242  1.00  0.00    -0.002 A 
ATOM     10  C   UNL     1       1.708   0.150   3.386  1.00  0.00     0.054 A 
ATOM     11  C   UNL     1       0.672   1.836   1.989  1.00  0.00     0.131 A 
ATOM     12  C   UNL     1       2.164   1.141   4.259  1.00  0.00     0.130 A 
ATOM     13  C   UNL     1       1.152   2.831   2.836  1.00  0.00     0.021 A 
ATOM     14  O   UNL     1      -0.160   2.121   0.945  1.00  0.00    -0.475 OA
ATOM     15  C   UNL     1       1.896   2.481   3.966  1.00  0.00     0.058 A 
ATOM     16  C   UNL     1       0.808   4.221   2.581  1.00  0.00     0.025 C 
ATOM     17  C   UNL     1      -0.144   3.477   0.410  1.00  0.00     0.314 C 
BRANCH   9  18
ATOM     18  C   UNL     1       0.468  -0.607   1.319  1.00  0.00     0.036 C 
ATOM     19  C   UNL     1       1.116  -0.551  -0.059  1.00  0.00     0.009 C 
ENDBRANCH   9  18
BRANCH  12  20
ATOM     20  O   UNL     1       2.861   0.950   5.417  1.00  0.00    -0.406 OA
BRANCH  20  21
ATOM     21  C   UNL     1       3.093  -0.381   5.842  1.00  0.00     0.573 C 
ATOM     22  F   UNL     1       1.935  -1.057   6.002  1.00  0.00    -0.132 F 
ATOM     23  F   UNL     1       3.881  -1.037   4.964  1.00  0.00    -0.132 F 
ATOM     24  F   UNL     1       3.728  -0.351   7.035  1.00  0.00    -0.132 F 
ENDBRANCH  20  21
ENDBRANCH  12  20
BRANCH  17  25
ATOM     25  C   UNL     1      -1.427   3.629  -0.441  1.00  0.00     0.429 C 
ATOM     26  F   UNL     1      -1.265   4.457  -1.495  1.00  0.00    -0.167 F 
ATOM     27  F   UNL     1      -1.787   2.430  -0.981  1.00  0.00    -0.167 F 
ATOM     28  F   UNL     1      -2.483   4.058   0.286  1.00  0.00    -0.167 F 
ENDBRANCH  17  25
ENDBRANCH   5   8
ENDBRANCH   3   4
ENDBRANCH   2   3
ENDBRANCH   1   2
BRANCH   1  29
ATOM     29  C   UNL     1      -0.298   9.656   4.904  1.00  0.00     0.116 C 
BRANCH  29  30
ATOM     30  N   UNL     1      -0.102   9.284   6.296  1.00  0.00    -0.352 N 
ATOM     31  C   UNL     1      -0.340  10.035   7.424  1.00  0.00     0.251 C 
ATOM     32  H   UNL     1       0.245   8.376   6.451  1.00  0.00     0.163 HD
ATOM     33  O   UNL     1      -0.022   9.611   8.524  1.00  0.00    -0.269 OA
BRANCH  31  34
ATOM     34  C   UNL     1      -0.940  11.377   7.277  1.00  0.00     0.039 A 
ATOM     35  C   UNL     1      -0.311  12.462   7.892  1.00  0.00     0.014 A 
ATOM     36  C   UNL     1      -2.086  11.567   6.500  1.00  0.00     0.014 A 
ATOM     37  C   UNL     1      -0.791  13.753   7.666  1.00  0.00     0.010 A 
ATOM     38  C   UNL     1      -2.525  12.858   6.227  1.00  0.00     0.010 A 
ATOM     39  C   UNL     1      -1.876  13.963   6.799  1.00  0.00    -0.014 A 
BRANCH  39  40
ATOM     40  C   UNL     1      -2.328  15.333   6.456  1.00  0.00     0.031 A 
ATOM     41  C   UNL     1      -3.692  15.808   6.871  1.00  0.00     0.074 A 
ATOM     42  C   UNL     1      -1.533  16.120   5.704  1.00  0.00     0.049 A 
ATOM     43  N   UNL     1      -4.285  16.942   6.606  1.00  0.00    -0.248 NA
ATOM     44  C   UNL     1      -4.505  14.874   7.666  1.00  0.00     0.031 C 
ATOM     45  C   UNL     1      -0.212  15.746   5.193  1.00  0.00     0.029 A 
ATOM     46  N   UNL     1      -1.725  17.392   5.226  1.00  0.00    -0.354 N 
ATOM     47  C   UNL     1      -5.544  16.856   7.188  1.00  0.00     0.074 A 
ATOM     48  C   UNL     1      -5.646  15.539   7.780  1.00  0.00     0.031 C 
ATOM     49  C   UNL     1       0.294  16.771   4.489  1.00  0.00     0.029 A 
ATOM     50  C   UNL     1      -0.677  17.861   4.470  1.00  0.00     0.049 A 
ATOM     51  H   UNL     1      -2.537  17.918   5.407  1.00  0.00     0.167 HD
ATOM     52  C   UNL     1      -6.517  17.796   7.241  1.00  0.00     0.037 A 
ATOM     53  C   UNL     1      -0.519  19.035   3.829  1.00  0.00     0.037 A 
ATOM     54  C   UNL     1      -6.398  19.113   6.672  1.00  0.00     0.049 A 
ATOM     55  C   UNL     1      -1.609  20.067   3.912  1.00  0.00     0.074 A 
ATOM     56  C   UNL     1      -7.298  20.162   6.733  1.00  0.00     0.029 A 
ATOM     57  N   UNL     1      -5.312  19.561   5.933  1.00  0.00    -0.354 N 
ATOM     58  N   UNL     1      -2.764  19.995   4.528  1.00  0.00    -0.248 NA
ATOM     59  C   UNL     1      -1.373  21.340   3.218  1.00  0.00     0.031 C 
ATOM     60  C   UNL     1      -6.772  21.233   6.001  1.00  0.00     0.029 A 
ATOM     61  C   UNL     1      -5.527  20.864   5.515  1.00  0.00     0.049 A 
ATOM     62  H   UNL     1      -4.506  19.030   5.735  1.00  0.00     0.167 HD
ATOM     63  C   UNL     1      -3.387  21.218   4.309  1.00  0.00     0.074 A 
ATOM     64  C   UNL     1      -2.473  22.017   3.518  1.00  0.00     0.031 C 
ATOM     65  C   UNL     1      -4.606  21.642   4.725  1.00  0.00     0.037 A 
BRANCH  52  66
ATOM     66  C   UNL     1      -7.793  17.434   7.948  1.00  0.00     0.058 A 
ATOM     67  C   UNL     1      -7.846  17.298   9.344  1.00  0.00     0.135 A 
ATOM     68  C   UNL     1      -8.982  17.246   7.226  1.00  0.00     0.135 A 
ATOM     69  F   UNL     1      -6.734  17.452  10.081  1.00  0.00    -0.206 F 
ATOM     70  C   UNL     1      -9.025  16.957   9.998  1.00  0.00     0.059 A 
ATOM     71  C   UNL     1     -10.180  16.929   7.862  1.00  0.00     0.059 A 
ATOM     72  F   UNL     1      -8.988  17.363   5.889  1.00  0.00    -0.206 F 
ATOM     73  C   UNL     1     -10.187  16.771   9.247  1.00  0.00     0.060 A 
BRANCH  73  74
ATOM     74  S   UNL     1     -11.710  16.327  10.109  1.00  0.00     0.124 S 
ATOM     75  O   UNL     1     -11.464  14.923  10.425  1.00  0.00    -0.237 OA
ATOM     76  O   UNL     1     -11.705  17.241  11.246  1.00  0.00    -0.237 OA
ATOM     77  O   UNL     1     -12.748  16.574   9.114  1.00  0.00    -0.744 OA
ENDBRANCH  73  74
ENDBRANCH  52  66
BRANCH  53  78
ATOM     78  C   UNL     1       0.732  19.302   3.072  1.00  0.00     0.058 A 
ATOM     79  C   UNL     1       1.687  20.206   3.559  1.00  0.00     0.135 A 
ATOM     80  C   UNL     1       1.009  18.644   1.864  1.00  0.00     0.135 A 
ATOM     81  F   UNL     1       1.464  20.863   4.707  1.00  0.00    -0.206 F 
ATOM     82  C   UNL     1       2.869  20.458   2.870  1.00  0.00     0.059 A 
ATOM     83  C   UNL     1       2.193  18.862   1.168  1.00  0.00     0.059 A 
ATOM     84  F   UNL     1       0.134  17.756   1.367  1.00  0.00    -0.206 F 
ATOM     85  C   UNL     1       3.114  19.778   1.676  1.00  0.00     0.060 A 
BRANCH  85  86
ATOM     86  S   UNL     1       4.678  20.067   0.819  1.00  0.00     0.124 S 
ATOM     87  O   UNL     1       4.447  21.377   0.222  1.00  0.00    -0.237 OA
ATOM     88  O   UNL     1       5.642  20.025   1.915  1.00  0.00    -0.237 OA
ATOM     89  O   UNL     1       4.757  18.949  -0.116  1.00  0.00    -0.744 OA
ENDBRANCH  85  86
ENDBRANCH  53  78
BRANCH  65  90
ATOM     90  C   UNL     1      -5.016  23.036   4.344  1.00  0.00     0.058 A 
ATOM     91  C   UNL     1      -5.410  23.352   3.035  1.00  0.00     0.135 A 
ATOM     92  C   UNL     1      -5.060  24.055   5.309  1.00  0.00     0.135 A 
ATOM     93  F   UNL     1      -5.378  22.415   2.075  1.00  0.00    -0.206 F 
ATOM     94  C   UNL     1      -5.815  24.637   2.690  1.00  0.00     0.059 A 
ATOM     95  C   UNL     1      -5.485  25.341   4.991  1.00  0.00     0.059 A 
ATOM     96  F   UNL     1      -4.702  23.802   6.577  1.00  0.00    -0.206 F 
ATOM     97  C   UNL     1      -5.850  25.625   3.676  1.00  0.00     0.060 A 
BRANCH  97  98
ATOM     98  S   UNL     1      -6.410  27.281   3.224  1.00  0.00     0.124 S 
ATOM     99  O   UNL     1      -5.244  27.803   2.519  1.00  0.00    -0.237 OA
ATOM    100  O   UNL     1      -7.579  27.003   2.396  1.00  0.00    -0.237 OA
ATOM    101  O   UNL     1      -6.697  27.905   4.512  1.00  0.00    -0.744 OA
ENDBRANCH  97  98
ENDBRANCH  65  90
ENDBRANCH  39  40
ENDBRANCH  31  34
ENDBRANCH  29  30
ENDBRANCH   1  29
TORSDOF 18
