REMARK SMILES COCCN1C(=O)C[C@H](C(=O)NCCCCNC(=O)c2ccc(-c3c4nc(c(-c5c(F)cc(S(=O)(=O)[O-])cc5F)c5ccc([nH]5)c(-c5c(F)cc(S(=O)(=O)[O-])cc5F)c5nc(c(-c6c(F)cc(S(=O)(=O)[O-])cc6F)c6ccc3[nH]6)C=C5)C=C4)cc2)[C@@H]1c1ccccc1N1CCOCC1
REMARK SMILES IDX 14 1 13 2 12 3 10 4 11 5 9 7 5 8 6 9 86 10 7 11 8 12 4 13
REMARK SMILES IDX 3 14 2 15 1 16 87 17 88 18 92 19 89 20 91 21 90 22 93 23
REMARK SMILES IDX 94 24 98 25 95 26 97 27 96 28 15 29 16 30 17 31 18 32 19 34
REMARK SMILES IDX 20 35 21 36 85 37 22 38 84 39 23 40 24 41 25 42 78 43 26 44
REMARK SMILES IDX 83 45 77 46 79 47 27 48 82 49 76 50 75 51 28 53 62 54 41 55
REMARK SMILES IDX 61 56 42 57 45 58 60 59 80 60 43 61 44 62 59 64 81 65 46 66
REMARK SMILES IDX 29 67 30 68 39 69 31 70 32 71 38 72 40 73 33 74 34 75 35 76
REMARK SMILES IDX 36 77 37 78 63 79 64 80 73 81 65 82 66 83 72 84 74 85 67 86
REMARK SMILES IDX 68 87 69 88 70 89 71 90 47 91 48 92 57 93 49 94 50 95 56 96
REMARK SMILES IDX 58 97 51 98 52 99 53 100 54 101 55 102
REMARK H PARENT 12 6 17 33 79 52 45 63
REMARK Flexibility Score: inf
ROOT
ATOM      1  C   UNL     1       5.244  -5.198   1.178  1.00  0.00     0.023 C 
ENDROOT
BRANCH   1   2
ATOM      2  C   UNL     1       4.286  -4.089   0.776  1.00  0.00     0.116 C 
BRANCH   2   3
ATOM      3  N   UNL     1       3.484  -4.455  -0.369  1.00  0.00    -0.356 N 
ATOM      4  C   UNL     1       2.214  -4.112  -0.692  1.00  0.00     0.226 C 
ATOM      5  O   UNL     1       1.745  -4.611  -1.722  1.00  0.00    -0.275 OA
ATOM      6  H   UNL     1       3.931  -5.046  -1.016  1.00  0.00     0.163 HD
BRANCH   4   7
ATOM      7  C   UNL     1       1.310  -3.293   0.199  1.00  0.00     0.115 C 
ATOM      8  N   UNL     1       0.978  -1.746   1.940  1.00  0.00    -0.332 N 
ATOM      9  C   UNL     1       0.635  -2.992   2.453  1.00  0.00     0.224 C 
ATOM     10  C   UNL     1       1.591  -1.830   0.599  1.00  0.00     0.130 C 
ATOM     11  O   UNL     1       0.096  -3.203   3.532  1.00  0.00    -0.275 OA
ATOM     12  C   UNL     1       0.987  -4.061   1.474  1.00  0.00     0.116 C 
BRANCH   8  13
ATOM     13  C   UNL     1       0.417  -0.564   2.607  1.00  0.00     0.148 C 
BRANCH  13  14
ATOM     14  C   UNL     1       0.879   0.853   2.256  1.00  0.00     0.181 C 
BRANCH  14  15
ATOM     15  O   UNL     1      -0.095   1.588   1.508  1.00  0.00    -0.383 OA
ATOM     16  C   UNL     1      -0.060   1.311   0.121  1.00  0.00     0.194 C 
ENDBRANCH  14  15
ENDBRANCH  13  14
ENDBRANCH   8  13
BRANCH  10  17
ATOM     17  C   UNL     1       2.998  -1.246   0.492  1.00  0.00    -0.001 A 
ATOM     18  C   UNL     1       3.715  -0.925   1.673  1.00  0.00     0.008 A 
ATOM     19  C   UNL     1       3.630  -1.013  -0.764  1.00  0.00     0.042 A 
ATOM     20  C   UNL     1       4.988  -0.356   1.635  1.00  0.00     0.001 A 
ATOM     21  C   UNL     1       4.914  -0.424  -0.766  1.00  0.00     0.026 A 
ATOM     22  C   UNL     1       5.584  -0.097   0.413  1.00  0.00     0.002 A 
BRANCH  19  23
ATOM     23  N   UNL     1       3.053  -1.420  -1.966  1.00  0.00    -0.367 N 
ATOM     24  C   UNL     1       1.996  -0.589  -2.562  1.00  0.00     0.145 C 
ATOM     25  C   UNL     1       3.921  -2.021  -3.014  1.00  0.00     0.145 C 
ATOM     26  C   UNL     1       1.177  -1.466  -3.519  1.00  0.00     0.181 C 
ATOM     27  C   UNL     1       3.072  -2.762  -4.067  1.00  0.00     0.181 C 
ATOM     28  O   UNL     1       2.006  -1.948  -4.588  1.00  0.00    -0.378 OA
ENDBRANCH  19  23
ENDBRANCH  10  17
ENDBRANCH   4   7
ENDBRANCH   2   3
ENDBRANCH   1   2
BRANCH   1  29
ATOM     29  C   UNL     1       6.460  -5.306   0.256  1.00  0.00     0.023 C 
BRANCH  29  30
ATOM     30  C   UNL     1       7.288  -4.028   0.132  1.00  0.00     0.116 C 
BRANCH  30  31
ATOM     31  N   UNL     1       7.729  -3.516   1.423  1.00  0.00    -0.352 N 
ATOM     32  C   UNL     1       9.008  -3.389   1.911  1.00  0.00     0.251 C 
ATOM     33  H   UNL     1       7.012  -3.222   2.030  1.00  0.00     0.163 HD
ATOM     34  O   UNL     1       9.202  -3.122   3.092  1.00  0.00    -0.269 OA
BRANCH  32  35
ATOM     35  C   UNL     1      10.141  -3.591   0.989  1.00  0.00     0.039 A 
ATOM     36  C   UNL     1      11.156  -4.485   1.333  1.00  0.00     0.014 A 
ATOM     37  C   UNL     1      10.158  -2.933  -0.244  1.00  0.00     0.014 A 
ATOM     38  C   UNL     1      12.152  -4.779   0.400  1.00  0.00     0.010 A 
ATOM     39  C   UNL     1      11.101  -3.292  -1.199  1.00  0.00     0.010 A 
ATOM     40  C   UNL     1      12.107  -4.220  -0.889  1.00  0.00    -0.014 A 
BRANCH  40  41
ATOM     41  C   UNL     1      13.093  -4.600  -1.932  1.00  0.00     0.031 A 
ATOM     42  C   UNL     1      14.009  -3.558  -2.516  1.00  0.00     0.074 A 
ATOM     43  C   UNL     1      13.114  -5.862  -2.404  1.00  0.00     0.049 A 
ATOM     44  N   UNL     1      14.879  -3.675  -3.486  1.00  0.00    -0.248 NA
ATOM     45  C   UNL     1      13.914  -2.201  -1.955  1.00  0.00     0.031 C 
ATOM     46  C   UNL     1      12.242  -6.950  -1.952  1.00  0.00     0.029 A 
ATOM     47  N   UNL     1      13.890  -6.445  -3.375  1.00  0.00    -0.354 N 
ATOM     48  C   UNL     1      15.427  -2.409  -3.656  1.00  0.00     0.074 A 
ATOM     49  C   UNL     1      14.747  -1.526  -2.734  1.00  0.00     0.031 C 
ATOM     50  C   UNL     1      12.551  -8.071  -2.624  1.00  0.00     0.029 A 
ATOM     51  C   UNL     1      13.608  -7.774  -3.586  1.00  0.00     0.049 A 
ATOM     52  H   UNL     1      14.583  -5.956  -3.874  1.00  0.00     0.167 HD
ATOM     53  C   UNL     1      16.425  -2.024  -4.486  1.00  0.00     0.037 A 
ATOM     54  C   UNL     1      14.135  -8.654  -4.461  1.00  0.00     0.037 A 
ATOM     55  C   UNL     1      17.109  -2.913  -5.388  1.00  0.00     0.049 A 
ATOM     56  C   UNL     1      15.229  -8.196  -5.389  1.00  0.00     0.074 A 
ATOM     57  C   UNL     1      18.168  -2.631  -6.234  1.00  0.00     0.029 A 
ATOM     58  N   UNL     1      16.802  -4.254  -5.566  1.00  0.00    -0.354 N 
ATOM     59  N   UNL     1      15.779  -7.009  -5.493  1.00  0.00    -0.248 NA
ATOM     60  C   UNL     1      15.776  -9.195  -6.316  1.00  0.00     0.031 C 
ATOM     61  C   UNL     1      18.466  -3.788  -6.960  1.00  0.00     0.029 A 
ATOM     62  C   UNL     1      17.633  -4.807  -6.526  1.00  0.00     0.049 A 
ATOM     63  H   UNL     1      16.097  -4.741  -5.081  1.00  0.00     0.167 HD
ATOM     64  C   UNL     1      16.756  -7.128  -6.475  1.00  0.00     0.074 A 
ATOM     65  C   UNL     1      16.730  -8.504  -6.925  1.00  0.00     0.031 C 
ATOM     66  C   UNL     1      17.601  -6.183  -6.958  1.00  0.00     0.037 A 
BRANCH  53  67
ATOM     67  C   UNL     1      16.841  -0.578  -4.453  1.00  0.00     0.058 A 
ATOM     68  C   UNL     1      17.501  -0.026  -3.343  1.00  0.00     0.135 A 
ATOM     69  C   UNL     1      16.610   0.258  -5.557  1.00  0.00     0.135 A 
ATOM     70  F   UNL     1      17.734  -0.774  -2.253  1.00  0.00    -0.206 F 
ATOM     71  C   UNL     1      17.890   1.310  -3.316  1.00  0.00     0.059 A 
ATOM     72  C   UNL     1      17.018   1.589  -5.565  1.00  0.00     0.059 A 
ATOM     73  F   UNL     1      15.982  -0.215  -6.645  1.00  0.00    -0.206 F 
ATOM     74  C   UNL     1      17.644   2.109  -4.434  1.00  0.00     0.060 A 
BRANCH  74  75
ATOM     75  S   UNL     1      18.160   3.838  -4.383  1.00  0.00     0.124 S 
ATOM     76  O   UNL     1      17.196   4.401  -3.441  1.00  0.00    -0.237 OA
ATOM     77  O   UNL     1      19.533   3.739  -3.900  1.00  0.00    -0.237 OA
ATOM     78  O   UNL     1      18.014   4.278  -5.766  1.00  0.00    -0.744 OA
ENDBRANCH  74  75
ENDBRANCH  53  67
BRANCH  54  79
ATOM     79  C   UNL     1      13.651 -10.060  -4.487  1.00  0.00     0.058 A 
ATOM     80  C   UNL     1      14.472 -11.114  -4.058  1.00  0.00     0.135 A 
ATOM     81  C   UNL     1      12.358 -10.380  -4.932  1.00  0.00     0.135 A 
ATOM     82  F   UNL     1      15.718 -10.861  -3.631  1.00  0.00    -0.206 F 
ATOM     83  C   UNL     1      14.037 -12.435  -4.085  1.00  0.00     0.059 A 
ATOM     84  C   UNL     1      11.891 -11.691  -4.941  1.00  0.00     0.059 A 
ATOM     85  F   UNL     1      11.526  -9.408  -5.337  1.00  0.00    -0.206 F 
ATOM     86  C   UNL     1      12.742 -12.713  -4.526  1.00  0.00     0.060 A 
BRANCH  86  87
ATOM     87  S   UNL     1      12.173 -14.427  -4.512  1.00  0.00     0.124 S 
ATOM     88  O   UNL     1      12.938 -14.999  -5.614  1.00  0.00    -0.237 OA
ATOM     89  O   UNL     1      12.556 -14.864  -3.173  1.00  0.00    -0.237 OA
ATOM     90  O   UNL     1      10.736 -14.305  -4.736  1.00  0.00    -0.744 OA
ENDBRANCH  86  87
ENDBRANCH  54  79
BRANCH  66  91
ATOM     91  C   UNL     1      18.593  -6.607  -8.006  1.00  0.00     0.058 A 
ATOM     92  C   UNL     1      18.201  -6.902  -9.321  1.00  0.00     0.135 A 
ATOM     93  C   UNL     1      19.964  -6.659  -7.704  1.00  0.00     0.135 A 
ATOM     94  F   UNL     1      16.903  -6.875  -9.661  1.00  0.00    -0.206 F 
ATOM     95  C   UNL     1      19.131  -7.252 -10.295  1.00  0.00     0.059 A 
ATOM     96  C   UNL     1      20.914  -6.976  -8.669  1.00  0.00     0.059 A 
ATOM     97  F   UNL     1      20.395  -6.377  -6.464  1.00  0.00    -0.206 F 
ATOM     98  C   UNL     1      20.486  -7.282  -9.960  1.00  0.00     0.060 A 
BRANCH  98  99
ATOM     99  S   UNL     1      21.685  -7.694 -11.245  1.00  0.00     0.124 S 
ATOM    100  O   UNL     1      21.452  -9.124 -11.417  1.00  0.00    -0.237 OA
ATOM    101  O   UNL     1      21.258  -6.845 -12.353  1.00  0.00    -0.237 OA
ATOM    102  O   UNL     1      22.966  -7.334 -10.645  1.00  0.00    -0.744 OA
ENDBRANCH  98  99
ENDBRANCH  66  91
ENDBRANCH  40  41
ENDBRANCH  32  35
ENDBRANCH  30  31
ENDBRANCH  29  30
ENDBRANCH   1  29
TORSDOF 19
