REMARK SMILES O=C(NCCCCNC(=O)c1ccc(-c2c3nc(c(-c4c(F)cc(S(=O)(=O)[O-])cc4F)c4ccc([nH]4)c(-c4c(F)cc(S(=O)(=O)[O-])cc4F)c4nc(c(-c5c(F)cc(S(=O)(=O)[O-])cc5F)c5ccc2[nH]5)C=C4)C=C3)cc1)c1ccc(NS(=O)(=O)C2=Cc3ccccc3CC2)cc1
REMARK SMILES IDX 5 1 4 2 3 3 1 4 2 5 77 7 78 8 96 9 79 10 95 11 80 12 81 13
REMARK SMILES IDX 82 15 83 16 84 17 85 18 86 19 94 20 87 21 93 22 88 23 92 24
REMARK SMILES IDX 89 25 91 26 90 27 6 28 7 29 8 30 9 31 10 33 11 34 12 35
REMARK SMILES IDX 76 36 13 37 75 38 14 39 15 40 16 41 69 42 17 43 74 44 68 45
REMARK SMILES IDX 70 46 18 47 73 48 67 49 66 50 19 52 53 53 32 54 52 55 33 56
REMARK SMILES IDX 36 57 51 58 71 59 34 60 35 61 50 63 72 64 37 65 20 66 21 67
REMARK SMILES IDX 30 68 22 69 23 70 29 71 31 72 24 73 25 74 26 75 27 76 28 77
REMARK SMILES IDX 54 78 55 79 64 80 56 81 57 82 63 83 65 84 58 85 59 86 60 87
REMARK SMILES IDX 61 88 62 89 38 90 39 91 48 92 40 93 41 94 47 95 49 96 42 97
REMARK SMILES IDX 43 98 44 99 45 100 46 101
REMARK H PARENT 3 6 81 14 8 32 70 51 36 62
REMARK Flexibility Score: inf
ROOT
ATOM      1  C   UNL     1       4.857   2.109  -1.490  1.00  0.00     0.023 C 
ENDROOT
BRANCH   1   2
ATOM      2  C   UNL     1       4.398   1.227  -0.333  1.00  0.00     0.116 C 
BRANCH   2   3
ATOM      3  N   UNL     1       2.952   1.111  -0.270  1.00  0.00    -0.352 N 
ATOM      4  O   UNL     1       0.963   0.045  -0.381  1.00  0.00    -0.269 OA
ATOM      5  C   UNL     1       2.180  -0.023  -0.246  1.00  0.00     0.251 C 
ATOM      6  H   UNL     1       2.458   1.962  -0.241  1.00  0.00     0.163 HD
BRANCH   5   7
ATOM      7  C   UNL     1       2.814  -1.342  -0.044  1.00  0.00     0.039 A 
ATOM      8  C   UNL     1       3.671  -1.552   1.039  1.00  0.00     0.016 A 
ATOM      9  C   UNL     1       2.469  -2.407  -0.881  1.00  0.00     0.016 A 
ATOM     10  C   UNL     1       4.203  -2.821   1.265  1.00  0.00     0.027 A 
ATOM     11  C   UNL     1       3.018  -3.676  -0.658  1.00  0.00     0.027 A 
ATOM     12  C   UNL     1       3.892  -3.882   0.414  1.00  0.00     0.049 A 
BRANCH  12  13
ATOM     13  N   UNL     1       4.327  -5.205   0.736  1.00  0.00    -0.280 N 
ATOM     14  H   UNL     1       3.671  -5.885   1.012  1.00  0.00     0.180 HD
BRANCH  13  15
ATOM     15  S   UNL     1       5.978  -5.606   0.640  1.00  0.00     0.258 S 
ATOM     16  O   UNL     1       6.072  -6.883   1.320  1.00  0.00    -0.202 OA
ATOM     17  O   UNL     1       6.306  -5.544  -0.773  1.00  0.00    -0.202 OA
BRANCH  15  18
ATOM     18  C   UNL     1       6.903  -4.376   1.508  1.00  0.00     0.066 C 
ATOM     19  C   UNL     1       7.326  -4.710   2.748  1.00  0.00     0.026 C 
ATOM     20  C   UNL     1       7.881  -3.600   0.659  1.00  0.00     0.055 C 
ATOM     21  C   UNL     1       8.683  -5.330   2.784  1.00  0.00    -0.021 A 
ATOM     22  C   UNL     1       9.165  -4.417   0.456  1.00  0.00     0.041 C 
ATOM     23  C   UNL     1       9.075  -6.047   3.917  1.00  0.00     0.008 A 
ATOM     24  C   UNL     1       9.562  -5.205   1.688  1.00  0.00    -0.040 A 
ATOM     25  C   UNL     1      10.318  -6.682   3.946  1.00  0.00     0.001 A 
ATOM     26  C   UNL     1      10.797  -5.864   1.721  1.00  0.00     0.004 A 
ATOM     27  C   UNL     1      11.169  -6.603   2.845  1.00  0.00     0.000 A 
ENDBRANCH  15  18
ENDBRANCH  13  15
ENDBRANCH  12  13
ENDBRANCH   5   7
ENDBRANCH   2   3
ENDBRANCH   1   2
BRANCH   1  28
ATOM     28  C   UNL     1       4.419   3.571  -1.411  1.00  0.00     0.023 C 
BRANCH  28  29
ATOM     29  C   UNL     1       4.783   4.298  -0.121  1.00  0.00     0.116 C 
BRANCH  29  30
ATOM     30  N   UNL     1       6.215   4.326   0.134  1.00  0.00    -0.352 N 
ATOM     31  C   UNL     1       7.028   5.398   0.420  1.00  0.00     0.251 C 
ATOM     32  H   UNL     1       6.668   3.452   0.097  1.00  0.00     0.163 HD
ATOM     33  O   UNL     1       8.244   5.244   0.487  1.00  0.00    -0.269 OA
BRANCH  31  34
ATOM     34  C   UNL     1       6.434   6.740   0.608  1.00  0.00     0.039 A 
ATOM     35  C   UNL     1       6.986   7.826  -0.076  1.00  0.00     0.014 A 
ATOM     36  C   UNL     1       5.317   6.919   1.429  1.00  0.00     0.014 A 
ATOM     37  C   UNL     1       6.365   9.075  -0.005  1.00  0.00     0.010 A 
ATOM     38  C   UNL     1       4.660   8.146   1.442  1.00  0.00     0.010 A 
ATOM     39  C   UNL     1       5.172   9.235   0.719  1.00  0.00    -0.014 A 
BRANCH  39  40
ATOM     40  C   UNL     1       4.432  10.523   0.719  1.00  0.00     0.031 A 
ATOM     41  C   UNL     1       4.250  11.290   2.000  1.00  0.00     0.074 A 
ATOM     42  C   UNL     1       3.852  10.960  -0.417  1.00  0.00     0.049 A 
ATOM     43  N   UNL     1       3.558  12.377   2.221  1.00  0.00    -0.248 NA
ATOM     44  C   UNL     1       4.911  10.745   3.197  1.00  0.00     0.031 C 
ATOM     45  C   UNL     1       3.906  10.278  -1.712  1.00  0.00     0.029 A 
ATOM     46  N   UNL     1       3.088  12.074  -0.662  1.00  0.00    -0.354 N 
ATOM     47  C   UNL     1       3.679  12.634   3.581  1.00  0.00     0.074 A 
ATOM     48  C   UNL     1       4.475  11.564   4.143  1.00  0.00     0.031 C 
ATOM     49  C   UNL     1       3.223  10.997  -2.617  1.00  0.00     0.029 A 
ATOM     50  C   UNL     1       2.653  12.171  -1.962  1.00  0.00     0.049 A 
ATOM     51  H   UNL     1       2.873  12.741   0.029  1.00  0.00     0.167 HD
ATOM     52  C   UNL     1       3.189  13.677   4.294  1.00  0.00     0.037 A 
ATOM     53  C   UNL     1       1.877  13.096  -2.559  1.00  0.00     0.037 A 
ATOM     54  C   UNL     1       2.428  14.758   3.725  1.00  0.00     0.049 A 
ATOM     55  C   UNL     1       1.367  14.259  -1.754  1.00  0.00     0.074 A 
ATOM     56  C   UNL     1       1.943  15.892   4.352  1.00  0.00     0.029 A 
ATOM     57  N   UNL     1       2.043  14.841   2.395  1.00  0.00    -0.354 N 
ATOM     58  N   UNL     1       1.542  14.517  -0.480  1.00  0.00    -0.248 NA
ATOM     59  C   UNL     1       0.562  15.261  -2.467  1.00  0.00     0.031 C 
ATOM     60  C   UNL     1       1.240  16.648   3.407  1.00  0.00     0.029 A 
ATOM     61  C   UNL     1       1.318  16.002   2.183  1.00  0.00     0.049 A 
ATOM     62  H   UNL     1       2.255  14.173   1.703  1.00  0.00     0.167 HD
ATOM     63  C   UNL     1       0.888  15.721  -0.244  1.00  0.00     0.074 A 
ATOM     64  C   UNL     1       0.323  16.145  -1.508  1.00  0.00     0.031 C 
ATOM     65  C   UNL     1       0.769  16.413   0.916  1.00  0.00     0.037 A 
BRANCH  52  66
ATOM     66  C   UNL     1       3.473  13.698   5.769  1.00  0.00     0.058 A 
ATOM     67  C   UNL     1       4.759  13.963   6.266  1.00  0.00     0.135 A 
ATOM     68  C   UNL     1       2.446  13.468   6.699  1.00  0.00     0.135 A 
ATOM     69  F   UNL     1       5.780  14.175   5.421  1.00  0.00    -0.206 F 
ATOM     70  C   UNL     1       5.025  13.963   7.631  1.00  0.00     0.059 A 
ATOM     71  C   UNL     1       2.684  13.489   8.070  1.00  0.00     0.059 A 
ATOM     72  F   UNL     1       1.198  13.210   6.277  1.00  0.00    -0.206 F 
ATOM     73  C   UNL     1       3.982  13.719   8.525  1.00  0.00     0.060 A 
BRANCH  73  74
ATOM     74  S   UNL     1       4.344  13.710  10.294  1.00  0.00     0.124 S 
ATOM     75  O   UNL     1       4.993  12.412  10.449  1.00  0.00    -0.237 OA
ATOM     76  O   UNL     1       5.211  14.874  10.444  1.00  0.00    -0.237 OA
ATOM     77  O   UNL     1       3.026  13.831  10.910  1.00  0.00    -0.744 OA
ENDBRANCH  73  74
ENDBRANCH  52  66
BRANCH  53  78
ATOM     78  C   UNL     1       1.562  12.974  -4.006  1.00  0.00     0.058 A 
ATOM     79  C   UNL     1       2.167  13.821  -4.946  1.00  0.00     0.135 A 
ATOM     80  C   UNL     1       0.673  11.997  -4.481  1.00  0.00     0.135 A 
ATOM     81  F   UNL     1       3.019  14.774  -4.539  1.00  0.00    -0.206 F 
ATOM     82  C   UNL     1       1.896  13.712  -6.306  1.00  0.00     0.059 A 
ATOM     83  C   UNL     1       0.402  11.855  -5.838  1.00  0.00     0.059 A 
ATOM     84  F   UNL     1       0.082  11.152  -3.622  1.00  0.00    -0.206 F 
ATOM     85  C   UNL     1       1.013  12.723  -6.743  1.00  0.00     0.060 A 
BRANCH  85  86
ATOM     86  S   UNL     1       0.715  12.547  -8.516  1.00  0.00     0.124 S 
ATOM     87  O   UNL     1      -0.175  13.672  -8.776  1.00  0.00    -0.237 OA
ATOM     88  O   UNL     1       2.062  12.657  -9.067  1.00  0.00    -0.237 OA
ATOM     89  O   UNL     1       0.110  11.223  -8.623  1.00  0.00    -0.744 OA
ENDBRANCH  85  86
ENDBRANCH  53  78
BRANCH  65  90
ATOM     90  C   UNL     1       0.027  17.718   0.868  1.00  0.00     0.058 A 
ATOM     91  C   UNL     1      -1.373  17.765   0.783  1.00  0.00     0.135 A 
ATOM     92  C   UNL     1       0.722  18.934   0.963  1.00  0.00     0.135 A 
ATOM     93  F   UNL     1      -2.082  16.629   0.682  1.00  0.00    -0.206 F 
ATOM     94  C   UNL     1      -2.059  18.975   0.777  1.00  0.00     0.059 A 
ATOM     95  C   UNL     1       0.055  20.155   0.981  1.00  0.00     0.059 A 
ATOM     96  F   UNL     1       2.061  18.942   1.056  1.00  0.00    -0.206 F 
ATOM     97  C   UNL     1      -1.335  20.165   0.877  1.00  0.00     0.060 A 
BRANCH  97  98
ATOM     98  S   UNL     1      -2.237  21.729   0.908  1.00  0.00     0.124 S 
ATOM     99  O   UNL     1      -2.582  21.897  -0.499  1.00  0.00    -0.237 OA
ATOM    100  O   UNL     1      -3.352  21.433   1.803  1.00  0.00    -0.237 OA
ATOM    101  O   UNL     1      -1.256  22.675   1.432  1.00  0.00    -0.744 OA
ENDBRANCH  97  98
ENDBRANCH  65  90
ENDBRANCH  39  40
ENDBRANCH  31  34
ENDBRANCH  29  30
ENDBRANCH  28  29
ENDBRANCH   1  28
TORSDOF 17
