REMARK SMILES C[C@H]1c2ccc(O)cc2OC(=O)[C@@H]1CC(=O)N[C@@H](CC1=c2ccccc2=NC1)C(=O)NCCCCNC(=O)c1ccc(-c2c3nc(c(-c4c(F)cc(S(=O)(=O)[O-])cc4F)c4ccc([nH]4)c(-c4c(F)cc(S(=O)(=O)[O-])cc4F)c4nc(c(-c5c(F)cc(S(=O)(=O)[O-])cc5F)c5ccc2[nH]5)C=C4)C=C3)cc1
REMARK SMILES IDX 33 1 32 2 31 3 29 4 30 5 18 7 17 8 15 9 16 10 14 12 13 13
REMARK SMILES IDX 1 14 2 15 3 16 4 17 9 18 11 19 5 20 8 21 10 22 12 23 6 24
REMARK SMILES IDX 7 25 19 27 20 28 21 29 28 30 22 31 26 32 27 33 23 34 25 35
REMARK SMILES IDX 24 36 34 37 35 38 36 39 37 40 38 42 39 43 40 44 104 45 41 46
REMARK SMILES IDX 103 47 42 48 43 49 44 50 97 51 45 52 102 53 96 54 98 55
REMARK SMILES IDX 46 56 101 57 95 58 94 59 47 61 81 62 60 63 80 64 61 65 64 66
REMARK SMILES IDX 79 67 99 68 62 69 63 70 78 72 100 73 65 74 48 75 49 76 58 77
REMARK SMILES IDX 50 78 51 79 57 80 59 81 52 82 53 83 54 84 55 85 56 86 82 87
REMARK SMILES IDX 83 88 92 89 84 90 85 91 91 92 93 93 86 94 87 95 88 96 89 97
REMARK SMILES IDX 90 98 66 99 67 100 76 101 68 102 69 103 75 104 77 105 70 106
REMARK SMILES IDX 71 107 72 108 73 109 74 110
REMARK H PARENT 31 6 17 11 7 26 36 41 98 60 64 71
REMARK Flexibility Score: inf
ROOT
ATOM      1  C   UNL     1      -4.172  -4.772   6.324  1.00  0.00     0.023 C 
ENDROOT
BRANCH   1   2
ATOM      2  C   UNL     1      -2.787  -4.543   5.741  1.00  0.00     0.116 C 
BRANCH   2   3
ATOM      3  N   UNL     1      -2.452  -5.331   4.590  1.00  0.00    -0.354 N 
ATOM      4  C   UNL     1      -1.453  -5.079   3.692  1.00  0.00     0.242 C 
ATOM      5  O   UNL     1      -1.167  -5.978   2.894  1.00  0.00    -0.273 OA
ATOM      6  H   UNL     1      -2.998  -6.135   4.430  1.00  0.00     0.163 HD
BRANCH   4   7
ATOM      7  C   UNL     1      -0.623  -3.762   3.716  1.00  0.00     0.175 C 
BRANCH   7   8
ATOM      8  N   UNL     1      -1.431  -2.533   3.586  1.00  0.00    -0.344 N 
ATOM      9  C   UNL     1      -1.792  -1.794   2.503  1.00  0.00     0.221 C 
ATOM     10  O   UNL     1      -2.537  -0.827   2.676  1.00  0.00    -0.275 OA
ATOM     11  H   UNL     1      -1.772  -2.185   4.441  1.00  0.00     0.164 HD
BRANCH   9  12
ATOM     12  C   UNL     1      -1.262  -2.109   1.121  1.00  0.00     0.116 C 
BRANCH  12  13
ATOM     13  C   UNL     1       0.012  -1.296   0.822  1.00  0.00     0.116 C 
ATOM     14  C   UNL     1       1.512  -0.214  -0.930  1.00  0.00     0.014 C 
ATOM     15  C   UNL     1       0.368  -1.205  -0.673  1.00  0.00     0.034 C 
ATOM     16  C   UNL     1       0.732  -2.580  -1.170  1.00  0.00    -0.001 A 
ATOM     17  C   UNL     1       0.511  -2.975  -2.492  1.00  0.00     0.011 A 
ATOM     18  C   UNL     1       1.263  -3.511  -0.272  1.00  0.00     0.138 A 
ATOM     19  C   UNL     1       1.193  -1.912   1.521  1.00  0.00     0.315 C 
ATOM     20  C   UNL     1       0.758  -4.296  -2.876  1.00  0.00     0.047 A 
ATOM     21  C   UNL     1       1.493  -4.832  -0.634  1.00  0.00     0.093 A 
ATOM     22  O   UNL     1       1.609  -3.140   1.036  1.00  0.00    -0.426 OA
ATOM     23  O   UNL     1       1.734  -1.392   2.486  1.00  0.00    -0.251 OA
ATOM     24  C   UNL     1       1.221  -5.218  -1.938  1.00  0.00     0.119 A 
BRANCH  24  25
ATOM     25  O   UNL     1       1.426  -6.524  -2.267  1.00  0.00    -0.508 OA
ATOM     26  H   UNL     1       1.253  -6.820  -3.139  1.00  0.00     0.293 HD
ENDBRANCH  24  25
ENDBRANCH  12  13
ENDBRANCH   9  12
ENDBRANCH   7   8
BRANCH   7  27
ATOM     27  C   UNL     1       0.439  -3.742   4.879  1.00  0.00     0.068 C 
BRANCH  27  28
ATOM     28  C   UNL     1       0.482  -2.515   5.757  1.00  0.00    -0.037 C 
ATOM     29  C   UNL     1      -0.345  -2.027   6.679  1.00  0.00     0.001 A 
ATOM     30  C   UNL     1       1.595  -1.510   5.617  1.00  0.00     0.174 C 
ATOM     31  C   UNL     1      -1.378  -2.460   7.556  1.00  0.00     0.010 A 
ATOM     32  C   UNL     1      -0.154  -0.580   6.428  1.00  0.00     0.065 A 
ATOM     33  N   UNL     1       0.946  -0.205   5.853  1.00  0.00    -0.280 NA
ATOM     34  C   UNL     1      -2.305  -1.579   7.967  1.00  0.00     0.001 A 
ATOM     35  C   UNL     1      -1.327   0.279   6.712  1.00  0.00     0.028 A 
ATOM     36  C   UNL     1      -2.352  -0.241   7.408  1.00  0.00     0.002 A 
ENDBRANCH  27  28
ENDBRANCH   7  27
ENDBRANCH   4   7
ENDBRANCH   2   3
ENDBRANCH   1   2
BRANCH   1  37
ATOM     37  C   UNL     1      -4.343  -6.061   7.117  1.00  0.00     0.023 C 
BRANCH  37  38
ATOM     38  C   UNL     1      -3.306  -6.322   8.202  1.00  0.00     0.116 C 
BRANCH  38  39
ATOM     39  N   UNL     1      -3.200  -5.272   9.213  1.00  0.00    -0.352 N 
ATOM     40  C   UNL     1      -3.146  -5.398  10.585  1.00  0.00     0.251 C 
ATOM     41  H   UNL     1      -3.163  -4.350   8.868  1.00  0.00     0.163 HD
ATOM     42  O   UNL     1      -3.035  -4.411  11.307  1.00  0.00    -0.269 OA
BRANCH  40  43
ATOM     43  C   UNL     1      -3.320  -6.745  11.159  1.00  0.00     0.039 A 
ATOM     44  C   UNL     1      -2.499  -7.783  10.722  1.00  0.00     0.014 A 
ATOM     45  C   UNL     1      -4.465  -7.001  11.917  1.00  0.00     0.014 A 
ATOM     46  C   UNL     1      -2.972  -9.085  10.815  1.00  0.00     0.010 A 
ATOM     47  C   UNL     1      -4.875  -8.322  12.106  1.00  0.00     0.010 A 
ATOM     48  C   UNL     1      -4.183  -9.368  11.477  1.00  0.00    -0.014 A 
BRANCH  48  49
ATOM     49  C   UNL     1      -4.734 -10.750  11.437  1.00  0.00     0.031 A 
ATOM     50  C   UNL     1      -6.071 -11.037  10.795  1.00  0.00     0.074 A 
ATOM     51  C   UNL     1      -3.986 -11.764  11.911  1.00  0.00     0.049 A 
ATOM     52  N   UNL     1      -6.707 -12.178  10.691  1.00  0.00    -0.248 NA
ATOM     53  C   UNL     1      -6.794  -9.903  10.196  1.00  0.00     0.031 C 
ATOM     54  C   UNL     1      -2.666 -11.617  12.529  1.00  0.00     0.029 A 
ATOM     55  N   UNL     1      -4.206 -13.117  11.918  1.00  0.00    -0.354 N 
ATOM     56  C   UNL     1      -7.912 -11.895  10.055  1.00  0.00     0.074 A 
ATOM     57  C   UNL     1      -7.929 -10.470   9.807  1.00  0.00     0.031 C 
ATOM     58  C   UNL     1      -2.163 -12.832  12.787  1.00  0.00     0.029 A 
ATOM     59  C   UNL     1      -3.158 -13.839  12.437  1.00  0.00     0.049 A 
ATOM     60  H   UNL     1      -5.035 -13.531  11.585  1.00  0.00     0.167 HD
ATOM     61  C   UNL     1      -8.907 -12.745   9.705  1.00  0.00     0.037 A 
ATOM     62  C   UNL     1      -3.017 -15.163  12.633  1.00  0.00     0.037 A 
ATOM     63  C   UNL     1      -8.864 -14.171   9.915  1.00  0.00     0.049 A 
ATOM     64  C   UNL     1      -4.142 -16.080  12.261  1.00  0.00     0.074 A 
ATOM     65  C   UNL     1      -9.814 -15.120   9.579  1.00  0.00     0.029 A 
ATOM     66  N   UNL     1      -7.810 -14.854  10.503  1.00  0.00    -0.354 N 
ATOM     67  N   UNL     1      -5.289 -15.786  11.698  1.00  0.00    -0.248 NA
ATOM     68  C   UNL     1      -3.966 -17.504  12.572  1.00  0.00     0.031 C 
ATOM     69  C   UNL     1      -9.350 -16.372   9.996  1.00  0.00     0.029 A 
ATOM     70  C   UNL     1      -8.093 -16.209  10.555  1.00  0.00     0.049 A 
ATOM     71  H   UNL     1      -6.982 -14.437  10.835  1.00  0.00     0.167 HD
ATOM     72  C   UNL     1      -5.976 -16.988  11.589  1.00  0.00     0.074 A 
ATOM     73  C   UNL     1      -5.104 -18.017  12.121  1.00  0.00     0.031 C 
ATOM     74  C   UNL     1      -7.219 -17.217  11.100  1.00  0.00     0.037 A 
BRANCH  61  75
ATOM     75  C   UNL     1     -10.143 -12.166   9.068  1.00  0.00     0.058 A 
ATOM     76  C   UNL     1     -10.150 -11.714   7.740  1.00  0.00     0.135 A 
ATOM     77  C   UNL     1     -11.354 -12.121   9.780  1.00  0.00     0.135 A 
ATOM     78  F   UNL     1      -9.019 -11.720   7.018  1.00  0.00    -0.206 F 
ATOM     79  C   UNL     1     -11.309 -11.222   7.145  1.00  0.00     0.059 A 
ATOM     80  C   UNL     1     -12.530 -11.652   9.198  1.00  0.00     0.059 A 
ATOM     81  F   UNL     1     -11.405 -12.541  11.054  1.00  0.00    -0.206 F 
ATOM     82  C   UNL     1     -12.494 -11.195   7.882  1.00  0.00     0.060 A 
BRANCH  82  83
ATOM     83  S   UNL     1     -13.989 -10.559   7.092  1.00  0.00     0.124 S 
ATOM     84  O   UNL     1     -13.699  -9.129   7.034  1.00  0.00    -0.237 OA
ATOM     85  O   UNL     1     -13.986 -11.257   5.811  1.00  0.00    -0.237 OA
ATOM     86  O   UNL     1     -15.053 -10.946   8.012  1.00  0.00    -0.744 OA
ENDBRANCH  82  83
ENDBRANCH  61  75
BRANCH  62  87
ATOM     87  C   UNL     1      -1.758 -15.677  13.228  1.00  0.00     0.058 A 
ATOM     88  C   UNL     1      -0.831 -16.384  12.450  1.00  0.00     0.135 A 
ATOM     89  C   UNL     1      -1.425 -15.407  14.565  1.00  0.00     0.135 A 
ATOM     90  F   UNL     1      -1.109 -16.669  11.169  1.00  0.00    -0.206 F 
ATOM     91  C   UNL     1       0.389 -16.797  12.974  1.00  0.00     0.059 A 
ATOM     92  C   UNL     1      -0.202 -15.787  15.104  1.00  0.00     0.059 A 
ATOM     93  F   UNL     1      -2.275 -14.718  15.343  1.00  0.00    -0.206 F 
ATOM     94  C   UNL     1       0.698 -16.484  14.300  1.00  0.00     0.060 A 
BRANCH  94  95
ATOM     95  S   UNL     1       2.322 -16.944  14.943  1.00  0.00     0.124 S 
ATOM     96  O   UNL     1       2.170 -18.383  15.118  1.00  0.00    -0.237 OA
ATOM     97  O   UNL     1       3.209 -16.521  13.864  1.00  0.00    -0.237 OA
ATOM     98  O   UNL     1       2.428 -16.163  16.172  1.00  0.00    -0.744 OA
ENDBRANCH  94  95
ENDBRANCH  62  87
BRANCH  74  99
ATOM     99  C   UNL     1      -7.713 -18.634  11.121  1.00  0.00     0.058 A 
ATOM    100  C   UNL     1      -8.144 -19.237  12.312  1.00  0.00     0.135 A 
ATOM    101  C   UNL     1      -7.803 -19.378   9.934  1.00  0.00     0.135 A 
ATOM    102  F   UNL     1      -8.067 -18.569  13.474  1.00  0.00    -0.206 F 
ATOM    103  C   UNL     1      -8.636 -20.537  12.329  1.00  0.00     0.059 A 
ATOM    104  C   UNL     1      -8.313 -20.672   9.924  1.00  0.00     0.059 A 
ATOM    105  F   UNL     1      -7.409 -18.842   8.768  1.00  0.00    -0.206 F 
ATOM    106  C   UNL     1      -8.719 -21.246  11.129  1.00  0.00     0.060 A 
BRANCH 106 107
ATOM    107  S   UNL     1      -9.396 -22.919  11.160  1.00  0.00     0.124 S 
ATOM    108  O   UNL     1      -8.302 -23.667  11.772  1.00  0.00    -0.237 OA
ATOM    109  O   UNL     1     -10.591 -22.758  11.982  1.00  0.00    -0.237 OA
ATOM    110  O   UNL     1      -9.645 -23.211   9.752  1.00  0.00    -0.744 OA
ENDBRANCH 106 107
ENDBRANCH  74  99
ENDBRANCH  48  49
ENDBRANCH  40  43
ENDBRANCH  38  39
ENDBRANCH  37  38
ENDBRANCH   1  37
TORSDOF 20
