REMARK SMILES Cc1ccc(-n2nc(C(=O)NCCCCNC(=O)c3ccc(-c4c5nc(c(-c6c(F)cc(S(=O)(=O)[O-])cc6F)c6ccc([nH]6)c(-c6c(F)cc(S(=O)(=O)[O-])cc6F)c6nc(c(-c7c(F)cc(S(=O)(=O)[O-])cc7F)c7ccc4[nH]7)C=C6)C=C5)cc3)c(C)c(C#N)c2=O)cc1Cl
REMARK SMILES IDX 14 1 13 2 12 3 11 4 9 5 10 6 8 8 6 9 7 10 90 11 87 12 91 13
REMARK SMILES IDX 85 14 86 15 5 16 1 17 2 18 3 19 93 20 4 21 92 22 94 23 88 24
REMARK SMILES IDX 89 25 15 26 16 27 17 28 18 30 19 31 20 32 84 33 21 34 83 35
REMARK SMILES IDX 22 36 23 37 24 38 77 39 25 40 82 41 76 42 78 43 26 44 81 45
REMARK SMILES IDX 75 46 74 47 27 49 61 50 40 51 60 52 41 53 44 54 59 55 79 56
REMARK SMILES IDX 42 57 43 58 58 60 80 61 45 62 28 63 29 64 38 65 30 66 31 67
REMARK SMILES IDX 37 68 39 69 32 70 33 71 34 72 35 73 36 74 62 75 63 76 72 77
REMARK SMILES IDX 64 78 65 79 71 80 73 81 66 82 67 83 68 84 69 85 70 86 46 87
REMARK SMILES IDX 47 88 56 89 48 90 49 91 55 92 57 93 50 94 51 95 52 96 53 97
REMARK SMILES IDX 54 98
REMARK H PARENT 11 7 16 29 78 48 44 59
REMARK Flexibility Score: inf
ROOT
ATOM      1  C   UNL     1      -4.511  -9.803   1.648  1.00  0.00     0.023 C 
ENDROOT
BRANCH   1   2
ATOM      2  C   UNL     1      -4.407  -8.461   0.940  1.00  0.00     0.023 C 
BRANCH   2   3
ATOM      3  C   UNL     1      -4.778  -7.292   1.848  1.00  0.00     0.116 C 
BRANCH   3   4
ATOM      4  N   UNL     1      -3.645  -6.479   2.172  1.00  0.00    -0.351 N 
ATOM      5  C   UNL     1      -3.163  -5.256   1.829  1.00  0.00     0.272 C 
ATOM      6  O   UNL     1      -2.336  -4.828   2.647  1.00  0.00    -0.267 OA
ATOM      7  H   UNL     1      -3.054  -6.929   2.818  1.00  0.00     0.163 HD
BRANCH   5   8
ATOM      8  C   UNL     1      -3.451  -4.351   0.600  1.00  0.00     0.153 A 
ATOM      9  N   UNL     1      -2.722  -2.337  -0.279  1.00  0.00    -0.195 N 
ATOM     10  N   UNL     1      -2.622  -3.341   0.618  1.00  0.00    -0.159 NA
ATOM     11  C   UNL     1      -3.609  -2.326  -1.334  1.00  0.00     0.289 A 
ATOM     12  C   UNL     1      -4.475  -3.513  -1.431  1.00  0.00     0.124 A 
ATOM     13  O   UNL     1      -3.700  -1.435  -2.178  1.00  0.00    -0.266 OA
ATOM     14  C   UNL     1      -4.477  -4.492  -0.499  1.00  0.00     0.006 A 
ATOM     15  C   UNL     1      -5.440  -5.617  -0.653  1.00  0.00     0.048 C 
BRANCH   9  16
ATOM     16  C   UNL     1      -1.882  -1.228  -0.023  1.00  0.00     0.070 A 
ATOM     17  C   UNL     1       0.663   2.239   0.088  1.00  0.00     0.046 C 
ATOM     18  C   UNL     1      -0.207   1.017   0.137  1.00  0.00    -0.032 A 
ATOM     19  C   UNL     1      -1.591   1.176   0.011  1.00  0.00     0.007 A 
ATOM     20  C   UNL     1       0.320  -0.282   0.250  1.00  0.00     0.046 A 
ATOM     21  C   UNL     1      -2.417   0.062  -0.082  1.00  0.00     0.029 A 
ATOM     22  C   UNL     1      -0.516  -1.402   0.211  1.00  0.00     0.049 A 
ATOM     23  Cl  UNL     1       2.024  -0.547   0.365  1.00  0.00    -0.084 Cl
ENDBRANCH   9  16
BRANCH  12  24
ATOM     24  C   UNL     1      -5.323  -3.532  -2.583  1.00  0.00     0.105 C 
ATOM     25  N   UNL     1      -6.021  -3.604  -3.503  1.00  0.00    -0.192 NA
ENDBRANCH  12  24
ENDBRANCH   5   8
ENDBRANCH   3   4
ENDBRANCH   2   3
ENDBRANCH   1   2
BRANCH   1  26
ATOM     26  C   UNL     1      -5.893 -10.088   2.214  1.00  0.00     0.116 C 
BRANCH  26  27
ATOM     27  N   UNL     1      -6.943 -10.161   1.207  1.00  0.00    -0.352 N 
ATOM     28  C   UNL     1      -7.965 -11.083   1.144  1.00  0.00     0.251 C 
ATOM     29  H   UNL     1      -6.920  -9.480   0.496  1.00  0.00     0.163 HD
ATOM     30  O   UNL     1      -8.754 -11.094   0.209  1.00  0.00    -0.269 OA
BRANCH  28  31
ATOM     31  C   UNL     1      -8.030 -12.092   2.219  1.00  0.00     0.039 A 
ATOM     32  C   UNL     1      -7.892 -13.437   1.881  1.00  0.00     0.014 A 
ATOM     33  C   UNL     1      -8.015 -11.678   3.554  1.00  0.00     0.014 A 
ATOM     34  C   UNL     1      -7.662 -14.366   2.893  1.00  0.00     0.010 A 
ATOM     35  C   UNL     1      -7.666 -12.589   4.542  1.00  0.00     0.010 A 
ATOM     36  C   UNL     1      -7.497 -13.945   4.226  1.00  0.00    -0.014 A 
BRANCH  36  37
ATOM     37  C   UNL     1      -7.167 -14.927   5.290  1.00  0.00     0.031 A 
ATOM     38  C   UNL     1      -8.123 -15.139   6.431  1.00  0.00     0.074 A 
ATOM     39  C   UNL     1      -6.016 -15.628   5.226  1.00  0.00     0.049 A 
ATOM     40  N   UNL     1      -8.050 -15.998   7.413  1.00  0.00    -0.248 NA
ATOM     41  C   UNL     1      -9.305 -14.261   6.494  1.00  0.00     0.031 C 
ATOM     42  C   UNL     1      -4.981 -15.465   4.201  1.00  0.00     0.029 A 
ATOM     43  N   UNL     1      -5.528 -16.632   6.026  1.00  0.00    -0.354 N 
ATOM     44  C   UNL     1      -9.177 -15.774   8.194  1.00  0.00     0.074 A 
ATOM     45  C   UNL     1      -9.870 -14.641   7.629  1.00  0.00     0.031 C 
ATOM     46  C   UNL     1      -4.016 -16.378   4.398  1.00  0.00     0.029 A 
ATOM     47  C   UNL     1      -4.339 -17.167   5.583  1.00  0.00     0.049 A 
ATOM     48  H   UNL     1      -5.986 -16.941   6.841  1.00  0.00     0.167 HD
ATOM     49  C   UNL     1      -9.622 -16.480   9.257  1.00  0.00     0.037 A 
ATOM     50  C   UNL     1      -3.600 -18.185   6.069  1.00  0.00     0.037 A 
ATOM     51  C   UNL     1      -8.938 -17.620   9.801  1.00  0.00     0.049 A 
ATOM     52  C   UNL     1      -4.096 -18.932   7.281  1.00  0.00     0.074 A 
ATOM     53  C   UNL     1      -9.328 -18.429  10.852  1.00  0.00     0.029 A 
ATOM     54  N   UNL     1      -7.725 -18.110   9.342  1.00  0.00    -0.354 N 
ATOM     55  N   UNL     1      -5.208 -18.757   7.955  1.00  0.00    -0.248 NA
ATOM     56  C   UNL     1      -3.244 -20.012   7.799  1.00  0.00     0.031 C 
ATOM     57  C   UNL     1      -8.319 -19.369  11.071  1.00  0.00     0.029 A 
ATOM     58  C   UNL     1      -7.333 -19.190  10.113  1.00  0.00     0.049 A 
ATOM     59  H   UNL     1      -7.218 -17.744   8.582  1.00  0.00     0.167 HD
ATOM     60  C   UNL     1      -5.201 -19.720   8.959  1.00  0.00     0.074 A 
ATOM     61  C   UNL     1      -3.981 -20.483   8.797  1.00  0.00     0.031 C 
ATOM     62  C   UNL     1      -6.121 -19.948   9.928  1.00  0.00     0.037 A 
BRANCH  49  63
ATOM     63  C   UNL     1     -10.921 -16.059   9.887  1.00  0.00     0.058 A 
ATOM     64  C   UNL     1     -12.146 -16.226   9.222  1.00  0.00     0.135 A 
ATOM     65  C   UNL     1     -10.949 -15.546  11.194  1.00  0.00     0.135 A 
ATOM     66  F   UNL     1     -12.175 -16.693   7.963  1.00  0.00    -0.206 F 
ATOM     67  C   UNL     1     -13.351 -15.883   9.822  1.00  0.00     0.059 A 
ATOM     68  C   UNL     1     -12.147 -15.227  11.826  1.00  0.00     0.059 A 
ATOM     69  F   UNL     1      -9.806 -15.360  11.872  1.00  0.00    -0.206 F 
ATOM     70  C   UNL     1     -13.342 -15.392  11.128  1.00  0.00     0.060 A 
BRANCH  70  71
ATOM     71  S   UNL     1     -14.921 -14.980  11.897  1.00  0.00     0.124 S 
ATOM     72  O   UNL     1     -15.349 -13.840  11.091  1.00  0.00    -0.237 OA
ATOM     73  O   UNL     1     -15.684 -16.209  11.710  1.00  0.00    -0.237 OA
ATOM     74  O   UNL     1     -14.560 -14.670  13.276  1.00  0.00    -0.744 OA
ENDBRANCH  70  71
ENDBRANCH  49  63
BRANCH  50  75
ATOM     75  C   UNL     1      -2.334 -18.580   5.390  1.00  0.00     0.058 A 
ATOM     76  C   UNL     1      -2.219 -19.813   4.729  1.00  0.00     0.135 A 
ATOM     77  C   UNL     1      -1.218 -17.727   5.370  1.00  0.00     0.135 A 
ATOM     78  F   UNL     1      -3.252 -20.670   4.723  1.00  0.00    -0.206 F 
ATOM     79  C   UNL     1      -1.044 -20.191   4.085  1.00  0.00     0.059 A 
ATOM     80  C   UNL     1      -0.043 -18.070   4.707  1.00  0.00     0.059 A 
ATOM     81  F   UNL     1      -1.277 -16.530   5.974  1.00  0.00    -0.206 F 
ATOM     82  C   UNL     1       0.037 -19.308   4.074  1.00  0.00     0.060 A 
BRANCH  82  83
ATOM     83  S   UNL     1       1.538 -19.791   3.193  1.00  0.00     0.124 S 
ATOM     84  O   UNL     1       2.014 -20.902   4.008  1.00  0.00    -0.237 OA
ATOM     85  O   UNL     1       1.015 -20.141   1.876  1.00  0.00    -0.237 OA
ATOM     86  O   UNL     1       2.356 -18.582   3.234  1.00  0.00    -0.744 OA
ENDBRANCH  82  83
ENDBRANCH  50  75
BRANCH  62  87
ATOM     87  C   UNL     1      -5.873 -21.074  10.894  1.00  0.00     0.058 A 
ATOM     88  C   UNL     1      -4.908 -20.969  11.907  1.00  0.00     0.135 A 
ATOM     89  C   UNL     1      -6.705 -22.206  10.893  1.00  0.00     0.135 A 
ATOM     90  F   UNL     1      -4.084 -19.910  11.949  1.00  0.00    -0.206 F 
ATOM     91  C   UNL     1      -4.781 -21.945  12.889  1.00  0.00     0.059 A 
ATOM     92  C   UNL     1      -6.616 -23.178  11.883  1.00  0.00     0.059 A 
ATOM     93  F   UNL     1      -7.653 -22.348   9.952  1.00  0.00    -0.206 F 
ATOM     94  C   UNL     1      -5.651 -23.037  12.879  1.00  0.00     0.060 A 
BRANCH  94  95
ATOM     95  S   UNL     1      -5.527 -24.245  14.214  1.00  0.00     0.124 S 
ATOM     96  O   UNL     1      -4.225 -24.848  13.947  1.00  0.00    -0.237 OA
ATOM     97  O   UNL     1      -5.605 -23.401  15.401  1.00  0.00    -0.237 OA
ATOM     98  O   UNL     1      -6.677 -25.118  13.994  1.00  0.00    -0.744 OA
ENDBRANCH  94  95
ENDBRANCH  62  87
ENDBRANCH  36  37
ENDBRANCH  28  31
ENDBRANCH  26  27
ENDBRANCH   1  26
TORSDOF 16
