REMARK SMILES [NH3+][C@]1(C(=O)NCCCCNC(=O)c2ccc(-c3c4nc(c(-c5c(F)cc(S(=O)(=O)[O-])cc5F)c5ccc([nH]5)c(-c5c(F)cc(S(=O)(=O)[O-])cc5F)c5nc(c(-c6c(F)cc(S(=O)(=O)[O-])cc6F)c6ccc3[nH]6)C=C5)C=C4)cc2)CC[C@@H](Sc2cc3ccccc3[nH]2)C1
REMARK SMILES IDX 8 1 7 2 6 3 5 4 3 5 4 6 2 8 79 9 92 10 80 11 81 12 1 13
REMARK SMILES IDX 82 17 83 18 84 19 91 20 85 21 90 22 86 24 89 25 87 26 88 27
REMARK SMILES IDX 9 28 10 29 11 30 12 32 13 33 14 34 78 35 15 36 77 37 16 38
REMARK SMILES IDX 17 39 18 40 71 41 19 42 76 43 70 44 72 45 20 46 75 47 69 48
REMARK SMILES IDX 68 49 21 51 55 52 34 53 54 54 35 55 38 56 53 57 73 58 36 59
REMARK SMILES IDX 37 60 52 62 74 63 39 64 22 65 23 66 32 67 24 68 25 69 31 70
REMARK SMILES IDX 33 71 26 72 27 73 28 74 29 75 30 76 56 77 57 78 66 79 58 80
REMARK SMILES IDX 59 81 65 82 67 83 60 84 61 85 62 86 63 87 64 88 40 89 41 90
REMARK SMILES IDX 50 91 42 92 43 93 49 94 51 95 44 96 45 97 46 98 47 99 48 100
REMARK H PARENT 5 7 1 14 1 15 1 16 91 23 10 31 72 50 38 61
REMARK Flexibility Score: inf
ROOT
ATOM      1  C   UNL     1       4.876   1.569  -0.421  1.00  0.00     0.023 C 
ENDROOT
BRANCH   1   2
ATOM      2  C   UNL     1       3.844   1.199   0.640  1.00  0.00     0.023 C 
BRANCH   2   3
ATOM      3  C   UNL     1       2.464   1.838   0.489  1.00  0.00     0.116 C 
BRANCH   3   4
ATOM      4  N   UNL     1       1.613   1.045  -0.374  1.00  0.00    -0.351 N 
ATOM      5  C   UNL     1       0.876  -0.072  -0.152  1.00  0.00     0.281 C 
ATOM      6  O   UNL     1       0.299  -0.544  -1.143  1.00  0.00    -0.268 OA
ATOM      7  H   UNL     1       1.558   1.381  -1.298  1.00  0.00     0.163 HD
BRANCH   5   8
ATOM      8  C   UNL     1       0.618  -0.718   1.243  1.00  0.00     0.175 C 
ATOM      9  C   UNL     1       0.947  -2.223   1.147  1.00  0.00     0.080 C 
ATOM     10  C   UNL     1       1.422  -0.318   2.476  1.00  0.00     0.094 C 
ATOM     11  C   UNL     1       0.958  -2.733   2.583  1.00  0.00     0.022 C 
ATOM     12  C   UNL     1       1.351  -1.520   3.417  1.00  0.00     0.060 C 
BRANCH   8  13
ATOM     13  N   UNL     1      -0.830  -0.554   1.549  1.00  0.00    -0.345 N 
ATOM     14  H   UNL     1      -1.034  -0.968   2.459  1.00  0.00     0.345 HD
ATOM     15  H   UNL     1      -1.383  -1.022   0.831  1.00  0.00     0.345 HD
ATOM     16  H   UNL     1      -1.063   0.438   1.566  1.00  0.00     0.345 HD
ENDBRANCH   8  13
BRANCH  12  17
ATOM     17  S   UNL     1       2.828  -1.709   4.428  1.00  0.00    -0.105 SA
BRANCH  17  18
ATOM     18  C   UNL     1       4.120  -2.329   3.445  1.00  0.00     0.073 A 
ATOM     19  C   UNL     1       5.072  -1.718   2.652  1.00  0.00     0.043 A 
ATOM     20  N   UNL     1       4.694  -3.492   3.894  1.00  0.00    -0.350 N 
ATOM     21  C   UNL     1       6.328  -2.181   3.171  1.00  0.00     0.001 A 
ATOM     22  C   UNL     1       6.040  -3.229   4.044  1.00  0.00     0.046 A 
ATOM     23  H   UNL     1       4.236  -4.344   4.073  1.00  0.00     0.167 HD
ATOM     24  C   UNL     1       7.645  -1.684   3.124  1.00  0.00     0.010 A 
ATOM     25  C   UNL     1       6.965  -3.758   4.944  1.00  0.00     0.027 A 
ATOM     26  C   UNL     1       8.571  -2.157   4.066  1.00  0.00     0.001 A 
ATOM     27  C   UNL     1       8.225  -3.158   4.975  1.00  0.00     0.002 A 
ENDBRANCH  17  18
ENDBRANCH  12  17
ENDBRANCH   5   8
ENDBRANCH   3   4
ENDBRANCH   2   3
ENDBRANCH   1   2
BRANCH   1  28
ATOM     28  C   UNL     1       5.286   3.032  -0.425  1.00  0.00     0.116 C 
BRANCH  28  29
ATOM     29  N   UNL     1       5.890   3.483   0.819  1.00  0.00    -0.352 N 
ATOM     30  C   UNL     1       6.779   4.526   0.994  1.00  0.00     0.251 C 
ATOM     31  H   UNL     1       5.636   2.987   1.631  1.00  0.00     0.163 HD
ATOM     32  O   UNL     1       7.274   4.745   2.085  1.00  0.00    -0.269 OA
BRANCH  30  33
ATOM     33  C   UNL     1       7.161   5.333  -0.189  1.00  0.00     0.039 A 
ATOM     34  C   UNL     1       8.516   5.511  -0.473  1.00  0.00     0.014 A 
ATOM     35  C   UNL     1       6.185   5.838  -1.050  1.00  0.00     0.014 A 
ATOM     36  C   UNL     1       8.892   6.125  -1.670  1.00  0.00     0.010 A 
ATOM     37  C   UNL     1       6.560   6.373  -2.277  1.00  0.00     0.010 A 
ATOM     38  C   UNL     1       7.917   6.520  -2.602  1.00  0.00    -0.014 A 
BRANCH  38  39
ATOM     39  C   UNL     1       8.292   7.084  -3.924  1.00  0.00     0.031 A 
ATOM     40  C   UNL     1       7.885   8.487  -4.285  1.00  0.00     0.074 A 
ATOM     41  C   UNL     1       8.919   6.305  -4.829  1.00  0.00     0.049 A 
ATOM     42  N   UNL     1       8.040   9.126  -5.415  1.00  0.00    -0.248 NA
ATOM     43  C   UNL     1       7.179   9.262  -3.251  1.00  0.00     0.031 C 
ATOM     44  C   UNL     1       9.303   4.905  -4.623  1.00  0.00     0.029 A 
ATOM     45  N   UNL     1       9.330   6.572  -6.111  1.00  0.00    -0.354 N 
ATOM     46  C   UNL     1       7.430  10.362  -5.238  1.00  0.00     0.074 A 
ATOM     47  C   UNL     1       6.862  10.368  -3.908  1.00  0.00     0.031 C 
ATOM     48  C   UNL     1       9.907   4.445  -5.731  1.00  0.00     0.029 A 
ATOM     49  C   UNL     1       9.925   5.502  -6.738  1.00  0.00     0.049 A 
ATOM     50  H   UNL     1       9.210   7.449  -6.542  1.00  0.00     0.167 HD
ATOM     51  C   UNL     1       7.368  11.406  -6.098  1.00  0.00     0.037 A 
ATOM     52  C   UNL     1      10.421   5.383  -7.985  1.00  0.00     0.037 A 
ATOM     53  C   UNL     1       7.981  11.412  -7.400  1.00  0.00     0.049 A 
ATOM     54  C   UNL     1      10.376   6.573  -8.907  1.00  0.00     0.074 A 
ATOM     55  C   UNL     1       8.060  12.454  -8.307  1.00  0.00     0.029 A 
ATOM     56  N   UNL     1       8.621  10.327  -7.979  1.00  0.00    -0.354 N 
ATOM     57  N   UNL     1       9.876   7.766  -8.688  1.00  0.00    -0.248 NA
ATOM     58  C   UNL     1      10.971   6.406 -10.240  1.00  0.00     0.031 C 
ATOM     59  C   UNL     1       8.713  11.987  -9.453  1.00  0.00     0.029 A 
ATOM     60  C   UNL     1       9.079  10.667  -9.241  1.00  0.00     0.049 A 
ATOM     61  H   UNL     1       8.733   9.445  -7.557  1.00  0.00     0.167 HD
ATOM     62  C   UNL     1      10.120   8.498  -9.845  1.00  0.00     0.074 A 
ATOM     63  C   UNL     1      10.823   7.619 -10.755  1.00  0.00     0.031 C 
ATOM     64  C   UNL     1       9.791   9.782 -10.128  1.00  0.00     0.037 A 
BRANCH  51  65
ATOM     65  C   UNL     1       6.624  12.635  -5.658  1.00  0.00     0.058 A 
ATOM     66  C   UNL     1       7.131  13.490  -4.667  1.00  0.00     0.135 A 
ATOM     67  C   UNL     1       5.412  12.991  -6.272  1.00  0.00     0.135 A 
ATOM     68  F   UNL     1       8.278  13.189  -4.036  1.00  0.00    -0.206 F 
ATOM     69  C   UNL     1       6.452  14.641  -4.282  1.00  0.00     0.059 A 
ATOM     70  C   UNL     1       4.729  14.152  -5.922  1.00  0.00     0.059 A 
ATOM     71  F   UNL     1       4.881  12.207  -7.224  1.00  0.00    -0.206 F 
ATOM     72  C   UNL     1       5.252  14.964  -4.917  1.00  0.00     0.060 A 
BRANCH  72  73
ATOM     73  S   UNL     1       4.393  16.473  -4.421  1.00  0.00     0.124 S 
ATOM     74  O   UNL     1       3.844  16.081  -3.126  1.00  0.00    -0.237 OA
ATOM     75  O   UNL     1       5.476  17.450  -4.380  1.00  0.00    -0.237 OA
ATOM     76  O   UNL     1       3.413  16.671  -5.484  1.00  0.00    -0.744 OA
ENDBRANCH  72  73
ENDBRANCH  51  65
BRANCH  52  77
ATOM     77  C   UNL     1      11.020   4.098  -8.435  1.00  0.00     0.058 A 
ATOM     78  C   UNL     1      12.402   3.979  -8.644  1.00  0.00     0.135 A 
ATOM     79  C   UNL     1      10.224   2.966  -8.673  1.00  0.00     0.135 A 
ATOM     80  F   UNL     1      13.204   5.035  -8.434  1.00  0.00    -0.206 F 
ATOM     81  C   UNL     1      12.972   2.796  -9.101  1.00  0.00     0.059 A 
ATOM     82  C   UNL     1      10.774   1.764  -9.105  1.00  0.00     0.059 A 
ATOM     83  F   UNL     1       8.899   3.021  -8.469  1.00  0.00    -0.206 F 
ATOM     84  C   UNL     1      12.148   1.693  -9.331  1.00  0.00     0.060 A 
BRANCH  84  85
ATOM     85  S   UNL     1      12.900   0.151  -9.899  1.00  0.00     0.124 S 
ATOM     86  O   UNL     1      13.175   0.458 -11.297  1.00  0.00    -0.237 OA
ATOM     87  O   UNL     1      14.066   0.038  -9.028  1.00  0.00    -0.237 OA
ATOM     88  O   UNL     1      11.852  -0.838  -9.661  1.00  0.00    -0.744 OA
ENDBRANCH  84  85
ENDBRANCH  52  77
BRANCH  64  89
ATOM     89  C   UNL     1      10.220  10.329 -11.460  1.00  0.00     0.058 A 
ATOM     90  C   UNL     1       9.582   9.954 -12.651  1.00  0.00     0.135 A 
ATOM     91  C   UNL     1      11.247  11.285 -11.537  1.00  0.00     0.135 A 
ATOM     92  F   UNL     1       8.599   9.039 -12.632  1.00  0.00    -0.206 F 
ATOM     93  C   UNL     1       9.960  10.492 -13.877  1.00  0.00     0.059 A 
ATOM     94  C   UNL     1      11.623  11.855 -12.748  1.00  0.00     0.059 A 
ATOM     95  F   UNL     1      11.882  11.687 -10.424  1.00  0.00    -0.206 F 
ATOM     96  C   UNL     1      10.980  11.444 -13.915  1.00  0.00     0.060 A 
BRANCH  96  97
ATOM     97  S   UNL     1      11.436  12.163 -15.507  1.00  0.00     0.124 S 
ATOM     98  O   UNL     1      12.197  11.075 -16.113  1.00  0.00    -0.237 OA
ATOM     99  O   UNL     1      10.136  12.441 -16.109  1.00  0.00    -0.237 OA
ATOM    100  O   UNL     1      12.213  13.342 -15.136  1.00  0.00    -0.744 OA
ENDBRANCH  96  97
ENDBRANCH  64  89
ENDBRANCH  38  39
ENDBRANCH  30  33
ENDBRANCH  28  29
ENDBRANCH   1  28
TORSDOF 17
