REMARK SMILES O=C(C/C(=C/c1ccc(N2CCOCC2)c(F)c1)c1nc2ccccc2s1)NCCCCNC(=O)c1ccc(-c2c3nc(c(-c4c(F)cc(S(=O)(=O)[O-])cc4F)c4ccc([nH]4)c(-c4c(F)cc(S(=O)(=O)[O-])cc4F)c4nc(c(-c5c(F)cc(S(=O)(=O)[O-])cc5F)c5ccc2[nH]5)C=C4)C=C3)cc1
REMARK SMILES IDX 30 1 29 2 28 3 1 4 2 5 3 7 4 8 5 9 19 10 20 11 27 12 21 13
REMARK SMILES IDX 26 14 22 15 25 16 23 17 24 18 6 19 7 20 18 21 8 22 16 23
REMARK SMILES IDX 9 24 17 25 10 26 11 27 15 28 12 29 14 30 13 31 31 32 32 33
REMARK SMILES IDX 33 34 34 35 35 37 36 38 37 39 101 40 38 41 100 42 39 43
REMARK SMILES IDX 40 44 41 45 94 46 42 47 99 48 93 49 95 50 43 51 98 52 92 53
REMARK SMILES IDX 91 54 44 56 78 57 57 58 77 59 58 60 61 61 76 62 96 63 59 64
REMARK SMILES IDX 60 65 75 67 97 68 62 69 45 70 46 71 55 72 47 73 48 74 54 75
REMARK SMILES IDX 56 76 49 77 50 78 51 79 52 80 53 81 79 82 80 83 89 84 81 85
REMARK SMILES IDX 82 86 88 87 90 88 83 89 84 90 85 91 86 92 87 93 63 94 64 95
REMARK SMILES IDX 73 96 65 97 66 98 72 99 74 100 67 101 68 102 69 103 70 104
REMARK SMILES IDX 71 105
REMARK H PARENT 28 6 33 36 95 55 61 66
REMARK Flexibility Score: inf
ROOT
ATOM      1  C   UNL     1       2.538   3.011   1.742  1.00  0.00     0.023 C 
ENDROOT
BRANCH   1   2
ATOM      2  C   UNL     1       2.176   2.317   0.432  1.00  0.00     0.116 C 
BRANCH   2   3
ATOM      3  N   UNL     1       2.877   1.061   0.257  1.00  0.00    -0.356 N 
ATOM      4  O   UNL     1       1.022  -0.274   0.486  1.00  0.00    -0.275 OA
ATOM      5  C   UNL     1       2.220  -0.152   0.246  1.00  0.00     0.224 C 
ATOM      6  H   UNL     1       3.855   1.073   0.141  1.00  0.00     0.163 HD
BRANCH   5   7
ATOM      7  C   UNL     1       3.100  -1.357  -0.061  1.00  0.00     0.138 C 
BRANCH   7   8
ATOM      8  C   UNL     1       3.845  -1.252  -1.386  1.00  0.00    -0.002 C 
ATOM      9  C   UNL     1       5.201  -1.281  -1.353  1.00  0.00     0.015 C 
BRANCH   8  10
ATOM     10  C   UNL     1       3.184  -1.213  -2.671  1.00  0.00     0.121 A 
ATOM     11  N   UNL     1       3.437  -2.005  -3.696  1.00  0.00    -0.236 NA
ATOM     12  S   UNL     1       1.985  -0.009  -3.003  1.00  0.00    -0.114 S 
ATOM     13  C   UNL     1       2.747  -1.598  -4.824  1.00  0.00     0.082 A 
ATOM     14  C   UNL     1       1.884  -0.521  -4.636  1.00  0.00     0.055 A 
ATOM     15  C   UNL     1       2.852  -2.163  -6.110  1.00  0.00     0.030 A 
ATOM     16  C   UNL     1       1.103   0.001  -5.680  1.00  0.00     0.021 A 
ATOM     17  C   UNL     1       2.091  -1.644  -7.163  1.00  0.00     0.002 A 
ATOM     18  C   UNL     1       1.223  -0.578  -6.947  1.00  0.00     0.002 A 
ENDBRANCH   8  10
BRANCH   9  19
ATOM     19  C   UNL     1       6.122  -1.238  -2.501  1.00  0.00    -0.022 A 
ATOM     20  C   UNL     1       6.139  -0.159  -3.390  1.00  0.00     0.010 A 
ATOM     21  C   UNL     1       6.992  -2.306  -2.722  1.00  0.00     0.049 A 
ATOM     22  C   UNL     1       6.971  -0.179  -4.516  1.00  0.00     0.029 A 
ATOM     23  C   UNL     1       7.806  -2.318  -3.855  1.00  0.00     0.147 A 
ATOM     24  C   UNL     1       7.807  -1.269  -4.791  1.00  0.00     0.073 A 
ATOM     25  F   UNL     1       8.623  -3.372  -4.026  1.00  0.00    -0.205 F 
BRANCH  24  26
ATOM     26  N   UNL     1       8.568  -1.291  -5.940  1.00  0.00    -0.365 N 
ATOM     27  C   UNL     1       8.690  -2.491  -6.772  1.00  0.00     0.145 C 
ATOM     28  C   UNL     1       9.428  -0.166  -6.323  1.00  0.00     0.145 C 
ATOM     29  C   UNL     1      10.165  -2.878  -6.929  1.00  0.00     0.181 C 
ATOM     30  C   UNL     1      10.873  -0.667  -6.498  1.00  0.00     0.181 C 
ATOM     31  O   UNL     1      10.946  -1.773  -7.419  1.00  0.00    -0.378 OA
ENDBRANCH  24  26
ENDBRANCH   9  19
ENDBRANCH   7   8
ENDBRANCH   5   7
ENDBRANCH   2   3
ENDBRANCH   1   2
BRANCH   1  32
ATOM     32  C   UNL     1       4.018   3.372   1.893  1.00  0.00     0.023 C 
BRANCH  32  33
ATOM     33  C   UNL     1       4.594   4.265   0.797  1.00  0.00     0.116 C 
BRANCH  33  34
ATOM     34  N   UNL     1       3.980   5.583   0.757  1.00  0.00    -0.352 N 
ATOM     35  C   UNL     1       4.574   6.823   0.764  1.00  0.00     0.251 C 
ATOM     36  H   UNL     1       2.996   5.587   0.720  1.00  0.00     0.163 HD
ATOM     37  O   UNL     1       3.876   7.830   0.873  1.00  0.00    -0.269 OA
BRANCH  35  38
ATOM     38  C   UNL     1       6.046   6.950   0.673  1.00  0.00     0.039 A 
ATOM     39  C   UNL     1       6.701   7.843   1.526  1.00  0.00     0.014 A 
ATOM     40  C   UNL     1       6.784   6.198  -0.246  1.00  0.00     0.014 A 
ATOM     41  C   UNL     1       8.097   7.925   1.510  1.00  0.00     0.010 A 
ATOM     42  C   UNL     1       8.178   6.226  -0.208  1.00  0.00     0.010 A 
ATOM     43  C   UNL     1       8.851   7.086   0.673  1.00  0.00    -0.014 A 
BRANCH  43  44
ATOM     44  C   UNL     1      10.338   7.082   0.719  1.00  0.00     0.031 A 
ATOM     45  C   UNL     1      11.140   7.478  -0.492  1.00  0.00     0.074 A 
ATOM     46  C   UNL     1      10.970   6.669   1.837  1.00  0.00     0.049 A 
ATOM     47  N   UNL     1      12.437   7.467  -0.662  1.00  0.00    -0.248 NA
ATOM     48  C   UNL     1      10.386   7.924  -1.675  1.00  0.00     0.031 C 
ATOM     49  C   UNL     1      10.308   6.227   3.067  1.00  0.00     0.029 A 
ATOM     50  N   UNL     1      12.308   6.548   2.123  1.00  0.00    -0.354 N 
ATOM     51  C   UNL     1      12.655   7.900  -1.965  1.00  0.00     0.074 A 
ATOM     52  C   UNL     1      11.354   8.110  -2.562  1.00  0.00     0.031 C 
ATOM     53  C   UNL     1      11.239   5.912   3.981  1.00  0.00     0.029 A 
ATOM     54  C   UNL     1      12.565   6.083   3.393  1.00  0.00     0.049 A 
ATOM     55  H   UNL     1      13.018   6.772   1.479  1.00  0.00     0.167 HD
ATOM     56  C   UNL     1      13.831   8.128  -2.596  1.00  0.00     0.037 A 
ATOM     57  C   UNL     1      13.731   5.815   4.013  1.00  0.00     0.037 A 
ATOM     58  C   UNL     1      15.124   7.939  -1.990  1.00  0.00     0.049 A 
ATOM     59  C   UNL     1      15.024   6.047   3.279  1.00  0.00     0.074 A 
ATOM     60  C   UNL     1      16.371   8.184  -2.538  1.00  0.00     0.029 A 
ATOM     61  N   UNL     1      15.339   7.463  -0.705  1.00  0.00    -0.354 N 
ATOM     62  N   UNL     1      15.210   6.499   2.062  1.00  0.00    -0.248 NA
ATOM     63  C   UNL     1      16.267   5.736   4.000  1.00  0.00     0.031 C 
ATOM     64  C   UNL     1      17.341   7.808  -1.604  1.00  0.00     0.029 A 
ATOM     65  C   UNL     1      16.699   7.384  -0.452  1.00  0.00     0.049 A 
ATOM     66  H   UNL     1      14.631   7.217  -0.067  1.00  0.00     0.167 HD
ATOM     67  C   UNL     1      16.588   6.549   1.880  1.00  0.00     0.074 A 
ATOM     68  C   UNL     1      17.189   6.095   3.116  1.00  0.00     0.031 C 
ATOM     69  C   UNL     1      17.289   6.937   0.786  1.00  0.00     0.037 A 
BRANCH  56  70
ATOM     70  C   UNL     1      13.787   8.628  -4.015  1.00  0.00     0.058 A 
ATOM     71  C   UNL     1      14.246   7.826  -5.072  1.00  0.00     0.135 A 
ATOM     72  C   UNL     1      13.368   9.934  -4.319  1.00  0.00     0.135 A 
ATOM     73  F   UNL     1      14.652   6.568  -4.840  1.00  0.00    -0.206 F 
ATOM     74  C   UNL     1      14.311   8.306  -6.376  1.00  0.00     0.059 A 
ATOM     75  C   UNL     1      13.397  10.426  -5.621  1.00  0.00     0.059 A 
ATOM     76  F   UNL     1      12.900  10.736  -3.350  1.00  0.00    -0.206 F 
ATOM     77  C   UNL     1      13.886   9.609  -6.640  1.00  0.00     0.060 A 
BRANCH  77  78
ATOM     78  S   UNL     1      13.959  10.211  -8.341  1.00  0.00     0.124 S 
ATOM     79  O   UNL     1      15.397  10.295  -8.568  1.00  0.00    -0.237 OA
ATOM     80  O   UNL     1      13.259   9.155  -9.066  1.00  0.00    -0.237 OA
ATOM     81  O   UNL     1      13.255  11.489  -8.278  1.00  0.00    -0.744 OA
ENDBRANCH  77  78
ENDBRANCH  56  70
BRANCH  57  82
ATOM     82  C   UNL     1      13.726   5.318   5.416  1.00  0.00     0.058 A 
ATOM     83  C   UNL     1      13.238   4.042   5.738  1.00  0.00     0.135 A 
ATOM     84  C   UNL     1      14.181   6.126   6.470  1.00  0.00     0.135 A 
ATOM     85  F   UNL     1      12.781   3.231   4.770  1.00  0.00    -0.206 F 
ATOM     86  C   UNL     1      13.178   3.594   7.053  1.00  0.00     0.059 A 
ATOM     87  C   UNL     1      14.158   5.689   7.792  1.00  0.00     0.059 A 
ATOM     88  F   UNL     1      14.669   7.349   6.212  1.00  0.00    -0.206 F 
ATOM     89  C   UNL     1      13.638   4.427   8.074  1.00  0.00     0.060 A 
BRANCH  89  90
ATOM     90  S   UNL     1      13.539   3.829   9.775  1.00  0.00     0.124 S 
ATOM     91  O   UNL     1      12.095   3.804   9.990  1.00  0.00    -0.237 OA
ATOM     92  O   UNL     1      14.190   2.527   9.678  1.00  0.00    -0.237 OA
ATOM     93  O   UNL     1      14.269   4.840  10.532  1.00  0.00    -0.744 OA
ENDBRANCH  89  90
ENDBRANCH  57  82
BRANCH  69  94
ATOM     94  C   UNL     1      18.791   6.915   0.868  1.00  0.00     0.058 A 
ATOM     95  C   UNL     1      19.521   8.116   0.862  1.00  0.00     0.135 A 
ATOM     96  C   UNL     1      19.512   5.711   0.860  1.00  0.00     0.135 A 
ATOM     97  F   UNL     1      18.882   9.296   0.865  1.00  0.00    -0.206 F 
ATOM     98  C   UNL     1      20.911   8.123   0.820  1.00  0.00     0.059 A 
ATOM     99  C   UNL     1      20.904   5.694   0.848  1.00  0.00     0.059 A 
ATOM    100  F   UNL     1      18.863   4.536   0.876  1.00  0.00    -0.206 F 
ATOM    101  C   UNL     1      21.594   6.906   0.809  1.00  0.00     0.060 A 
BRANCH 101 102
ATOM    102  S   UNL     1      23.398   6.936   0.754  1.00  0.00     0.124 S 
ATOM    103  O   UNL     1      23.649   7.439  -0.593  1.00  0.00    -0.237 OA
ATOM    104  O   UNL     1      23.724   7.850   1.844  1.00  0.00    -0.237 OA
ATOM    105  O   UNL     1      23.768   5.542   0.982  1.00  0.00    -0.744 OA
ENDBRANCH 101 102
ENDBRANCH  69  94
ENDBRANCH  43  44
ENDBRANCH  35  38
ENDBRANCH  33  34
ENDBRANCH  32  33
ENDBRANCH   1  32
TORSDOF 18
