REMARK SMILES CCCCCCNC(=O)Oc1cccc(-c2ccc([C@@H](C)C(=O)NCCCCNC(=O)c3ccc(-c4c5nc(c(-c6c(F)cc(S(=O)(=O)[O-])cc6F)c6ccc([nH]6)c(-c6c(F)cc(S(=O)(=O)[O-])cc6F)c6nc(c(-c7c(F)cc(S(=O)(=O)[O-])cc7F)c7ccc4[nH]7)C=C6)C=C5)cc3)cc2[N+](=O)[O-])c1
REMARK SMILES IDX 20 1 21 2 19 3 16 4 17 5 99 6 18 7 98 8 15 9 11 10 12 11
REMARK SMILES IDX 103 12 13 13 14 14 10 15 8 16 7 17 9 19 6 20 5 21 4 22 3 23
REMARK SMILES IDX 2 24 1 25 100 26 101 27 102 28 22 29 23 30 24 31 25 33 26 34
REMARK SMILES IDX 27 35 28 36 29 37 30 38 31 40 32 41 33 42 97 43 34 44 96 45
REMARK SMILES IDX 35 46 36 47 37 48 90 49 38 50 95 51 89 52 91 53 39 54 94 55
REMARK SMILES IDX 88 56 87 57 40 59 74 60 53 61 73 62 54 63 57 64 72 65 92 66
REMARK SMILES IDX 55 67 56 68 71 70 93 71 58 72 41 73 42 74 51 75 43 76 44 77
REMARK SMILES IDX 50 78 52 79 45 80 46 81 47 82 48 83 49 84 75 85 76 86 85 87
REMARK SMILES IDX 77 88 78 89 84 90 86 91 79 92 80 93 81 94 82 95 83 96 59 97
REMARK SMILES IDX 60 98 69 99 61 100 62 101 68 102 70 103 63 104 64 105 65 106
REMARK SMILES IDX 66 107 67 108
REMARK H PARENT 7 18 24 32 29 39 91 58 57 69
REMARK Flexibility Score: inf
ROOT
ATOM      1  C   UNL     1      -4.928 -13.546  -0.620  1.00  0.00     0.105 C 
ATOM      2  C   UNL     1      -6.184 -14.416  -0.652  1.00  0.00     0.023 C 
ENDROOT
BRANCH   1   3
ATOM      3  C   UNL     1      -5.098 -12.141  -1.180  1.00  0.00    -0.029 A 
ATOM      4  C   UNL     1      -5.229  -9.482  -2.278  1.00  0.00     0.060 A 
ATOM      5  C   UNL     1      -5.683 -10.611  -2.982  1.00  0.00     0.016 A 
ATOM      6  C   UNL     1      -4.773  -9.723  -0.966  1.00  0.00     0.277 A 
ATOM      7  C   UNL     1      -5.675 -11.894  -2.424  1.00  0.00     0.005 A 
ATOM      8  C   UNL     1      -4.663 -11.031  -0.442  1.00  0.00     0.090 A 
BRANCH   4   9
ATOM      9  C   UNL     1      -5.257  -8.169  -2.966  1.00  0.00    -0.008 A 
ATOM     10  C   UNL     1      -4.250  -6.044  -3.571  1.00  0.00     0.133 A 
ATOM     11  C   UNL     1      -5.370  -5.681  -4.312  1.00  0.00     0.047 A 
ATOM     12  C   UNL     1      -4.173  -7.277  -2.919  1.00  0.00     0.056 A 
ATOM     13  C   UNL     1      -6.437  -6.565  -4.401  1.00  0.00     0.004 A 
ATOM     14  C   UNL     1      -6.385  -7.785  -3.723  1.00  0.00     0.009 A 
BRANCH  10  15
ATOM     15  O   UNL     1      -3.287  -5.040  -3.370  1.00  0.00    -0.410 OA
BRANCH  15  16
ATOM     16  C   UNL     1      -1.938  -5.342  -3.473  1.00  0.00     0.412 C 
ATOM     17  N   UNL     1      -1.138  -4.333  -3.012  1.00  0.00    -0.321 N 
ATOM     18  H   UNL     1      -0.167  -4.455  -3.115  1.00  0.00     0.167 HD
ATOM     19  O   UNL     1      -1.468  -6.378  -3.923  1.00  0.00    -0.224 OA
BRANCH  17  20
ATOM     20  C   UNL     1      -1.579  -3.102  -2.386  1.00  0.00     0.119 C 
BRANCH  20  21
ATOM     21  C   UNL     1      -0.999  -2.935  -0.981  1.00  0.00     0.021 C 
BRANCH  21  22
ATOM     22  C   UNL     1       0.528  -2.814  -0.926  1.00  0.00     0.002 C 
BRANCH  22  23
ATOM     23  C   UNL     1       1.126  -1.665  -1.746  1.00  0.00    -0.000 C 
BRANCH  23  24
ATOM     24  C   UNL     1       0.635  -0.266  -1.366  1.00  0.00    -0.003 C 
ATOM     25  C   UNL     1       1.004   0.135   0.054  1.00  0.00     0.004 C 
ENDBRANCH  23  24
ENDBRANCH  22  23
ENDBRANCH  21  22
ENDBRANCH  20  21
ENDBRANCH  17  20
ENDBRANCH  15  16
ENDBRANCH  10  15
ENDBRANCH   4   9
BRANCH   6  26
ATOM     26  N   UNL     1      -4.489  -8.626  -0.041  1.00  0.00     0.063 N 
ATOM     27  O   UNL     1      -3.517  -8.757   0.717  1.00  0.00    -0.258 OA
ATOM     28  O   UNL     1      -5.274  -7.668  -0.020  1.00  0.00    -0.258 OA
ENDBRANCH   6  26
ENDBRANCH   1   3
BRANCH   1  29
ATOM     29  C   UNL     1      -3.650 -14.263  -1.088  1.00  0.00     0.227 C 
ATOM     30  O   UNL     1      -2.701 -14.384  -0.303  1.00  0.00    -0.274 OA
ATOM     31  N   UNL     1      -3.483 -14.803  -2.325  1.00  0.00    -0.356 N 
ATOM     32  H   UNL     1      -2.638 -15.296  -2.436  1.00  0.00     0.163 HD
BRANCH  31  33
ATOM     33  C   UNL     1      -4.316 -14.790  -3.509  1.00  0.00     0.116 C 
BRANCH  33  34
ATOM     34  C   UNL     1      -3.917 -13.671  -4.474  1.00  0.00     0.023 C 
BRANCH  34  35
ATOM     35  C   UNL     1      -2.840 -14.046  -5.487  1.00  0.00     0.023 C 
BRANCH  35  36
ATOM     36  C   UNL     1      -3.213 -15.175  -6.439  1.00  0.00     0.116 C 
BRANCH  36  37
ATOM     37  N   UNL     1      -4.430 -14.930  -7.202  1.00  0.00    -0.352 N 
ATOM     38  C   UNL     1      -4.712 -15.324  -8.492  1.00  0.00     0.251 C 
ATOM     39  H   UNL     1      -5.136 -14.422  -6.741  1.00  0.00     0.163 HD
ATOM     40  O   UNL     1      -5.754 -14.976  -9.036  1.00  0.00    -0.269 OA
BRANCH  38  41
ATOM     41  C   UNL     1      -3.711 -16.131  -9.219  1.00  0.00     0.039 A 
ATOM     42  C   UNL     1      -3.257 -15.687 -10.461  1.00  0.00     0.014 A 
ATOM     43  C   UNL     1      -3.152 -17.262  -8.619  1.00  0.00     0.014 A 
ATOM     44  C   UNL     1      -2.174 -16.331 -11.064  1.00  0.00     0.010 A 
ATOM     45  C   UNL     1      -2.023 -17.847  -9.179  1.00  0.00     0.010 A 
ATOM     46  C   UNL     1      -1.517 -17.382 -10.403  1.00  0.00    -0.014 A 
BRANCH  46  47
ATOM     47  C   UNL     1      -0.287 -17.999 -10.962  1.00  0.00     0.031 A 
ATOM     48  C   UNL     1      -0.278 -19.457 -11.329  1.00  0.00     0.074 A 
ATOM     49  C   UNL     1       0.840 -17.265 -11.062  1.00  0.00     0.049 A 
ATOM     50  N   UNL     1       0.715 -20.194 -11.755  1.00  0.00    -0.248 NA
ATOM     51  C   UNL     1      -1.543 -20.191 -11.166  1.00  0.00     0.031 C 
ATOM     52  C   UNL     1       0.972 -15.857 -10.680  1.00  0.00     0.029 A 
ATOM     53  N   UNL     1       2.094 -17.605 -11.504  1.00  0.00    -0.354 N 
ATOM     54  C   UNL     1       0.199 -21.477 -11.896  1.00  0.00     0.074 A 
ATOM     55  C   UNL     1      -1.177 -21.431 -11.455  1.00  0.00     0.031 C 
ATOM     56  C   UNL     1       2.226 -15.448 -10.929  1.00  0.00     0.029 A 
ATOM     57  C   UNL     1       2.999 -16.570 -11.450  1.00  0.00     0.049 A 
ATOM     58  H   UNL     1       2.325 -18.505 -11.830  1.00  0.00     0.167 HD
ATOM     59  C   UNL     1       0.810 -22.586 -12.377  1.00  0.00     0.037 A 
ATOM     60  C   UNL     1       4.306 -16.532 -11.776  1.00  0.00     0.037 A 
ATOM     61  C   UNL     1       2.172 -22.616 -12.841  1.00  0.00     0.049 A 
ATOM     62  C   UNL     1       4.962 -17.777 -12.310  1.00  0.00     0.074 A 
ATOM     63  C   UNL     1       2.864 -23.672 -13.407  1.00  0.00     0.029 A 
ATOM     64  N   UNL     1       3.050 -21.543 -12.791  1.00  0.00    -0.354 N 
ATOM     65  N   UNL     1       4.439 -18.965 -12.506  1.00  0.00    -0.248 NA
ATOM     66  C   UNL     1       6.382 -17.678 -12.672  1.00  0.00     0.031 C 
ATOM     67  C   UNL     1       4.173 -23.251 -13.659  1.00  0.00     0.029 A 
ATOM     68  C   UNL     1       4.284 -21.918 -13.296  1.00  0.00     0.049 A 
ATOM     69  H   UNL     1       2.828 -20.648 -12.448  1.00  0.00     0.167 HD
ATOM     70  C   UNL     1       5.459 -19.747 -13.035  1.00  0.00     0.074 A 
ATOM     71  C   UNL     1       6.625 -18.894 -13.143  1.00  0.00     0.031 C 
ATOM     72  C   UNL     1       5.433 -21.053 -13.399  1.00  0.00     0.037 A 
BRANCH  59  73
ATOM     73  C   UNL     1       0.004 -23.855 -12.433  1.00  0.00     0.058 A 
ATOM     74  C   UNL     1      -1.058 -24.013 -13.340  1.00  0.00     0.135 A 
ATOM     75  C   UNL     1       0.312 -24.937 -11.593  1.00  0.00     0.135 A 
ATOM     76  F   UNL     1      -1.407 -23.005 -14.155  1.00  0.00    -0.206 F 
ATOM     77  C   UNL     1      -1.804 -25.185 -13.389  1.00  0.00     0.059 A 
ATOM     78  C   UNL     1      -0.402 -26.130 -11.646  1.00  0.00     0.059 A 
ATOM     79  F   UNL     1       1.316 -24.840 -10.707  1.00  0.00    -0.206 F 
ATOM     80  C   UNL     1      -1.469 -26.239 -12.538  1.00  0.00     0.060 A 
BRANCH  80  81
ATOM     81  S   UNL     1      -2.446 -27.754 -12.618  1.00  0.00     0.124 S 
ATOM     82  O   UNL     1      -3.690 -27.331 -11.983  1.00  0.00    -0.237 OA
ATOM     83  O   UNL     1      -2.521 -28.001 -14.055  1.00  0.00    -0.237 OA
ATOM     84  O   UNL     1      -1.649 -28.714 -11.860  1.00  0.00    -0.744 OA
ENDBRANCH  80  81
ENDBRANCH  59  73
BRANCH  60  85
ATOM     85  C   UNL     1       5.074 -15.267 -11.631  1.00  0.00     0.058 A 
ATOM     86  C   UNL     1       5.501 -14.549 -12.759  1.00  0.00     0.135 A 
ATOM     87  C   UNL     1       5.388 -14.742 -10.367  1.00  0.00     0.135 A 
ATOM     88  F   UNL     1       5.231 -15.013 -13.989  1.00  0.00    -0.206 F 
ATOM     89  C   UNL     1       6.224 -13.367 -12.641  1.00  0.00     0.059 A 
ATOM     90  C   UNL     1       6.088 -13.548 -10.223  1.00  0.00     0.059 A 
ATOM     91  F   UNL     1       4.989 -15.381  -9.256  1.00  0.00    -0.206 F 
ATOM     92  C   UNL     1       6.511 -12.873 -11.368  1.00  0.00     0.060 A 
BRANCH  92  93
ATOM     93  S   UNL     1       7.411 -11.313 -11.227  1.00  0.00     0.124 S 
ATOM     94  O   UNL     1       8.758 -11.716 -11.614  1.00  0.00    -0.237 OA
ATOM     95  O   UNL     1       6.701 -10.463 -12.178  1.00  0.00    -0.237 OA
ATOM     96  O   UNL     1       7.237 -10.951  -9.824  1.00  0.00    -0.744 OA
ENDBRANCH  92  93
ENDBRANCH  60  85
BRANCH  72  97
ATOM     97  C   UNL     1       6.694 -21.637 -13.973  1.00  0.00     0.058 A 
ATOM     98  C   UNL     1       7.809 -21.918 -13.168  1.00  0.00     0.135 A 
ATOM     99  C   UNL     1       6.766 -21.973 -15.335  1.00  0.00     0.135 A 
ATOM    100  F   UNL     1       7.794 -21.609 -11.862  1.00  0.00    -0.206 F 
ATOM    101  C   UNL     1       8.960 -22.493 -13.697  1.00  0.00     0.059 A 
ATOM    102  C   UNL     1       7.896 -22.574 -15.880  1.00  0.00     0.059 A 
ATOM    103  F   UNL     1       5.723 -21.735 -16.146  1.00  0.00    -0.206 F 
ATOM    104  C   UNL     1       8.992 -22.821 -15.054  1.00  0.00     0.060 A 
BRANCH 104 105
ATOM    105  S   UNL     1      10.476 -23.604 -15.719  1.00  0.00     0.124 S 
ATOM    106  O   UNL     1      11.408 -22.482 -15.759  1.00  0.00    -0.237 OA
ATOM    107  O   UNL     1      10.762 -24.631 -14.722  1.00  0.00    -0.237 OA
ATOM    108  O   UNL     1      10.042 -24.106 -17.020  1.00  0.00    -0.744 OA
ENDBRANCH 104 105
ENDBRANCH  72  97
ENDBRANCH  46  47
ENDBRANCH  38  41
ENDBRANCH  36  37
ENDBRANCH  35  36
ENDBRANCH  34  35
ENDBRANCH  33  34
ENDBRANCH  31  33
ENDBRANCH   1  29
TORSDOF 24
