REMARK SMILES NC(=O)c1ccccc1NC(=O)[C@@H]1CC=CC[C@@H]1C(=O)NCCCCNC(=O)c1ccc(-c2c3nc(c(-c4c(F)cc(S(=O)(=O)[O-])cc4F)c4ccc([nH]4)c(-c4c(F)cc(S(=O)(=O)[O-])cc4F)c4nc(c(-c5c(F)cc(S(=O)(=O)[O-])cc5F)c5ccc2[nH]5)C=C4)C=C3)cc1
REMARK SMILES IDX 23 1 22 2 21 3 19 4 20 5 18 7 13 8 14 9 15 10 17 11 16 12
REMARK SMILES IDX 11 13 10 14 12 16 9 17 4 18 5 19 6 20 8 21 7 22 2 23 1 24
REMARK SMILES IDX 3 27 24 28 25 29 26 30 27 31 28 33 29 34 30 35 94 36 31 37
REMARK SMILES IDX 93 38 32 39 33 40 34 41 87 42 35 43 92 44 86 45 88 46 36 47
REMARK SMILES IDX 91 48 85 49 84 50 37 52 71 53 50 54 70 55 51 56 54 57 69 58
REMARK SMILES IDX 89 59 52 60 53 61 68 63 90 64 55 65 38 66 39 67 48 68 40 69
REMARK SMILES IDX 41 70 47 71 49 72 42 73 43 74 44 75 45 76 46 77 72 78 73 79
REMARK SMILES IDX 82 80 74 81 75 82 81 83 83 84 76 85 77 86 78 87 79 88 80 89
REMARK SMILES IDX 56 90 57 91 66 92 58 93 59 94 65 95 67 96 60 97 61 98 62 99
REMARK SMILES IDX 63 100 64 101
REMARK H PARENT 21 6 10 15 1 25 1 26 26 32 88 51 54 62
REMARK Flexibility Score: inf
ROOT
ATOM      1  C   UNL     1       6.129   2.443  -5.079  1.00  0.00     0.023 C 
ENDROOT
BRANCH   1   2
ATOM      2  C   UNL     1       4.740   2.241  -5.678  1.00  0.00     0.116 C 
BRANCH   2   3
ATOM      3  N   UNL     1       4.783   1.067  -6.531  1.00  0.00    -0.356 N 
ATOM      4  C   UNL     1       4.516  -0.238  -6.238  1.00  0.00     0.224 C 
ATOM      5  O   UNL     1       5.008  -1.087  -6.984  1.00  0.00    -0.275 OA
ATOM      6  H   UNL     1       5.045   1.239  -7.464  1.00  0.00     0.163 HD
BRANCH   4   7
ATOM      7  C   UNL     1       3.533  -0.614  -5.122  1.00  0.00     0.095 C 
ATOM      8  C   UNL     1       4.033  -0.864  -3.675  1.00  0.00     0.095 C 
ATOM      9  C   UNL     1       4.322  -2.304  -3.211  1.00  0.00     0.041 C 
ATOM     10  C   UNL     1       4.044  -3.367  -4.226  1.00  0.00    -0.030 C 
ATOM     11  C   UNL     1       2.692  -1.813  -5.621  1.00  0.00     0.041 C 
ATOM     12  C   UNL     1       3.307  -3.148  -5.320  1.00  0.00    -0.030 C 
BRANCH   8  13
ATOM     13  C   UNL     1       5.004   0.147  -3.099  1.00  0.00     0.228 C 
ATOM     14  N   UNL     1       6.355   0.149  -3.176  1.00  0.00    -0.325 N 
ATOM     15  H   UNL     1       6.731   0.882  -2.637  1.00  0.00     0.169 HD
ATOM     16  O   UNL     1       4.522   1.113  -2.481  1.00  0.00    -0.274 OA
BRANCH  14  17
ATOM     17  C   UNL     1       7.386  -0.589  -3.800  1.00  0.00     0.053 A 
ATOM     18  C   UNL     1       8.729  -0.151  -3.674  1.00  0.00     0.063 A 
ATOM     19  C   UNL     1       9.780  -0.875  -4.266  1.00  0.00     0.016 A 
ATOM     20  C   UNL     1       9.516  -2.017  -5.013  1.00  0.00     0.001 A 
ATOM     21  C   UNL     1       7.154  -1.689  -4.623  1.00  0.00     0.027 A 
ATOM     22  C   UNL     1       8.200  -2.404  -5.214  1.00  0.00     0.002 A 
BRANCH  18  23
ATOM     23  C   UNL     1       9.116   1.177  -3.123  1.00  0.00     0.250 C 
ATOM     24  N   UNL     1       8.521   1.615  -1.974  1.00  0.00    -0.366 N 
ATOM     25  H   UNL     1       8.766   2.491  -1.596  1.00  0.00     0.159 HD
ATOM     26  H   UNL     1       7.848   1.056  -1.524  1.00  0.00     0.159 HD
ATOM     27  O   UNL     1       9.950   1.873  -3.690  1.00  0.00    -0.269 OA
ENDBRANCH  18  23
ENDBRANCH  14  17
ENDBRANCH   8  13
ENDBRANCH   4   7
ENDBRANCH   2   3
ENDBRANCH   1   2
BRANCH   1  28
ATOM     28  C   UNL     1       7.054   3.378  -5.828  1.00  0.00     0.023 C 
BRANCH  28  29
ATOM     29  C   UNL     1       6.748   4.840  -5.585  1.00  0.00     0.116 C 
BRANCH  29  30
ATOM     30  N   UNL     1       6.898   5.243  -4.188  1.00  0.00    -0.352 N 
ATOM     31  C   UNL     1       7.701   6.214  -3.624  1.00  0.00     0.251 C 
ATOM     32  H   UNL     1       6.340   4.744  -3.549  1.00  0.00     0.163 HD
ATOM     33  O   UNL     1       7.788   6.309  -2.410  1.00  0.00    -0.269 OA
BRANCH  31  34
ATOM     34  C   UNL     1       8.477   7.111  -4.512  1.00  0.00     0.039 A 
ATOM     35  C   UNL     1       9.804   7.411  -4.201  1.00  0.00     0.014 A 
ATOM     36  C   UNL     1       7.913   7.586  -5.693  1.00  0.00     0.014 A 
ATOM     37  C   UNL     1      10.592   8.089  -5.136  1.00  0.00     0.010 A 
ATOM     38  C   UNL     1       8.733   8.114  -6.677  1.00  0.00     0.010 A 
ATOM     39  C   UNL     1      10.082   8.386  -6.411  1.00  0.00    -0.014 A 
BRANCH  39  40
ATOM     40  C   UNL     1      10.915   8.987  -7.487  1.00  0.00     0.031 A 
ATOM     41  C   UNL     1      10.447  10.249  -8.171  1.00  0.00     0.074 A 
ATOM     42  C   UNL     1      12.014   8.343  -7.934  1.00  0.00     0.049 A 
ATOM     43  N   UNL     1      10.919  10.834  -9.241  1.00  0.00    -0.248 NA
ATOM     44  C   UNL     1       9.249  10.906  -7.616  1.00  0.00     0.031 C 
ATOM     45  C   UNL     1      12.520   7.063  -7.427  1.00  0.00     0.029 A 
ATOM     46  N   UNL     1      12.897   8.667  -8.934  1.00  0.00    -0.354 N 
ATOM     47  C   UNL     1      10.045  11.880  -9.517  1.00  0.00     0.074 A 
ATOM     48  C   UNL     1       8.984  11.819  -8.538  1.00  0.00     0.031 C 
ATOM     49  C   UNL     1      13.634   6.729  -8.098  1.00  0.00     0.029 A 
ATOM     50  C   UNL     1      13.902   7.743  -9.110  1.00  0.00     0.049 A 
ATOM     51  H   UNL     1      12.818   9.485  -9.477  1.00  0.00     0.167 HD
ATOM     52  C   UNL     1      10.135  12.827 -10.479  1.00  0.00     0.037 A 
ATOM     53  C   UNL     1      14.919   7.714  -9.994  1.00  0.00     0.037 A 
ATOM     54  C   UNL     1      11.250  12.946 -11.378  1.00  0.00     0.049 A 
ATOM     55  C   UNL     1      15.058   8.843 -10.980  1.00  0.00     0.074 A 
ATOM     56  C   UNL     1      11.508  13.946 -12.298  1.00  0.00     0.029 A 
ATOM     57  N   UNL     1      12.303  12.048 -11.452  1.00  0.00    -0.354 N 
ATOM     58  N   UNL     1      14.269   9.875 -11.167  1.00  0.00    -0.248 NA
ATOM     59  C   UNL     1      16.228   8.813 -11.869  1.00  0.00     0.031 C 
ATOM     60  C   UNL     1      12.705  13.637 -12.951  1.00  0.00     0.029 A 
ATOM     61  C   UNL     1      13.210  12.466 -12.410  1.00  0.00     0.049 A 
ATOM     62  H   UNL     1      12.393  11.234 -10.905  1.00  0.00     0.167 HD
ATOM     63  C   UNL     1      14.860  10.627 -12.176  1.00  0.00     0.074 A 
ATOM     64  C   UNL     1      16.080   9.942 -12.548  1.00  0.00     0.031 C 
ATOM     65  C   UNL     1      14.430  11.779 -12.746  1.00  0.00     0.037 A 
BRANCH  52  66
ATOM     66  C   UNL     1       9.023  13.833 -10.589  1.00  0.00     0.058 A 
ATOM     67  C   UNL     1       8.829  14.830  -9.620  1.00  0.00     0.135 A 
ATOM     68  C   UNL     1       8.176  13.836 -11.710  1.00  0.00     0.135 A 
ATOM     69  F   UNL     1       9.598  14.863  -8.520  1.00  0.00    -0.206 F 
ATOM     70  C   UNL     1       7.823  15.782  -9.747  1.00  0.00     0.059 A 
ATOM     71  C   UNL     1       7.181  14.796 -11.871  1.00  0.00     0.059 A 
ATOM     72  F   UNL     1       8.315  12.903 -12.665  1.00  0.00    -0.206 F 
ATOM     73  C   UNL     1       7.006  15.759 -10.879  1.00  0.00     0.060 A 
BRANCH  73  74
ATOM     74  S   UNL     1       5.731  17.026 -11.046  1.00  0.00     0.124 S 
ATOM     75  O   UNL     1       4.739  16.568 -10.078  1.00  0.00    -0.237 OA
ATOM     76  O   UNL     1       6.451  18.244 -10.687  1.00  0.00    -0.237 OA
ATOM     77  O   UNL     1       5.334  16.926 -12.447  1.00  0.00    -0.744 OA
ENDBRANCH  73  74
ENDBRANCH  52  66
BRANCH  53  78
ATOM     78  C   UNL     1      15.900   6.595  -9.977  1.00  0.00     0.058 A 
ATOM     79  C   UNL     1      17.220   6.799  -9.546  1.00  0.00     0.135 A 
ATOM     80  C   UNL     1      15.547   5.306 -10.405  1.00  0.00     0.135 A 
ATOM     81  F   UNL     1      17.608   8.014  -9.130  1.00  0.00    -0.206 F 
ATOM     82  C   UNL     1      18.163   5.777  -9.570  1.00  0.00     0.059 A 
ATOM     83  C   UNL     1      16.465   4.260 -10.414  1.00  0.00     0.059 A 
ATOM     84  F   UNL     1      14.292   5.052 -10.808  1.00  0.00    -0.206 F 
ATOM     85  C   UNL     1      17.777   4.510 -10.011  1.00  0.00     0.060 A 
BRANCH  85  86
ATOM     86  S   UNL     1      19.004   3.185 -10.027  1.00  0.00     0.124 S 
ATOM     87  O   UNL     1      19.797   3.534 -11.201  1.00  0.00    -0.237 OA
ATOM     88  O   UNL     1      19.665   3.358  -8.737  1.00  0.00    -0.237 OA
ATOM     89  O   UNL     1      18.192   1.978 -10.149  1.00  0.00    -0.744 OA
ENDBRANCH  85  86
ENDBRANCH  53  78
BRANCH  65  90
ATOM     90  C   UNL     1      15.301  12.396 -13.801  1.00  0.00     0.058 A 
ATOM     91  C   UNL     1      15.383  11.859 -15.094  1.00  0.00     0.135 A 
ATOM     92  C   UNL     1      16.009  13.579 -13.532  1.00  0.00     0.135 A 
ATOM     93  F   UNL     1      14.727  10.727 -15.398  1.00  0.00    -0.206 F 
ATOM     94  C   UNL     1      16.152  12.462 -16.082  1.00  0.00     0.059 A 
ATOM     95  C   UNL     1      16.765  14.213 -14.512  1.00  0.00     0.059 A 
ATOM     96  F   UNL     1      15.953  14.139 -12.313  1.00  0.00    -0.206 F 
ATOM     97  C   UNL     1      16.838  13.641 -15.781  1.00  0.00     0.060 A 
BRANCH  97  98
ATOM     98  S   UNL     1      17.800  14.440 -17.083  1.00  0.00     0.124 S 
ATOM     99  O   UNL     1      18.977  13.580 -17.147  1.00  0.00    -0.237 OA
ATOM    100  O   UNL     1      16.899  14.367 -18.229  1.00  0.00    -0.237 OA
ATOM    101  O   UNL     1      18.031  15.783 -16.559  1.00  0.00    -0.744 OA
ENDBRANCH  97  98
ENDBRANCH  65  90
ENDBRANCH  39  40
ENDBRANCH  31  34
ENDBRANCH  29  30
ENDBRANCH  28  29
ENDBRANCH   1  28
TORSDOF 17
