REMARK SMILES C[NH+](C)CC[NH2+][C@@H](C(=O)NCCCCNC(=O)c1ccc(-c2c3nc(c(-c4c(F)cc(S(=O)(=O)[O-])cc4F)c4ccc([nH]4)c(-c4c(F)cc(S(=O)(=O)[O-])cc4F)c4nc(c(-c5c(F)cc(S(=O)(=O)[O-])cc5F)c5ccc2[nH]5)C=C4)C=C3)cc1)c1cccc(C2CC2)c1
REMARK SMILES IDX 12 1 11 2 10 3 8 4 9 5 7 7 6 8 5 11 4 12 2 13 1 14 3 15
REMARK SMILES IDX 84 17 85 18 92 19 86 20 88 21 87 22 89 23 90 24 91 25 13 26
REMARK SMILES IDX 14 27 15 28 16 29 17 31 18 32 19 33 83 34 20 35 82 36 21 37
REMARK SMILES IDX 22 38 23 39 76 40 24 41 81 42 75 43 77 44 25 45 80 46 74 47
REMARK SMILES IDX 73 48 26 50 60 51 39 52 59 53 40 54 43 55 58 56 78 57 41 58
REMARK SMILES IDX 42 59 57 61 79 62 44 63 27 64 28 65 37 66 29 67 30 68 36 69
REMARK SMILES IDX 38 70 31 71 32 72 33 73 34 74 35 75 61 76 62 77 71 78 63 79
REMARK SMILES IDX 64 80 70 81 72 82 65 83 66 84 67 85 68 86 69 87 45 88 46 89
REMARK SMILES IDX 55 90 47 91 48 92 54 93 56 94 49 95 50 96 51 97 52 98 53 99
REMARK H PARENT 10 6 6 9 6 10 2 16 15 30 77 49 43 60
REMARK Flexibility Score: inf
ROOT
ATOM      1  C   UNL     1      -1.442   3.991   0.506  1.00  0.00     0.023 C 
ENDROOT
BRANCH   1   2
ATOM      2  C   UNL     1      -1.185   3.858   2.018  1.00  0.00     0.116 C 
BRANCH   2   3
ATOM      3  N   UNL     1      -1.615   2.561   2.513  1.00  0.00    -0.351 N 
ATOM      4  C   UNL     1      -0.909   1.428   2.818  1.00  0.00     0.283 C 
ATOM      5  O   UNL     1      -1.574   0.385   2.843  1.00  0.00    -0.268 OA
ATOM      6  H   UNL     1      -2.586   2.483   2.652  1.00  0.00     0.163 HD
BRANCH   4   7
ATOM      7  C   UNL     1       0.639   1.450   3.120  1.00  0.00     0.304 C 
BRANCH   7   8
ATOM      8  N   UNL     1       1.468   1.093   1.928  1.00  0.00    -0.328 N 
ATOM      9  H   UNL     1       2.449   1.096   2.207  1.00  0.00     0.347 HD
ATOM     10  H   UNL     1       1.152   0.176   1.613  1.00  0.00     0.347 HD
BRANCH   8  11
ATOM     11  C   UNL     1       1.308   2.001   0.806  1.00  0.00     0.323 C 
BRANCH  11  12
ATOM     12  C   UNL     1       1.763   1.501  -0.583  1.00  0.00     0.323 C 
BRANCH  12  13
ATOM     13  N   UNL     1       1.035   0.389  -1.219  1.00  0.00    -0.335 N 
ATOM     14  C   UNL     1       1.340  -0.922  -0.667  1.00  0.00     0.332 C 
ATOM     15  C   UNL     1      -0.409   0.590  -1.327  1.00  0.00     0.332 C 
ATOM     16  H   UNL     1       1.401   0.401  -2.170  1.00  0.00     0.347 HD
ENDBRANCH  12  13
ENDBRANCH  11  12
ENDBRANCH   8  11
ENDBRANCH   7   8
BRANCH   7  17
ATOM     17  C   UNL     1       0.961   0.425   4.224  1.00  0.00     0.019 A 
ATOM     18  C   UNL     1       0.811  -0.953   3.973  1.00  0.00     0.010 A 
ATOM     19  C   UNL     1       1.387   0.824   5.504  1.00  0.00     0.014 A 
ATOM     20  C   UNL     1       1.080  -1.896   4.954  1.00  0.00     0.001 A 
ATOM     21  C   UNL     1       1.653  -0.113   6.528  1.00  0.00    -0.044 A 
ATOM     22  C   UNL     1       1.493  -1.476   6.213  1.00  0.00     0.004 A 
BRANCH  21  23
ATOM     23  C   UNL     1       2.072   0.251   7.938  1.00  0.00     0.019 C 
ATOM     24  C   UNL     1       2.367   1.650   8.408  1.00  0.00     0.009 C 
ATOM     25  C   UNL     1       1.082   0.988   8.811  1.00  0.00     0.009 C 
ENDBRANCH  21  23
ENDBRANCH   7  17
ENDBRANCH   4   7
ENDBRANCH   2   3
ENDBRANCH   1   2
BRANCH   1  26
ATOM     26  C   UNL     1      -2.904   4.086   0.094  1.00  0.00     0.023 C 
BRANCH  26  27
ATOM     27  C   UNL     1      -3.533   5.426   0.403  1.00  0.00     0.116 C 
BRANCH  27  28
ATOM     28  N   UNL     1      -2.859   6.527  -0.275  1.00  0.00    -0.352 N 
ATOM     29  C   UNL     1      -3.404   7.542  -1.027  1.00  0.00     0.251 C 
ATOM     30  H   UNL     1      -1.879   6.547  -0.181  1.00  0.00     0.163 HD
ATOM     31  O   UNL     1      -2.686   8.301  -1.657  1.00  0.00    -0.269 OA
BRANCH  29  32
ATOM     32  C   UNL     1      -4.874   7.666  -1.077  1.00  0.00     0.039 A 
ATOM     33  C   UNL     1      -5.503   7.834  -2.311  1.00  0.00     0.014 A 
ATOM     34  C   UNL     1      -5.622   7.538   0.096  1.00  0.00     0.014 A 
ATOM     35  C   UNL     1      -6.896   7.804  -2.373  1.00  0.00     0.010 A 
ATOM     36  C   UNL     1      -6.997   7.394   0.015  1.00  0.00     0.010 A 
ATOM     37  C   UNL     1      -7.649   7.544  -1.216  1.00  0.00    -0.014 A 
BRANCH  37  38
ATOM     38  C   UNL     1      -9.128   7.465  -1.250  1.00  0.00     0.031 A 
ATOM     39  C   UNL     1      -9.934   8.443  -0.438  1.00  0.00     0.074 A 
ATOM     40  C   UNL     1      -9.732   6.474  -1.933  1.00  0.00     0.049 A 
ATOM     41  N   UNL     1     -11.225   8.486  -0.240  1.00  0.00    -0.248 NA
ATOM     42  C   UNL     1      -9.183   9.485   0.286  1.00  0.00     0.031 C 
ATOM     43  C   UNL     1      -9.047   5.430  -2.700  1.00  0.00     0.029 A 
ATOM     44  N   UNL     1     -11.061   6.175  -2.083  1.00  0.00    -0.354 N 
ATOM     45  C   UNL     1     -11.433   9.532   0.651  1.00  0.00     0.074 A 
ATOM     46  C   UNL     1     -10.135  10.057   1.005  1.00  0.00     0.031 C 
ATOM     47  C   UNL     1      -9.963   4.627  -3.267  1.00  0.00     0.029 A 
ATOM     48  C   UNL     1     -11.295   5.076  -2.875  1.00  0.00     0.049 A 
ATOM     49  H   UNL     1     -11.782   6.699  -1.664  1.00  0.00     0.167 HD
ATOM     50  C   UNL     1     -12.605  10.030   1.109  1.00  0.00     0.037 A 
ATOM     51  C   UNL     1     -12.456   4.500  -3.242  1.00  0.00     0.037 A 
ATOM     52  C   UNL     1     -13.892   9.537   0.701  1.00  0.00     0.049 A 
ATOM     53  C   UNL     1     -13.747   5.099  -2.757  1.00  0.00     0.074 A 
ATOM     54  C   UNL     1     -15.144  10.020   1.034  1.00  0.00     0.029 A 
ATOM     55  N   UNL     1     -14.089   8.451  -0.140  1.00  0.00    -0.354 N 
ATOM     56  N   UNL     1     -13.931   6.132  -1.968  1.00  0.00    -0.248 NA
ATOM     57  C   UNL     1     -14.989   4.463  -3.216  1.00  0.00     0.031 C 
ATOM     58  C   UNL     1     -16.101   9.205   0.419  1.00  0.00     0.029 A 
ATOM     59  C   UNL     1     -15.444   8.240  -0.328  1.00  0.00     0.049 A 
ATOM     60  H   UNL     1     -13.372   7.911  -0.543  1.00  0.00     0.167 HD
ATOM     61  C   UNL     1     -15.308   6.286  -1.858  1.00  0.00     0.074 A 
ATOM     62  C   UNL     1     -15.909   5.245  -2.669  1.00  0.00     0.031 C 
ATOM     63  C   UNL     1     -16.014   7.203  -1.151  1.00  0.00     0.037 A 
BRANCH  50  64
ATOM     64  C   UNL     1     -12.542  11.174   2.082  1.00  0.00     0.058 A 
ATOM     65  C   UNL     1     -12.118  12.454   1.690  1.00  0.00     0.135 A 
ATOM     66  C   UNL     1     -12.919  10.992   3.422  1.00  0.00     0.135 A 
ATOM     67  F   UNL     1     -11.726  12.679   0.426  1.00  0.00    -0.206 F 
ATOM     68  C   UNL     1     -12.038  13.504   2.598  1.00  0.00     0.059 A 
ATOM     69  C   UNL     1     -12.874  12.036   4.342  1.00  0.00     0.059 A 
ATOM     70  F   UNL     1     -13.327   9.787   3.852  1.00  0.00    -0.206 F 
ATOM     71  C   UNL     1     -12.416  13.284   3.923  1.00  0.00     0.060 A 
BRANCH  71  72
ATOM     72  S   UNL     1     -12.307  14.657   5.090  1.00  0.00     0.124 S 
ATOM     73  O   UNL     1     -10.867  14.733   5.315  1.00  0.00    -0.237 OA
ATOM     74  O   UNL     1     -12.888  15.761   4.331  1.00  0.00    -0.237 OA
ATOM     75  O   UNL     1     -13.098  14.199   6.228  1.00  0.00    -0.744 OA
ENDBRANCH  71  72
ENDBRANCH  50  64
BRANCH  51  76
ATOM     76  C   UNL     1     -12.449   3.320  -4.147  1.00  0.00     0.058 A 
ATOM     77  C   UNL     1     -12.870   3.438  -5.480  1.00  0.00     0.135 A 
ATOM     78  C   UNL     1     -12.008   2.062  -3.709  1.00  0.00     0.135 A 
ATOM     79  F   UNL     1     -13.302   4.620  -5.944  1.00  0.00    -0.206 F 
ATOM     80  C   UNL     1     -12.871   2.348  -6.344  1.00  0.00     0.059 A 
ATOM     81  C   UNL     1     -11.979   0.961  -4.561  1.00  0.00     0.059 A 
ATOM     82  F   UNL     1     -11.576   1.901  -2.449  1.00  0.00    -0.206 F 
ATOM     83  C   UNL     1     -12.422   1.112  -5.875  1.00  0.00     0.060 A 
BRANCH  83  84
ATOM     84  S   UNL     1     -12.384  -0.286  -7.018  1.00  0.00     0.124 S 
ATOM     85  O   UNL     1     -13.799  -0.623  -7.116  1.00  0.00    -0.237 OA
ATOM     86  O   UNL     1     -11.784   0.308  -8.209  1.00  0.00    -0.237 OA
ATOM     87  O   UNL     1     -11.547  -1.261  -6.324  1.00  0.00    -0.744 OA
ENDBRANCH  83  84
ENDBRANCH  51  76
BRANCH  63  88
ATOM     88  C   UNL     1     -17.510   7.145  -1.250  1.00  0.00     0.058 A 
ATOM     89  C   UNL     1     -18.252   6.153  -0.593  1.00  0.00     0.135 A 
ATOM     90  C   UNL     1     -18.212   8.132  -1.962  1.00  0.00     0.135 A 
ATOM     91  F   UNL     1     -17.626   5.186   0.096  1.00  0.00    -0.206 F 
ATOM     92  C   UNL     1     -19.641   6.129  -0.653  1.00  0.00     0.059 A 
ATOM     93  C   UNL     1     -19.601   8.141  -2.015  1.00  0.00     0.059 A 
ATOM     94  F   UNL     1     -17.546   9.109  -2.598  1.00  0.00    -0.206 F 
ATOM     95  C   UNL     1     -20.306   7.129  -1.366  1.00  0.00     0.060 A 
BRANCH  95  96
ATOM     96  S   UNL     1     -22.111   7.110  -1.405  1.00  0.00     0.124 S 
ATOM     97  O   UNL     1     -22.372   6.032  -2.353  1.00  0.00    -0.237 OA
ATOM     98  O   UNL     1     -22.452   6.827  -0.014  1.00  0.00    -0.237 OA
ATOM     99  O   UNL     1     -22.454   8.451  -1.867  1.00  0.00    -0.744 OA
ENDBRANCH  95  96
ENDBRANCH  63  88
ENDBRANCH  37  38
ENDBRANCH  29  32
ENDBRANCH  27  28
ENDBRANCH  26  27
ENDBRANCH   1  26
TORSDOF 20
