REMARK SMILES Cc1ccc(-c2cn3c(n2)sc2cc(C(=O)NCCCCNC(=O)c4ccc(-c5c6nc(c(-c7c(F)cc(S(=O)(=O)[O-])cc7F)c7ccc([nH]7)c(-c7c(F)cc(S(=O)(=O)[O-])cc7F)c7nc(c(-c8c(F)cc(S(=O)(=O)[O-])cc8F)c8ccc5[nH]8)C=C7)C=C6)cc4)ccc23)cc1
REMARK SMILES IDX 20 1 19 2 18 3 17 4 15 5 16 6 14 8 6 9 7 10 10 11 8 12 9 13
REMARK SMILES IDX 93 14 11 15 12 16 92 17 13 18 91 19 5 20 1 21 2 22 3 23
REMARK SMILES IDX 95 24 4 25 94 26 21 27 22 28 23 29 24 31 25 32 26 33 90 34
REMARK SMILES IDX 27 35 89 36 28 37 29 38 30 39 83 40 31 41 88 42 82 43 84 44
REMARK SMILES IDX 32 45 87 46 81 47 80 48 33 50 67 51 46 52 66 53 47 54 50 55
REMARK SMILES IDX 65 56 85 57 48 58 49 59 64 61 86 62 51 63 34 64 35 65 44 66
REMARK SMILES IDX 36 67 37 68 43 69 45 70 38 71 39 72 40 73 41 74 42 75 68 76
REMARK SMILES IDX 69 77 78 78 70 79 71 80 77 81 79 82 72 83 73 84 74 85 75 86
REMARK SMILES IDX 76 87 52 88 53 89 62 90 54 91 55 92 61 93 63 94 56 95 57 96
REMARK SMILES IDX 58 97 59 98 60 99
REMARK H PARENT 17 7 22 30 84 49 50 60
REMARK Flexibility Score: inf
ROOT
ATOM      1  C   UNL     1      -5.334   3.256   6.377  1.00  0.00     0.023 C 
ENDROOT
BRANCH   1   2
ATOM      2  C   UNL     1      -5.505   2.240   5.244  1.00  0.00     0.023 C 
BRANCH   2   3
ATOM      3  C   UNL     1      -4.682   0.947   5.383  1.00  0.00     0.116 C 
BRANCH   3   4
ATOM      4  N   UNL     1      -5.250   0.008   6.356  1.00  0.00    -0.352 N 
ATOM      5  C   UNL     1      -5.986  -1.144   6.157  1.00  0.00     0.251 C 
ATOM      6  O   UNL     1      -6.230  -1.904   7.089  1.00  0.00    -0.269 OA
ATOM      7  H   UNL     1      -5.080   0.234   7.299  1.00  0.00     0.163 HD
BRANCH   5   8
ATOM      8  C   UNL     1      -6.407  -1.518   4.785  1.00  0.00     0.041 A 
ATOM      9  C   UNL     1      -3.709  -1.164   0.128  1.00  0.00     0.090 A 
ATOM     10  C   UNL     1      -4.561  -2.247   0.325  1.00  0.00     0.123 A 
ATOM     11  N   UNL     1      -4.404   0.035   0.148  1.00  0.00    -0.219 NA
ATOM     12  N   UNL     1      -5.643  -1.633   0.888  1.00  0.00    -0.290 N 
ATOM     13  C   UNL     1      -5.612  -0.309   0.532  1.00  0.00     0.195 A 
ATOM     14  C   UNL     1      -6.295  -1.917   2.096  1.00  0.00     0.065 A 
ATOM     15  S   UNL     1      -6.797   0.628   1.416  1.00  0.00    -0.096 S 
ATOM     16  C   UNL     1      -6.880  -0.742   2.592  1.00  0.00     0.056 A 
ATOM     17  C   UNL     1      -5.943  -2.988   2.909  1.00  0.00     0.029 A 
ATOM     18  C   UNL     1      -7.011  -0.569   3.955  1.00  0.00     0.035 A 
ATOM     19  C   UNL     1      -5.970  -2.761   4.284  1.00  0.00     0.016 A 
BRANCH   9  20
ATOM     20  C   UNL     1      -2.292  -1.310   0.414  1.00  0.00     0.002 A 
ATOM     21  C   UNL     1       1.565  -2.437   1.984  1.00  0.00     0.044 C 
ATOM     22  C   UNL     1       0.232  -2.022   1.430  1.00  0.00    -0.051 A 
ATOM     23  C   UNL     1      -0.268  -2.635   0.275  1.00  0.00     0.004 A 
ATOM     24  C   UNL     1      -0.526  -1.023   2.051  1.00  0.00     0.004 A 
ATOM     25  C   UNL     1      -1.527  -2.289  -0.225  1.00  0.00     0.010 A 
ATOM     26  C   UNL     1      -1.769  -0.652   1.536  1.00  0.00     0.010 A 
ENDBRANCH   9  20
ENDBRANCH   5   8
ENDBRANCH   3   4
ENDBRANCH   2   3
ENDBRANCH   1   2
BRANCH   1  27
ATOM     27  C   UNL     1      -4.010   3.994   6.342  1.00  0.00     0.116 C 
BRANCH  27  28
ATOM     28  N   UNL     1      -3.877   5.015   5.313  1.00  0.00    -0.352 N 
ATOM     29  C   UNL     1      -2.966   6.046   5.542  1.00  0.00     0.251 C 
ATOM     30  H   UNL     1      -4.410   4.979   4.486  1.00  0.00     0.163 HD
ATOM     31  O   UNL     1      -3.176   7.028   6.242  1.00  0.00    -0.269 OA
BRANCH  29  32
ATOM     32  C   UNL     1      -1.597   5.686   5.113  1.00  0.00     0.039 A 
ATOM     33  C   UNL     1      -0.972   6.200   3.978  1.00  0.00     0.014 A 
ATOM     34  C   UNL     1      -1.033   4.628   5.824  1.00  0.00     0.014 A 
ATOM     35  C   UNL     1       0.189   5.574   3.500  1.00  0.00     0.010 A 
ATOM     36  C   UNL     1       0.018   3.940   5.281  1.00  0.00     0.010 A 
ATOM     37  C   UNL     1       0.650   4.414   4.125  1.00  0.00    -0.014 A 
BRANCH  37  38
ATOM     38  C   UNL     1       1.749   3.553   3.697  1.00  0.00     0.031 A 
ATOM     39  C   UNL     1       2.898   3.318   4.620  1.00  0.00     0.074 A 
ATOM     40  C   UNL     1       1.510   2.679   2.696  1.00  0.00     0.049 A 
ATOM     41  N   UNL     1       3.875   2.509   4.390  1.00  0.00    -0.248 NA
ATOM     42  C   UNL     1       3.019   3.983   5.918  1.00  0.00     0.031 C 
ATOM     43  C   UNL     1       2.109   1.359   2.533  1.00  0.00     0.029 A 
ATOM     44  N   UNL     1       0.804   2.886   1.513  1.00  0.00    -0.354 N 
ATOM     45  C   UNL     1       4.574   2.328   5.562  1.00  0.00     0.074 A 
ATOM     46  C   UNL     1       4.011   3.287   6.483  1.00  0.00     0.031 C 
ATOM     47  C   UNL     1       1.952   0.960   1.265  1.00  0.00     0.029 A 
ATOM     48  C   UNL     1       1.401   2.077   0.531  1.00  0.00     0.049 A 
ATOM     49  H   UNL     1       0.033   3.486   1.388  1.00  0.00     0.167 HD
ATOM     50  C   UNL     1       5.476   1.308   5.652  1.00  0.00     0.037 A 
ATOM     51  C   UNL     1       2.012   2.603  -0.571  1.00  0.00     0.037 A 
ATOM     52  C   UNL     1       5.588   0.593   4.381  1.00  0.00     0.049 A 
ATOM     53  C   UNL     1       3.470   2.222  -0.658  1.00  0.00     0.074 A 
ATOM     54  C   UNL     1       5.059  -0.601   3.919  1.00  0.00     0.029 A 
ATOM     55  N   UNL     1       6.091   1.258   3.264  1.00  0.00    -0.354 N 
ATOM     56  N   UNL     1       4.220   1.964   0.382  1.00  0.00    -0.248 NA
ATOM     57  C   UNL     1       4.163   1.986  -1.920  1.00  0.00     0.031 C 
ATOM     58  C   UNL     1       5.211  -0.635   2.511  1.00  0.00     0.029 A 
ATOM     59  C   UNL     1       5.850   0.530   2.116  1.00  0.00     0.049 A 
ATOM     60  H   UNL     1       6.553   2.126   3.290  1.00  0.00     0.167 HD
ATOM     61  C   UNL     1       5.423   1.456  -0.039  1.00  0.00     0.074 A 
ATOM     62  C   UNL     1       5.349   1.521  -1.489  1.00  0.00     0.031 C 
ATOM     63  C   UNL     1       6.361   0.957   0.822  1.00  0.00     0.037 A 
BRANCH  50  64
ATOM     64  C   UNL     1       6.074   0.817   6.958  1.00  0.00     0.058 A 
ATOM     65  C   UNL     1       6.390  -0.546   7.156  1.00  0.00     0.135 A 
ATOM     66  C   UNL     1       6.340   1.645   8.067  1.00  0.00     0.135 A 
ATOM     67  F   UNL     1       6.263  -1.447   6.173  1.00  0.00    -0.206 F 
ATOM     68  C   UNL     1       6.838  -1.058   8.378  1.00  0.00     0.059 A 
ATOM     69  C   UNL     1       6.732   1.150   9.317  1.00  0.00     0.059 A 
ATOM     70  F   UNL     1       6.272   2.980   7.967  1.00  0.00    -0.206 F 
ATOM     71  C   UNL     1       6.976  -0.208   9.466  1.00  0.00     0.060 A 
BRANCH  71  72
ATOM     72  S   UNL     1       7.471  -0.900  11.056  1.00  0.00     0.124 S 
ATOM     73  O   UNL     1       6.503  -1.976  11.241  1.00  0.00    -0.237 OA
ATOM     74  O   UNL     1       8.843  -1.318  10.792  1.00  0.00    -0.237 OA
ATOM     75  O   UNL     1       7.325   0.225  11.976  1.00  0.00    -0.744 OA
ENDBRANCH  71  72
ENDBRANCH  50  64
BRANCH  51  76
ATOM     76  C   UNL     1       1.352   3.845  -1.056  1.00  0.00     0.058 A 
ATOM     77  C   UNL     1       0.068   3.676  -1.613  1.00  0.00     0.135 A 
ATOM     78  C   UNL     1       1.644   5.082  -0.461  1.00  0.00     0.135 A 
ATOM     79  F   UNL     1      -0.243   2.524  -2.232  1.00  0.00    -0.206 F 
ATOM     80  C   UNL     1      -0.955   4.585  -1.370  1.00  0.00     0.059 A 
ATOM     81  C   UNL     1       0.635   6.020  -0.226  1.00  0.00     0.059 A 
ATOM     82  F   UNL     1       2.856   5.310   0.066  1.00  0.00    -0.206 F 
ATOM     83  C   UNL     1      -0.676   5.708  -0.594  1.00  0.00     0.060 A 
BRANCH  83  84
ATOM     84  S   UNL     1      -2.072   6.613   0.120  1.00  0.00     0.124 S 
ATOM     85  O   UNL     1      -2.906   6.875  -1.048  1.00  0.00    -0.237 OA
ATOM     86  O   UNL     1      -2.600   5.636   1.071  1.00  0.00    -0.237 OA
ATOM     87  O   UNL     1      -1.445   7.785   0.721  1.00  0.00    -0.744 OA
ENDBRANCH  83  84
ENDBRANCH  51  76
BRANCH  63  88
ATOM     88  C   UNL     1       7.815   0.676   0.498  1.00  0.00     0.058 A 
ATOM     89  C   UNL     1       8.516   1.296  -0.550  1.00  0.00     0.135 A 
ATOM     90  C   UNL     1       8.613  -0.113   1.369  1.00  0.00     0.135 A 
ATOM     91  F   UNL     1       7.916   2.161  -1.380  1.00  0.00    -0.206 F 
ATOM     92  C   UNL     1       9.883   1.103  -0.759  1.00  0.00     0.059 A 
ATOM     93  C   UNL     1       9.987  -0.274   1.211  1.00  0.00     0.059 A 
ATOM     94  F   UNL     1       8.092  -0.739   2.435  1.00  0.00    -0.206 F 
ATOM     95  C   UNL     1      10.613   0.323   0.130  1.00  0.00     0.060 A 
BRANCH  95  96
ATOM     96  S   UNL     1      12.396   0.166  -0.068  1.00  0.00     0.124 S 
ATOM     97  O   UNL     1      12.492  -1.030  -0.899  1.00  0.00    -0.237 OA
ATOM     98  O   UNL     1      12.760   1.419  -0.724  1.00  0.00    -0.237 OA
ATOM     99  O   UNL     1      12.871   0.027   1.304  1.00  0.00    -0.744 OA
ENDBRANCH  95  96
ENDBRANCH  63  88
ENDBRANCH  37  38
ENDBRANCH  29  32
ENDBRANCH  27  28
ENDBRANCH   1  27
TORSDOF 15
