REMARK SMILES CC[C@H](NC(=O)Cc1c(C)c2cc(Cl)c(OC)cc2oc1=O)C(=O)NCCCCNC(=O)c1ccc(-c2c3nc(c(-c4c(F)cc(S(=O)(=O)[O-])cc4F)c4ccc([nH]4)c(-c4c(F)cc(S(=O)(=O)[O-])cc4F)c4nc(c(-c5c(F)cc(S(=O)(=O)[O-])cc5F)c5ccc2[nH]5)C=C4)C=C3)cc1
REMARK SMILES IDX 27 1 26 2 25 3 23 4 24 5 3 7 2 8 1 9 4 10 5 11 6 13 7 14
REMARK SMILES IDX 8 15 9 16 21 17 10 18 11 19 20 20 22 21 12 22 19 23 13 24
REMARK SMILES IDX 18 25 14 26 15 27 16 28 17 29 28 30 29 31 30 32 31 33 32 35
REMARK SMILES IDX 33 36 34 37 98 38 35 39 97 40 36 41 37 42 38 43 91 44 39 45
REMARK SMILES IDX 96 46 90 47 92 48 40 49 95 50 89 51 88 52 41 54 75 55 54 56
REMARK SMILES IDX 74 57 55 58 58 59 73 60 93 61 56 62 57 63 72 65 94 66 59 67
REMARK SMILES IDX 42 68 43 69 52 70 44 71 45 72 51 73 53 74 46 75 47 76 48 77
REMARK SMILES IDX 49 78 50 79 76 80 77 81 86 82 78 83 79 84 85 85 87 86 80 87
REMARK SMILES IDX 81 88 82 89 83 90 84 91 60 92 61 93 70 94 62 95 63 96 69 97
REMARK SMILES IDX 71 98 64 99 65 100 66 101 67 102 68 103
REMARK H PARENT 25 6 4 12 30 34 92 53 58 64
REMARK Flexibility Score: inf
ROOT
ATOM      1  C   UNL     1      -3.127  -0.487   2.433  1.00  0.00     0.023 C 
ENDROOT
BRANCH   1   2
ATOM      2  C   UNL     1      -2.465   0.820   2.858  1.00  0.00     0.116 C 
BRANCH   2   3
ATOM      3  N   UNL     1      -1.421   0.689   3.850  1.00  0.00    -0.354 N 
ATOM      4  C   UNL     1      -0.068   0.703   3.693  1.00  0.00     0.242 C 
ATOM      5  O   UNL     1       0.634   1.001   4.664  1.00  0.00    -0.273 OA
ATOM      6  H   UNL     1      -1.734   0.571   4.776  1.00  0.00     0.163 HD
BRANCH   4   7
ATOM      7  C   UNL     1       0.596   0.515   2.319  1.00  0.00     0.171 C 
BRANCH   7   8
ATOM      8  C   UNL     1       0.578   1.895   1.603  1.00  0.00     0.031 C 
ATOM      9  C   UNL     1      -0.062   1.971   0.220  1.00  0.00     0.006 C 
ENDBRANCH   7   8
BRANCH   7  10
ATOM     10  N   UNL     1       0.131  -0.593   1.481  1.00  0.00    -0.344 N 
ATOM     11  C   UNL     1       0.147  -1.934   1.745  1.00  0.00     0.225 C 
ATOM     12  H   UNL     1      -0.244  -0.337   0.608  1.00  0.00     0.164 HD
ATOM     13  O   UNL     1       0.362  -2.679   0.785  1.00  0.00    -0.275 OA
BRANCH  11  14
ATOM     14  C   UNL     1      -0.214  -2.499   3.119  1.00  0.00     0.143 C 
BRANCH  14  15
ATOM     15  C   UNL     1       0.946  -2.738   4.041  1.00  0.00     0.051 A 
ATOM     16  C   UNL     1       1.935  -3.637   3.854  1.00  0.00    -0.029 A 
ATOM     17  C   UNL     1       0.857  -1.995   5.329  1.00  0.00     0.340 A 
ATOM     18  C   UNL     1       1.956  -4.626   2.717  1.00  0.00     0.046 C 
ATOM     19  C   UNL     1       3.061  -3.646   4.806  1.00  0.00     0.023 A 
ATOM     20  O   UNL     1       2.039  -1.785   6.006  1.00  0.00    -0.422 OA
ATOM     21  O   UNL     1      -0.213  -1.574   5.756  1.00  0.00    -0.246 OA
ATOM     22  C   UNL     1       4.137  -4.537   4.736  1.00  0.00     0.036 A 
ATOM     23  C   UNL     1       3.105  -2.671   5.800  1.00  0.00     0.142 A 
ATOM     24  C   UNL     1       5.215  -4.429   5.628  1.00  0.00     0.083 A 
ATOM     25  C   UNL     1       4.180  -2.536   6.682  1.00  0.00     0.095 A 
ATOM     26  Cl  UNL     1       6.502  -5.577   5.472  1.00  0.00    -0.080 Cl
ATOM     27  C   UNL     1       5.252  -3.422   6.605  1.00  0.00     0.141 A 
BRANCH  27  28
ATOM     28  O   UNL     1       6.351  -3.382   7.422  1.00  0.00    -0.495 OA
ATOM     29  C   UNL     1       6.342  -2.430   8.479  1.00  0.00     0.278 C 
ENDBRANCH  27  28
ENDBRANCH  14  15
ENDBRANCH  11  14
ENDBRANCH   7  10
ENDBRANCH   4   7
ENDBRANCH   2   3
ENDBRANCH   1   2
BRANCH   1  30
ATOM     30  C   UNL     1      -3.798  -1.272   3.558  1.00  0.00     0.023 C 
BRANCH  30  31
ATOM     31  C   UNL     1      -4.815  -0.482   4.363  1.00  0.00     0.116 C 
BRANCH  31  32
ATOM     32  N   UNL     1      -5.853   0.127   3.542  1.00  0.00    -0.352 N 
ATOM     33  C   UNL     1      -7.185   0.298   3.837  1.00  0.00     0.251 C 
ATOM     34  H   UNL     1      -5.564   0.459   2.662  1.00  0.00     0.163 HD
ATOM     35  O   UNL     1      -7.956   0.741   2.992  1.00  0.00    -0.269 OA
BRANCH  33  36
ATOM     36  C   UNL     1      -7.675  -0.107   5.170  1.00  0.00     0.039 A 
ATOM     37  C   UNL     1      -6.959   0.247   6.314  1.00  0.00     0.014 A 
ATOM     38  C   UNL     1      -8.806  -0.920   5.265  1.00  0.00     0.014 A 
ATOM     39  C   UNL     1      -7.256  -0.369   7.519  1.00  0.00     0.010 A 
ATOM     40  C   UNL     1      -9.168  -1.454   6.505  1.00  0.00     0.010 A 
ATOM     41  C   UNL     1      -8.361  -1.230   7.631  1.00  0.00    -0.014 A 
BRANCH  41  42
ATOM     42  C   UNL     1      -8.629  -1.881   8.939  1.00  0.00     0.031 A 
ATOM     43  C   UNL     1      -8.552  -3.377   9.091  1.00  0.00     0.074 A 
ATOM     44  C   UNL     1      -8.854  -1.100  10.014  1.00  0.00     0.049 A 
ATOM     45  N   UNL     1      -8.678  -4.099  10.175  1.00  0.00    -0.248 NA
ATOM     46  C   UNL     1      -8.310  -4.167   7.873  1.00  0.00     0.031 C 
ATOM     47  C   UNL     1      -8.948   0.362   9.984  1.00  0.00     0.029 A 
ATOM     48  N   UNL     1      -8.999  -1.413  11.341  1.00  0.00    -0.354 N 
ATOM     49  C   UNL     1      -8.553  -5.423   9.770  1.00  0.00     0.074 A 
ATOM     50  C   UNL     1      -8.374  -5.409   8.335  1.00  0.00     0.031 C 
ATOM     51  C   UNL     1      -9.049   0.822  11.238  1.00  0.00     0.029 A 
ATOM     52  C   UNL     1      -9.101  -0.311  12.156  1.00  0.00     0.049 A 
ATOM     53  H   UNL     1      -9.027  -2.338  11.678  1.00  0.00     0.167 HD
ATOM     54  C   UNL     1      -8.572  -6.546  10.528  1.00  0.00     0.037 A 
ATOM     55  C   UNL     1      -9.226  -0.217  13.493  1.00  0.00     0.037 A 
ATOM     56  C   UNL     1      -8.718  -6.547  11.960  1.00  0.00     0.049 A 
ATOM     57  C   UNL     1      -9.269  -1.475  14.309  1.00  0.00     0.074 A 
ATOM     58  C   UNL     1      -8.714  -7.628  12.824  1.00  0.00     0.029 A 
ATOM     59  N   UNL     1      -8.892  -5.413  12.741  1.00  0.00    -0.354 N 
ATOM     60  N   UNL     1      -9.137  -2.717  13.908  1.00  0.00    -0.248 NA
ATOM     61  C   UNL     1      -9.497  -1.325  15.751  1.00  0.00     0.031 C 
ATOM     62  C   UNL     1      -8.930  -7.152  14.121  1.00  0.00     0.029 A 
ATOM     63  C   UNL     1      -9.026  -5.770  14.072  1.00  0.00     0.049 A 
ATOM     64  H   UNL     1      -8.917  -4.490  12.398  1.00  0.00     0.167 HD
ATOM     65  C   UNL     1      -9.268  -3.498  15.049  1.00  0.00     0.074 A 
ATOM     66  C   UNL     1      -9.466  -2.587  16.159  1.00  0.00     0.031 C 
ATOM     67  C   UNL     1      -9.234  -4.849  15.163  1.00  0.00     0.037 A 
BRANCH  54  68
ATOM     68  C   UNL     1      -8.443  -7.869   9.823  1.00  0.00     0.058 A 
ATOM     69  C   UNL     1      -7.227  -8.294   9.263  1.00  0.00     0.135 A 
ATOM     70  C   UNL     1      -9.542  -8.739   9.734  1.00  0.00     0.135 A 
ATOM     71  F   UNL     1      -6.148  -7.497   9.307  1.00  0.00    -0.206 F 
ATOM     72  C   UNL     1      -7.114  -9.519   8.614  1.00  0.00     0.059 A 
ATOM     73  C   UNL     1      -9.445  -9.980   9.111  1.00  0.00     0.059 A 
ATOM     74  F   UNL     1     -10.727  -8.385  10.254  1.00  0.00    -0.206 F 
ATOM     75  C   UNL     1      -8.230 -10.354   8.539  1.00  0.00     0.060 A 
BRANCH  75  76
ATOM     76  S   UNL     1      -8.068 -11.934   7.680  1.00  0.00     0.124 S 
ATOM     77  O   UNL     1      -7.978 -11.500   6.289  1.00  0.00    -0.237 OA
ATOM     78  O   UNL     1      -6.841 -12.477   8.254  1.00  0.00    -0.237 OA
ATOM     79  O   UNL     1      -9.292 -12.645   8.037  1.00  0.00    -0.744 OA
ENDBRANCH  75  76
ENDBRANCH  54  68
BRANCH  55  80
ATOM     80  C   UNL     1      -9.309   1.126  14.123  1.00  0.00     0.058 A 
ATOM     81  C   UNL     1      -8.240   1.640  14.868  1.00  0.00     0.135 A 
ATOM     82  C   UNL     1     -10.427   1.953  13.923  1.00  0.00     0.135 A 
ATOM     83  F   UNL     1      -7.153   0.886  15.091  1.00  0.00    -0.206 F 
ATOM     84  C   UNL     1      -8.268   2.932  15.384  1.00  0.00     0.059 A 
ATOM     85  C   UNL     1     -10.468   3.256  14.406  1.00  0.00     0.059 A 
ATOM     86  F   UNL     1     -11.470   1.511  13.202  1.00  0.00    -0.206 F 
ATOM     87  C   UNL     1      -9.383   3.737  15.136  1.00  0.00     0.060 A 
BRANCH  87  88
ATOM     88  S   UNL     1      -9.367   5.442  15.729  1.00  0.00     0.124 S 
ATOM     89  O   UNL     1      -9.520   5.256  17.167  1.00  0.00    -0.237 OA
ATOM     90  O   UNL     1      -8.059   5.909  15.281  1.00  0.00    -0.237 OA
ATOM     91  O   UNL     1     -10.507   6.046  15.045  1.00  0.00    -0.744 OA
ENDBRANCH  87  88
ENDBRANCH  55  80
BRANCH  67  92
ATOM     92  C   UNL     1      -9.429  -5.434  16.532  1.00  0.00     0.058 A 
ATOM     93  C   UNL     1     -10.701  -5.494  17.121  1.00  0.00     0.135 A 
ATOM     94  C   UNL     1      -8.355  -6.024  17.218  1.00  0.00     0.135 A 
ATOM     95  F   UNL     1     -11.756  -4.935  16.509  1.00  0.00    -0.206 F 
ATOM     96  C   UNL     1     -10.903  -6.123  18.344  1.00  0.00     0.059 A 
ATOM     97  C   UNL     1      -8.539  -6.677  18.432  1.00  0.00     0.059 A 
ATOM     98  F   UNL     1      -7.120  -5.996  16.692  1.00  0.00    -0.206 F 
ATOM     99  C   UNL     1      -9.817  -6.720  18.988  1.00  0.00     0.060 A 
BRANCH  99 100
ATOM    100  S   UNL     1     -10.112  -7.596  20.538  1.00  0.00     0.124 S 
ATOM    101  O   UNL     1     -10.370  -6.492  21.456  1.00  0.00    -0.237 OA
ATOM    102  O   UNL     1     -11.264  -8.431  20.210  1.00  0.00    -0.237 OA
ATOM    103  O   UNL     1      -8.864  -8.320  20.763  1.00  0.00    -0.744 OA
ENDBRANCH  99 100
ENDBRANCH  67  92
ENDBRANCH  41  42
ENDBRANCH  33  36
ENDBRANCH  31  32
ENDBRANCH  30  31
ENDBRANCH   1  30
TORSDOF 19
