REMARK SMILES Cc1ccc(S(=O)(=O)N2CCN(C(=O)[C@H]3CCCC[C@H]3C(=O)NCCCCNC(=O)c3ccc(-c4c5nc(c(-c6c(F)cc(S(=O)(=O)[O-])cc6F)c6ccc([nH]6)c(-c6c(F)cc(S(=O)(=O)[O-])cc6F)c6nc(c(-c7c(F)cc(S(=O)(=O)[O-])cc7F)c7ccc4[nH]7)C=C6)C=C5)cc3)CC2)cc1C
REMARK SMILES IDX 25 1 24 2 23 3 21 4 22 5 20 7 15 8 16 9 17 10 19 11 18 12
REMARK SMILES IDX 13 13 9 14 10 15 98 16 11 17 97 18 12 19 14 20 6 21 7 22
REMARK SMILES IDX 8 23 5 24 1 25 2 26 3 27 100 28 4 29 99 30 101 31 26 32
REMARK SMILES IDX 27 33 28 34 29 35 30 37 31 38 32 39 96 40 33 41 95 42 34 43
REMARK SMILES IDX 35 44 36 45 89 46 37 47 94 48 88 49 90 50 38 51 93 52 87 53
REMARK SMILES IDX 86 54 39 56 73 57 52 58 72 59 53 60 56 61 71 62 91 63 54 64
REMARK SMILES IDX 55 65 70 67 92 68 57 69 40 70 41 71 50 72 42 73 43 74 49 75
REMARK SMILES IDX 51 76 44 77 45 78 46 79 47 80 48 81 74 82 75 83 84 84 76 85
REMARK SMILES IDX 77 86 83 87 85 88 78 89 79 90 80 91 81 92 82 93 58 94 59 95
REMARK SMILES IDX 68 96 60 97 61 98 67 99 69 100 62 101 63 102 64 103 65 104
REMARK SMILES IDX 66 105
REMARK H PARENT 23 6 28 36 90 55 56 66
REMARK Flexibility Score: inf
ROOT
ATOM      1  C   UNL     1      -5.174   7.596   2.996  1.00  0.00     0.023 C 
ENDROOT
BRANCH   1   2
ATOM      2  C   UNL     1      -5.000   7.505   1.483  1.00  0.00     0.116 C 
BRANCH   2   3
ATOM      3  N   UNL     1      -3.904   6.638   1.110  1.00  0.00    -0.356 N 
ATOM      4  C   UNL     1      -3.870   5.487   0.387  1.00  0.00     0.223 C 
ATOM      5  O   UNL     1      -2.792   4.885   0.338  1.00  0.00    -0.275 OA
ATOM      6  H   UNL     1      -3.025   6.934   1.439  1.00  0.00     0.163 HD
BRANCH   4   7
ATOM      7  C   UNL     1      -5.070   4.939  -0.400  1.00  0.00     0.091 C 
ATOM      8  C   UNL     1      -6.075   4.036   0.372  1.00  0.00     0.091 C 
ATOM      9  C   UNL     1      -7.290   3.650  -0.482  1.00  0.00     0.014 C 
ATOM     10  C   UNL     1      -7.887   4.826  -1.241  1.00  0.00     0.001 C 
ATOM     11  C   UNL     1      -5.668   5.975  -1.369  1.00  0.00     0.014 C 
ATOM     12  C   UNL     1      -6.846   5.434  -2.167  1.00  0.00     0.001 C 
BRANCH   8  13
ATOM     13  C   UNL     1      -6.373   4.437   1.817  1.00  0.00     0.226 C 
ATOM     14  N   UNL     1      -9.676   4.879   4.319  1.00  0.00    -0.194 NA
ATOM     15  C   UNL     1      -9.373   6.044   3.482  1.00  0.00     0.124 C 
ATOM     16  C   UNL     1      -9.591   3.592   3.611  1.00  0.00     0.124 C 
ATOM     17  C   UNL     1      -7.991   5.877   2.855  1.00  0.00     0.136 C 
ATOM     18  C   UNL     1      -8.227   3.410   2.931  1.00  0.00     0.136 C 
ATOM     19  N   UNL     1      -7.708   4.587   2.213  1.00  0.00    -0.340 N 
ATOM     20  O   UNL     1      -5.473   4.503   2.653  1.00  0.00    -0.275 OA
BRANCH  14  21
ATOM     21  S   UNL     1      -9.985   5.014   5.959  1.00  0.00     0.243 S 
ATOM     22  O   UNL     1     -10.563   3.757   6.401  1.00  0.00    -0.207 OA
ATOM     23  O   UNL     1     -10.680   6.264   6.153  1.00  0.00    -0.207 OA
BRANCH  21  24
ATOM     24  C   UNL     1      -8.423   5.165   6.804  1.00  0.00     0.082 A 
ATOM     25  C   UNL     1      -4.714   5.449   9.009  1.00  0.00     0.044 C 
ATOM     26  C   UNL     1      -6.023   5.383   8.269  1.00  0.00    -0.048 A 
ATOM     27  C   UNL     1      -6.024   4.928   6.942  1.00  0.00     0.005 A 
ATOM     28  C   UNL     1      -7.246   5.741   8.870  1.00  0.00    -0.047 A 
ATOM     29  C   UNL     1      -7.213   4.813   6.219  1.00  0.00     0.022 A 
ATOM     30  C   UNL     1      -8.436   5.642   8.121  1.00  0.00     0.025 A 
ATOM     31  C   UNL     1      -7.343   6.237  10.288  1.00  0.00     0.044 C 
ENDBRANCH  21  24
ENDBRANCH  14  21
ENDBRANCH   8  13
ENDBRANCH   4   7
ENDBRANCH   2   3
ENDBRANCH   1   2
BRANCH   1  32
ATOM     32  C   UNL     1      -4.299   8.602   3.714  1.00  0.00     0.023 C 
BRANCH  32  33
ATOM     33  C   UNL     1      -4.593  10.048   3.352  1.00  0.00     0.116 C 
BRANCH  33  34
ATOM     34  N   UNL     1      -6.001  10.422   3.487  1.00  0.00    -0.352 N 
ATOM     35  C   UNL     1      -6.574  11.440   4.215  1.00  0.00     0.251 C 
ATOM     36  H   UNL     1      -6.633   9.861   2.982  1.00  0.00     0.163 HD
ATOM     37  O   UNL     1      -7.794  11.532   4.295  1.00  0.00    -0.269 OA
BRANCH  35  38
ATOM     38  C   UNL     1      -5.696  12.398   4.912  1.00  0.00     0.039 A 
ATOM     39  C   UNL     1      -5.943  12.723   6.248  1.00  0.00     0.014 A 
ATOM     40  C   UNL     1      -4.575  12.904   4.255  1.00  0.00     0.014 A 
ATOM     41  C   UNL     1      -5.002  13.478   6.951  1.00  0.00     0.010 A 
ATOM     42  C   UNL     1      -3.586  13.537   4.987  1.00  0.00     0.010 A 
ATOM     43  C   UNL     1      -3.792  13.845   6.340  1.00  0.00    -0.014 A 
BRANCH  43  44
ATOM     44  C   UNL     1      -2.730  14.590   7.059  1.00  0.00     0.031 A 
ATOM     45  C   UNL     1      -2.268  15.914   6.507  1.00  0.00     0.074 A 
ATOM     46  C   UNL     1      -2.112  14.038   8.122  1.00  0.00     0.049 A 
ATOM     47  N   UNL     1      -1.234  16.638   6.846  1.00  0.00    -0.248 NA
ATOM     48  C   UNL     1      -3.038  16.464   5.377  1.00  0.00     0.031 C 
ATOM     49  C   UNL     1      -2.416  12.726   8.700  1.00  0.00     0.029 A 
ATOM     50  N   UNL     1      -1.082  14.507   8.896  1.00  0.00    -0.354 N 
ATOM     51  C   UNL     1      -1.208  17.697   5.947  1.00  0.00     0.074 A 
ATOM     52  C   UNL     1      -2.283  17.485   5.005  1.00  0.00     0.031 C 
ATOM     53  C   UNL     1      -1.607  12.508   9.751  1.00  0.00     0.029 A 
ATOM     54  C   UNL     1      -0.707  13.646   9.901  1.00  0.00     0.049 A 
ATOM     55  H   UNL     1      -0.650  15.380   8.746  1.00  0.00     0.167 HD
ATOM     56  C   UNL     1      -0.387  18.773   5.929  1.00  0.00     0.037 A 
ATOM     57  C   UNL     1       0.257  13.767  10.834  1.00  0.00     0.037 A 
ATOM     58  C   UNL     1       0.629  19.014   6.917  1.00  0.00     0.049 A 
ATOM     59  C   UNL     1       1.089  15.020  10.858  1.00  0.00     0.074 A 
ATOM     60  C   UNL     1       1.487  20.092   7.029  1.00  0.00     0.029 A 
ATOM     61  N   UNL     1       0.898  18.171   7.986  1.00  0.00    -0.354 N 
ATOM     62  N   UNL     1       1.083  16.027  10.017  1.00  0.00    -0.248 NA
ATOM     63  C   UNL     1       2.046  15.164  11.963  1.00  0.00     0.031 C 
ATOM     64  C   UNL     1       2.278  19.901   8.168  1.00  0.00     0.029 A 
ATOM     65  C   UNL     1       1.893  18.716   8.776  1.00  0.00     0.049 A 
ATOM     66  H   UNL     1       0.447  17.313   8.156  1.00  0.00     0.167 HD
ATOM     67  C   UNL     1       2.014  16.936  10.507  1.00  0.00     0.074 A 
ATOM     68  C   UNL     1       2.555  16.364  11.723  1.00  0.00     0.031 C 
ATOM     69  C   UNL     1       2.391  18.134   9.996  1.00  0.00     0.037 A 
BRANCH  56  70
ATOM     70  C   UNL     1      -0.590  19.779   4.831  1.00  0.00     0.058 A 
ATOM     71  C   UNL     1      -1.730  20.599   4.793  1.00  0.00     0.135 A 
ATOM     72  C   UNL     1       0.357  19.929   3.806  1.00  0.00     0.135 A 
ATOM     73  F   UNL     1      -2.679  20.482   5.736  1.00  0.00    -0.206 F 
ATOM     74  C   UNL     1      -1.945  21.501   3.758  1.00  0.00     0.059 A 
ATOM     75  C   UNL     1       0.178  20.848   2.776  1.00  0.00     0.059 A 
ATOM     76  F   UNL     1       1.464  19.170   3.792  1.00  0.00    -0.206 F 
ATOM     77  C   UNL     1      -0.986  21.616   2.751  1.00  0.00     0.060 A 
BRANCH  77  78
ATOM     78  S   UNL     1      -1.279  22.789   1.411  1.00  0.00     0.124 S 
ATOM     79  O   UNL     1      -2.260  22.068   0.605  1.00  0.00    -0.237 OA
ATOM     80  O   UNL     1      -1.782  23.960   2.122  1.00  0.00    -0.237 OA
ATOM     81  O   UNL     1       0.039  22.946   0.804  1.00  0.00    -0.744 OA
ENDBRANCH  77  78
ENDBRANCH  56  70
BRANCH  57  82
ATOM     82  C   UNL     1       0.453  12.697  11.848  1.00  0.00     0.058 A 
ATOM     83  C   UNL     1       0.054  12.888  13.180  1.00  0.00     0.135 A 
ATOM     84  C   UNL     1       1.030  11.464  11.509  1.00  0.00     0.135 A 
ATOM     85  F   UNL     1      -0.502  14.051  13.552  1.00  0.00    -0.206 F 
ATOM     86  C   UNL     1       0.242  11.905  14.146  1.00  0.00     0.059 A 
ATOM     87  C   UNL     1       1.208  10.457  12.454  1.00  0.00     0.059 A 
ATOM     88  F   UNL     1       1.407  11.223  10.244  1.00  0.00    -0.206 F 
ATOM     89  C   UNL     1       0.822  10.693  13.774  1.00  0.00     0.060 A 
BRANCH  89  90
ATOM     90  S   UNL     1       1.026   9.406  15.025  1.00  0.00     0.124 S 
ATOM     91  O   UNL     1       2.189   9.892  15.758  1.00  0.00    -0.237 OA
ATOM     92  O   UNL     1      -0.247   9.462  15.737  1.00  0.00    -0.237 OA
ATOM     93  O   UNL     1       1.237   8.199  14.231  1.00  0.00    -0.744 OA
ENDBRANCH  89  90
ENDBRANCH  57  82
BRANCH  69  94
ATOM     94  C   UNL     1       3.397  18.927  10.777  1.00  0.00     0.058 A 
ATOM     95  C   UNL     1       4.758  18.592  10.774  1.00  0.00     0.135 A 
ATOM     96  C   UNL     1       2.997  20.070  11.488  1.00  0.00     0.135 A 
ATOM     97  F   UNL     1       5.186  17.506  10.111  1.00  0.00    -0.206 F 
ATOM     98  C   UNL     1       5.691  19.354  11.469  1.00  0.00     0.059 A 
ATOM     99  C   UNL     1       3.916  20.858  12.172  1.00  0.00     0.059 A 
ATOM    100  F   UNL     1       1.706  20.435  11.510  1.00  0.00    -0.206 F 
ATOM    101  C   UNL     1       5.259  20.485  12.165  1.00  0.00     0.060 A 
BRANCH 101 102
ATOM    102  S   UNL     1       6.483  21.488  13.035  1.00  0.00     0.124 S 
ATOM    103  O   UNL     1       6.720  20.688  14.232  1.00  0.00    -0.237 OA
ATOM    104  O   UNL     1       7.584  21.540  12.079  1.00  0.00    -0.237 OA
ATOM    105  O   UNL     1       5.789  22.754  13.251  1.00  0.00    -0.744 OA
ENDBRANCH 101 102
ENDBRANCH  69  94
ENDBRANCH  43  44
ENDBRANCH  35  38
ENDBRANCH  33  34
ENDBRANCH  32  33
ENDBRANCH   1  32
TORSDOF 17
