REMARK SMILES O=C(NCCCCNC(=O)c1ccc(N2C(=O)[C@@H]3N=NC(c4ccccc4)=C3[C@H]2c2cccc(Br)c2)cc1)c1ccc(-c2c3nc(c(-c4c(F)cc(S(=O)(=O)[O-])cc4F)c4ccc([nH]4)c(-c4c(F)cc(S(=O)(=O)[O-])cc4F)c4nc(c(-c5c(F)cc(S(=O)(=O)[O-])cc5F)c5ccc2[nH]5)C=C4)C=C3)cc1
REMARK SMILES IDX 5 1 4 2 3 3 1 4 2 5 39 7 40 8 104 9 41 10 103 11 42 12 43 13
REMARK SMILES IDX 44 14 97 15 45 16 102 17 96 18 98 19 46 20 101 21 95 22
REMARK SMILES IDX 94 23 47 25 81 26 60 27 80 28 61 29 64 30 79 31 99 32 62 33
REMARK SMILES IDX 63 34 78 36 100 37 65 38 48 39 49 40 58 41 50 42 51 43 57 44
REMARK SMILES IDX 59 45 52 46 53 47 54 48 55 49 56 50 82 51 83 52 92 53 84 54
REMARK SMILES IDX 85 55 91 56 93 57 86 58 87 59 88 60 89 61 90 62 66 63 67 64
REMARK SMILES IDX 76 65 68 66 69 67 75 68 77 69 70 70 71 71 72 72 73 73 74 74
REMARK SMILES IDX 6 75 7 76 8 77 9 78 10 80 11 81 12 82 38 83 13 84 37 85
REMARK SMILES IDX 14 86 15 87 16 88 29 89 18 90 17 91 28 92 19 93 21 94 20 95
REMARK SMILES IDX 30 96 31 97 36 98 32 99 34 100 33 101 35 102 22 103 23 104
REMARK SMILES IDX 27 105 24 106 26 107 25 108
REMARK H PARENT 3 6 98 24 64 35 8 79
REMARK Flexibility Score: inf
ROOT
ATOM      1  C   UNL     1       4.949  -2.198  -0.030  1.00  0.00     0.023 C 
ENDROOT
BRANCH   1   2
ATOM      2  C   UNL     1       4.653  -0.822  -0.627  1.00  0.00     0.116 C 
BRANCH   2   3
ATOM      3  N   UNL     1       3.261  -0.561  -0.927  1.00  0.00    -0.352 N 
ATOM      4  O   UNL     1       1.222   0.276  -0.894  1.00  0.00    -0.269 OA
ATOM      5  C   UNL     1       2.206  -0.049  -0.222  1.00  0.00     0.251 C 
ATOM      6  H   UNL     1       3.017  -0.810  -1.848  1.00  0.00     0.163 HD
BRANCH   5   7
ATOM      7  C   UNL     1       2.134   0.067   1.260  1.00  0.00     0.039 A 
ATOM      8  C   UNL     1       3.196  -0.120   2.146  1.00  0.00     0.014 A 
ATOM      9  C   UNL     1       0.856   0.333   1.791  1.00  0.00     0.014 A 
ATOM     10  C   UNL     1       2.971  -0.147   3.521  1.00  0.00     0.010 A 
ATOM     11  C   UNL     1       0.628   0.322   3.162  1.00  0.00     0.010 A 
ATOM     12  C   UNL     1       1.683   0.040   4.025  1.00  0.00    -0.014 A 
BRANCH  12  13
ATOM     13  C   UNL     1       1.507   0.099   5.474  1.00  0.00     0.031 A 
ATOM     14  C   UNL     1       2.128   1.294   6.115  1.00  0.00     0.074 A 
ATOM     15  C   UNL     1       0.714  -0.747   6.162  1.00  0.00     0.049 A 
ATOM     16  N   UNL     1       3.069   1.339   7.001  1.00  0.00    -0.248 NA
ATOM     17  C   UNL     1       1.735   2.617   5.601  1.00  0.00     0.031 C 
ATOM     18  C   UNL     1      -0.187  -1.763   5.613  1.00  0.00     0.029 A 
ATOM     19  N   UNL     1       0.451  -0.799   7.500  1.00  0.00    -0.354 N 
ATOM     20  C   UNL     1       3.224   2.688   7.324  1.00  0.00     0.074 A 
ATOM     21  C   UNL     1       2.529   3.424   6.304  1.00  0.00     0.031 C 
ATOM     22  C   UNL     1      -1.052  -2.157   6.574  1.00  0.00     0.029 A 
ATOM     23  C   UNL     1      -0.697  -1.514   7.829  1.00  0.00     0.049 A 
ATOM     24  H   UNL     1       1.024  -0.367   8.175  1.00  0.00     0.167 HD
ATOM     25  C   UNL     1       3.688   3.080   8.544  1.00  0.00     0.037 A 
ATOM     26  C   UNL     1      -1.352  -1.510   9.020  1.00  0.00     0.037 A 
ATOM     27  C   UNL     1       4.392   2.005   9.200  1.00  0.00     0.049 A 
ATOM     28  C   UNL     1      -0.401  -1.017  10.049  1.00  0.00     0.074 A 
ATOM     29  C   UNL     1       5.481   1.214   8.890  1.00  0.00     0.029 A 
ATOM     30  N   UNL     1       3.765   1.376  10.248  1.00  0.00    -0.354 N 
ATOM     31  N   UNL     1       0.665  -1.665  10.433  1.00  0.00    -0.248 NA
ATOM     32  C   UNL     1      -0.404   0.407  10.348  1.00  0.00     0.031 C 
ATOM     33  C   UNL     1       5.172  -0.070   9.429  1.00  0.00     0.029 A 
ATOM     34  C   UNL     1       3.943   0.029  10.082  1.00  0.00     0.049 A 
ATOM     35  H   UNL     1       3.277   1.813  10.983  1.00  0.00     0.167 HD
ATOM     36  C   UNL     1       1.627  -0.684  10.618  1.00  0.00     0.074 A 
ATOM     37  C   UNL     1       0.887   0.575  10.646  1.00  0.00     0.031 C 
ATOM     38  C   UNL     1       2.955  -0.958  10.450  1.00  0.00     0.037 A 
BRANCH  25  39
ATOM     39  C   UNL     1       3.143   4.269   9.321  1.00  0.00     0.058 A 
ATOM     40  C   UNL     1       3.701   4.564  10.586  1.00  0.00     0.135 A 
ATOM     41  C   UNL     1       1.912   4.907   9.047  1.00  0.00     0.135 A 
ATOM     42  F   UNL     1       4.887   4.049  10.948  1.00  0.00    -0.206 F 
ATOM     43  C   UNL     1       3.018   5.301  11.554  1.00  0.00     0.059 A 
ATOM     44  C   UNL     1       1.240   5.690   9.979  1.00  0.00     0.059 A 
ATOM     45  F   UNL     1       1.246   4.738   7.901  1.00  0.00    -0.206 F 
ATOM     46  C   UNL     1       1.770   5.831  11.249  1.00  0.00     0.060 A 
BRANCH  46  47
ATOM     47  S   UNL     1       0.812   6.643  12.537  1.00  0.00     0.124 S 
ATOM     48  O   UNL     1       0.463   5.513  13.389  1.00  0.00    -0.237 OA
ATOM     49  O   UNL     1       1.782   7.585  13.086  1.00  0.00    -0.237 OA
ATOM     50  O   UNL     1      -0.293   7.248  11.800  1.00  0.00    -0.744 OA
ENDBRANCH  46  47
ENDBRANCH  25  39
BRANCH  26  51
ATOM     51  C   UNL     1      -2.821  -1.577   9.264  1.00  0.00     0.058 A 
ATOM     52  C   UNL     1      -3.344  -1.779  10.556  1.00  0.00     0.135 A 
ATOM     53  C   UNL     1      -3.749  -1.167   8.284  1.00  0.00     0.135 A 
ATOM     54  F   UNL     1      -2.534  -2.148  11.561  1.00  0.00    -0.206 F 
ATOM     55  C   UNL     1      -4.690  -1.543  10.867  1.00  0.00     0.059 A 
ATOM     56  C   UNL     1      -5.095  -0.940   8.566  1.00  0.00     0.059 A 
ATOM     57  F   UNL     1      -3.358  -0.880   7.035  1.00  0.00    -0.206 F 
ATOM     58  C   UNL     1      -5.556  -1.104   9.866  1.00  0.00     0.060 A 
BRANCH  58  59
ATOM     59  S   UNL     1      -7.251  -0.633  10.288  1.00  0.00     0.124 S 
ATOM     60  O   UNL     1      -7.856  -1.924  10.595  1.00  0.00    -0.237 OA
ATOM     61  O   UNL     1      -7.052   0.264  11.421  1.00  0.00    -0.237 OA
ATOM     62  O   UNL     1      -7.738   0.008   9.069  1.00  0.00    -0.744 OA
ENDBRANCH  58  59
ENDBRANCH  26  51
BRANCH  38  63
ATOM     63  C   UNL     1       3.393  -2.395  10.413  1.00  0.00     0.058 A 
ATOM     64  C   UNL     1       3.016  -3.321   9.425  1.00  0.00     0.135 A 
ATOM     65  C   UNL     1       4.365  -2.804  11.340  1.00  0.00     0.135 A 
ATOM     66  F   UNL     1       2.172  -2.977   8.441  1.00  0.00    -0.206 F 
ATOM     67  C   UNL     1       3.553  -4.609   9.386  1.00  0.00     0.059 A 
ATOM     68  C   UNL     1       4.938  -4.071  11.300  1.00  0.00     0.059 A 
ATOM     69  F   UNL     1       4.811  -1.944  12.271  1.00  0.00    -0.206 F 
ATOM     70  C   UNL     1       4.518  -4.973  10.326  1.00  0.00     0.060 A 
BRANCH  70  71
ATOM     71  S   UNL     1       5.277  -6.608  10.221  1.00  0.00     0.124 S 
ATOM     72  O   UNL     1       4.189  -7.480  10.651  1.00  0.00    -0.237 OA
ATOM     73  O   UNL     1       5.644  -6.697   8.811  1.00  0.00    -0.237 OA
ATOM     74  O   UNL     1       6.407  -6.520  11.143  1.00  0.00    -0.744 OA
ENDBRANCH  70  71
ENDBRANCH  38  63
ENDBRANCH  12  13
ENDBRANCH   5   7
ENDBRANCH   2   3
ENDBRANCH   1   2
BRANCH   1  75
ATOM     75  C   UNL     1       4.424  -3.403  -0.816  1.00  0.00     0.023 C 
BRANCH  75  76
ATOM     76  C   UNL     1       4.782  -3.461  -2.299  1.00  0.00     0.116 C 
BRANCH  76  77
ATOM     77  N   UNL     1       6.207  -3.604  -2.543  1.00  0.00    -0.352 N 
ATOM     78  C   UNL     1       6.854  -4.458  -3.408  1.00  0.00     0.251 C 
ATOM     79  H   UNL     1       6.790  -3.009  -2.018  1.00  0.00     0.163 HD
ATOM     80  O   UNL     1       8.074  -4.501  -3.443  1.00  0.00    -0.269 OA
BRANCH  78  81
ATOM     81  C   UNL     1       6.069  -5.372  -4.274  1.00  0.00     0.039 A 
ATOM     82  C   UNL     1       6.289  -6.739  -4.130  1.00  0.00     0.016 A 
ATOM     83  C   UNL     1       5.140  -4.910  -5.217  1.00  0.00     0.016 A 
ATOM     84  C   UNL     1       5.519  -7.641  -4.867  1.00  0.00     0.027 A 
ATOM     85  C   UNL     1       4.373  -5.823  -5.970  1.00  0.00     0.027 A 
ATOM     86  C   UNL     1       4.536  -7.195  -5.775  1.00  0.00     0.045 A 
BRANCH  86  87
ATOM     87  N   UNL     1       3.649  -8.150  -6.379  1.00  0.00    -0.299 N 
ATOM     88  C   UNL     1       3.179  -9.171  -5.482  1.00  0.00     0.259 C 
ATOM     89  C   UNL     1       3.982  -8.737  -7.700  1.00  0.00     0.152 C 
ATOM     90  C   UNL     1       3.283 -10.491  -6.181  1.00  0.00     0.248 C 
ATOM     91  O   UNL     1       2.817  -9.009  -4.322  1.00  0.00    -0.271 OA
ATOM     92  C   UNL     1       4.266 -10.101  -7.214  1.00  0.00     0.021 C 
ATOM     93  N   UNL     1       4.005 -11.561  -5.476  1.00  0.00    -0.170 NA
ATOM     94  C   UNL     1       5.219 -11.026  -7.206  1.00  0.00     0.097 C 
ATOM     95  N   UNL     1       5.008 -11.914  -6.170  1.00  0.00    -0.154 NA
BRANCH  89  96
ATOM     96  C   UNL     1       2.836  -8.782  -8.737  1.00  0.00    -0.020 A 
ATOM     97  C   UNL     1       2.428 -10.011  -9.322  1.00  0.00     0.006 A 
ATOM     98  C   UNL     1       2.216  -7.620  -9.218  1.00  0.00     0.022 A 
ATOM     99  C   UNL     1       1.444 -10.091 -10.308  1.00  0.00     0.002 A 
ATOM    100  C   UNL     1       1.245  -7.702 -10.234  1.00  0.00     0.018 A 
ATOM    101  C   UNL     1       0.855  -8.928 -10.775  1.00  0.00     0.016 A 
ATOM    102  Br  UNL     1       0.461  -6.125 -10.927  1.00  0.00    -0.051 Br
ENDBRANCH  89  96
BRANCH  94 103
ATOM    103  C   UNL     1       6.439 -11.114  -8.002  1.00  0.00     0.002 A 
ATOM    104  C   UNL     1       6.396 -11.625  -9.307  1.00  0.00     0.010 A 
ATOM    105  C   UNL     1       7.679 -10.886  -7.396  1.00  0.00     0.010 A 
ATOM    106  C   UNL     1       7.579 -11.988  -9.958  1.00  0.00     0.001 A 
ATOM    107  C   UNL     1       8.859 -11.243  -8.051  1.00  0.00     0.001 A 
ATOM    108  C   UNL     1       8.807 -11.819  -9.319  1.00  0.00     0.000 A 
ENDBRANCH  94 103
ENDBRANCH  86  87
ENDBRANCH  78  81
ENDBRANCH  76  77
ENDBRANCH  75  76
ENDBRANCH   1  75
TORSDOF 17
