REMARK SMILES CC[C@@H]1CCCN1C(=O)N[C@H]1C=C[C@@H](C(=O)NCCCCNC(=O)c2ccc(-c3c4nc(c(-c5c(F)cc(S(=O)(=O)[O-])cc5F)c5ccc([nH]5)c(-c5c(F)cc(S(=O)(=O)[O-])cc5F)c5nc(c(-c6c(F)cc(S(=O)(=O)[O-])cc6F)c6ccc3[nH]6)C=C5)C=C4)cc2)C1
REMARK SMILES IDX 19 1 18 2 17 3 15 4 16 5 14 7 11 8 12 9 91 10 13 11 10 12
REMARK SMILES IDX 8 13 9 14 7 16 3 17 4 18 5 19 6 20 2 21 1 22 20 23 21 24
REMARK SMILES IDX 22 25 23 26 24 28 25 29 26 30 90 31 27 32 89 33 28 34 29 35
REMARK SMILES IDX 30 36 83 37 31 38 88 39 82 40 84 41 32 42 87 43 81 44 80 45
REMARK SMILES IDX 33 47 67 48 46 49 66 50 47 51 50 52 65 53 85 54 48 55 49 56
REMARK SMILES IDX 64 58 86 59 51 60 34 61 35 62 44 63 36 64 37 65 43 66 45 67
REMARK SMILES IDX 38 68 39 69 40 70 41 71 42 72 68 73 69 74 78 75 70 76 71 77
REMARK SMILES IDX 77 78 79 79 72 80 73 81 74 82 75 83 76 84 52 85 53 86 62 87
REMARK SMILES IDX 54 88 55 89 61 90 63 91 56 92 57 93 58 94 59 95 60 96
REMARK H PARENT 17 6 10 15 22 27 84 46 50 57
REMARK Flexibility Score: inf
ROOT
ATOM      1  C   UNL     1       0.725   3.088   3.254  1.00  0.00     0.023 C 
ENDROOT
BRANCH   1   2
ATOM      2  C   UNL     1      -0.245   3.229   2.087  1.00  0.00     0.116 C 
BRANCH   2   3
ATOM      3  N   UNL     1       0.080   4.373   1.251  1.00  0.00    -0.356 N 
ATOM      4  C   UNL     1       0.531   4.459  -0.033  1.00  0.00     0.227 C 
ATOM      5  O   UNL     1       0.742   5.589  -0.485  1.00  0.00    -0.274 OA
ATOM      6  H   UNL     1      -0.049   5.244   1.692  1.00  0.00     0.163 HD
BRANCH   4   7
ATOM      7  C   UNL     1       0.731   3.231  -0.930  1.00  0.00     0.103 C 
ATOM      8  C   UNL     1       1.140   0.809  -0.594  1.00  0.00     0.107 C 
ATOM      9  C   UNL     1      -0.309   1.156  -0.699  1.00  0.00    -0.006 C 
ATOM     10  C   UNL     1       1.782   2.215  -0.459  1.00  0.00     0.047 C 
ATOM     11  C   UNL     1      -0.532   2.441  -0.981  1.00  0.00    -0.016 C 
BRANCH   8  12
ATOM     12  N   UNL     1       1.389   0.005   0.580  1.00  0.00    -0.332 N 
ATOM     13  C   UNL     1       1.595  -1.285   0.871  1.00  0.00     0.318 C 
ATOM     14  O   UNL     1       2.034  -1.477   2.013  1.00  0.00    -0.249 OA
ATOM     15  H   UNL     1       1.415   0.561   1.393  1.00  0.00     0.165 HD
BRANCH  13  16
ATOM     16  N   UNL     1       1.351  -2.331   0.039  1.00  0.00    -0.322 N 
ATOM     17  C   UNL     1       0.710  -2.471  -1.278  1.00  0.00     0.086 C 
ATOM     18  C   UNL     1       0.720  -3.990  -1.564  1.00  0.00     0.027 C 
ATOM     19  C   UNL     1       1.824  -4.542  -0.695  1.00  0.00     0.024 C 
ATOM     20  C   UNL     1       1.763  -3.646   0.525  1.00  0.00     0.122 C 
BRANCH  17  21
ATOM     21  C   UNL     1      -0.743  -2.003  -1.419  1.00  0.00     0.022 C 
ATOM     22  C   UNL     1      -1.581  -2.101  -0.149  1.00  0.00     0.006 C 
ENDBRANCH  17  21
ENDBRANCH  13  16
ENDBRANCH   8  12
ENDBRANCH   4   7
ENDBRANCH   2   3
ENDBRANCH   1   2
BRANCH   1  23
ATOM     23  C   UNL     1       0.623   4.203   4.293  1.00  0.00     0.023 C 
BRANCH  23  24
ATOM     24  C   UNL     1      -0.749   4.360   4.937  1.00  0.00     0.116 C 
BRANCH  24  25
ATOM     25  N   UNL     1      -1.192   3.166   5.640  1.00  0.00    -0.352 N 
ATOM     26  C   UNL     1      -1.812   3.074   6.864  1.00  0.00     0.251 C 
ATOM     27  H   UNL     1      -1.027   2.312   5.179  1.00  0.00     0.163 HD
ATOM     28  O   UNL     1      -2.012   1.976   7.375  1.00  0.00    -0.269 OA
BRANCH  26  29
ATOM     29  C   UNL     1      -2.199   4.311   7.574  1.00  0.00     0.039 A 
ATOM     30  C   UNL     1      -1.841   4.459   8.915  1.00  0.00     0.014 A 
ATOM     31  C   UNL     1      -2.873   5.338   6.906  1.00  0.00     0.014 A 
ATOM     32  C   UNL     1      -2.099   5.666   9.567  1.00  0.00     0.010 A 
ATOM     33  C   UNL     1      -3.058   6.566   7.533  1.00  0.00     0.010 A 
ATOM     34  C   UNL     1      -2.675   6.743   8.871  1.00  0.00    -0.014 A 
BRANCH  34  35
ATOM     35  C   UNL     1      -2.867   8.060   9.531  1.00  0.00     0.031 A 
ATOM     36  C   UNL     1      -4.250   8.616   9.733  1.00  0.00     0.074 A 
ATOM     37  C   UNL     1      -1.788   8.776   9.906  1.00  0.00     0.049 A 
ATOM     38  N   UNL     1      -4.612   9.744  10.288  1.00  0.00    -0.248 NA
ATOM     39  C   UNL     1      -5.373   7.815   9.220  1.00  0.00     0.031 C 
ATOM     40  C   UNL     1      -0.393   8.379   9.696  1.00  0.00     0.029 A 
ATOM     41  N   UNL     1      -1.693   9.988  10.542  1.00  0.00    -0.354 N 
ATOM     42  C   UNL     1      -5.997   9.792  10.183  1.00  0.00     0.074 A 
ATOM     43  C   UNL     1      -6.406   8.610   9.457  1.00  0.00     0.031 C 
ATOM     44  C   UNL     1       0.415   9.311  10.225  1.00  0.00     0.029 A 
ATOM     45  C   UNL     1      -0.399  10.383  10.787  1.00  0.00     0.049 A 
ATOM     46  H   UNL     1      -2.477  10.525  10.798  1.00  0.00     0.167 HD
ATOM     47  C   UNL     1      -6.854  10.722  10.671  1.00  0.00     0.037 A 
ATOM     48  C   UNL     1       0.078  11.481  11.405  1.00  0.00     0.037 A 
ATOM     49  C   UNL     1      -6.442  11.883  11.416  1.00  0.00     0.049 A 
ATOM     50  C   UNL     1      -0.893  12.478  11.976  1.00  0.00     0.074 A 
ATOM     51  C   UNL     1      -7.233  12.856  12.003  1.00  0.00     0.029 A 
ATOM     52  N   UNL     1      -5.124  12.228  11.680  1.00  0.00    -0.354 N 
ATOM     53  N   UNL     1      -2.204  12.471  11.930  1.00  0.00    -0.248 NA
ATOM     54  C   UNL     1      -0.322  13.623  12.696  1.00  0.00     0.031 C 
ATOM     55  C   UNL     1      -6.392  13.807  12.592  1.00  0.00     0.029 A 
ATOM     56  C   UNL     1      -5.079  13.403  12.412  1.00  0.00     0.049 A 
ATOM     57  H   UNL     1      -4.337  11.714  11.389  1.00  0.00     0.167 HD
ATOM     58  C   UNL     1      -2.615  13.592  12.642  1.00  0.00     0.074 A 
ATOM     59  C   UNL     1      -1.413  14.247  13.117  1.00  0.00     0.031 C 
ATOM     60  C   UNL     1      -3.874  14.038  12.883  1.00  0.00     0.037 A 
BRANCH  47  61
ATOM     61  C   UNL     1      -8.323  10.511  10.424  1.00  0.00     0.058 A 
ATOM     62  C   UNL     1      -9.036   9.482  11.062  1.00  0.00     0.135 A 
ATOM     63  C   UNL     1      -9.035  11.362   9.564  1.00  0.00     0.135 A 
ATOM     64  F   UNL     1      -8.402   8.628  11.882  1.00  0.00    -0.206 F 
ATOM     65  C   UNL     1     -10.393   9.284  10.831  1.00  0.00     0.059 A 
ATOM     66  C   UNL     1     -10.400  11.200   9.341  1.00  0.00     0.059 A 
ATOM     67  F   UNL     1      -8.405  12.362   8.928  1.00  0.00    -0.206 F 
ATOM     68  C   UNL     1     -11.067  10.148   9.967  1.00  0.00     0.060 A 
BRANCH  68  69
ATOM     69  S   UNL     1     -12.829   9.881   9.681  1.00  0.00     0.124 S 
ATOM     70  O   UNL     1     -12.808   8.702   8.820  1.00  0.00    -0.237 OA
ATOM     71  O   UNL     1     -13.337   9.668  11.033  1.00  0.00    -0.237 OA
ATOM     72  O   UNL     1     -13.261  11.119   9.040  1.00  0.00    -0.744 OA
ENDBRANCH  68  69
ENDBRANCH  47  61
BRANCH  48  73
ATOM     73  C   UNL     1       1.545  11.667  11.562  1.00  0.00     0.058 A 
ATOM     74  C   UNL     1       2.160  11.532  12.816  1.00  0.00     0.135 A 
ATOM     75  C   UNL     1       2.364  11.966  10.462  1.00  0.00     0.135 A 
ATOM     76  F   UNL     1       1.419  11.249  13.898  1.00  0.00    -0.206 F 
ATOM     77  C   UNL     1       3.530  11.706  12.979  1.00  0.00     0.059 A 
ATOM     78  C   UNL     1       3.740  12.120  10.595  1.00  0.00     0.059 A 
ATOM     79  F   UNL     1       1.827  12.086   9.237  1.00  0.00    -0.206 F 
ATOM     80  C   UNL     1       4.313  11.998  11.861  1.00  0.00     0.060 A 
BRANCH  80  81
ATOM     81  S   UNL     1       6.098  12.174  12.074  1.00  0.00     0.124 S 
ATOM     82  O   UNL     1       6.190  13.481  12.713  1.00  0.00    -0.237 OA
ATOM     83  O   UNL     1       6.421  11.027  12.917  1.00  0.00    -0.237 OA
ATOM     84  O   UNL     1       6.607  12.100  10.708  1.00  0.00    -0.744 OA
ENDBRANCH  80  81
ENDBRANCH  48  73
BRANCH  60  85
ATOM     85  C   UNL     1      -4.013  15.271  13.732  1.00  0.00     0.058 A 
ATOM     86  C   UNL     1      -3.669  16.544  13.253  1.00  0.00     0.135 A 
ATOM     87  C   UNL     1      -4.520  15.177  15.039  1.00  0.00     0.135 A 
ATOM     88  F   UNL     1      -3.177  16.689  12.012  1.00  0.00    -0.206 F 
ATOM     89  C   UNL     1      -3.784  17.677  14.053  1.00  0.00     0.059 A 
ATOM     90  C   UNL     1      -4.671  16.299  15.846  1.00  0.00     0.059 A 
ATOM     91  F   UNL     1      -4.878  13.984  15.541  1.00  0.00    -0.206 F 
ATOM     92  C   UNL     1      -4.282  17.543  15.350  1.00  0.00     0.060 A 
BRANCH  92  93
ATOM     93  S   UNL     1      -4.431  19.018  16.380  1.00  0.00     0.124 S 
ATOM     94  O   UNL     1      -3.042  19.247  16.766  1.00  0.00    -0.237 OA
ATOM     95  O   UNL     1      -4.999  19.993  15.453  1.00  0.00    -0.237 OA
ATOM     96  O   UNL     1      -5.322  18.593  17.455  1.00  0.00    -0.744 OA
ENDBRANCH  92  93
ENDBRANCH  60  85
ENDBRANCH  34  35
ENDBRANCH  26  29
ENDBRANCH  24  25
ENDBRANCH  23  24
ENDBRANCH   1  23
TORSDOF 17
