REMARK SMILES CCC[NH2+][C@@](C)(C[N@H+]1CCC(C)(C)C1)C(=O)NCCCCNC(=O)c1ccc(-c2c3nc(c(-c4c(F)cc(S(=O)(=O)[O-])cc4F)c4ccc([nH]4)c(-c4c(F)cc(S(=O)(=O)[O-])cc4F)c4nc(c(-c5c(F)cc(S(=O)(=O)[O-])cc5F)c5ccc2[nH]5)C=C4)C=C3)cc1
REMARK SMILES IDX 19 1 18 2 17 3 15 4 16 5 5 7 6 8 4 9 3 12 2 13 1 14 7 15
REMARK SMILES IDX 8 16 9 17 14 18 10 20 11 21 12 22 13 23 20 24 21 25 22 26
REMARK SMILES IDX 23 27 24 29 25 30 26 31 90 32 27 33 89 34 28 35 29 36 30 37
REMARK SMILES IDX 83 38 31 39 88 40 82 41 84 42 32 43 87 44 81 45 80 46 33 48
REMARK SMILES IDX 67 49 46 50 66 51 47 52 50 53 65 54 85 55 48 56 49 57 64 59
REMARK SMILES IDX 86 60 51 61 34 62 35 63 44 64 36 65 37 66 43 67 45 68 38 69
REMARK SMILES IDX 39 70 40 71 41 72 42 73 68 74 69 75 78 76 70 77 71 78 77 79
REMARK SMILES IDX 79 80 72 81 73 82 74 83 75 84 76 85 52 86 53 87 62 88 54 89
REMARK SMILES IDX 55 90 61 91 63 92 56 93 57 94 58 95 59 96 60 97
REMARK H PARENT 17 6 4 10 4 11 8 19 22 28 84 47 50 58
REMARK Flexibility Score: inf
ROOT
ATOM      1  C   UNL     1       1.027  -8.215  -1.102  1.00  0.00     0.023 C 
ENDROOT
BRANCH   1   2
ATOM      2  C   UNL     1       1.907  -7.061  -1.580  1.00  0.00     0.116 C 
BRANCH   2   3
ATOM      3  N   UNL     1       1.141  -6.031  -2.252  1.00  0.00    -0.350 N 
ATOM      4  C   UNL     1       0.734  -4.778  -1.889  1.00  0.00     0.287 C 
ATOM      5  O   UNL     1       0.028  -4.214  -2.735  1.00  0.00    -0.268 OA
ATOM      6  H   UNL     1       0.855  -6.287  -3.158  1.00  0.00     0.163 HD
BRANCH   4   7
ATOM      7  C   UNL     1       1.171  -4.090  -0.542  1.00  0.00     0.221 C 
ATOM      8  C   UNL     1       2.710  -4.012  -0.435  1.00  0.00     0.097 C 
BRANCH   7   9
ATOM      9  N   UNL     1       0.642  -2.686  -0.446  1.00  0.00    -0.329 N 
ATOM     10  H   UNL     1      -0.373  -2.731  -0.536  1.00  0.00     0.347 HD
ATOM     11  H   UNL     1       0.977  -2.336   0.452  1.00  0.00     0.347 HD
BRANCH   9  12
ATOM     12  C   UNL     1       1.132  -1.730  -1.437  1.00  0.00     0.261 C 
BRANCH  12  13
ATOM     13  C   UNL     1       0.531  -0.340  -1.197  1.00  0.00     0.058 C 
ATOM     14  C   UNL     1       1.001   0.310   0.098  1.00  0.00     0.010 C 
ENDBRANCH  12  13
ENDBRANCH   9  12
ENDBRANCH   7   9
BRANCH   7  15
ATOM     15  C   UNL     1       0.610  -4.913   0.677  1.00  0.00     0.341 C 
BRANCH  15  16
ATOM     16  N   UNL     1      -0.855  -5.037   0.787  1.00  0.00    -0.329 N 
ATOM     17  C   UNL     1      -1.294  -6.262   1.464  1.00  0.00     0.263 C 
ATOM     18  C   UNL     1      -1.495  -3.896   1.453  1.00  0.00     0.269 C 
ATOM     19  H   UNL     1      -1.154  -5.067  -0.188  1.00  0.00     0.348 HD
ATOM     20  C   UNL     1      -2.365  -5.856   2.468  1.00  0.00     0.073 C 
ATOM     21  C   UNL     1      -2.801  -4.459   2.028  1.00  0.00     0.019 C 
ATOM     22  C   UNL     1      -3.901  -4.538   0.957  1.00  0.00     0.017 C 
ATOM     23  C   UNL     1      -3.302  -3.630   3.213  1.00  0.00     0.017 C 
ENDBRANCH  15  16
ENDBRANCH   7  15
ENDBRANCH   4   7
ENDBRANCH   2   3
ENDBRANCH   1   2
BRANCH   1  24
ATOM     24  C   UNL     1       0.447  -9.089  -2.214  1.00  0.00     0.023 C 
BRANCH  24  25
ATOM     25  C   UNL     1       1.468  -9.679  -3.179  1.00  0.00     0.116 C 
BRANCH  25  26
ATOM     26  N   UNL     1       2.515 -10.446  -2.518  1.00  0.00    -0.352 N 
ATOM     27  C   UNL     1       3.137 -11.590  -2.962  1.00  0.00     0.251 C 
ATOM     28  H   UNL     1       2.815 -10.104  -1.646  1.00  0.00     0.163 HD
ATOM     29  O   UNL     1       3.947 -12.176  -2.250  1.00  0.00    -0.269 OA
BRANCH  27  30
ATOM     30  C   UNL     1       2.777 -12.124  -4.290  1.00  0.00     0.039 A 
ATOM     31  C   UNL     1       2.330 -13.443  -4.391  1.00  0.00     0.014 A 
ATOM     32  C   UNL     1       2.807 -11.292  -5.413  1.00  0.00     0.014 A 
ATOM     33  C   UNL     1       1.829 -13.906  -5.609  1.00  0.00     0.010 A 
ATOM     34  C   UNL     1       2.252 -11.737  -6.608  1.00  0.00     0.010 A 
ATOM     35  C   UNL     1       1.746 -13.043  -6.713  1.00  0.00    -0.014 A 
BRANCH  35  36
ATOM     36  C   UNL     1       1.118 -13.468  -7.987  1.00  0.00     0.031 A 
ATOM     37  C   UNL     1       1.948 -13.550  -9.237  1.00  0.00     0.074 A 
ATOM     38  C   UNL     1      -0.212 -13.680  -8.038  1.00  0.00     0.049 A 
ATOM     39  N   UNL     1       1.565 -13.756 -10.470  1.00  0.00    -0.248 NA
ATOM     40  C   UNL     1       3.396 -13.339  -9.082  1.00  0.00     0.031 C 
ATOM     41  C   UNL     1      -1.130 -13.585  -6.901  1.00  0.00     0.029 A 
ATOM     42  N   UNL     1      -1.027 -13.998  -9.095  1.00  0.00    -0.354 N 
ATOM     43  C   UNL     1       2.718 -13.672 -11.241  1.00  0.00     0.074 A 
ATOM     44  C   UNL     1       3.808 -13.362 -10.341  1.00  0.00     0.031 C 
ATOM     45  C   UNL     1      -2.379 -13.848  -7.319  1.00  0.00     0.029 A 
ATOM     46  C   UNL     1      -2.357 -14.094  -8.758  1.00  0.00     0.049 A 
ATOM     47  H   UNL     1      -0.692 -14.143 -10.009  1.00  0.00     0.167 HD
ATOM     48  C   UNL     1       2.856 -13.854 -12.575  1.00  0.00     0.037 A 
ATOM     49  C   UNL     1      -3.437 -14.338  -9.525  1.00  0.00     0.037 A 
ATOM     50  C   UNL     1       1.775 -14.200 -13.459  1.00  0.00     0.049 A 
ATOM     51  C   UNL     1      -3.255 -14.561 -11.000  1.00  0.00     0.074 A 
ATOM     52  C   UNL     1       1.823 -14.466 -14.816  1.00  0.00     0.029 A 
ATOM     53  N   UNL     1       0.450 -14.336 -13.070  1.00  0.00    -0.354 N 
ATOM     54  N   UNL     1      -2.150 -14.525 -11.707  1.00  0.00    -0.248 NA
ATOM     55  C   UNL     1      -4.462 -14.860 -11.784  1.00  0.00     0.031 C 
ATOM     56  C   UNL     1       0.522 -14.739 -15.253  1.00  0.00     0.029 A 
ATOM     57  C   UNL     1      -0.331 -14.675 -14.162  1.00  0.00     0.049 A 
ATOM     58  H   UNL     1       0.114 -14.210 -12.153  1.00  0.00     0.167 HD
ATOM     59  C   UNL     1      -2.526 -14.819 -13.013  1.00  0.00     0.074 A 
ATOM     60  C   UNL     1      -3.958 -15.036 -12.998  1.00  0.00     0.031 C 
ATOM     61  C   UNL     1      -1.753 -14.902 -14.123  1.00  0.00     0.037 A 
BRANCH  48  62
ATOM     62  C   UNL     1       4.231 -13.685 -13.156  1.00  0.00     0.058 A 
ATOM     63  C   UNL     1       5.240 -14.637 -12.940  1.00  0.00     0.135 A 
ATOM     64  C   UNL     1       4.540 -12.569 -13.949  1.00  0.00     0.135 A 
ATOM     65  F   UNL     1       5.000 -15.713 -12.175  1.00  0.00    -0.206 F 
ATOM     66  C   UNL     1       6.518 -14.472 -13.462  1.00  0.00     0.059 A 
ATOM     67  C   UNL     1       5.806 -12.395 -14.502  1.00  0.00     0.059 A 
ATOM     68  F   UNL     1       3.611 -11.628 -14.185  1.00  0.00    -0.206 F 
ATOM     69  C   UNL     1       6.793 -13.344 -14.238  1.00  0.00     0.060 A 
BRANCH  69  70
ATOM     70  S   UNL     1       8.458 -13.137 -14.903  1.00  0.00     0.124 S 
ATOM     71  O   UNL     1       9.185 -12.677 -13.724  1.00  0.00    -0.237 OA
ATOM     72  O   UNL     1       8.785 -14.483 -15.362  1.00  0.00    -0.237 OA
ATOM     73  O   UNL     1       8.280 -12.144 -15.958  1.00  0.00    -0.744 OA
ENDBRANCH  69  70
ENDBRANCH  48  62
BRANCH  49  74
ATOM     74  C   UNL     1      -4.786 -14.406  -8.905  1.00  0.00     0.058 A 
ATOM     75  C   UNL     1      -5.434 -15.637  -8.735  1.00  0.00     0.135 A 
ATOM     76  C   UNL     1      -5.443 -13.251  -8.455  1.00  0.00     0.135 A 
ATOM     77  F   UNL     1      -4.846 -16.768  -9.155  1.00  0.00    -0.206 F 
ATOM     78  C   UNL     1      -6.694 -15.723  -8.151  1.00  0.00     0.059 A 
ATOM     79  C   UNL     1      -6.695 -13.313  -7.851  1.00  0.00     0.059 A 
ATOM     80  F   UNL     1      -4.856 -12.051  -8.581  1.00  0.00    -0.206 F 
ATOM     81  C   UNL     1      -7.316 -14.554  -7.711  1.00  0.00     0.060 A 
BRANCH  81  82
ATOM     82  S   UNL     1      -8.928 -14.679  -6.905  1.00  0.00     0.124 S 
ATOM     83  O   UNL     1      -9.812 -14.880  -8.046  1.00  0.00    -0.237 OA
ATOM     84  O   UNL     1      -8.746 -15.832  -6.027  1.00  0.00    -0.237 OA
ATOM     85  O   UNL     1      -9.059 -13.397  -6.220  1.00  0.00    -0.744 OA
ENDBRANCH  81  82
ENDBRANCH  49  74
BRANCH  61  86
ATOM     86  C   UNL     1      -2.430 -15.275 -15.410  1.00  0.00     0.058 A 
ATOM     87  C   UNL     1      -3.188 -14.346 -16.137  1.00  0.00     0.135 A 
ATOM     88  C   UNL     1      -2.257 -16.557 -15.955  1.00  0.00     0.135 A 
ATOM     89  F   UNL     1      -3.387 -13.110 -15.652  1.00  0.00    -0.206 F 
ATOM     90  C   UNL     1      -3.760 -14.677 -17.360  1.00  0.00     0.059 A 
ATOM     91  C   UNL     1      -2.804 -16.904 -17.186  1.00  0.00     0.059 A 
ATOM     92  F   UNL     1      -1.534 -17.479 -15.300  1.00  0.00    -0.206 F 
ATOM     93  C   UNL     1      -3.560 -15.958 -17.878  1.00  0.00     0.060 A 
BRANCH  93  94
ATOM     94  S   UNL     1      -4.259 -16.362 -19.493  1.00  0.00     0.124 S 
ATOM     95  O   UNL     1      -5.662 -16.582 -19.159  1.00  0.00    -0.237 OA
ATOM     96  O   UNL     1      -3.974 -15.159 -20.270  1.00  0.00    -0.237 OA
ATOM     97  O   UNL     1      -3.514 -17.551 -19.897  1.00  0.00    -0.744 OA
ENDBRANCH  93  94
ENDBRANCH  61  86
ENDBRANCH  35  36
ENDBRANCH  27  30
ENDBRANCH  25  26
ENDBRANCH  24  25
ENDBRANCH   1  24
TORSDOF 19
