REMARK SMILES Cc1ccc(C)c(-c2cc(C(=O)NCCCCNC(=O)c3ccc(-c4c5nc(c(-c6c(F)cc(S(=O)(=O)[O-])cc6F)c6ccc([nH]6)c(-c6c(F)cc(S(=O)(=O)[O-])cc6F)c6nc(c(-c7c(F)cc(S(=O)(=O)[O-])cc7F)c7ccc4[nH]7)C=C6)C=C5)cc3)c3cc(C)ccc3n2)c1
REMARK SMILES IDX 16 1 15 2 14 3 13 4 11 5 12 6 10 8 8 9 9 10 94 11 93 12
REMARK SMILES IDX 87 13 92 14 88 15 91 16 89 17 90 18 7 19 1 20 2 21 3 22
REMARK SMILES IDX 95 23 4 24 5 25 6 26 17 27 18 28 19 29 20 31 21 32 22 33
REMARK SMILES IDX 86 34 23 35 85 36 24 37 25 38 26 39 79 40 27 41 84 42 78 43
REMARK SMILES IDX 80 44 28 45 83 46 77 47 76 48 29 50 63 51 42 52 62 53 43 54
REMARK SMILES IDX 46 55 61 56 81 57 44 58 45 59 60 61 82 62 47 63 30 64 31 65
REMARK SMILES IDX 40 66 32 67 33 68 39 69 41 70 34 71 35 72 36 73 37 74 38 75
REMARK SMILES IDX 64 76 65 77 74 78 66 79 67 80 73 81 75 82 68 83 69 84 70 85
REMARK SMILES IDX 71 86 72 87 48 88 49 89 58 90 50 91 51 92 57 93 59 94 52 95
REMARK SMILES IDX 53 96 54 97 55 98 56 99
REMARK H PARENT 13 7 18 30 80 49 46 60
REMARK Flexibility Score: inf
ROOT
ATOM      1  C   UNL     1      -2.180  10.241  -1.244  1.00  0.00     0.023 C 
ENDROOT
BRANCH   1   2
ATOM      2  C   UNL     1      -1.984   9.021  -0.337  1.00  0.00     0.023 C 
BRANCH   2   3
ATOM      3  C   UNL     1      -2.592   7.670  -0.696  1.00  0.00     0.116 C 
BRANCH   3   4
ATOM      4  N   UNL     1      -2.094   6.928  -1.841  1.00  0.00    -0.352 N 
ATOM      5  C   UNL     1      -2.022   5.555  -2.065  1.00  0.00     0.252 C 
ATOM      6  O   UNL     1      -1.624   5.187  -3.171  1.00  0.00    -0.269 OA
ATOM      7  H   UNL     1      -1.751   7.486  -2.576  1.00  0.00     0.163 HD
BRANCH   5   8
ATOM      8  C   UNL     1      -2.273   4.505  -1.016  1.00  0.00     0.051 A 
ATOM      9  C   UNL     1      -1.439   2.501   0.020  1.00  0.00     0.072 A 
ATOM     10  C   UNL     1      -1.405   3.401  -1.036  1.00  0.00     0.043 A 
ATOM     11  N   UNL     1      -2.181   2.732   1.128  1.00  0.00    -0.248 NA
ATOM     12  C   UNL     1      -3.052   3.749   1.122  1.00  0.00     0.072 A 
ATOM     13  C   UNL     1      -3.240   4.583   0.008  1.00  0.00     0.013 A 
ATOM     14  C   UNL     1      -3.778   4.008   2.276  1.00  0.00     0.029 A 
ATOM     15  C   UNL     1      -4.349   5.455   0.011  1.00  0.00     0.014 A 
ATOM     16  C   UNL     1      -4.701   5.054   2.345  1.00  0.00     0.005 A 
ATOM     17  C   UNL     1      -5.011   5.777   1.197  1.00  0.00    -0.050 A 
ATOM     18  C   UNL     1      -5.889   6.991   1.253  1.00  0.00     0.044 C 
BRANCH   9  19
ATOM     19  C   UNL     1      -0.710   1.220   0.010  1.00  0.00     0.003 A 
ATOM     20  C   UNL     1       2.929   0.005   0.007  1.00  0.00     0.044 C 
ATOM     21  C   UNL     1       1.429   0.007   0.012  1.00  0.00    -0.050 A 
ATOM     22  C   UNL     1       0.740  -1.206   0.004  1.00  0.00     0.004 A 
ATOM     23  C   UNL     1       0.701   1.208   0.019  1.00  0.00     0.014 A 
ATOM     24  C   UNL     1      -0.652  -1.221  -0.003  1.00  0.00     0.004 A 
ATOM     25  C   UNL     1      -1.389  -0.023  -0.009  1.00  0.00    -0.042 A 
ATOM     26  C   UNL     1      -2.892  -0.146  -0.035  1.00  0.00     0.045 C 
ENDBRANCH   9  19
ENDBRANCH   5   8
ENDBRANCH   3   4
ENDBRANCH   2   3
ENDBRANCH   1   2
BRANCH   1  27
ATOM     27  C   UNL     1      -3.563  10.525  -1.828  1.00  0.00     0.116 C 
BRANCH  27  28
ATOM     28  N   UNL     1      -4.650  10.719  -0.850  1.00  0.00    -0.352 N 
ATOM     29  C   UNL     1      -6.030  10.711  -1.050  1.00  0.00     0.251 C 
ATOM     30  H   UNL     1      -4.359  10.876   0.077  1.00  0.00     0.163 HD
ATOM     31  O   UNL     1      -6.762  11.344  -0.275  1.00  0.00    -0.269 OA
BRANCH  29  32
ATOM     32  C   UNL     1      -6.631   9.941  -2.161  1.00  0.00     0.039 A 
ATOM     33  C   UNL     1      -7.890  10.173  -2.726  1.00  0.00     0.014 A 
ATOM     34  C   UNL     1      -5.865   8.918  -2.675  1.00  0.00     0.014 A 
ATOM     35  C   UNL     1      -8.311   9.344  -3.777  1.00  0.00     0.010 A 
ATOM     36  C   UNL     1      -6.079   8.506  -3.947  1.00  0.00     0.010 A 
ATOM     37  C   UNL     1      -7.381   8.477  -4.366  1.00  0.00    -0.014 A 
BRANCH  37  38
ATOM     38  C   UNL     1      -7.631   7.634  -5.524  1.00  0.00     0.031 A 
ATOM     39  C   UNL     1      -7.918   8.436  -6.725  1.00  0.00     0.074 A 
ATOM     40  C   UNL     1      -7.338   6.313  -5.600  1.00  0.00     0.049 A 
ATOM     41  N   UNL     1      -9.083   8.753  -7.175  1.00  0.00    -0.248 NA
ATOM     42  C   UNL     1      -6.812   9.197  -7.333  1.00  0.00     0.031 C 
ATOM     43  C   UNL     1      -6.654   5.457  -4.620  1.00  0.00     0.029 A 
ATOM     44  N   UNL     1      -7.533   5.455  -6.642  1.00  0.00    -0.354 N 
ATOM     45  C   UNL     1      -8.829   9.492  -8.319  1.00  0.00     0.074 A 
ATOM     46  C   UNL     1      -7.489   9.988  -8.170  1.00  0.00     0.031 C 
ATOM     47  C   UNL     1      -6.329   4.272  -5.192  1.00  0.00     0.029 A 
ATOM     48  C   UNL     1      -6.902   4.216  -6.526  1.00  0.00     0.049 A 
ATOM     49  H   UNL     1      -8.083   5.694  -7.423  1.00  0.00     0.167 HD
ATOM     50  C   UNL     1      -9.609   9.337  -9.425  1.00  0.00     0.037 A 
ATOM     51  C   UNL     1      -6.847   3.240  -7.476  1.00  0.00     0.037 A 
ATOM     52  C   UNL     1     -10.797   8.575  -9.099  1.00  0.00     0.049 A 
ATOM     53  C   UNL     1      -7.951   3.517  -8.436  1.00  0.00     0.074 A 
ATOM     54  C   UNL     1     -11.812   8.708  -8.169  1.00  0.00     0.029 A 
ATOM     55  N   UNL     1     -10.826   7.259  -9.500  1.00  0.00    -0.354 N 
ATOM     56  N   UNL     1      -9.218   3.430  -8.137  1.00  0.00    -0.248 NA
ATOM     57  C   UNL     1      -7.643   4.349  -9.590  1.00  0.00     0.031 C 
ATOM     58  C   UNL     1     -12.078   7.382  -7.716  1.00  0.00     0.029 A 
ATOM     59  C   UNL     1     -11.289   6.500  -8.456  1.00  0.00     0.049 A 
ATOM     60  H   UNL     1     -10.560   6.920 -10.385  1.00  0.00     0.167 HD
ATOM     61  C   UNL     1      -9.804   4.524  -8.757  1.00  0.00     0.074 A 
ATOM     62  C   UNL     1      -8.803   4.999  -9.710  1.00  0.00     0.031 C 
ATOM     63  C   UNL     1     -10.916   5.118  -8.231  1.00  0.00     0.037 A 
BRANCH  50  64
ATOM     64  C   UNL     1      -9.128   9.495 -10.852  1.00  0.00     0.058 A 
ATOM     65  C   UNL     1     -10.077   9.400 -11.891  1.00  0.00     0.135 A 
ATOM     66  C   UNL     1      -7.777   9.482 -11.269  1.00  0.00     0.135 A 
ATOM     67  F   UNL     1     -11.392   9.405 -11.620  1.00  0.00    -0.206 F 
ATOM     68  C   UNL     1      -9.715   9.223 -13.225  1.00  0.00     0.059 A 
ATOM     69  C   UNL     1      -7.395   9.364 -12.600  1.00  0.00     0.059 A 
ATOM     70  F   UNL     1      -6.748   9.495 -10.417  1.00  0.00    -0.206 F 
ATOM     71  C   UNL     1      -8.368   9.195 -13.567  1.00  0.00     0.060 A 
BRANCH  71  72
ATOM     72  S   UNL     1      -7.895   8.902 -15.276  1.00  0.00     0.124 S 
ATOM     73  O   UNL     1      -8.288   7.508 -15.450  1.00  0.00    -0.237 OA
ATOM     74  O   UNL     1      -8.702   9.890 -15.983  1.00  0.00    -0.237 OA
ATOM     75  O   UNL     1      -6.458   9.160 -15.274  1.00  0.00    -0.744 OA
ENDBRANCH  71  72
ENDBRANCH  50  64
BRANCH  51  76
ATOM     76  C   UNL     1      -5.758   2.270  -7.801  1.00  0.00     0.058 A 
ATOM     77  C   UNL     1      -5.963   1.225  -8.727  1.00  0.00     0.135 A 
ATOM     78  C   UNL     1      -4.417   2.527  -7.459  1.00  0.00     0.135 A 
ATOM     79  F   UNL     1      -7.205   0.908  -9.125  1.00  0.00    -0.206 F 
ATOM     80  C   UNL     1      -4.904   0.532  -9.330  1.00  0.00     0.059 A 
ATOM     81  C   UNL     1      -3.344   1.843  -8.039  1.00  0.00     0.059 A 
ATOM     82  F   UNL     1      -4.101   3.523  -6.620  1.00  0.00    -0.206 F 
ATOM     83  C   UNL     1      -3.593   0.869  -8.999  1.00  0.00     0.060 A 
BRANCH  83  84
ATOM     84  S   UNL     1      -2.223   0.127  -9.923  1.00  0.00     0.124 S 
ATOM     85  O   UNL     1      -2.245  -1.252  -9.446  1.00  0.00    -0.237 OA
ATOM     86  O   UNL     1      -2.638   0.327 -11.307  1.00  0.00    -0.237 OA
ATOM     87  O   UNL     1      -1.065   0.913  -9.505  1.00  0.00    -0.744 OA
ENDBRANCH  83  84
ENDBRANCH  51  76
BRANCH  63  88
ATOM     88  C   UNL     1     -11.720   4.364  -7.199  1.00  0.00     0.058 A 
ATOM     89  C   UNL     1     -11.253   3.963  -5.934  1.00  0.00     0.135 A 
ATOM     90  C   UNL     1     -13.086   4.175  -7.464  1.00  0.00     0.135 A 
ATOM     91  F   UNL     1      -9.988   4.194  -5.557  1.00  0.00    -0.206 F 
ATOM     92  C   UNL     1     -12.101   3.368  -4.994  1.00  0.00     0.059 A 
ATOM     93  C   UNL     1     -13.954   3.619  -6.531  1.00  0.00     0.059 A 
ATOM     94  F   UNL     1     -13.607   4.585  -8.633  1.00  0.00    -0.206 F 
ATOM     95  C   UNL     1     -13.452   3.204  -5.302  1.00  0.00     0.060 A 
BRANCH  95  96
ATOM     96  S   UNL     1     -14.566   2.502  -4.065  1.00  0.00     0.124 S 
ATOM     97  O   UNL     1     -14.147   1.105  -4.031  1.00  0.00    -0.237 OA
ATOM     98  O   UNL     1     -14.255   3.288  -2.874  1.00  0.00    -0.237 OA
ATOM     99  O   UNL     1     -15.894   2.741  -4.626  1.00  0.00    -0.744 OA
ENDBRANCH  95  96
ENDBRANCH  63  88
ENDBRANCH  37  38
ENDBRANCH  29  32
ENDBRANCH  27  28
ENDBRANCH   1  27
TORSDOF 15
