REMARK SMILES Nc1cc(C(=O)NCCCCNC(=O)c2ccc(-c3c4nc(c(-c5c(F)cc(S(=O)(=O)[O-])cc5F)c5ccc([nH]5)c(-c5c(F)cc(S(=O)(=O)[O-])cc5F)c5nc(c(-c6c(F)cc(S(=O)(=O)[O-])cc6F)c6ccc3[nH]6)C=C5)C=C4)cc2)nc2ccccc12
REMARK SMILES IDX 10 1 9 2 8 3 7 4 5 5 6 6 4 8 2 9 3 10 87 11 82 12 86 13
REMARK SMILES IDX 81 14 83 15 85 16 84 17 1 18 11 21 12 22 13 23 14 25 15 26
REMARK SMILES IDX 16 27 80 28 17 29 79 30 18 31 19 32 20 33 73 34 21 35 78 36
REMARK SMILES IDX 72 37 74 38 22 39 77 40 71 41 70 42 23 44 57 45 36 46 56 47
REMARK SMILES IDX 37 48 40 49 55 50 75 51 38 52 39 53 54 55 76 56 41 57 24 58
REMARK SMILES IDX 25 59 34 60 26 61 27 62 33 63 35 64 28 65 29 66 30 67 31 68
REMARK SMILES IDX 32 69 58 70 59 71 68 72 60 73 61 74 67 75 69 76 62 77 63 78
REMARK SMILES IDX 64 79 65 80 66 81 42 82 43 83 52 84 44 85 45 86 51 87 53 88
REMARK SMILES IDX 46 89 47 90 48 91 49 92 50 93
REMARK H PARENT 7 7 1 19 1 20 12 24 74 43 40 54
REMARK Flexibility Score: inf
ROOT
ATOM      1  C   UNL     1       2.683   2.094  -5.314  1.00  0.00     0.023 C 
ENDROOT
BRANCH   1   2
ATOM      2  C   UNL     1       2.439   1.822  -3.829  1.00  0.00     0.023 C 
BRANCH   2   3
ATOM      3  C   UNL     1       2.572   3.045  -2.916  1.00  0.00     0.116 C 
BRANCH   3   4
ATOM      4  N   UNL     1       1.399   3.891  -2.975  1.00  0.00    -0.351 N 
ATOM      5  C   UNL     1       0.229   3.933  -2.248  1.00  0.00     0.269 C 
ATOM      6  O   UNL     1      -0.530   4.870  -2.513  1.00  0.00    -0.268 OA
ATOM      7  H   UNL     1       1.447   4.578  -3.679  1.00  0.00     0.163 HD
BRANCH   5   8
ATOM      8  C   UNL     1      -0.169   2.938  -1.181  1.00  0.00     0.130 A 
ATOM      9  C   UNL     1      -0.094   0.820  -0.035  1.00  0.00     0.043 A 
ATOM     10  C   UNL     1       0.403   1.690  -1.008  1.00  0.00     0.060 A 
ATOM     11  C   UNL     1      -1.155   1.252   0.791  1.00  0.00     0.023 A 
ATOM     12  C   UNL     1      -1.686   2.534   0.538  1.00  0.00     0.073 A 
ATOM     13  C   UNL     1      -1.719   0.476   1.833  1.00  0.00     0.012 A 
ATOM     14  N   UNL     1      -1.208   3.347  -0.412  1.00  0.00    -0.242 NA
ATOM     15  C   UNL     1      -2.755   2.983   1.301  1.00  0.00     0.029 A 
ATOM     16  C   UNL     1      -2.792   0.950   2.587  1.00  0.00     0.001 A 
ATOM     17  C   UNL     1      -3.315   2.206   2.317  1.00  0.00     0.002 A 
BRANCH   9  18
ATOM     18  N   UNL     1       0.557  -0.402   0.146  1.00  0.00    -0.398 N 
ATOM     19  H   UNL     1       1.293  -0.662  -0.455  1.00  0.00     0.156 HD
ATOM     20  H   UNL     1       0.281  -1.004   0.875  1.00  0.00     0.156 HD
ENDBRANCH   9  18
ENDBRANCH   5   8
ENDBRANCH   3   4
ENDBRANCH   2   3
ENDBRANCH   1   2
BRANCH   1  21
ATOM     21  C   UNL     1       4.106   2.506  -5.666  1.00  0.00     0.116 C 
BRANCH  21  22
ATOM     22  N   UNL     1       5.110   1.514  -5.305  1.00  0.00    -0.352 N 
ATOM     23  C   UNL     1       6.377   1.376  -5.831  1.00  0.00     0.251 C 
ATOM     24  H   UNL     1       4.855   0.869  -4.607  1.00  0.00     0.163 HD
ATOM     25  O   UNL     1       7.099   0.445  -5.497  1.00  0.00    -0.269 OA
BRANCH  23  26
ATOM     26  C   UNL     1       6.814   2.345  -6.857  1.00  0.00     0.039 A 
ATOM     27  C   UNL     1       6.757   3.715  -6.594  1.00  0.00     0.014 A 
ATOM     28  C   UNL     1       7.159   1.873  -8.125  1.00  0.00     0.014 A 
ATOM     29  C   UNL     1       6.885   4.615  -7.645  1.00  0.00     0.010 A 
ATOM     30  C   UNL     1       7.345   2.783  -9.167  1.00  0.00     0.010 A 
ATOM     31  C   UNL     1       7.149   4.155  -8.946  1.00  0.00    -0.014 A 
BRANCH  31  32
ATOM     32  C   UNL     1       7.144   5.122 -10.071  1.00  0.00     0.031 A 
ATOM     33  C   UNL     1       6.026   5.102 -11.080  1.00  0.00     0.074 A 
ATOM     34  C   UNL     1       8.096   6.070 -10.134  1.00  0.00     0.049 A 
ATOM     35  N   UNL     1       5.841   5.876 -12.119  1.00  0.00    -0.248 NA
ATOM     36  C   UNL     1       4.979   4.083 -10.899  1.00  0.00     0.031 C 
ATOM     37  C   UNL     1       9.207   6.212  -9.191  1.00  0.00     0.029 A 
ATOM     38  N   UNL     1       8.261   7.113 -11.007  1.00  0.00    -0.354 N 
ATOM     39  C   UNL     1       4.673   5.428 -12.725  1.00  0.00     0.074 A 
ATOM     40  C   UNL     1       4.198   4.304 -11.947  1.00  0.00     0.031 C 
ATOM     41  C   UNL     1       9.904   7.315  -9.501  1.00  0.00     0.029 A 
ATOM     42  C   UNL     1       9.319   7.929 -10.690  1.00  0.00     0.049 A 
ATOM     43  H   UNL     1       7.678   7.263 -11.786  1.00  0.00     0.167 HD
ATOM     44  C   UNL     1       4.050   5.913 -13.825  1.00  0.00     0.037 A 
ATOM     45  C   UNL     1       9.768   9.048 -11.289  1.00  0.00     0.037 A 
ATOM     46  C   UNL     1       4.508   7.046 -14.584  1.00  0.00     0.049 A 
ATOM     47  C   UNL     1       9.074   9.553 -12.519  1.00  0.00     0.074 A 
ATOM     48  C   UNL     1       3.955   7.602 -15.725  1.00  0.00     0.029 A 
ATOM     49  N   UNL     1       5.623   7.807 -14.269  1.00  0.00    -0.354 N 
ATOM     50  N   UNL     1       8.005   9.080 -13.113  1.00  0.00    -0.248 NA
ATOM     51  C   UNL     1       9.659  10.731 -13.173  1.00  0.00     0.031 C 
ATOM     52  C   UNL     1       4.747   8.691 -16.109  1.00  0.00     0.029 A 
ATOM     53  C   UNL     1       5.779   8.825 -15.194  1.00  0.00     0.049 A 
ATOM     54  H   UNL     1       6.216   7.648 -13.500  1.00  0.00     0.167 HD
ATOM     55  C   UNL     1       7.793   9.896 -14.216  1.00  0.00     0.074 A 
ATOM     56  C   UNL     1       8.831  10.907 -14.195  1.00  0.00     0.031 C 
ATOM     57  C   UNL     1       6.829   9.810 -15.165  1.00  0.00     0.037 A 
BRANCH  44  58
ATOM     58  C   UNL     1       2.808   5.204 -14.283  1.00  0.00     0.058 A 
ATOM     59  C   UNL     1       1.574   5.402 -13.645  1.00  0.00     0.135 A 
ATOM     60  C   UNL     1       2.849   4.335 -15.385  1.00  0.00     0.135 A 
ATOM     61  F   UNL     1       1.488   6.207 -12.575  1.00  0.00    -0.206 F 
ATOM     62  C   UNL     1       0.424   4.746 -14.073  1.00  0.00     0.059 A 
ATOM     63  C   UNL     1       1.708   3.680 -15.838  1.00  0.00     0.059 A 
ATOM     64  F   UNL     1       4.007   4.109 -16.024  1.00  0.00    -0.206 F 
ATOM     65  C   UNL     1       0.502   3.882 -15.167  1.00  0.00     0.060 A 
BRANCH  65  66
ATOM     66  S   UNL     1      -0.994   3.028 -15.709  1.00  0.00     0.124 S 
ATOM     67  O   UNL     1      -1.094   1.962 -14.717  1.00  0.00    -0.237 OA
ATOM     68  O   UNL     1      -2.007   4.074 -15.619  1.00  0.00    -0.237 OA
ATOM     69  O   UNL     1      -0.664   2.596 -17.064  1.00  0.00    -0.744 OA
ENDBRANCH  65  66
ENDBRANCH  44  58
BRANCH  45  70
ATOM     70  C   UNL     1      10.932   9.762 -10.714  1.00  0.00     0.058 A 
ATOM     71  C   UNL     1      10.755  10.941  -9.978  1.00  0.00     0.135 A 
ATOM     72  C   UNL     1      12.231   9.246 -10.832  1.00  0.00     0.135 A 
ATOM     73  F   UNL     1       9.529  11.471  -9.844  1.00  0.00    -0.206 F 
ATOM     74  C   UNL     1      11.826  11.582  -9.366  1.00  0.00     0.059 A 
ATOM     75  C   UNL     1      13.316   9.861 -10.217  1.00  0.00     0.059 A 
ATOM     76  F   UNL     1      12.444   8.112 -11.518  1.00  0.00    -0.206 F 
ATOM     77  C   UNL     1      13.103  11.029  -9.485  1.00  0.00     0.060 A 
BRANCH  77  78
ATOM     78  S   UNL     1      14.477  11.806  -8.607  1.00  0.00     0.124 S 
ATOM     79  O   UNL     1      14.816  12.902  -9.506  1.00  0.00    -0.237 OA
ATOM     80  O   UNL     1      13.861  12.187  -7.339  1.00  0.00    -0.237 OA
ATOM     81  O   UNL     1      15.461  10.732  -8.516  1.00  0.00    -0.744 OA
ENDBRANCH  77  78
ENDBRANCH  45  70
BRANCH  57  82
ATOM     82  C   UNL     1       6.866  10.826 -16.266  1.00  0.00     0.058 A 
ATOM     83  C   UNL     1       7.749  10.687 -17.347  1.00  0.00     0.135 A 
ATOM     84  C   UNL     1       5.989  11.921 -16.264  1.00  0.00     0.135 A 
ATOM     85  F   UNL     1       8.610   9.658 -17.389  1.00  0.00    -0.206 F 
ATOM     86  C   UNL     1       7.771  11.610 -18.387  1.00  0.00     0.059 A 
ATOM     87  C   UNL     1       5.986  12.849 -17.299  1.00  0.00     0.059 A 
ATOM     88  F   UNL     1       5.124  12.091 -15.252  1.00  0.00    -0.206 F 
ATOM     89  C   UNL     1       6.887  12.690 -18.352  1.00  0.00     0.060 A 
BRANCH  89  90
ATOM     90  S   UNL     1       6.903  13.870 -19.719  1.00  0.00     0.124 S 
ATOM     91  O   UNL     1       8.061  14.691 -19.384  1.00  0.00    -0.237 OA
ATOM     92  O   UNL     1       7.056  13.003 -20.884  1.00  0.00    -0.237 OA
ATOM     93  O   UNL     1       5.607  14.532 -19.607  1.00  0.00    -0.744 OA
ENDBRANCH  89  90
ENDBRANCH  57  82
ENDBRANCH  31  32
ENDBRANCH  23  26
ENDBRANCH  21  22
ENDBRANCH   1  21
TORSDOF 15
