REMARK SMILES CC(C)[C@H](NS(=O)(=O)c1cccc(F)c1)C(=O)NCCCCNC(=O)c1ccc(-c2c3nc(c(-c4c(F)cc(S(=O)(=O)[O-])cc4F)c4ccc([nH]4)c(-c4c(F)cc(S(=O)(=O)[O-])cc4F)c4nc(c(-c5c(F)cc(S(=O)(=O)[O-])cc5F)c5ccc2[nH]5)C=C4)C=C3)cc1
REMARK SMILES IDX 20 1 19 2 18 3 16 4 17 5 4 7 2 8 1 9 3 10 5 11 6 13 7 14
REMARK SMILES IDX 8 15 9 16 10 17 15 18 11 19 13 20 12 21 14 22 21 23 22 24
REMARK SMILES IDX 23 25 24 26 25 28 26 29 27 30 91 31 28 32 90 33 29 34 30 35
REMARK SMILES IDX 31 36 84 37 32 38 89 39 83 40 85 41 33 42 88 43 82 44 81 45
REMARK SMILES IDX 34 47 68 48 47 49 67 50 48 51 51 52 66 53 86 54 49 55 50 56
REMARK SMILES IDX 65 58 87 59 52 60 35 61 36 62 45 63 37 64 38 65 44 66 46 67
REMARK SMILES IDX 39 68 40 69 41 70 42 71 43 72 69 73 70 74 79 75 71 76 72 77
REMARK SMILES IDX 78 78 80 79 73 80 74 81 75 82 76 83 77 84 53 85 54 86 63 87
REMARK SMILES IDX 55 88 56 89 62 90 64 91 57 92 58 93 59 94 60 95 61 96
REMARK H PARENT 18 6 5 12 23 27 85 46 51 57
REMARK Flexibility Score: inf
ROOT
ATOM      1  C   UNL     1       1.272  -4.030   2.508  1.00  0.00     0.023 C 
ENDROOT
BRANCH   1   2
ATOM      2  C   UNL     1       0.111  -3.473   1.694  1.00  0.00     0.116 C 
BRANCH   2   3
ATOM      3  N   UNL     1      -0.792  -2.673   2.490  1.00  0.00    -0.355 N 
ATOM      4  C   UNL     1      -1.399  -1.488   2.201  1.00  0.00     0.238 C 
ATOM      5  O   UNL     1      -2.208  -1.048   3.025  1.00  0.00    -0.273 OA
ATOM      6  H   UNL     1      -1.002  -3.041   3.379  1.00  0.00     0.163 HD
BRANCH   4   7
ATOM      7  C   UNL     1      -1.079  -0.691   0.926  1.00  0.00     0.161 C 
BRANCH   7   8
ATOM      8  C   UNL     1      -1.559  -1.266  -0.433  1.00  0.00     0.010 C 
ATOM      9  C   UNL     1      -0.514  -1.923  -1.340  1.00  0.00     0.009 C 
ATOM     10  C   UNL     1      -2.779  -2.183  -0.295  1.00  0.00     0.009 C 
ENDBRANCH   7   8
BRANCH   7  11
ATOM     11  N   UNL     1       0.342  -0.303   0.926  1.00  0.00    -0.198 NA
ATOM     12  H   UNL     1       0.751  -0.713   0.086  1.00  0.00     0.142 HD
BRANCH  11  13
ATOM     13  S   UNL     1       0.809   1.297   0.944  1.00  0.00     0.241 S 
ATOM     14  O   UNL     1       2.253   1.281   0.942  1.00  0.00    -0.207 OA
ATOM     15  O   UNL     1       0.057   1.997  -0.076  1.00  0.00    -0.207 OA
BRANCH  13  16
ATOM     16  C   UNL     1       0.277   1.896   2.528  1.00  0.00     0.085 A 
ATOM     17  C   UNL     1      -1.040   2.342   2.698  1.00  0.00     0.022 A 
ATOM     18  C   UNL     1       1.201   2.010   3.570  1.00  0.00     0.061 A 
ATOM     19  C   UNL     1      -1.449   2.850   3.931  1.00  0.00     0.004 A 
ATOM     20  C   UNL     1       0.782   2.541   4.784  1.00  0.00     0.124 A 
ATOM     21  C   UNL     1      -0.534   2.952   4.977  1.00  0.00     0.039 A 
ATOM     22  F   UNL     1       1.663   2.673   5.784  1.00  0.00    -0.207 F 
ENDBRANCH  13  16
ENDBRANCH  11  13
ENDBRANCH   7  11
ENDBRANCH   4   7
ENDBRANCH   2   3
ENDBRANCH   1   2
BRANCH   1  23
ATOM     23  C   UNL     1       0.886  -5.060   3.567  1.00  0.00     0.023 C 
BRANCH  23  24
ATOM     24  C   UNL     1       0.053  -6.233   3.065  1.00  0.00     0.116 C 
BRANCH  24  25
ATOM     25  N   UNL     1       0.691  -6.961   1.980  1.00  0.00    -0.352 N 
ATOM     26  C   UNL     1       0.913  -8.310   1.848  1.00  0.00     0.251 C 
ATOM     27  H   UNL     1       1.010  -6.407   1.232  1.00  0.00     0.163 HD
ATOM     28  O   UNL     1       1.597  -8.724   0.917  1.00  0.00    -0.269 OA
BRANCH  26  29
ATOM     29  C   UNL     1       0.350  -9.254   2.839  1.00  0.00     0.039 A 
ATOM     30  C   UNL     1       1.153 -10.293   3.313  1.00  0.00     0.014 A 
ATOM     31  C   UNL     1      -0.964  -9.119   3.296  1.00  0.00     0.014 A 
ATOM     32  C   UNL     1       0.653 -11.166   4.282  1.00  0.00     0.010 A 
ATOM     33  C   UNL     1      -1.428  -9.933   4.325  1.00  0.00     0.010 A 
ATOM     34  C   UNL     1      -0.634 -10.979   4.814  1.00  0.00    -0.014 A 
BRANCH  34  35
ATOM     35  C   UNL     1      -1.178 -11.898   5.847  1.00  0.00     0.031 A 
ATOM     36  C   UNL     1      -2.390 -12.738   5.540  1.00  0.00     0.074 A 
ATOM     37  C   UNL     1      -0.603 -11.957   7.065  1.00  0.00     0.049 A 
ATOM     38  N   UNL     1      -3.029 -13.578   6.313  1.00  0.00    -0.248 NA
ATOM     39  C   UNL     1      -2.980 -12.596   4.198  1.00  0.00     0.031 C 
ATOM     40  C   UNL     1       0.544 -11.157   7.500  1.00  0.00     0.029 A 
ATOM     41  N   UNL     1      -0.903 -12.728   8.161  1.00  0.00    -0.354 N 
ATOM     42  C   UNL     1      -4.095 -14.054   5.557  1.00  0.00     0.074 A 
ATOM     43  C   UNL     1      -4.058 -13.361   4.289  1.00  0.00     0.031 C 
ATOM     44  C   UNL     1       0.874 -11.507   8.754  1.00  0.00     0.029 A 
ATOM     45  C   UNL     1      -0.053 -12.531   9.225  1.00  0.00     0.049 A 
ATOM     46  H   UNL     1      -1.655 -13.362   8.184  1.00  0.00     0.167 HD
ATOM     47  C   UNL     1      -5.001 -15.007   5.875  1.00  0.00     0.037 A 
ATOM     48  C   UNL     1      -0.020 -13.116  10.439  1.00  0.00     0.037 A 
ATOM     49  C   UNL     1      -5.010 -15.723   7.124  1.00  0.00     0.049 A 
ATOM     50  C   UNL     1      -1.024 -14.191  10.761  1.00  0.00     0.074 A 
ATOM     51  C   UNL     1      -5.862 -16.735   7.529  1.00  0.00     0.029 A 
ATOM     52  N   UNL     1      -4.115 -15.513   8.163  1.00  0.00    -0.354 N 
ATOM     53  N   UNL     1      -2.001 -14.655  10.018  1.00  0.00    -0.248 NA
ATOM     54  C   UNL     1      -0.912 -14.834  12.077  1.00  0.00     0.031 C 
ATOM     55  C   UNL     1      -5.506 -17.113   8.826  1.00  0.00     0.029 A 
ATOM     56  C   UNL     1      -4.398 -16.374   9.209  1.00  0.00     0.049 A 
ATOM     57  H   UNL     1      -3.388 -14.850   8.157  1.00  0.00     0.167 HD
ATOM     58  C   UNL     1      -2.596 -15.669  10.761  1.00  0.00     0.074 A 
ATOM     59  C   UNL     1      -1.865 -15.754  12.009  1.00  0.00     0.031 C 
ATOM     60  C   UNL     1      -3.648 -16.460  10.438  1.00  0.00     0.037 A 
BRANCH  47  61
ATOM     61  C   UNL     1      -6.044 -15.357   4.849  1.00  0.00     0.058 A 
ATOM     62  C   UNL     1      -7.397 -15.054   5.071  1.00  0.00     0.135 A 
ATOM     63  C   UNL     1      -5.713 -16.049   3.672  1.00  0.00     0.135 A 
ATOM     64  F   UNL     1      -7.769 -14.386   6.174  1.00  0.00    -0.206 F 
ATOM     65  C   UNL     1      -8.386 -15.442   4.173  1.00  0.00     0.059 A 
ATOM     66  C   UNL     1      -6.682 -16.421   2.746  1.00  0.00     0.059 A 
ATOM     67  F   UNL     1      -4.431 -16.340   3.398  1.00  0.00    -0.206 F 
ATOM     68  C   UNL     1      -8.019 -16.128   3.014  1.00  0.00     0.060 A 
BRANCH  68  69
ATOM     69  S   UNL     1      -9.312 -16.606   1.849  1.00  0.00     0.124 S 
ATOM     70  O   UNL     1     -10.010 -17.651   2.588  1.00  0.00    -0.237 OA
ATOM     71  O   UNL     1     -10.042 -15.354   1.672  1.00  0.00    -0.237 OA
ATOM     72  O   UNL     1      -8.563 -17.053   0.678  1.00  0.00    -0.744 OA
ENDBRANCH  68  69
ENDBRANCH  47  61
BRANCH  48  73
ATOM     73  C   UNL     1       1.036 -12.737  11.415  1.00  0.00     0.058 A 
ATOM     74  C   UNL     1       1.039 -11.479  12.037  1.00  0.00     0.135 A 
ATOM     75  C   UNL     1       2.082 -13.620  11.726  1.00  0.00     0.135 A 
ATOM     76  F   UNL     1       0.069 -10.591  11.764  1.00  0.00    -0.206 F 
ATOM     77  C   UNL     1       2.048 -11.103  12.916  1.00  0.00     0.059 A 
ATOM     78  C   UNL     1       3.089 -13.277  12.624  1.00  0.00     0.059 A 
ATOM     79  F   UNL     1       2.118 -14.838  11.165  1.00  0.00    -0.206 F 
ATOM     80  C   UNL     1       3.071 -12.009  13.202  1.00  0.00     0.060 A 
BRANCH  80  81
ATOM     81  S   UNL     1       4.374 -11.499  14.344  1.00  0.00     0.124 S 
ATOM     82  O   UNL     1       5.075 -10.492  13.553  1.00  0.00    -0.237 OA
ATOM     83  O   UNL     1       3.606 -10.994  15.477  1.00  0.00    -0.237 OA
ATOM     84  O   UNL     1       5.112 -12.733  14.588  1.00  0.00    -0.744 OA
ENDBRANCH  80  81
ENDBRANCH  48  73
BRANCH  60  85
ATOM     85  C   UNL     1      -4.048 -17.527  11.419  1.00  0.00     0.058 A 
ATOM     86  C   UNL     1      -3.839 -18.881  11.111  1.00  0.00     0.135 A 
ATOM     87  C   UNL     1      -4.691 -17.221  12.628  1.00  0.00     0.135 A 
ATOM     88  F   UNL     1      -3.236 -19.230   9.962  1.00  0.00    -0.206 F 
ATOM     89  C   UNL     1      -4.260 -19.895  11.963  1.00  0.00     0.059 A 
ATOM     90  C   UNL     1      -5.095 -18.219  13.510  1.00  0.00     0.059 A 
ATOM     91  F   UNL     1      -4.910 -15.942  12.972  1.00  0.00    -0.206 F 
ATOM     92  C   UNL     1      -4.886 -19.554  13.162  1.00  0.00     0.060 A 
BRANCH  92  93
ATOM     93  S   UNL     1      -5.390 -20.882  14.276  1.00  0.00     0.124 S 
ATOM     94  O   UNL     1      -6.539 -21.442  13.573  1.00  0.00    -0.237 OA
ATOM     95  O   UNL     1      -4.197 -21.723  14.316  1.00  0.00    -0.237 OA
ATOM     96  O   UNL     1      -5.695 -20.182  15.521  1.00  0.00    -0.744 OA
ENDBRANCH  92  93
ENDBRANCH  60  85
ENDBRANCH  34  35
ENDBRANCH  26  29
ENDBRANCH  24  25
ENDBRANCH  23  24
ENDBRANCH   1  23
TORSDOF 18
