REMARK SMILES CCOc1c(Br)cc(CNc2cccc(C(=O)NCCCCNC(=O)c3ccc(-c4c5nc(c(-c6c(F)cc(S(=O)(=O)[O-])cc6F)c6ccc([nH]6)c(-c6c(F)cc(S(=O)(=O)[O-])cc6F)c6nc(c(-c7c(F)cc(S(=O)(=O)[O-])cc7F)c7ccc4[nH]7)C=C6)C=C5)cc3)c2C)cc1OC
REMARK SMILES IDX 19 1 18 2 16 3 17 4 15 6 11 7 12 8 92 9 13 10 93 11 14 12
REMARK SMILES IDX 10 13 9 15 8 16 4 17 5 18 95 19 6 20 7 21 94 22 3 23 2 24
REMARK SMILES IDX 1 25 96 26 97 27 20 28 21 29 22 30 23 31 24 32 25 34 26 35
REMARK SMILES IDX 27 36 91 37 28 38 90 39 29 40 30 41 31 42 84 43 32 44 89 45
REMARK SMILES IDX 83 46 85 47 33 48 88 49 82 50 81 51 34 53 68 54 47 55 67 56
REMARK SMILES IDX 48 57 51 58 66 59 86 60 49 61 50 62 65 64 87 65 52 66 35 67
REMARK SMILES IDX 36 68 45 69 37 70 38 71 44 72 46 73 39 74 40 75 41 76 42 77
REMARK SMILES IDX 43 78 69 79 70 80 79 81 71 82 72 83 78 84 80 85 73 86 74 87
REMARK SMILES IDX 75 88 76 89 77 90 53 91 54 92 63 93 55 94 56 95 62 96 64 97
REMARK SMILES IDX 57 98 58 99 59 100 60 101 61 102
REMARK H PARENT 18 5 10 14 23 33 85 52 51 63
REMARK Flexibility Score: inf
ROOT
ATOM      1  C   UNL     1      11.759   0.007   2.560  1.00  0.00     0.116 C 
ENDROOT
BRANCH   1   2
ATOM      2  N   UNL     1      10.478   0.701   2.677  1.00  0.00    -0.352 N 
ATOM      3  C   UNL     1       9.306   0.665   1.949  1.00  0.00     0.251 C 
ATOM      4  O   UNL     1       8.345   1.292   2.395  1.00  0.00    -0.269 OA
ATOM      5  H   UNL     1      10.444   1.327   3.436  1.00  0.00     0.163 HD
BRANCH   3   6
ATOM      6  C   UNL     1       9.167  -0.081   0.658  1.00  0.00     0.044 A 
ATOM      7  C   UNL     1       8.255  -0.360  -1.613  1.00  0.00     0.038 A 
ATOM      8  C   UNL     1       9.003  -1.541  -1.720  1.00  0.00     0.026 A 
ATOM      9  C   UNL     1       8.391   0.421  -0.430  1.00  0.00    -0.015 A 
ATOM     10  C   UNL     1       9.720  -2.049  -0.645  1.00  0.00     0.003 A 
ATOM     11  C   UNL     1       7.625   1.720  -0.308  1.00  0.00     0.047 C 
ATOM     12  C   UNL     1       9.736  -1.355   0.556  1.00  0.00     0.014 A 
BRANCH   7  13
ATOM     13  N   UNL     1       7.366  -0.004  -2.626  1.00  0.00    -0.381 N 
ATOM     14  H   UNL     1       7.240   0.951  -2.832  1.00  0.00     0.160 HD
BRANCH  13  15
ATOM     15  C   UNL     1       6.618  -0.991  -3.392  1.00  0.00     0.149 C 
BRANCH  15  16
ATOM     16  C   UNL     1       5.158  -0.959  -3.000  1.00  0.00    -0.024 A 
ATOM     17  C   UNL     1       2.428  -0.906  -2.267  1.00  0.00     0.175 A 
ATOM     18  C   UNL     1       3.404  -1.377  -1.373  1.00  0.00     0.064 A 
ATOM     19  C   UNL     1       2.813  -0.537  -3.566  1.00  0.00     0.162 A 
ATOM     20  Br  UNL     1       2.955  -2.068   0.340  1.00  0.00    -0.047 Br
ATOM     21  C   UNL     1       4.756  -1.383  -1.728  1.00  0.00     0.025 A 
ATOM     22  C   UNL     1       4.175  -0.547  -3.909  1.00  0.00     0.056 A 
BRANCH  17  23
ATOM     23  O   UNL     1       1.118  -0.875  -1.858  1.00  0.00    -0.489 OA
BRANCH  23  24
ATOM     24  C   UNL     1       0.684   0.452  -1.526  1.00  0.00     0.226 C 
ATOM     25  C   UNL     1       0.623   0.645  -0.021  1.00  0.00     0.049 C 
ENDBRANCH  23  24
ENDBRANCH  17  23
BRANCH  19  26
ATOM     26  O   UNL     1       2.010  -0.119  -4.595  1.00  0.00    -0.493 OA
ATOM     27  C   UNL     1       0.674  -0.605  -4.631  1.00  0.00     0.278 C 
ENDBRANCH  19  26
ENDBRANCH  15  16
ENDBRANCH  13  15
ENDBRANCH   7  13
ENDBRANCH   3   6
ENDBRANCH   1   2
BRANCH   1  28
ATOM     28  C   UNL     1      12.982   0.919   2.448  1.00  0.00     0.023 C 
BRANCH  28  29
ATOM     29  C   UNL     1      13.197   1.919   3.578  1.00  0.00     0.023 C 
BRANCH  29  30
ATOM     30  C   UNL     1      13.373   1.312   4.963  1.00  0.00     0.116 C 
BRANCH  30  31
ATOM     31  N   UNL     1      14.742   0.978   5.317  1.00  0.00    -0.352 N 
ATOM     32  C   UNL     1      15.235   0.604   6.560  1.00  0.00     0.251 C 
ATOM     33  H   UNL     1      15.400   1.023   4.586  1.00  0.00     0.163 HD
ATOM     34  O   UNL     1      16.423   0.677   6.818  1.00  0.00    -0.269 OA
BRANCH  32  35
ATOM     35  C   UNL     1      14.287  -0.005   7.527  1.00  0.00     0.039 A 
ATOM     36  C   UNL     1      14.544  -1.316   7.948  1.00  0.00     0.014 A 
ATOM     37  C   UNL     1      13.071   0.602   7.819  1.00  0.00     0.014 A 
ATOM     38  C   UNL     1      13.511  -2.083   8.493  1.00  0.00     0.010 A 
ATOM     39  C   UNL     1      12.026  -0.186   8.259  1.00  0.00     0.010 A 
ATOM     40  C   UNL     1      12.230  -1.539   8.564  1.00  0.00    -0.014 A 
BRANCH  40  41
ATOM     41  C   UNL     1      11.017  -2.303   8.848  1.00  0.00     0.031 A 
ATOM     42  C   UNL     1      10.230  -2.052  10.085  1.00  0.00     0.074 A 
ATOM     43  C   UNL     1      10.512  -3.141   7.915  1.00  0.00     0.049 A 
ATOM     44  N   UNL     1       9.341  -2.859  10.562  1.00  0.00    -0.248 NA
ATOM     45  C   UNL     1      10.408  -0.860  10.909  1.00  0.00     0.031 C 
ATOM     46  C   UNL     1       9.137  -3.629   7.838  1.00  0.00     0.029 A 
ATOM     47  N   UNL     1      11.150  -3.836   6.902  1.00  0.00    -0.354 N 
ATOM     48  C   UNL     1       8.641  -2.191  11.544  1.00  0.00     0.074 A 
ATOM     49  C   UNL     1       9.380  -0.968  11.756  1.00  0.00     0.031 C 
ATOM     50  C   UNL     1       9.090  -4.688   7.016  1.00  0.00     0.029 A 
ATOM     51  C   UNL     1      10.456  -5.024   6.661  1.00  0.00     0.049 A 
ATOM     52  H   UNL     1      11.960  -3.540   6.428  1.00  0.00     0.167 HD
ATOM     53  C   UNL     1       7.442  -2.682  11.978  1.00  0.00     0.037 A 
ATOM     54  C   UNL     1      11.013  -6.259   6.856  1.00  0.00     0.037 A 
ATOM     55  C   UNL     1       7.110  -3.938  11.309  1.00  0.00     0.049 A 
ATOM     56  C   UNL     1      10.318  -7.096   7.909  1.00  0.00     0.074 A 
ATOM     57  C   UNL     1       6.306  -4.228  10.218  1.00  0.00     0.029 A 
ATOM     58  N   UNL     1       7.851  -5.084  11.569  1.00  0.00    -0.354 N 
ATOM     59  N   UNL     1       9.468  -6.619   8.774  1.00  0.00    -0.248 NA
ATOM     60  C   UNL     1      10.538  -8.530   8.089  1.00  0.00     0.031 C 
ATOM     61  C   UNL     1       6.596  -5.546   9.795  1.00  0.00     0.029 A 
ATOM     62  C   UNL     1       7.570  -6.061  10.633  1.00  0.00     0.049 A 
ATOM     63  H   UNL     1       8.486  -5.186  12.314  1.00  0.00     0.167 HD
ATOM     64  C   UNL     1       9.068  -7.611   9.632  1.00  0.00     0.074 A 
ATOM     65  C   UNL     1       9.740  -8.797   9.139  1.00  0.00     0.031 C 
ATOM     66  C   UNL     1       8.228  -7.359  10.681  1.00  0.00     0.037 A 
BRANCH  53  67
ATOM     67  C   UNL     1       6.436  -1.879  12.785  1.00  0.00     0.058 A 
ATOM     68  C   UNL     1       5.047  -2.096  12.637  1.00  0.00     0.135 A 
ATOM     69  C   UNL     1       6.771  -0.851  13.687  1.00  0.00     0.135 A 
ATOM     70  F   UNL     1       4.566  -3.110  11.906  1.00  0.00    -0.206 F 
ATOM     71  C   UNL     1       4.079  -1.280  13.225  1.00  0.00     0.059 A 
ATOM     72  C   UNL     1       5.824   0.016  14.245  1.00  0.00     0.059 A 
ATOM     73  F   UNL     1       8.033  -0.677  14.104  1.00  0.00    -0.206 F 
ATOM     74  C   UNL     1       4.476  -0.198  13.995  1.00  0.00     0.060 A 
BRANCH  74  75
ATOM     75  S   UNL     1       3.214   0.906  14.657  1.00  0.00     0.124 S 
ATOM     76  O   UNL     1       2.462   1.270  13.460  1.00  0.00    -0.237 OA
ATOM     77  O   UNL     1       2.519   0.041  15.605  1.00  0.00    -0.237 OA
ATOM     78  O   UNL     1       3.990   1.991  15.252  1.00  0.00    -0.744 OA
ENDBRANCH  74  75
ENDBRANCH  53  67
BRANCH  54  79
ATOM     79  C   UNL     1      12.464  -6.308   6.540  1.00  0.00     0.058 A 
ATOM     80  C   UNL     1      12.825  -6.202   5.184  1.00  0.00     0.135 A 
ATOM     81  C   UNL     1      13.423  -5.964   7.503  1.00  0.00     0.135 A 
ATOM     82  F   UNL     1      11.949  -6.549   4.227  1.00  0.00    -0.206 F 
ATOM     83  C   UNL     1      14.007  -5.586   4.796  1.00  0.00     0.059 A 
ATOM     84  C   UNL     1      14.620  -5.349   7.135  1.00  0.00     0.059 A 
ATOM     85  F   UNL     1      13.137  -6.063   8.809  1.00  0.00    -0.206 F 
ATOM     86  C   UNL     1      14.856  -5.090   5.784  1.00  0.00     0.060 A 
BRANCH  86  87
ATOM     87  S   UNL     1      16.135  -3.917   5.274  1.00  0.00     0.124 S 
ATOM     88  O   UNL     1      16.843  -4.665   4.241  1.00  0.00    -0.237 OA
ATOM     89  O   UNL     1      15.319  -2.800   4.799  1.00  0.00    -0.237 OA
ATOM     90  O   UNL     1      16.878  -3.679   6.505  1.00  0.00    -0.744 OA
ENDBRANCH  86  87
ENDBRANCH  54  79
BRANCH  66  91
ATOM     91  C   UNL     1       7.869  -8.318  11.793  1.00  0.00     0.058 A 
ATOM     92  C   UNL     1       8.717  -9.334  12.263  1.00  0.00     0.135 A 
ATOM     93  C   UNL     1       6.669  -8.141  12.528  1.00  0.00     0.135 A 
ATOM     94  F   UNL     1       9.931  -9.531  11.729  1.00  0.00    -0.206 F 
ATOM     95  C   UNL     1       8.375 -10.161  13.336  1.00  0.00     0.059 A 
ATOM     96  C   UNL     1       6.333  -8.918  13.634  1.00  0.00     0.059 A 
ATOM     97  F   UNL     1       5.781  -7.190  12.200  1.00  0.00    -0.206 F 
ATOM     98  C   UNL     1       7.180  -9.947  14.016  1.00  0.00     0.060 A 
BRANCH  98  99
ATOM     99  S   UNL     1       6.754 -10.965  15.441  1.00  0.00     0.124 S 
ATOM    100  O   UNL     1       5.929 -11.999  14.824  1.00  0.00    -0.237 OA
ATOM    101  O   UNL     1       8.057 -11.409  15.929  1.00  0.00    -0.237 OA
ATOM    102  O   UNL     1       6.052 -10.032  16.316  1.00  0.00    -0.744 OA
ENDBRANCH  98  99
ENDBRANCH  66  91
ENDBRANCH  40  41
ENDBRANCH  32  35
ENDBRANCH  30  31
ENDBRANCH  29  30
ENDBRANCH  28  29
ENDBRANCH   1  28
TORSDOF 20
