REMARK SMILES COc1cc([C@H]2CC(c3ccc(S(C)(=O)=O)cc3)=NN2c2ccc(C(=O)NCCCCNC(=O)c3ccc(-c4c5nc(c(-c6c(F)cc(S(=O)(=O)[O-])cc6F)c6ccc([nH]6)c(-c6c(F)cc(S(=O)(=O)[O-])cc6F)c6nc(c(-c7c(F)cc(S(=O)(=O)[O-])cc7F)c7ccc4[nH]7)C=C6)C=C5)cc3)cc2)cc(OC)c1OC
REMARK SMILES IDX 29 1 28 2 27 3 25 4 26 5 24 7 21 8 22 9 102 10 23 11 101 12
REMARK SMILES IDX 20 13 6 14 7 15 8 16 19 17 5 18 3 19 4 20 107 21 104 22
REMARK SMILES IDX 103 23 2 24 1 25 108 26 109 27 105 28 106 29 9 30 10 31
REMARK SMILES IDX 18 32 11 33 17 34 12 35 13 36 14 37 15 38 16 39 30 40 31 41
REMARK SMILES IDX 32 42 33 43 34 45 35 46 36 47 100 48 37 49 99 50 38 51 39 52
REMARK SMILES IDX 40 53 93 54 41 55 98 56 92 57 94 58 42 59 97 60 91 61 90 62
REMARK SMILES IDX 43 64 77 65 56 66 76 67 57 68 60 69 75 70 95 71 58 72 59 73
REMARK SMILES IDX 74 75 96 76 61 77 44 78 45 79 54 80 46 81 47 82 53 83 55 84
REMARK SMILES IDX 48 85 49 86 50 87 51 88 52 89 78 90 79 91 88 92 80 93 81 94
REMARK SMILES IDX 87 95 89 96 82 97 83 98 84 99 85 100 86 101 62 102 63 103
REMARK SMILES IDX 72 104 64 105 65 106 71 107 73 108 66 109 67 110 68 111
REMARK SMILES IDX 69 112 70 113
REMARK H PARENT 27 6 32 44 94 63 60 74
REMARK Flexibility Score: inf
ROOT
ATOM      1  C   UNL     1      -1.619  -9.050   0.137  1.00  0.00     0.023 C 
ENDROOT
BRANCH   1   2
ATOM      2  C   UNL     1      -0.422  -8.168   0.503  1.00  0.00     0.116 C 
BRANCH   2   3
ATOM      3  N   UNL     1       0.797  -8.718  -0.050  1.00  0.00    -0.352 N 
ATOM      4  C   UNL     1       1.461  -8.479  -1.225  1.00  0.00     0.251 C 
ATOM      5  O   UNL     1       2.500  -9.111  -1.423  1.00  0.00    -0.269 OA
ATOM      6  H   UNL     1       1.231  -9.388   0.526  1.00  0.00     0.163 HD
BRANCH   4   7
ATOM      7  C   UNL     1       1.019  -7.477  -2.240  1.00  0.00     0.039 A 
ATOM      8  C   UNL     1       0.390  -5.553  -4.221  1.00  0.00     0.060 A 
ATOM      9  C   UNL     1       1.688  -6.057  -4.097  1.00  0.00     0.029 A 
ATOM     10  C   UNL     1      -0.595  -6.047  -3.369  1.00  0.00     0.029 A 
ATOM     11  C   UNL     1       2.006  -6.990  -3.108  1.00  0.00     0.016 A 
ATOM     12  C   UNL     1      -0.292  -7.026  -2.417  1.00  0.00     0.016 A 
BRANCH   8  13
ATOM     13  N   UNL     1       0.100  -4.616  -5.192  1.00  0.00    -0.257 N 
ATOM     14  C   UNL     1      -0.425  -3.274  -4.945  1.00  0.00     0.144 C 
ATOM     15  C   UNL     1      -0.602  -2.729  -6.377  1.00  0.00     0.091 C 
ATOM     16  C   UNL     1      -0.214  -3.946  -7.174  1.00  0.00     0.071 C 
ATOM     17  N   UNL     1       0.180  -4.972  -6.492  1.00  0.00    -0.176 NA
BRANCH  14  18
ATOM     18  C   UNL     1       0.537  -2.485  -4.067  1.00  0.00    -0.015 A 
ATOM     19  C   UNL     1       1.155  -1.561  -1.889  1.00  0.00     0.164 A 
ATOM     20  C   UNL     1       0.207  -2.152  -2.747  1.00  0.00     0.056 A 
ATOM     21  C   UNL     1       2.473  -1.312  -2.316  1.00  0.00     0.203 A 
ATOM     22  C   UNL     1       2.799  -1.628  -3.651  1.00  0.00     0.164 A 
ATOM     23  C   UNL     1       1.836  -2.195  -4.502  1.00  0.00     0.056 A 
BRANCH  19  24
ATOM     24  O   UNL     1       0.762  -1.361  -0.589  1.00  0.00    -0.493 OA
ATOM     25  C   UNL     1       0.025  -0.149  -0.436  1.00  0.00     0.278 C 
ENDBRANCH  19  24
BRANCH  21  26
ATOM     26  O   UNL     1       3.484  -0.784  -1.562  1.00  0.00    -0.490 OA
ATOM     27  C   UNL     1       3.293  -0.444  -0.201  1.00  0.00     0.278 C 
ENDBRANCH  21  26
BRANCH  22  28
ATOM     28  O   UNL     1       3.997  -1.451  -4.301  1.00  0.00    -0.493 OA
ATOM     29  C   UNL     1       5.175  -1.291  -3.525  1.00  0.00     0.278 C 
ENDBRANCH  22  28
ENDBRANCH  14  18
BRANCH  16  30
ATOM     30  C   UNL     1      -0.320  -4.002  -8.637  1.00  0.00    -0.002 A 
ATOM     31  C   UNL     1      -1.033  -5.067  -9.202  1.00  0.00     0.011 A 
ATOM     32  C   UNL     1       0.341  -3.075  -9.443  1.00  0.00     0.011 A 
ATOM     33  C   UNL     1      -1.103  -5.200 -10.588  1.00  0.00     0.021 A 
ATOM     34  C   UNL     1       0.295  -3.222 -10.832  1.00  0.00     0.021 A 
ATOM     35  C   UNL     1      -0.423  -4.285 -11.396  1.00  0.00     0.067 A 
BRANCH  35  36
ATOM     36  S   UNL     1      -0.490  -4.477 -13.162  1.00  0.00     0.175 S 
ATOM     37  C   UNL     1       0.242  -6.064 -13.465  1.00  0.00     0.163 C 
ATOM     38  O   UNL     1      -1.898  -4.547 -13.520  1.00  0.00    -0.224 OA
ATOM     39  O   UNL     1       0.376  -3.477 -13.748  1.00  0.00    -0.224 OA
ENDBRANCH  35  36
ENDBRANCH  16  30
ENDBRANCH   8  13
ENDBRANCH   4   7
ENDBRANCH   2   3
ENDBRANCH   1   2
BRANCH   1  40
ATOM     40  C   UNL     1      -1.771 -10.298   1.012  1.00  0.00     0.023 C 
BRANCH  40  41
ATOM     41  C   UNL     1      -2.015 -10.015   2.490  1.00  0.00     0.116 C 
BRANCH  41  42
ATOM     42  N   UNL     1      -3.165  -9.156   2.722  1.00  0.00    -0.352 N 
ATOM     43  C   UNL     1      -3.983  -9.090   3.821  1.00  0.00     0.251 C 
ATOM     44  H   UNL     1      -3.387  -8.537   1.990  1.00  0.00     0.163 HD
ATOM     45  O   UNL     1      -4.981  -8.376   3.792  1.00  0.00    -0.269 OA
BRANCH  43  46
ATOM     46  C   UNL     1      -3.684  -9.908   5.015  1.00  0.00     0.039 A 
ATOM     47  C   UNL     1      -4.735 -10.596   5.628  1.00  0.00     0.014 A 
ATOM     48  C   UNL     1      -2.389 -10.000   5.531  1.00  0.00     0.014 A 
ATOM     49  C   UNL     1      -4.477 -11.411   6.730  1.00  0.00     0.010 A 
ATOM     50  C   UNL     1      -2.121 -10.869   6.585  1.00  0.00     0.010 A 
ATOM     51  C   UNL     1      -3.164 -11.573   7.203  1.00  0.00    -0.014 A 
BRANCH  51  52
ATOM     52  C   UNL     1      -2.882 -12.483   8.340  1.00  0.00     0.031 A 
ATOM     53  C   UNL     1      -2.371 -11.941   9.646  1.00  0.00     0.074 A 
ATOM     54  C   UNL     1      -3.050 -13.809   8.177  1.00  0.00     0.049 A 
ATOM     55  N   UNL     1      -2.118 -12.579  10.759  1.00  0.00    -0.248 NA
ATOM     56  C   UNL     1      -2.075 -10.502   9.698  1.00  0.00     0.031 C 
ATOM     57  C   UNL     1      -3.450 -14.461   6.929  1.00  0.00     0.029 A 
ATOM     58  N   UNL     1      -2.900 -14.846   9.062  1.00  0.00    -0.354 N 
ATOM     59  C   UNL     1      -1.625 -11.624  11.640  1.00  0.00     0.074 A 
ATOM     60  C   UNL     1      -1.558 -10.376  10.911  1.00  0.00     0.031 C 
ATOM     61  C   UNL     1      -3.538 -15.785   7.133  1.00  0.00     0.029 A 
ATOM     62  C   UNL     1      -3.186 -16.076   8.521  1.00  0.00     0.049 A 
ATOM     63  H   UNL     1      -2.615 -14.721   9.996  1.00  0.00     0.167 HD
ATOM     64  C   UNL     1      -1.285 -11.768  12.944  1.00  0.00     0.037 A 
ATOM     65  C   UNL     1      -3.179 -17.300   9.081  1.00  0.00     0.037 A 
ATOM     66  C   UNL     1      -1.372 -13.011  13.664  1.00  0.00     0.049 A 
ATOM     67  C   UNL     1      -2.869 -17.432  10.545  1.00  0.00     0.074 A 
ATOM     68  C   UNL     1      -1.126 -13.252  15.004  1.00  0.00     0.029 A 
ATOM     69  N   UNL     1      -1.725 -14.229  13.098  1.00  0.00    -0.354 N 
ATOM     70  N   UNL     1      -2.510 -16.500  11.396  1.00  0.00    -0.248 NA
ATOM     71  C   UNL     1      -2.988 -18.772  11.132  1.00  0.00     0.031 C 
ATOM     72  C   UNL     1      -1.294 -14.622  15.240  1.00  0.00     0.029 A 
ATOM     73  C   UNL     1      -1.688 -15.228  14.057  1.00  0.00     0.049 A 
ATOM     74  H   UNL     1      -1.966 -14.363  12.153  1.00  0.00     0.167 HD
ATOM     75  C   UNL     1      -2.377 -17.137  12.624  1.00  0.00     0.074 A 
ATOM     76  C   UNL     1      -2.709 -18.531  12.406  1.00  0.00     0.031 C 
ATOM     77  C   UNL     1      -2.015 -16.614  13.823  1.00  0.00     0.037 A 
BRANCH  64  78
ATOM     78  C   UNL     1      -0.787 -10.542  13.663  1.00  0.00     0.058 A 
ATOM     79  C   UNL     1      -1.635  -9.459  13.948  1.00  0.00     0.135 A 
ATOM     80  C   UNL     1       0.556 -10.441  14.057  1.00  0.00     0.135 A 
ATOM     81  F   UNL     1      -2.927  -9.496  13.584  1.00  0.00    -0.206 F 
ATOM     82  C   UNL     1      -1.157  -8.297  14.547  1.00  0.00     0.059 A 
ATOM     83  C   UNL     1       1.050  -9.300  14.685  1.00  0.00     0.059 A 
ATOM     84  F   UNL     1       1.411 -11.447  13.816  1.00  0.00    -0.206 F 
ATOM     85  C   UNL     1       0.190  -8.223  14.901  1.00  0.00     0.060 A 
BRANCH  85  86
ATOM     86  S   UNL     1       0.808  -6.694  15.637  1.00  0.00     0.124 S 
ATOM     87  O   UNL     1       0.897  -5.826  14.467  1.00  0.00    -0.237 OA
ATOM     88  O   UNL     1      -0.240  -6.359  16.595  1.00  0.00    -0.237 OA
ATOM     89  O   UNL     1       2.084  -7.092  16.223  1.00  0.00    -0.744 OA
ENDBRANCH  85  86
ENDBRANCH  64  78
BRANCH  65  90
ATOM     90  C   UNL     1      -3.534 -18.479   8.249  1.00  0.00     0.058 A 
ATOM     91  C   UNL     1      -4.787 -19.098   8.368  1.00  0.00     0.135 A 
ATOM     92  C   UNL     1      -2.659 -18.955   7.261  1.00  0.00     0.135 A 
ATOM     93  F   UNL     1      -5.656 -18.678   9.300  1.00  0.00    -0.206 F 
ATOM     94  C   UNL     1      -5.162 -20.146   7.534  1.00  0.00     0.059 A 
ATOM     95  C   UNL     1      -3.019 -19.988   6.402  1.00  0.00     0.059 A 
ATOM     96  F   UNL     1      -1.457 -18.380   7.095  1.00  0.00    -0.206 F 
ATOM     97  C   UNL     1      -4.275 -20.577   6.546  1.00  0.00     0.060 A 
BRANCH  97  98
ATOM     98  S   UNL     1      -4.812 -21.868   5.402  1.00  0.00     0.124 S 
ATOM     99  O   UNL     1      -4.731 -23.057   6.242  1.00  0.00    -0.237 OA
ATOM    100  O   UNL     1      -6.157 -21.425   5.049  1.00  0.00    -0.237 OA
ATOM    101  O   UNL     1      -3.832 -21.787   4.323  1.00  0.00    -0.744 OA
ENDBRANCH  97  98
ENDBRANCH  65  90
BRANCH  77 102
ATOM    102  C   UNL     1      -1.979 -17.551  14.998  1.00  0.00     0.058 A 
ATOM    103  C   UNL     1      -0.969 -18.514  15.143  1.00  0.00     0.135 A 
ATOM    104  C   UNL     1      -2.949 -17.458  16.010  1.00  0.00     0.135 A 
ATOM    105  F   UNL     1      -0.021 -18.646  14.202  1.00  0.00    -0.206 F 
ATOM    106  C   UNL     1      -0.937 -19.373  16.237  1.00  0.00     0.059 A 
ATOM    107  C   UNL     1      -2.922 -18.290  17.124  1.00  0.00     0.059 A 
ATOM    108  F   UNL     1      -3.930 -16.546  15.925  1.00  0.00    -0.206 F 
ATOM    109  C   UNL     1      -1.921 -19.256  17.221  1.00  0.00     0.060 A 
BRANCH 109 110
ATOM    110  S   UNL     1      -1.862 -20.365  18.644  1.00  0.00     0.124 S 
ATOM    111  O   UNL     1      -2.368 -21.607  18.068  1.00  0.00    -0.237 OA
ATOM    112  O   UNL     1      -0.445 -20.358  18.991  1.00  0.00    -0.237 OA
ATOM    113  O   UNL     1      -2.741 -19.718  19.614  1.00  0.00    -0.744 OA
ENDBRANCH 109 110
ENDBRANCH  77 102
ENDBRANCH  51  52
ENDBRANCH  43  46
ENDBRANCH  41  42
ENDBRANCH  40  41
ENDBRANCH   1  40
TORSDOF 21
