REMARK SMILES COc1cc(/C=C2\SC(=S)N(CC(=O)NCCCCNC(=O)c3ccc(-c4c5nc(c(-c6c(F)cc(S(=O)(=O)[O-])cc6F)c6ccc([nH]6)c(-c6c(F)cc(S(=O)(=O)[O-])cc6F)c6nc(c(-c7c(F)cc(S(=O)(=O)[O-])cc7F)c7ccc4[nH]7)C=C6)C=C5)cc3)C2=O)cc2c1OCO2
REMARK SMILES IDX 17 1 16 2 15 3 13 4 14 5 12 7 11 8 6 9 7 10 8 11 89 12 9 13
REMARK SMILES IDX 90 14 10 15 5 16 3 17 4 18 93 19 92 20 94 21 91 22 96 23
REMARK SMILES IDX 95 24 2 25 1 26 18 27 19 28 20 29 21 30 22 32 23 33 24 34
REMARK SMILES IDX 88 35 25 36 87 37 26 38 27 39 28 40 81 41 29 42 86 43 80 44
REMARK SMILES IDX 82 45 30 46 85 47 79 48 78 49 31 51 65 52 44 53 64 54 45 55
REMARK SMILES IDX 48 56 63 57 83 58 46 59 47 60 62 62 84 63 49 64 32 65 33 66
REMARK SMILES IDX 42 67 34 68 35 69 41 70 43 71 36 72 37 73 38 74 39 75 40 76
REMARK SMILES IDX 66 77 67 78 76 79 68 80 69 81 75 82 77 83 70 84 71 85 72 86
REMARK SMILES IDX 73 87 74 88 50 89 51 90 60 91 52 92 53 93 59 94 61 95 54 96
REMARK SMILES IDX 55 97 56 98 57 99 58 100
REMARK H PARENT 15 6 20 31 82 50 48 61
REMARK Flexibility Score: inf
ROOT
ATOM      1  C   UNL     1      -2.450  -4.860   7.149  1.00  0.00     0.023 C 
ENDROOT
BRANCH   1   2
ATOM      2  C   UNL     1      -2.692  -6.262   7.701  1.00  0.00     0.116 C 
BRANCH   2   3
ATOM      3  N   UNL     1      -3.736  -6.962   6.985  1.00  0.00    -0.355 N 
ATOM      4  C   UNL     1      -3.660  -8.035   6.149  1.00  0.00     0.240 C 
ATOM      5  O   UNL     1      -4.714  -8.622   5.886  1.00  0.00    -0.273 OA
ATOM      6  H   UNL     1      -4.644  -6.607   7.124  1.00  0.00     0.163 HD
BRANCH   4   7
ATOM      7  C   UNL     1      -2.315  -8.621   5.701  1.00  0.00     0.227 C 
BRANCH   7   8
ATOM      8  N   UNL     1      -1.365  -7.647   5.167  1.00  0.00    -0.283 N 
ATOM      9  C   UNL     1      -0.720  -5.322   2.470  1.00  0.00     0.029 C 
ATOM     10  C   UNL     1      -0.622  -6.078   3.572  1.00  0.00     0.081 C 
ATOM     11  S   UNL     1       0.677  -6.157   4.692  1.00  0.00    -0.054 SA
ATOM     12  C   UNL     1      -1.708  -7.004   3.987  1.00  0.00     0.266 C 
ATOM     13  C   UNL     1      -0.086  -7.432   5.630  1.00  0.00     0.148 C 
ATOM     14  O   UNL     1      -2.727  -7.183   3.343  1.00  0.00    -0.268 OA
ATOM     15  S   UNL     1       0.727  -8.219   6.857  1.00  0.00    -0.052 S 
BRANCH   9  16
ATOM     16  C   UNL     1       0.302  -4.390   1.980  1.00  0.00    -0.017 A 
ATOM     17  C   UNL     1       0.918  -2.104   1.352  1.00  0.00     0.165 A 
ATOM     18  C   UNL     1      -0.030  -3.031   1.807  1.00  0.00     0.058 A 
ATOM     19  C   UNL     1       2.202  -2.560   1.114  1.00  0.00     0.207 A 
ATOM     20  C   UNL     1       2.521  -3.891   1.272  1.00  0.00     0.170 A 
ATOM     21  O   UNL     1       3.291  -1.829   0.746  1.00  0.00    -0.450 OA
ATOM     22  C   UNL     1       1.596  -4.830   1.676  1.00  0.00     0.059 A 
ATOM     23  O   UNL     1       3.831  -4.156   1.013  1.00  0.00    -0.453 OA
ATOM     24  C   UNL     1       4.327  -2.828   0.772  1.00  0.00     0.468 C 
BRANCH  17  25
ATOM     25  O   UNL     1       0.482  -0.815   1.254  1.00  0.00    -0.493 OA
ATOM     26  C   UNL     1       1.014  -0.085   0.153  1.00  0.00     0.278 C 
ENDBRANCH  17  25
ENDBRANCH   9  16
ENDBRANCH   7   8
ENDBRANCH   4   7
ENDBRANCH   2   3
ENDBRANCH   1   2
BRANCH   1  27
ATOM     27  C   UNL     1      -3.586  -3.870   7.420  1.00  0.00     0.023 C 
BRANCH  27  28
ATOM     28  C   UNL     1      -3.947  -3.680   8.890  1.00  0.00     0.116 C 
BRANCH  28  29
ATOM     29  N   UNL     1      -2.832  -3.208   9.697  1.00  0.00    -0.352 N 
ATOM     30  C   UNL     1      -2.825  -2.229  10.664  1.00  0.00     0.251 C 
ATOM     31  H   UNL     1      -1.968  -3.648   9.529  1.00  0.00     0.163 HD
ATOM     32  O   UNL     1      -1.764  -1.862  11.159  1.00  0.00    -0.269 OA
BRANCH  30  33
ATOM     33  C   UNL     1      -4.099  -1.600  11.072  1.00  0.00     0.039 A 
ATOM     34  C   UNL     1      -4.177  -0.207  11.136  1.00  0.00     0.014 A 
ATOM     35  C   UNL     1      -5.222  -2.383  11.351  1.00  0.00     0.014 A 
ATOM     36  C   UNL     1      -5.404   0.403  11.407  1.00  0.00     0.010 A 
ATOM     37  C   UNL     1      -6.458  -1.773  11.541  1.00  0.00     0.010 A 
ATOM     38  C   UNL     1      -6.564  -0.374  11.570  1.00  0.00    -0.014 A 
BRANCH  38  39
ATOM     39  C   UNL     1      -7.897   0.256  11.753  1.00  0.00     0.031 A 
ATOM     40  C   UNL     1      -8.675   0.032  13.020  1.00  0.00     0.074 A 
ATOM     41  C   UNL     1      -8.438   0.973  10.748  1.00  0.00     0.049 A 
ATOM     42  N   UNL     1      -9.869   0.457  13.343  1.00  0.00    -0.248 NA
ATOM     43  C   UNL     1      -8.037  -0.805  14.048  1.00  0.00     0.031 C 
ATOM     44  C   UNL     1      -7.802   1.226   9.453  1.00  0.00     0.029 A 
ATOM     45  N   UNL     1      -9.646   1.617  10.655  1.00  0.00    -0.354 N 
ATOM     46  C   UNL     1     -10.133  -0.073  14.601  1.00  0.00     0.074 A 
ATOM     47  C   UNL     1      -8.998  -0.898  14.955  1.00  0.00     0.031 C 
ATOM     48  C   UNL     1      -8.608   2.002   8.711  1.00  0.00     0.029 A 
ATOM     49  C   UNL     1      -9.836   2.265   9.457  1.00  0.00     0.049 A 
ATOM     50  H   UNL     1     -10.314   1.615  11.377  1.00  0.00     0.167 HD
ATOM     51  C   UNL     1     -11.211   0.127  15.398  1.00  0.00     0.037 A 
ATOM     52  C   UNL     1     -10.880   2.987   9.007  1.00  0.00     0.037 A 
ATOM     53  C   UNL     1     -12.331   0.959  15.040  1.00  0.00     0.049 A 
ATOM     54  C   UNL     1     -12.079   3.176   9.896  1.00  0.00     0.074 A 
ATOM     55  C   UNL     1     -13.441   1.280  15.800  1.00  0.00     0.029 A 
ATOM     56  N   UNL     1     -12.492   1.588  13.813  1.00  0.00    -0.354 N 
ATOM     57  N   UNL     1     -12.280   2.732  11.114  1.00  0.00    -0.248 NA
ATOM     58  C   UNL     1     -13.191   3.965   9.351  1.00  0.00     0.031 C 
ATOM     59  C   UNL     1     -14.302   2.053  15.012  1.00  0.00     0.029 A 
ATOM     60  C   UNL     1     -13.700   2.267  13.782  1.00  0.00     0.049 A 
ATOM     61  H   UNL     1     -11.844   1.557  13.073  1.00  0.00     0.167 HD
ATOM     62  C   UNL     1     -13.529   3.212  11.493  1.00  0.00     0.074 A 
ATOM     63  C   UNL     1     -14.032   3.987  10.377  1.00  0.00     0.031 C 
ATOM     64  C   UNL     1     -14.194   3.032  12.662  1.00  0.00     0.037 A 
BRANCH  51  65
ATOM     65  C   UNL     1     -11.232  -0.588  16.724  1.00  0.00     0.058 A 
ATOM     66  C   UNL     1     -10.325  -0.276  17.752  1.00  0.00     0.135 A 
ATOM     67  C   UNL     1     -12.167  -1.607  16.969  1.00  0.00     0.135 A 
ATOM     68  F   UNL     1      -9.403   0.683  17.572  1.00  0.00    -0.206 F 
ATOM     69  C   UNL     1     -10.305  -0.987  18.947  1.00  0.00     0.059 A 
ATOM     70  C   UNL     1     -12.188  -2.308  18.172  1.00  0.00     0.059 A 
ATOM     71  F   UNL     1     -13.063  -1.945  16.028  1.00  0.00    -0.206 F 
ATOM     72  C   UNL     1     -11.236  -2.008  19.144  1.00  0.00     0.060 A 
BRANCH  72  73
ATOM     73  S   UNL     1     -11.168  -2.952  20.681  1.00  0.00     0.124 S 
ATOM     74  O   UNL     1      -9.969  -3.758  20.474  1.00  0.00    -0.237 OA
ATOM     75  O   UNL     1     -11.058  -1.901  21.689  1.00  0.00    -0.237 OA
ATOM     76  O   UNL     1     -12.427  -3.690  20.684  1.00  0.00    -0.744 OA
ENDBRANCH  72  73
ENDBRANCH  51  65
BRANCH  52  77
ATOM     77  C   UNL     1     -10.811   3.626   7.666  1.00  0.00     0.058 A 
ATOM     78  C   UNL     1     -10.669   5.016   7.543  1.00  0.00     0.135 A 
ATOM     79  C   UNL     1     -10.835   2.865   6.486  1.00  0.00     0.135 A 
ATOM     80  F   UNL     1     -10.650   5.787   8.641  1.00  0.00    -0.206 F 
ATOM     81  C   UNL     1     -10.551   5.630   6.301  1.00  0.00     0.059 A 
ATOM     82  C   UNL     1     -10.695   3.454   5.233  1.00  0.00     0.059 A 
ATOM     83  F   UNL     1     -10.956   1.530   6.550  1.00  0.00    -0.206 F 
ATOM     84  C   UNL     1     -10.555   4.839   5.151  1.00  0.00     0.060 A 
BRANCH  84  85
ATOM     85  S   UNL     1     -10.317   5.643   3.551  1.00  0.00     0.124 S 
ATOM     86  O   UNL     1     -11.576   6.361   3.391  1.00  0.00    -0.237 OA
ATOM     87  O   UNL     1      -9.137   6.467   3.798  1.00  0.00    -0.237 OA
ATOM     88  O   UNL     1     -10.109   4.521   2.640  1.00  0.00    -0.744 OA
ENDBRANCH  84  85
ENDBRANCH  52  77
BRANCH  64  89
ATOM     89  C   UNL     1     -15.531   3.708  12.811  1.00  0.00     0.058 A 
ATOM     90  C   UNL     1     -16.666   3.272  12.109  1.00  0.00     0.135 A 
ATOM     91  C   UNL     1     -15.690   4.775  13.712  1.00  0.00     0.135 A 
ATOM     92  F   UNL     1     -16.569   2.262  11.229  1.00  0.00    -0.206 F 
ATOM     93  C   UNL     1     -17.905   3.881  12.279  1.00  0.00     0.059 A 
ATOM     94  C   UNL     1     -16.926   5.378  13.921  1.00  0.00     0.059 A 
ATOM     95  F   UNL     1     -14.641   5.227  14.417  1.00  0.00    -0.206 F 
ATOM     96  C   UNL     1     -18.026   4.932  13.191  1.00  0.00     0.060 A 
BRANCH  96  97
ATOM     97  S   UNL     1     -19.648   5.687  13.430  1.00  0.00     0.124 S 
ATOM     98  O   UNL     1     -19.813   6.432  12.185  1.00  0.00    -0.237 OA
ATOM     99  O   UNL     1     -20.514   4.523  13.591  1.00  0.00    -0.237 OA
ATOM    100  O   UNL     1     -19.472   6.500  14.629  1.00  0.00    -0.744 OA
ENDBRANCH  96  97
ENDBRANCH  64  89
ENDBRANCH  38  39
ENDBRANCH  30  33
ENDBRANCH  28  29
ENDBRANCH  27  28
ENDBRANCH   1  27
TORSDOF 17
