REMARK SMILES Cc1n[nH]c(CN(C)C(=O)N[C@](C)(C(=O)NCCCCNC(=O)c2ccc(-c3c4nc(c(-c5c(F)cc(S(=O)(=O)[O-])cc5F)c5ccc([nH]5)c(-c5c(F)cc(S(=O)(=O)[O-])cc5F)c5nc(c(-c6c(F)cc(S(=O)(=O)[O-])cc6F)c6ccc3[nH]6)C=C5)C=C4)cc2)C(F)(F)F)n1
REMARK SMILES IDX 18 1 17 2 16 3 14 4 15 5 12 7 13 8 11 9 9 10 10 11 7 13 8 14
REMARK SMILES IDX 6 15 5 16 1 17 2 18 3 19 94 20 4 21 90 23 91 24 92 25 93 26
REMARK SMILES IDX 19 27 20 28 21 29 22 30 23 32 24 33 25 34 89 35 26 36 88 37
REMARK SMILES IDX 27 38 28 39 29 40 82 41 30 42 87 43 81 44 83 45 31 46 86 47
REMARK SMILES IDX 80 48 79 49 32 51 66 52 45 53 65 54 46 55 49 56 64 57 84 58
REMARK SMILES IDX 47 59 48 60 63 62 85 63 50 64 33 65 34 66 43 67 35 68 36 69
REMARK SMILES IDX 42 70 44 71 37 72 38 73 39 74 40 75 41 76 67 77 68 78 77 79
REMARK SMILES IDX 69 80 70 81 76 82 78 83 71 84 72 85 73 86 74 87 75 88 51 89
REMARK SMILES IDX 52 90 61 91 53 92 54 93 60 94 62 95 55 96 56 97 57 98 58 99
REMARK SMILES IDX 59 100
REMARK H PARENT 16 6 11 12 4 22 21 31 83 50 49 61
REMARK Flexibility Score: inf
ROOT
ATOM      1  C   UNL     1       7.403   2.353   4.539  1.00  0.00     0.023 C 
ENDROOT
BRANCH   1   2
ATOM      2  C   UNL     1       6.964   3.659   3.874  1.00  0.00     0.116 C 
BRANCH   2   3
ATOM      3  N   UNL     1       6.264   3.404   2.622  1.00  0.00    -0.354 N 
ATOM      4  C   UNL     1       5.270   4.094   1.979  1.00  0.00     0.255 C 
ATOM      5  O   UNL     1       4.865   3.591   0.928  1.00  0.00    -0.272 OA
ATOM      6  H   UNL     1       6.558   2.590   2.153  1.00  0.00     0.163 HD
BRANCH   4   7
ATOM      7  C   UNL     1       4.601   5.329   2.598  1.00  0.00     0.213 C 
ATOM      8  C   UNL     1       3.709   4.766   3.743  1.00  0.00     0.056 C 
BRANCH   7   9
ATOM      9  N   UNL     1       5.569   6.279   3.217  1.00  0.00    -0.316 N 
ATOM     10  C   UNL     1       6.772   6.804   2.932  1.00  0.00     0.318 C 
ATOM     11  O   UNL     1       7.193   7.586   3.793  1.00  0.00    -0.249 OA
ATOM     12  H   UNL     1       5.232   6.617   4.078  1.00  0.00     0.166 HD
BRANCH  10  13
ATOM     13  N   UNL     1       7.562   6.391   1.903  1.00  0.00    -0.320 N 
ATOM     14  C   UNL     1       7.172   5.881   0.594  1.00  0.00     0.149 C 
BRANCH  13  15
ATOM     15  C   UNL     1       8.985   6.725   2.008  1.00  0.00     0.197 C 
BRANCH  15  16
ATOM     16  C   UNL     1       9.217   8.065   1.421  1.00  0.00     0.144 A 
ATOM     17  C   UNL     1       8.695  10.723  -0.812  1.00  0.00     0.092 C 
ATOM     18  C   UNL     1       9.124   9.825   0.274  1.00  0.00     0.147 A 
ATOM     19  N   UNL     1       9.719  10.240   1.399  1.00  0.00    -0.159 NA
ATOM     20  N   UNL     1       8.826   8.493   0.241  1.00  0.00    -0.215 NA
ATOM     21  N   UNL     1       9.794   9.098   2.099  1.00  0.00    -0.262 N 
ATOM     22  H   UNL     1      10.212   9.017   2.987  1.00  0.00     0.192 HD
ENDBRANCH  15  16
ENDBRANCH  13  15
ENDBRANCH  10  13
ENDBRANCH   7   9
BRANCH   7  23
ATOM     23  C   UNL     1       3.608   5.992   1.613  1.00  0.00     0.420 C 
ATOM     24  F   UNL     1       2.666   5.129   1.163  1.00  0.00    -0.168 F 
ATOM     25  F   UNL     1       2.920   6.976   2.265  1.00  0.00    -0.168 F 
ATOM     26  F   UNL     1       4.170   6.582   0.544  1.00  0.00    -0.168 F 
ENDBRANCH   7  23
ENDBRANCH   4   7
ENDBRANCH   2   3
ENDBRANCH   1   2
BRANCH   1  27
ATOM     27  C   UNL     1       8.517   1.599   3.796  1.00  0.00     0.023 C 
BRANCH  27  28
ATOM     28  C   UNL     1       9.849   2.341   3.764  1.00  0.00     0.116 C 
BRANCH  28  29
ATOM     29  N   UNL     1      10.436   2.462   5.090  1.00  0.00    -0.352 N 
ATOM     30  C   UNL     1      11.687   2.931   5.434  1.00  0.00     0.251 C 
ATOM     31  H   UNL     1       9.867   2.171   5.839  1.00  0.00     0.163 HD
ATOM     32  O   UNL     1      12.173   2.627   6.513  1.00  0.00    -0.269 OA
BRANCH  30  33
ATOM     33  C   UNL     1      12.431   3.793   4.492  1.00  0.00     0.039 A 
ATOM     34  C   UNL     1      13.815   3.656   4.373  1.00  0.00     0.014 A 
ATOM     35  C   UNL     1      11.754   4.765   3.752  1.00  0.00     0.014 A 
ATOM     36  C   UNL     1      14.498   4.454   3.458  1.00  0.00     0.010 A 
ATOM     37  C   UNL     1      12.417   5.492   2.783  1.00  0.00     0.010 A 
ATOM     38  C   UNL     1      13.792   5.357   2.645  1.00  0.00    -0.014 A 
BRANCH  38  39
ATOM     39  C   UNL     1      14.486   6.022   1.541  1.00  0.00     0.031 A 
ATOM     40  C   UNL     1      15.201   5.079   0.638  1.00  0.00     0.074 A 
ATOM     41  C   UNL     1      14.383   7.328   1.214  1.00  0.00     0.049 A 
ATOM     42  N   UNL     1      16.476   4.902   0.552  1.00  0.00    -0.248 NA
ATOM     43  C   UNL     1      14.413   4.098  -0.124  1.00  0.00     0.031 C 
ATOM     44  C   UNL     1      13.486   8.341   1.772  1.00  0.00     0.029 A 
ATOM     45  N   UNL     1      15.018   8.011   0.218  1.00  0.00    -0.354 N 
ATOM     46  C   UNL     1      16.667   3.963  -0.457  1.00  0.00     0.074 A 
ATOM     47  C   UNL     1      15.379   3.363  -0.682  1.00  0.00     0.031 C 
ATOM     48  C   UNL     1      13.465   9.423   0.959  1.00  0.00     0.029 A 
ATOM     49  C   UNL     1      14.465   9.253  -0.083  1.00  0.00     0.049 A 
ATOM     50  H   UNL     1      15.806   7.653  -0.252  1.00  0.00     0.167 HD
ATOM     51  C   UNL     1      17.821   3.945  -1.182  1.00  0.00     0.037 A 
ATOM     52  C   UNL     1      14.785  10.062  -1.129  1.00  0.00     0.037 A 
ATOM     53  C   UNL     1      18.852   4.711  -0.520  1.00  0.00     0.049 A 
ATOM     54  C   UNL     1      16.142   9.667  -1.589  1.00  0.00     0.074 A 
ATOM     55  C   UNL     1      19.419   4.686   0.743  1.00  0.00     0.029 A 
ATOM     56  N   UNL     1      19.173   5.943  -1.041  1.00  0.00    -0.354 N 
ATOM     57  N   UNL     1      17.229   9.846  -0.888  1.00  0.00    -0.248 NA
ATOM     58  C   UNL     1      16.232   8.652  -2.628  1.00  0.00     0.031 C 
ATOM     59  C   UNL     1      19.580   6.057   1.099  1.00  0.00     0.029 A 
ATOM     60  C   UNL     1      19.195   6.830   0.003  1.00  0.00     0.049 A 
ATOM     61  H   UNL     1      19.354   6.149  -1.987  1.00  0.00     0.167 HD
ATOM     62  C   UNL     1      17.962   8.685  -1.078  1.00  0.00     0.074 A 
ATOM     63  C   UNL     1      17.341   8.026  -2.226  1.00  0.00     0.031 C 
ATOM     64  C   UNL     1      18.819   8.220  -0.121  1.00  0.00     0.037 A 
BRANCH  51  65
ATOM     65  C   UNL     1      17.914   3.584  -2.651  1.00  0.00     0.058 A 
ATOM     66  C   UNL     1      19.184   3.569  -3.268  1.00  0.00     0.135 A 
ATOM     67  C   UNL     1      16.814   3.546  -3.537  1.00  0.00     0.135 A 
ATOM     68  F   UNL     1      20.306   3.587  -2.530  1.00  0.00    -0.206 F 
ATOM     69  C   UNL     1      19.348   3.628  -4.652  1.00  0.00     0.059 A 
ATOM     70  C   UNL     1      16.956   3.550  -4.920  1.00  0.00     0.059 A 
ATOM     71  F   UNL     1      15.546   3.598  -3.118  1.00  0.00    -0.206 F 
ATOM     72  C   UNL     1      18.224   3.639  -5.468  1.00  0.00     0.060 A 
BRANCH  72  73
ATOM     73  S   UNL     1      18.426   3.816  -7.247  1.00  0.00     0.124 S 
ATOM     74  O   UNL     1      18.886   5.196  -7.349  1.00  0.00    -0.237 OA
ATOM     75  O   UNL     1      19.416   2.786  -7.541  1.00  0.00    -0.237 OA
ATOM     76  O   UNL     1      17.086   3.554  -7.763  1.00  0.00    -0.744 OA
ENDBRANCH  72  73
ENDBRANCH  51  65
BRANCH  52  77
ATOM     77  C   UNL     1      13.894  10.937  -1.944  1.00  0.00     0.058 A 
ATOM     78  C   UNL     1      14.414  11.844  -2.889  1.00  0.00     0.135 A 
ATOM     79  C   UNL     1      12.511  10.692  -2.029  1.00  0.00     0.135 A 
ATOM     80  F   UNL     1      15.727  12.122  -2.906  1.00  0.00    -0.206 F 
ATOM     81  C   UNL     1      13.622  12.428  -3.887  1.00  0.00     0.059 A 
ATOM     82  C   UNL     1      11.702  11.271  -3.006  1.00  0.00     0.059 A 
ATOM     83  F   UNL     1      11.919   9.794  -1.230  1.00  0.00    -0.206 F 
ATOM     84  C   UNL     1      12.265  12.117  -3.950  1.00  0.00     0.060 A 
BRANCH  84  85
ATOM     85  S   UNL     1      11.266  12.707  -5.338  1.00  0.00     0.124 S 
ATOM     86  O   UNL     1      11.206  14.142  -5.085  1.00  0.00    -0.237 OA
ATOM     87  O   UNL     1      12.062  12.294  -6.489  1.00  0.00    -0.237 OA
ATOM     88  O   UNL     1      10.001  11.993  -5.173  1.00  0.00    -0.744 OA
ENDBRANCH  84  85
ENDBRANCH  52  77
BRANCH  64  89
ATOM     89  C   UNL     1      19.245   9.136   0.997  1.00  0.00     0.058 A 
ATOM     90  C   UNL     1      18.383   9.753   1.919  1.00  0.00     0.135 A 
ATOM     91  C   UNL     1      20.626   9.270   1.226  1.00  0.00     0.135 A 
ATOM     92  F   UNL     1      17.054   9.587   1.847  1.00  0.00    -0.206 F 
ATOM     93  C   UNL     1      18.873  10.508   2.989  1.00  0.00     0.059 A 
ATOM     94  C   UNL     1      21.134   9.983   2.305  1.00  0.00     0.059 A 
ATOM     95  F   UNL     1      21.506   8.658   0.415  1.00  0.00    -0.206 F 
ATOM     96  C   UNL     1      20.252  10.616   3.174  1.00  0.00     0.060 A 
BRANCH  96  97
ATOM     97  S   UNL     1      20.887  11.541   4.588  1.00  0.00     0.124 S 
ATOM     98  O   UNL     1      20.569  12.917   4.223  1.00  0.00    -0.237 OA
ATOM     99  O   UNL     1      20.121  10.986   5.701  1.00  0.00    -0.237 OA
ATOM    100  O   UNL     1      22.311  11.213   4.600  1.00  0.00    -0.744 OA
ENDBRANCH  96  97
ENDBRANCH  64  89
ENDBRANCH  38  39
ENDBRANCH  30  33
ENDBRANCH  28  29
ENDBRANCH  27  28
ENDBRANCH   1  27
TORSDOF 19
