REMARK SMILES O=C(N[C@@H]1C=C[C@@H](C(=O)NCCCCNC(=O)c2ccc(-c3c4nc(c(-c5c(F)cc(S(=O)(=O)[O-])cc5F)c5ccc([nH]5)c(-c5c(F)cc(S(=O)(=O)[O-])cc5F)c5nc(c(-c6c(F)cc(S(=O)(=O)[O-])cc6F)c6ccc3[nH]6)C=C5)C=C4)cc2)C1)N[C@H]1CCCc2sccc21
REMARK SMILES IDX 13 1 12 2 11 3 10 4 8 5 9 6 7 8 4 9 5 10 84 11 6 12 3 13
REMARK SMILES IDX 1 14 2 15 85 16 86 19 87 20 94 21 88 22 90 23 93 24 89 25
REMARK SMILES IDX 91 26 92 27 14 28 15 29 16 30 17 32 18 33 19 34 83 35 20 36
REMARK SMILES IDX 82 37 21 38 22 39 23 40 76 41 24 42 81 43 75 44 77 45 25 46
REMARK SMILES IDX 80 47 74 48 73 49 26 51 60 52 39 53 59 54 40 55 43 56 58 57
REMARK SMILES IDX 78 58 41 59 42 60 57 62 79 63 44 64 27 65 28 66 37 67 29 68
REMARK SMILES IDX 30 69 36 70 38 71 31 72 32 73 33 74 34 75 35 76 61 77 62 78
REMARK SMILES IDX 71 79 63 80 64 81 70 82 72 83 65 84 66 85 67 86 68 87 69 88
REMARK SMILES IDX 45 89 46 90 55 91 47 92 48 93 54 94 56 95 49 96 50 97 51 98
REMARK SMILES IDX 52 99 53 100
REMARK H PARENT 10 7 3 17 85 18 15 31 77 50 43 61
REMARK Flexibility Score: inf
ROOT
ATOM      1  C   UNL     1      -0.174   2.402  -2.664  1.00  0.00     0.023 C 
ENDROOT
BRANCH   1   2
ATOM      2  C   UNL     1      -0.525   1.380  -1.582  1.00  0.00     0.023 C 
BRANCH   2   3
ATOM      3  C   UNL     1      -0.467   1.916  -0.154  1.00  0.00     0.116 C 
BRANCH   3   4
ATOM      4  N   UNL     1      -1.529   2.864   0.119  1.00  0.00    -0.356 N 
ATOM      5  C   UNL     1      -2.601   2.797   0.953  1.00  0.00     0.227 C 
ATOM      6  O   UNL     1      -3.317   3.801   1.030  1.00  0.00    -0.274 OA
ATOM      7  H   UNL     1      -1.462   3.704  -0.390  1.00  0.00     0.163 HD
BRANCH   5   8
ATOM      8  C   UNL     1      -2.941   1.556   1.787  1.00  0.00     0.103 C 
ATOM      9  C   UNL     1      -2.216  -0.790   1.577  1.00  0.00     0.107 C 
ATOM     10  C   UNL     1      -1.519  -0.081   2.691  1.00  0.00    -0.006 C 
ATOM     11  C   UNL     1      -3.166   0.267   0.989  1.00  0.00     0.047 C 
ATOM     12  C   UNL     1      -1.897   1.197   2.798  1.00  0.00    -0.016 C 
BRANCH   9  13
ATOM     13  N   UNL     1      -2.924  -1.912   2.149  1.00  0.00    -0.332 N 
ATOM     14  O   UNL     1      -3.527  -4.029   2.514  1.00  0.00    -0.249 OA
ATOM     15  C   UNL     1      -2.763  -3.243   1.962  1.00  0.00     0.315 C 
ATOM     16  N   UNL     1      -1.758  -3.633   1.141  1.00  0.00    -0.331 N 
ATOM     17  H   UNL     1      -3.640  -1.668   2.779  1.00  0.00     0.165 HD
ATOM     18  H   UNL     1      -1.156  -2.949   0.770  1.00  0.00     0.166 HD
BRANCH  16  19
ATOM     19  C   UNL     1      -1.536  -5.024   0.790  1.00  0.00     0.115 C 
ATOM     20  C   UNL     1      -2.614  -5.554  -0.184  1.00  0.00     0.030 C 
ATOM     21  C   UNL     1      -0.190  -5.099   0.127  1.00  0.00    -0.012 A 
ATOM     22  C   UNL     1      -2.475  -5.111  -1.664  1.00  0.00     0.008 C 
ATOM     23  C   UNL     1      -0.064  -4.752  -1.202  1.00  0.00     0.010 A 
ATOM     24  C   UNL     1       1.058  -5.510   0.677  1.00  0.00     0.018 A 
ATOM     25  C   UNL     1      -1.222  -4.295  -2.026  1.00  0.00     0.047 C 
ATOM     26  S   UNL     1       1.521  -4.891  -1.781  1.00  0.00    -0.149 S 
ATOM     27  C   UNL     1       2.074  -5.448  -0.256  1.00  0.00     0.065 A 
ENDBRANCH  16  19
ENDBRANCH   9  13
ENDBRANCH   5   8
ENDBRANCH   3   4
ENDBRANCH   2   3
ENDBRANCH   1   2
BRANCH   1  28
ATOM     28  C   UNL     1       1.194   3.062  -2.523  1.00  0.00     0.116 C 
BRANCH  28  29
ATOM     29  N   UNL     1       2.291   2.107  -2.482  1.00  0.00    -0.352 N 
ATOM     30  C   UNL     1       3.512   2.167  -3.111  1.00  0.00     0.251 C 
ATOM     31  H   UNL     1       2.138   1.308  -1.927  1.00  0.00     0.163 HD
ATOM     32  O   UNL     1       4.279   1.210  -3.054  1.00  0.00    -0.269 OA
BRANCH  30  33
ATOM     33  C   UNL     1       3.877   3.374  -3.883  1.00  0.00     0.039 A 
ATOM     34  C   UNL     1       4.386   3.221  -5.175  1.00  0.00     0.014 A 
ATOM     35  C   UNL     1       3.689   4.650  -3.345  1.00  0.00     0.014 A 
ATOM     36  C   UNL     1       4.635   4.351  -5.957  1.00  0.00     0.010 A 
ATOM     37  C   UNL     1       3.869   5.771  -4.150  1.00  0.00     0.010 A 
ATOM     38  C   UNL     1       4.341   5.633  -5.464  1.00  0.00    -0.014 A 
BRANCH  38  39
ATOM     39  C   UNL     1       4.505   6.843  -6.310  1.00  0.00     0.031 A 
ATOM     40  C   UNL     1       5.498   7.905  -5.926  1.00  0.00     0.074 A 
ATOM     41  C   UNL     1       3.704   7.022  -7.379  1.00  0.00     0.049 A 
ATOM     42  N   UNL     1       5.734   9.059  -6.494  1.00  0.00    -0.248 NA
ATOM     43  C   UNL     1       6.312   7.647  -4.728  1.00  0.00     0.031 C 
ATOM     44  C   UNL     1       2.667   6.088  -7.825  1.00  0.00     0.029 A 
ATOM     45  N   UNL     1       3.629   8.054  -8.280  1.00  0.00    -0.354 N 
ATOM     46  C   UNL     1       6.705   9.674  -5.712  1.00  0.00     0.074 A 
ATOM     47  C   UNL     1       6.977   8.786  -4.603  1.00  0.00     0.031 C 
ATOM     48  C   UNL     1       2.081   6.577  -8.930  1.00  0.00     0.029 A 
ATOM     49  C   UNL     1       2.672   7.873  -9.249  1.00  0.00     0.049 A 
ATOM     50  H   UNL     1       4.207   8.850  -8.236  1.00  0.00     0.167 HD
ATOM     51  C   UNL     1       7.326  10.862  -5.911  1.00  0.00     0.037 A 
ATOM     52  C   UNL     1       2.309   8.663 -10.279  1.00  0.00     0.037 A 
ATOM     53  C   UNL     1       7.071  11.727  -7.032  1.00  0.00     0.049 A 
ATOM     54  C   UNL     1       3.017   9.973 -10.486  1.00  0.00     0.074 A 
ATOM     55  C   UNL     1       7.699  12.914  -7.365  1.00  0.00     0.029 A 
ATOM     56  N   UNL     1       6.104  11.502  -8.002  1.00  0.00    -0.354 N 
ATOM     57  N   UNL     1       3.982  10.508  -9.776  1.00  0.00    -0.248 NA
ATOM     58  C   UNL     1       2.592  10.784 -11.635  1.00  0.00     0.031 C 
ATOM     59  C   UNL     1       7.085  13.428  -8.513  1.00  0.00     0.029 A 
ATOM     60  C   UNL     1       6.104  12.538  -8.922  1.00  0.00     0.049 A 
ATOM     61  H   UNL     1       5.507  10.720  -8.033  1.00  0.00     0.167 HD
ATOM     62  C   UNL     1       4.298  11.706 -10.407  1.00  0.00     0.074 A 
ATOM     63  C   UNL     1       3.425  11.813 -11.559  1.00  0.00     0.031 C 
ATOM     64  C   UNL     1       5.230  12.630 -10.066  1.00  0.00     0.037 A 
BRANCH  51  65
ATOM     65  C   UNL     1       8.339  11.290  -4.884  1.00  0.00     0.058 A 
ATOM     66  C   UNL     1       9.572  10.632  -4.742  1.00  0.00     0.135 A 
ATOM     67  C   UNL     1       8.074  12.372  -4.029  1.00  0.00     0.135 A 
ATOM     68  F   UNL     1       9.872   9.583  -5.524  1.00  0.00    -0.206 F 
ATOM     69  C   UNL     1      10.484  10.999  -3.758  1.00  0.00     0.059 A 
ATOM     70  C   UNL     1       8.985  12.776  -3.057  1.00  0.00     0.059 A 
ATOM     71  F   UNL     1       6.913  13.040  -4.123  1.00  0.00    -0.206 F 
ATOM     72  C   UNL     1      10.177  12.068  -2.915  1.00  0.00     0.060 A 
BRANCH  72  73
ATOM     73  S   UNL     1      11.355  12.514  -1.622  1.00  0.00     0.124 S 
ATOM     74  O   UNL     1      11.136  11.447  -0.650  1.00  0.00    -0.237 OA
ATOM     75  O   UNL     1      12.631  12.472  -2.330  1.00  0.00    -0.237 OA
ATOM     76  O   UNL     1      10.916  13.842  -1.206  1.00  0.00    -0.744 OA
ENDBRANCH  72  73
ENDBRANCH  51  65
BRANCH  52  77
ATOM     77  C   UNL     1       1.250   8.207 -11.218  1.00  0.00     0.058 A 
ATOM     78  C   UNL     1       1.580   7.776 -12.511  1.00  0.00     0.135 A 
ATOM     79  C   UNL     1      -0.098   8.149 -10.832  1.00  0.00     0.135 A 
ATOM     80  F   UNL     1       2.855   7.820 -12.927  1.00  0.00    -0.206 F 
ATOM     81  C   UNL     1       0.612   7.305 -13.392  1.00  0.00     0.059 A 
ATOM     82  C   UNL     1      -1.082   7.662 -11.687  1.00  0.00     0.059 A 
ATOM     83  F   UNL     1      -0.462   8.535  -9.599  1.00  0.00    -0.206 F 
ATOM     84  C   UNL     1      -0.716   7.245 -12.967  1.00  0.00     0.060 A 
BRANCH  84  85
ATOM     85  S   UNL     1      -1.952   6.558 -14.091  1.00  0.00     0.124 S 
ATOM     86  O   UNL     1      -2.092   7.632 -15.068  1.00  0.00    -0.237 OA
ATOM     87  O   UNL     1      -1.293   5.345 -14.565  1.00  0.00    -0.237 OA
ATOM     88  O   UNL     1      -3.106   6.336 -13.225  1.00  0.00    -0.744 OA
ENDBRANCH  84  85
ENDBRANCH  52  77
BRANCH  64  89
ATOM     89  C   UNL     1       5.379  13.826 -10.964  1.00  0.00     0.058 A 
ATOM     90  C   UNL     1       4.430  14.860 -10.979  1.00  0.00     0.135 A 
ATOM     91  C   UNL     1       6.514  13.964 -11.779  1.00  0.00     0.135 A 
ATOM     92  F   UNL     1       3.324  14.773 -10.224  1.00  0.00    -0.206 F 
ATOM     93  C   UNL     1       4.591  15.981 -11.788  1.00  0.00     0.059 A 
ATOM     94  C   UNL     1       6.708  15.088 -12.576  1.00  0.00     0.059 A 
ATOM     95  F   UNL     1       7.456  13.008 -11.794  1.00  0.00    -0.206 F 
ATOM     96  C   UNL     1       5.735  16.087 -12.581  1.00  0.00     0.060 A 
BRANCH  96  97
ATOM     97  S   UNL     1       5.953  17.563 -13.597  1.00  0.00     0.124 S 
ATOM     98  O   UNL     1       5.010  17.315 -14.682  1.00  0.00    -0.237 OA
ATOM     99  O   UNL     1       5.590  18.635 -12.675  1.00  0.00    -0.237 OA
ATOM    100  O   UNL     1       7.364  17.516 -13.967  1.00  0.00    -0.744 OA
ENDBRANCH  96  97
ENDBRANCH  64  89
ENDBRANCH  38  39
ENDBRANCH  30  33
ENDBRANCH  28  29
ENDBRANCH   1  28
TORSDOF 16
