REMARK SMILES COCC[C@@]1(C(=O)NCCCCNC(=O)c2ccc(-c3c4nc(c(-c5c(F)cc(S(=O)(=O)[O-])cc5F)c5ccc([nH]5)c(-c5c(F)cc(S(=O)(=O)[O-])cc5F)c5nc(c(-c6c(F)cc(S(=O)(=O)[O-])cc6F)c6ccc3[nH]6)C=C5)C=C4)cc2)CCCN(C(=O)NCc2ccc(OC)cc2)C1
REMARK SMILES IDX 10 1 9 2 8 3 6 4 7 5 5 7 82 8 98 9 83 10 85 11 84 12 4 13
REMARK SMILES IDX 3 14 2 15 1 16 86 17 87 18 88 19 89 21 90 22 91 23 97 24
REMARK SMILES IDX 92 25 96 26 93 27 94 28 95 29 11 30 12 31 13 32 14 33 15 35
REMARK SMILES IDX 16 36 17 37 81 38 18 39 80 40 19 41 20 42 21 43 74 44 22 45
REMARK SMILES IDX 79 46 73 47 75 48 23 49 78 50 72 51 71 52 24 54 58 55 37 56
REMARK SMILES IDX 57 57 38 58 41 59 56 60 76 61 39 62 40 63 55 65 77 66 42 67
REMARK SMILES IDX 25 68 26 69 35 70 27 71 28 72 34 73 36 74 29 75 30 76 31 77
REMARK SMILES IDX 32 78 33 79 59 80 60 81 69 82 61 83 62 84 68 85 70 86 63 87
REMARK SMILES IDX 64 88 65 89 66 90 67 91 43 92 44 93 53 94 45 95 46 96 52 97
REMARK SMILES IDX 54 98 47 99 48 100 49 101 50 102 51 103
REMARK H PARENT 8 6 88 20 13 34 75 53 41 64
REMARK Flexibility Score: inf
ROOT
ATOM      1  C   UNL     1       1.308  -1.721   5.553  1.00  0.00     0.023 C 
ENDROOT
BRANCH   1   2
ATOM      2  C   UNL     1       0.025  -2.023   4.791  1.00  0.00     0.116 C 
BRANCH   2   3
ATOM      3  N   UNL     1      -0.249  -1.049   3.757  1.00  0.00    -0.356 N 
ATOM      4  C   UNL     1       0.066  -0.937   2.447  1.00  0.00     0.228 C 
ATOM      5  O   UNL     1      -0.505   0.007   1.877  1.00  0.00    -0.274 OA
ATOM      6  H   UNL     1      -0.789  -0.293   4.082  1.00  0.00     0.163 HD
BRANCH   4   7
ATOM      7  C   UNL     1       1.100  -1.780   1.645  1.00  0.00     0.069 C 
ATOM      8  C   UNL     1       1.362  -3.254   2.061  1.00  0.00     0.021 C 
ATOM      9  C   UNL     1       2.404  -0.955   1.617  1.00  0.00     0.138 C 
ATOM     10  C   UNL     1       2.551  -3.541   2.988  1.00  0.00     0.023 C 
ATOM     11  N   UNL     1       3.328  -1.233   2.711  1.00  0.00    -0.324 N 
ATOM     12  C   UNL     1       3.744  -2.622   2.771  1.00  0.00     0.121 C 
BRANCH   7  13
ATOM     13  C   UNL     1       0.479  -1.876   0.183  1.00  0.00     0.047 C 
BRANCH  13  14
ATOM     14  C   UNL     1       0.608  -0.653  -0.742  1.00  0.00     0.161 C 
BRANCH  14  15
ATOM     15  O   UNL     1       1.212  -1.018  -1.993  1.00  0.00    -0.385 OA
ATOM     16  C   UNL     1       2.620  -1.200  -1.916  1.00  0.00     0.194 C 
ENDBRANCH  14  15
ENDBRANCH  13  14
ENDBRANCH   7  13
BRANCH  11  17
ATOM     17  C   UNL     1       3.930  -0.152   3.292  1.00  0.00     0.317 C 
ATOM     18  O   UNL     1       3.839   0.982   2.812  1.00  0.00    -0.249 OA
ATOM     19  N   UNL     1       4.620  -0.219   4.436  1.00  0.00    -0.334 N 
ATOM     20  H   UNL     1       5.103   0.621   4.615  1.00  0.00     0.165 HD
BRANCH  19  21
ATOM     21  C   UNL     1       4.847  -1.195   5.480  1.00  0.00     0.153 C 
BRANCH  21  22
ATOM     22  C   UNL     1       6.311  -1.539   5.582  1.00  0.00    -0.028 A 
ATOM     23  C   UNL     1       6.743  -2.869   5.569  1.00  0.00     0.009 A 
ATOM     24  C   UNL     1       7.272  -0.523   5.712  1.00  0.00     0.009 A 
ATOM     25  C   UNL     1       8.106  -3.168   5.650  1.00  0.00     0.047 A 
ATOM     26  C   UNL     1       8.634  -0.824   5.788  1.00  0.00     0.047 A 
ATOM     27  C   UNL     1       9.058  -2.150   5.752  1.00  0.00     0.118 A 
BRANCH  27  28
ATOM     28  O   UNL     1      10.357  -2.577   5.811  1.00  0.00    -0.497 OA
ATOM     29  C   UNL     1      11.350  -1.566   5.938  1.00  0.00     0.278 C 
ENDBRANCH  27  28
ENDBRANCH  21  22
ENDBRANCH  19  21
ENDBRANCH  11  17
ENDBRANCH   4   7
ENDBRANCH   2   3
ENDBRANCH   1   2
BRANCH   1  30
ATOM     30  C   UNL     1       1.181  -0.835   6.784  1.00  0.00     0.023 C 
BRANCH  30  31
ATOM     31  C   UNL     1       0.314  -1.410   7.893  1.00  0.00     0.116 C 
BRANCH  31  32
ATOM     32  N   UNL     1       0.676  -2.762   8.305  1.00  0.00    -0.352 N 
ATOM     33  C   UNL     1       0.452  -3.357   9.527  1.00  0.00     0.251 C 
ATOM     34  H   UNL     1       1.134  -3.314   7.631  1.00  0.00     0.163 HD
ATOM     35  O   UNL     1       0.863  -4.490   9.755  1.00  0.00    -0.269 OA
BRANCH  33  36
ATOM     36  C   UNL     1      -0.239  -2.574  10.570  1.00  0.00     0.039 A 
ATOM     37  C   UNL     1       0.378  -2.407  11.810  1.00  0.00     0.014 A 
ATOM     38  C   UNL     1      -1.431  -1.912  10.270  1.00  0.00     0.014 A 
ATOM     39  C   UNL     1      -0.157  -1.496  12.721  1.00  0.00     0.010 A 
ATOM     40  C   UNL     1      -1.909  -0.941  11.139  1.00  0.00     0.010 A 
ATOM     41  C   UNL     1      -1.274  -0.719  12.370  1.00  0.00    -0.014 A 
BRANCH  41  42
ATOM     42  C   UNL     1      -1.800   0.337  13.269  1.00  0.00     0.031 A 
ATOM     43  C   UNL     1      -3.203   0.232  13.797  1.00  0.00     0.074 A 
ATOM     44  C   UNL     1      -1.054   1.432  13.521  1.00  0.00     0.049 A 
ATOM     45  N   UNL     1      -3.890   1.099  14.494  1.00  0.00    -0.248 NA
ATOM     46  C   UNL     1      -3.949  -0.993  13.462  1.00  0.00     0.031 C 
ATOM     47  C   UNL     1       0.291   1.684  12.998  1.00  0.00     0.029 A 
ATOM     48  N   UNL     1      -1.331   2.550  14.267  1.00  0.00    -0.354 N 
ATOM     49  C   UNL     1      -5.153   0.541  14.649  1.00  0.00     0.074 A 
ATOM     50  C   UNL     1      -5.154  -0.717  13.937  1.00  0.00     0.031 C 
ATOM     51  C   UNL     1       0.727   2.871  13.452  1.00  0.00     0.029 A 
ATOM     52  C   UNL     1      -0.316   3.477  14.273  1.00  0.00     0.049 A 
ATOM     53  H   UNL     1      -2.178   2.676  14.753  1.00  0.00     0.167 HD
ATOM     54  C   UNL     1      -6.208   1.024  15.346  1.00  0.00     0.037 A 
ATOM     55  C   UNL     1      -0.238   4.682  14.870  1.00  0.00     0.037 A 
ATOM     56  C   UNL     1      -6.178   2.244  16.105  1.00  0.00     0.049 A 
ATOM     57  C   UNL     1      -1.399   5.162  15.699  1.00  0.00     0.074 A 
ATOM     58  C   UNL     1      -7.161   2.775  16.921  1.00  0.00     0.029 A 
ATOM     59  N   UNL     1      -5.103   3.119  16.149  1.00  0.00    -0.354 N 
ATOM     60  N   UNL     1      -2.559   4.584  15.901  1.00  0.00    -0.248 NA
ATOM     61  C   UNL     1      -1.239   6.449  16.389  1.00  0.00     0.031 C 
ATOM     62  C   UNL     1      -6.689   3.984  17.442  1.00  0.00     0.029 A 
ATOM     63  C   UNL     1      -5.400   4.190  16.974  1.00  0.00     0.049 A 
ATOM     64  H   UNL     1      -4.254   2.997  15.666  1.00  0.00     0.167 HD
ATOM     65  C   UNL     1      -3.258   5.425  16.758  1.00  0.00     0.074 A 
ATOM     66  C   UNL     1      -2.386   6.545  17.047  1.00  0.00     0.031 C 
ATOM     67  C   UNL     1      -4.509   5.285  17.260  1.00  0.00     0.037 A 
BRANCH  54  68
ATOM     68  C   UNL     1      -7.476   0.218  15.337  1.00  0.00     0.058 A 
ATOM     69  C   UNL     1      -7.580  -0.994  16.037  1.00  0.00     0.135 A 
ATOM     70  C   UNL     1      -8.610   0.678  14.649  1.00  0.00     0.135 A 
ATOM     71  F   UNL     1      -6.519  -1.488  16.695  1.00  0.00    -0.206 F 
ATOM     72  C   UNL     1      -8.756  -1.735  16.036  1.00  0.00     0.059 A 
ATOM     73  C   UNL     1      -9.805  -0.034  14.655  1.00  0.00     0.059 A 
ATOM     74  F   UNL     1      -8.561   1.829  13.960  1.00  0.00    -0.206 F 
ATOM     75  C   UNL     1      -9.864  -1.247  15.341  1.00  0.00     0.060 A 
BRANCH  75  76
ATOM     76  S   UNL     1     -11.389  -2.212  15.361  1.00  0.00     0.124 S 
ATOM     77  O   UNL     1     -11.065  -3.285  14.426  1.00  0.00    -0.237 OA
ATOM     78  O   UNL     1     -11.493  -2.605  16.763  1.00  0.00    -0.237 OA
ATOM     79  O   UNL     1     -12.398  -1.262  14.904  1.00  0.00    -0.744 OA
ENDBRANCH  75  76
ENDBRANCH  54  68
BRANCH  55  80
ATOM     80  C   UNL     1       0.991   5.507  14.733  1.00  0.00     0.058 A 
ATOM     81  C   UNL     1       1.877   5.664  15.809  1.00  0.00     0.135 A 
ATOM     82  C   UNL     1       1.307   6.150  13.527  1.00  0.00     0.135 A 
ATOM     83  F   UNL     1       1.615   5.070  16.984  1.00  0.00    -0.206 F 
ATOM     84  C   UNL     1       3.021   6.447  15.704  1.00  0.00     0.059 A 
ATOM     85  C   UNL     1       2.457   6.922  13.390  1.00  0.00     0.059 A 
ATOM     86  F   UNL     1       0.502   6.014  12.461  1.00  0.00    -0.206 F 
ATOM     87  C   UNL     1       3.302   7.074  14.489  1.00  0.00     0.060 A 
BRANCH  87  88
ATOM     88  S   UNL     1       4.811   8.057  14.347  1.00  0.00     0.124 S 
ATOM     89  O   UNL     1       4.430   9.281  15.041  1.00  0.00    -0.237 OA
ATOM     90  O   UNL     1       5.793   7.217  15.026  1.00  0.00    -0.237 OA
ATOM     91  O   UNL     1       4.995   8.177  12.903  1.00  0.00    -0.744 OA
ENDBRANCH  87  88
ENDBRANCH  55  80
BRANCH  67  92
ATOM     92  C   UNL     1      -4.999   6.349  18.198  1.00  0.00     0.058 A 
ATOM     93  C   UNL     1      -5.415   7.604  17.730  1.00  0.00     0.135 A 
ATOM     94  C   UNL     1      -5.112   6.085  19.572  1.00  0.00     0.135 A 
ATOM     95  F   UNL     1      -5.320   7.904  16.425  1.00  0.00    -0.206 F 
ATOM     96  C   UNL     1      -5.915   8.570  18.597  1.00  0.00     0.059 A 
ATOM     97  C   UNL     1      -5.629   7.029  20.454  1.00  0.00     0.059 A 
ATOM     98  F   UNL     1      -4.736   4.895  20.066  1.00  0.00    -0.206 F 
ATOM     99  C   UNL     1      -6.019   8.272  19.957  1.00  0.00     0.060 A 
BRANCH  99 100
ATOM    100  S   UNL     1      -6.710   9.516  21.068  1.00  0.00     0.124 S 
ATOM    101  O   UNL     1      -5.582  10.429  21.223  1.00  0.00    -0.237 OA
ATOM    102  O   UNL     1      -7.840  10.030  20.301  1.00  0.00    -0.237 OA
ATOM    103  O   UNL     1      -7.065   8.748  22.257  1.00  0.00    -0.744 OA
ENDBRANCH  99 100
ENDBRANCH  67  92
ENDBRANCH  41  42
ENDBRANCH  33  36
ENDBRANCH  31  32
ENDBRANCH  30  31
ENDBRANCH   1  30
TORSDOF 21
