REMARK SMILES CC[C@@](C)(NC(=O)[C@@H](C)NC(=O)c1ccco1)C(=O)NCCCCNC(=O)c1ccc(-c2c3nc(c(-c4c(F)cc(S(=O)(=O)[O-])cc4F)c4ccc([nH]4)c(-c4c(F)cc(S(=O)(=O)[O-])cc4F)c4nc(c(-c5c(F)cc(S(=O)(=O)[O-])cc5F)c5ccc2[nH]5)C=C4)C=C3)cc1
REMARK SMILES IDX 22 1 21 2 20 3 18 4 19 5 3 7 4 8 2 9 1 10 5 11 6 12 7 14
REMARK SMILES IDX 8 15 9 16 10 17 11 18 12 20 13 21 14 22 17 23 15 24 16 25
REMARK SMILES IDX 23 26 24 27 25 28 26 29 27 31 28 32 29 33 93 34 30 35 92 36
REMARK SMILES IDX 31 37 32 38 33 39 86 40 34 41 91 42 85 43 87 44 35 45 90 46
REMARK SMILES IDX 84 47 83 48 36 50 70 51 49 52 69 53 50 54 53 55 68 56 88 57
REMARK SMILES IDX 51 58 52 59 67 61 89 62 54 63 37 64 38 65 47 66 39 67 40 68
REMARK SMILES IDX 46 69 48 70 41 71 42 72 43 73 44 74 45 75 71 76 72 77 81 78
REMARK SMILES IDX 73 79 74 80 80 81 82 82 75 83 76 84 77 85 78 86 79 87 55 88
REMARK SMILES IDX 56 89 65 90 57 91 58 92 64 93 66 94 59 95 60 96 61 97 62 98
REMARK SMILES IDX 63 99
REMARK H PARENT 20 6 5 13 10 19 25 30 87 49 53 60
REMARK Flexibility Score: inf
ROOT
ATOM      1  C   UNL     1       2.212   4.632   4.277  1.00  0.00     0.023 C 
ENDROOT
BRANCH   1   2
ATOM      2  C   UNL     1       1.898   4.454   2.791  1.00  0.00     0.116 C 
BRANCH   2   3
ATOM      3  N   UNL     1       2.693   3.460   2.080  1.00  0.00    -0.354 N 
ATOM      4  C   UNL     1       2.410   2.209   1.605  1.00  0.00     0.245 C 
ATOM      5  O   UNL     1       3.304   1.636   0.974  1.00  0.00    -0.272 OA
ATOM      6  H   UNL     1       3.619   3.747   1.907  1.00  0.00     0.163 HD
BRANCH   4   7
ATOM      7  C   UNL     1       1.081   1.485   1.907  1.00  0.00     0.116 C 
ATOM      8  C   UNL     1      -0.086   2.244   1.227  1.00  0.00     0.045 C 
BRANCH   7   9
ATOM      9  C   UNL     1       0.990   0.018   1.398  1.00  0.00     0.035 C 
ATOM     10  C   UNL     1       1.113  -0.223  -0.104  1.00  0.00     0.007 C 
ENDBRANCH   7   9
BRANCH   7  11
ATOM     11  N   UNL     1       0.915   1.471   3.380  1.00  0.00    -0.340 N 
ATOM     12  C   UNL     1       1.631   0.960   4.420  1.00  0.00     0.243 C 
ATOM     13  H   UNL     1       0.100   1.939   3.675  1.00  0.00     0.164 HD
ATOM     14  O   UNL     1       0.948   0.783   5.444  1.00  0.00    -0.273 OA
BRANCH  12  15
ATOM     15  C   UNL     1       3.123   0.466   4.442  1.00  0.00     0.168 C 
ATOM     16  C   UNL     1       3.236  -1.029   4.169  1.00  0.00     0.041 C 
BRANCH  15  17
ATOM     17  N   UNL     1       4.168   1.149   3.688  1.00  0.00    -0.338 N 
ATOM     18  C   UNL     1       5.282   1.837   4.121  1.00  0.00     0.287 C 
ATOM     19  H   UNL     1       4.061   1.113   2.710  1.00  0.00     0.164 HD
ATOM     20  O   UNL     1       5.901   2.468   3.262  1.00  0.00    -0.266 OA
BRANCH  18  21
ATOM     21  C   UNL     1       5.648   1.857   5.525  1.00  0.00     0.191 A 
ATOM     22  C   UNL     1       5.796   0.878   6.491  1.00  0.00     0.056 A 
ATOM     23  O   UNL     1       5.989   3.071   6.072  1.00  0.00    -0.459 OA
ATOM     24  C   UNL     1       6.230   1.525   7.676  1.00  0.00     0.043 A 
ATOM     25  C   UNL     1       6.326   2.860   7.369  1.00  0.00     0.196 A 
ENDBRANCH  18  21
ENDBRANCH  15  17
ENDBRANCH  12  15
ENDBRANCH   7  11
ENDBRANCH   4   7
ENDBRANCH   2   3
ENDBRANCH   1   2
BRANCH   1  26
ATOM     26  C   UNL     1       3.664   4.904   4.632  1.00  0.00     0.023 C 
BRANCH  26  27
ATOM     27  C   UNL     1       4.356   6.033   3.890  1.00  0.00     0.116 C 
BRANCH  27  28
ATOM     28  N   UNL     1       4.040   7.330   4.457  1.00  0.00    -0.352 N 
ATOM     29  C   UNL     1       4.854   8.216   5.123  1.00  0.00     0.251 C 
ATOM     30  H   UNL     1       3.105   7.620   4.349  1.00  0.00     0.163 HD
ATOM     31  O   UNL     1       4.338   9.159   5.721  1.00  0.00    -0.269 OA
BRANCH  29  32
ATOM     32  C   UNL     1       6.332   8.051   5.144  1.00  0.00     0.039 A 
ATOM     33  C   UNL     1       7.030   8.418   6.301  1.00  0.00     0.014 A 
ATOM     34  C   UNL     1       7.048   7.610   4.028  1.00  0.00     0.014 A 
ATOM     35  C   UNL     1       8.425   8.316   6.343  1.00  0.00     0.010 A 
ATOM     36  C   UNL     1       8.428   7.419   4.104  1.00  0.00     0.010 A 
ATOM     37  C   UNL     1       9.139   7.801   5.250  1.00  0.00    -0.014 A 
BRANCH  37  38
ATOM     38  C   UNL     1      10.627   7.722   5.264  1.00  0.00     0.031 A 
ATOM     39  C   UNL     1      11.435   8.528   4.277  1.00  0.00     0.074 A 
ATOM     40  C   UNL     1      11.254   6.908   6.137  1.00  0.00     0.049 A 
ATOM     41  N   UNL     1      12.733   8.568   4.105  1.00  0.00    -0.248 NA
ATOM     42  C   UNL     1      10.686   9.385   3.343  1.00  0.00     0.031 C 
ATOM     43  C   UNL     1      10.592   6.040   7.112  1.00  0.00     0.029 A 
ATOM     44  N   UNL     1      12.592   6.675   6.342  1.00  0.00    -0.354 N 
ATOM     45  C   UNL     1      12.950   9.427   3.033  1.00  0.00     0.074 A 
ATOM     46  C   UNL     1      11.650   9.851   2.563  1.00  0.00     0.031 C 
ATOM     47  C   UNL     1      11.525   5.393   7.831  1.00  0.00     0.029 A 
ATOM     48  C   UNL     1      12.850   5.771   7.347  1.00  0.00     0.049 A 
ATOM     49  H   UNL     1      13.301   7.114   5.819  1.00  0.00     0.167 HD
ATOM     50  C   UNL     1      14.123   9.847   2.502  1.00  0.00     0.037 A 
ATOM     51  C   UNL     1      14.019   5.299   7.823  1.00  0.00     0.037 A 
ATOM     52  C   UNL     1      15.418   9.463   3.001  1.00  0.00     0.049 A 
ATOM     53  C   UNL     1      15.311   5.794   7.229  1.00  0.00     0.074 A 
ATOM     54  C   UNL     1      16.664   9.892   2.579  1.00  0.00     0.029 A 
ATOM     55  N   UNL     1      15.633   8.561   4.032  1.00  0.00    -0.354 N 
ATOM     56  N   UNL     1      15.496   6.657   6.259  1.00  0.00    -0.248 NA
ATOM     57  C   UNL     1      16.554   5.255   7.799  1.00  0.00     0.031 C 
ATOM     58  C   UNL     1      17.635   9.220   3.329  1.00  0.00     0.029 A 
ATOM     59  C   UNL     1      16.992   8.407   4.249  1.00  0.00     0.049 A 
ATOM     60  H   UNL     1      14.925   8.099   4.536  1.00  0.00     0.167 HD
ATOM     61  C   UNL     1      16.874   6.784   6.120  1.00  0.00     0.074 A 
ATOM     62  C   UNL     1      17.475   5.918   7.113  1.00  0.00     0.031 C 
ATOM     63  C   UNL     1      17.577   7.549   5.249  1.00  0.00     0.037 A 
BRANCH  50  64
ATOM     64  C   UNL     1      14.064  10.782   1.324  1.00  0.00     0.058 A 
ATOM     65  C   UNL     1      13.646  12.115   1.459  1.00  0.00     0.135 A 
ATOM     66  C   UNL     1      14.467  10.350   0.050  1.00  0.00     0.135 A 
ATOM     67  F   UNL     1      13.237  12.578   2.651  1.00  0.00    -0.206 F 
ATOM     68  C   UNL     1      13.600  12.978   0.369  1.00  0.00     0.059 A 
ATOM     69  C   UNL     1      14.456  11.204  -1.050  1.00  0.00     0.059 A 
ATOM     70  F   UNL     1      14.878   9.085  -0.137  1.00  0.00    -0.206 F 
ATOM     71  C   UNL     1      14.006  12.513  -0.883  1.00  0.00     0.060 A 
BRANCH  71  72
ATOM     72  S   UNL     1      13.948  13.647  -2.286  1.00  0.00     0.124 S 
ATOM     73  O   UNL     1      12.514  13.713  -2.548  1.00  0.00    -0.237 OA
ATOM     74  O   UNL     1      14.547  14.859  -1.734  1.00  0.00    -0.237 OA
ATOM     75  O   UNL     1      14.742  12.969  -3.305  1.00  0.00    -0.744 OA
ENDBRANCH  71  72
ENDBRANCH  50  64
BRANCH  51  76
ATOM     76  C   UNL     1      14.025   4.320   8.943  1.00  0.00     0.058 A 
ATOM     77  C   UNL     1      14.457   4.694  10.224  1.00  0.00     0.135 A 
ATOM     78  C   UNL     1      13.592   2.997   8.760  1.00  0.00     0.135 A 
ATOM     79  F   UNL     1      14.889   5.945  10.447  1.00  0.00    -0.206 F 
ATOM     80  C   UNL     1      14.476   3.789  11.281  1.00  0.00     0.059 A 
ATOM     81  C   UNL     1      13.579   2.081   9.807  1.00  0.00     0.059 A 
ATOM     82  F   UNL     1      13.156   2.593   7.557  1.00  0.00    -0.206 F 
ATOM     83  C   UNL     1      14.032   2.484  11.062  1.00  0.00     0.060 A 
BRANCH  83  84
ATOM     84  S   UNL     1      14.011   1.331  12.452  1.00  0.00     0.124 S 
ATOM     85  O   UNL     1      15.428   1.017  12.595  1.00  0.00    -0.237 OA
ATOM     86  O   UNL     1      13.425   2.140  13.516  1.00  0.00    -0.237 OA
ATOM     87  O   UNL     1      13.168   0.241  11.970  1.00  0.00    -0.744 OA
ENDBRANCH  83  84
ENDBRANCH  51  76
BRANCH  63  88
ATOM     88  C   UNL     1      19.077   7.515   5.349  1.00  0.00     0.058 A 
ATOM     89  C   UNL     1      19.821   6.411   4.906  1.00  0.00     0.135 A 
ATOM     90  C   UNL     1      19.780   8.625   5.845  1.00  0.00     0.135 A 
ATOM     91  F   UNL     1      19.196   5.323   4.428  1.00  0.00    -0.206 F 
ATOM     92  C   UNL     1      21.210   6.399   4.970  1.00  0.00     0.059 A 
ATOM     93  C   UNL     1      21.171   8.645   5.895  1.00  0.00     0.059 A 
ATOM     94  F   UNL     1      19.117   9.711   6.272  1.00  0.00    -0.206 F 
ATOM     95  C   UNL     1      21.877   7.522   5.466  1.00  0.00     0.060 A 
BRANCH  95  96
ATOM     96  S   UNL     1      23.682   7.509   5.512  1.00  0.00     0.124 S 
ATOM     97  O   UNL     1      23.940   6.637   6.653  1.00  0.00    -0.237 OA
ATOM     98  O   UNL     1      24.026   6.960   4.204  1.00  0.00    -0.237 OA
ATOM     99  O   UNL     1      24.027   8.914   5.705  1.00  0.00    -0.744 OA
ENDBRANCH  95  96
ENDBRANCH  63  88
ENDBRANCH  37  38
ENDBRANCH  29  32
ENDBRANCH  27  28
ENDBRANCH  26  27
ENDBRANCH   1  26
TORSDOF 19
