REMARK SMILES O=C(NCCCCNC(=O)c1cc(Cl)cc(S(=O)(=O)N[C@@H]2CONC2=O)c1F)c1ccc(-c2c3nc(c(-c4c(F)cc(S(=O)(=O)[O-])cc4F)c4ccc([nH]4)c(-c4c(F)cc(S(=O)(=O)[O-])cc4F)c4nc(c(-c5c(F)cc(S(=O)(=O)[O-])cc5F)c5ccc2[nH]5)C=C4)C=C3)cc1
REMARK SMILES IDX 5 1 4 2 3 3 1 4 2 5 29 7 30 8 94 9 31 10 93 11 32 12 33 13
REMARK SMILES IDX 34 14 87 15 35 16 92 17 86 18 88 19 36 20 91 21 85 22 84 23
REMARK SMILES IDX 37 25 71 26 50 27 70 28 51 29 54 30 69 31 89 32 52 33 53 34
REMARK SMILES IDX 68 36 90 37 55 38 38 39 39 40 48 41 40 42 41 43 47 44 49 45
REMARK SMILES IDX 42 46 43 47 44 48 45 49 46 50 72 51 73 52 82 53 74 54 75 55
REMARK SMILES IDX 81 56 83 57 76 58 77 59 78 60 79 61 80 62 56 63 57 64 66 65
REMARK SMILES IDX 58 66 59 67 65 68 67 69 60 70 61 71 62 72 63 73 64 74 6 75
REMARK SMILES IDX 7 76 8 77 9 78 10 80 11 81 12 82 27 83 13 84 16 85 28 86
REMARK SMILES IDX 14 87 15 88 17 89 18 90 19 91 20 92 21 94 22 95 25 96 23 97
REMARK SMILES IDX 24 98 26 99
REMARK H PARENT 3 6 88 24 54 35 8 79 20 93 24 100
REMARK Flexibility Score: inf
ROOT
ATOM      1  C   UNL     1       4.889   0.143  -2.743  1.00  0.00     0.023 C 
ENDROOT
BRANCH   1   2
ATOM      2  C   UNL     1       4.583   0.646  -1.338  1.00  0.00     0.116 C 
BRANCH   2   3
ATOM      3  N   UNL     1       3.156   0.707  -1.048  1.00  0.00    -0.352 N 
ATOM      4  O   UNL     1       1.207   0.106  -0.079  1.00  0.00    -0.269 OA
ATOM      5  C   UNL     1       2.432   0.032  -0.089  1.00  0.00     0.251 C 
ATOM      6  H   UNL     1       2.636   1.318  -1.618  1.00  0.00     0.163 HD
BRANCH   5   7
ATOM      7  C   UNL     1       3.141  -0.805   0.903  1.00  0.00     0.039 A 
ATOM      8  C   UNL     1       4.283  -0.317   1.537  1.00  0.00     0.014 A 
ATOM      9  C   UNL     1       2.689  -2.101   1.171  1.00  0.00     0.014 A 
ATOM     10  C   UNL     1       5.078  -1.182   2.275  1.00  0.00     0.010 A 
ATOM     11  C   UNL     1       3.433  -2.936   2.013  1.00  0.00     0.010 A 
ATOM     12  C   UNL     1       4.658  -2.498   2.538  1.00  0.00    -0.014 A 
BRANCH  12  13
ATOM     13  C   UNL     1       5.507  -3.345   3.418  1.00  0.00     0.031 A 
ATOM     14  C   UNL     1       6.157  -4.608   2.919  1.00  0.00     0.074 A 
ATOM     15  C   UNL     1       5.755  -2.905   4.668  1.00  0.00     0.049 A 
ATOM     16  N   UNL     1       6.995  -5.399   3.541  1.00  0.00    -0.248 NA
ATOM     17  C   UNL     1       5.824  -5.049   1.555  1.00  0.00     0.031 C 
ATOM     18  C   UNL     1       5.156  -1.710   5.271  1.00  0.00     0.029 A 
ATOM     19  N   UNL     1       6.598  -3.376   5.641  1.00  0.00    -0.354 N 
ATOM     20  C   UNL     1       7.281  -6.433   2.656  1.00  0.00     0.074 A 
ATOM     21  C   UNL     1       6.504  -6.185   1.460  1.00  0.00     0.031 C 
ATOM     22  C   UNL     1       5.702  -1.502   6.476  1.00  0.00     0.029 A 
ATOM     23  C   UNL     1       6.636  -2.583   6.763  1.00  0.00     0.049 A 
ATOM     24  H   UNL     1       7.125  -4.202   5.545  1.00  0.00     0.167 HD
ATOM     25  C   UNL     1       8.123  -7.482   2.823  1.00  0.00     0.037 A 
ATOM     26  C   UNL     1       7.335  -2.712   7.906  1.00  0.00     0.037 A 
ATOM     27  C   UNL     1       8.902  -7.715   4.015  1.00  0.00     0.049 A 
ATOM     28  C   UNL     1       8.270  -3.875   8.056  1.00  0.00     0.074 A 
ATOM     29  C   UNL     1       9.785  -8.749   4.280  1.00  0.00     0.029 A 
ATOM     30  N   UNL     1       8.897  -6.901   5.139  1.00  0.00    -0.354 N 
ATOM     31  N   UNL     1       8.530  -4.834   7.201  1.00  0.00    -0.248 NA
ATOM     32  C   UNL     1       9.002  -3.975   9.323  1.00  0.00     0.031 C 
ATOM     33  C   UNL     1      10.290  -8.577   5.574  1.00  0.00     0.029 A 
ATOM     34  C   UNL     1       9.754  -7.414   6.101  1.00  0.00     0.049 A 
ATOM     35  H   UNL     1       8.363  -6.080   5.239  1.00  0.00     0.167 HD
ATOM     36  C   UNL     1       9.455  -5.658   7.829  1.00  0.00     0.074 A 
ATOM     37  C   UNL     1       9.737  -5.060   9.119  1.00  0.00     0.031 C 
ATOM     38  C   UNL     1      10.011  -6.812   7.385  1.00  0.00     0.037 A 
BRANCH  25  39
ATOM     39  C   UNL     1       8.252  -8.470   1.694  1.00  0.00     0.058 A 
ATOM     40  C   UNL     1       8.950  -8.153   0.518  1.00  0.00     0.135 A 
ATOM     41  C   UNL     1       7.731  -9.769   1.814  1.00  0.00     0.135 A 
ATOM     42  F   UNL     1       9.456  -6.922   0.343  1.00  0.00    -0.206 F 
ATOM     43  C   UNL     1       9.117  -9.084  -0.504  1.00  0.00     0.059 A 
ATOM     44  C   UNL     1       7.904 -10.723   0.814  1.00  0.00     0.059 A 
ATOM     45  F   UNL     1       7.054 -10.126   2.917  1.00  0.00    -0.206 F 
ATOM     46  C   UNL     1       8.592 -10.368  -0.346  1.00  0.00     0.060 A 
BRANCH  46  47
ATOM     47  S   UNL     1       8.835 -11.569  -1.672  1.00  0.00     0.124 S 
ATOM     48  O   UNL     1       7.913 -11.071  -2.688  1.00  0.00    -0.237 OA
ATOM     49  O   UNL     1      10.254 -11.417  -1.975  1.00  0.00    -0.237 OA
ATOM     50  O   UNL     1       8.461 -12.838  -1.055  1.00  0.00    -0.744 OA
ENDBRANCH  46  47
ENDBRANCH  25  39
BRANCH  26  51
ATOM     51  C   UNL     1       7.151  -1.720   8.997  1.00  0.00     0.058 A 
ATOM     52  C   UNL     1       8.168  -0.822   9.348  1.00  0.00     0.135 A 
ATOM     53  C   UNL     1       5.934  -1.638   9.693  1.00  0.00     0.135 A 
ATOM     54  F   UNL     1       9.348  -0.862   8.711  1.00  0.00    -0.206 F 
ATOM     55  C   UNL     1       7.993   0.112  10.364  1.00  0.00     0.059 A 
ATOM     56  C   UNL     1       5.725  -0.694  10.690  1.00  0.00     0.059 A 
ATOM     57  F   UNL     1       4.921  -2.461   9.378  1.00  0.00    -0.206 F 
ATOM     58  C   UNL     1       6.766   0.169  11.028  1.00  0.00     0.060 A 
BRANCH  58  59
ATOM     59  S   UNL     1       6.526   1.413  12.314  1.00  0.00     0.124 S 
ATOM     60  O   UNL     1       7.235   0.813  13.437  1.00  0.00    -0.237 OA
ATOM     61  O   UNL     1       7.147   2.594  11.722  1.00  0.00    -0.237 OA
ATOM     62  O   UNL     1       5.073   1.480  12.444  1.00  0.00    -0.744 OA
ENDBRANCH  58  59
ENDBRANCH  26  51
BRANCH  38  63
ATOM     63  C   UNL     1      10.979  -7.492   8.310  1.00  0.00     0.058 A 
ATOM     64  C   UNL     1      10.542  -8.155   9.468  1.00  0.00     0.135 A 
ATOM     65  C   UNL     1      12.356  -7.478   8.040  1.00  0.00     0.135 A 
ATOM     66  F   UNL     1       9.236  -8.190   9.775  1.00  0.00    -0.206 F 
ATOM     67  C   UNL     1      11.442  -8.746  10.349  1.00  0.00     0.059 A 
ATOM     68  C   UNL     1      13.272  -8.085   8.894  1.00  0.00     0.059 A 
ATOM     69  F   UNL     1      12.824  -6.865   6.941  1.00  0.00    -0.206 F 
ATOM     70  C   UNL     1      12.806  -8.699  10.056  1.00  0.00     0.060 A 
BRANCH  70  71
ATOM     71  S   UNL     1      13.967  -9.461  11.209  1.00  0.00     0.124 S 
ATOM     72  O   UNL     1      14.012  -8.469  12.277  1.00  0.00    -0.237 OA
ATOM     73  O   UNL     1      13.302 -10.719  11.540  1.00  0.00    -0.237 OA
ATOM     74  O   UNL     1      15.188  -9.594  10.421  1.00  0.00    -0.744 OA
ENDBRANCH  70  71
ENDBRANCH  38  63
ENDBRANCH  12  13
ENDBRANCH   5   7
ENDBRANCH   2   3
ENDBRANCH   1   2
BRANCH   1  75
ATOM     75  C   UNL     1       4.412   1.050  -3.872  1.00  0.00     0.023 C 
BRANCH  75  76
ATOM     76  C   UNL     1       4.896   2.492  -3.789  1.00  0.00     0.116 C 
BRANCH  76  77
ATOM     77  N   UNL     1       6.345   2.617  -3.864  1.00  0.00    -0.352 N 
ATOM     78  C   UNL     1       7.090   3.552  -4.541  1.00  0.00     0.254 C 
ATOM     79  H   UNL     1       6.858   1.942  -3.364  1.00  0.00     0.163 HD
ATOM     80  O   UNL     1       8.313   3.488  -4.570  1.00  0.00    -0.269 OA
BRANCH  78  81
ATOM     81  C   UNL     1       6.417   4.638  -5.271  1.00  0.00     0.078 A 
ATOM     82  C   UNL     1       6.742   4.865  -6.609  1.00  0.00     0.037 A 
ATOM     83  C   UNL     1       5.489   5.447  -4.618  1.00  0.00     0.156 A 
ATOM     84  C   UNL     1       6.074   5.869  -7.305  1.00  0.00     0.043 A 
ATOM     85  C   UNL     1       4.818   6.437  -5.315  1.00  0.00     0.120 A 
ATOM     86  F   UNL     1       5.267   5.235  -3.319  1.00  0.00    -0.205 F 
ATOM     87  Cl  UNL     1       6.443   6.147  -8.960  1.00  0.00    -0.084 Cl
ATOM     88  C   UNL     1       5.102   6.647  -6.672  1.00  0.00     0.045 A 
BRANCH  85  89
ATOM     89  S   UNL     1       3.611   7.475  -4.558  1.00  0.00     0.244 S 
ATOM     90  O   UNL     1       4.190   8.793  -4.490  1.00  0.00    -0.207 OA
ATOM     91  O   UNL     1       2.375   7.211  -5.262  1.00  0.00    -0.207 OA
BRANCH  89  92
ATOM     92  N   UNL     1       3.357   6.910  -2.999  1.00  0.00    -0.196 NA
ATOM     93  H   UNL     1       3.384   5.891  -3.035  1.00  0.00     0.142 HD
BRANCH  92  94
ATOM     94  C   UNL     1       4.303   7.338  -1.954  1.00  0.00     0.189 C 
ATOM     95  C   UNL     1       4.379   6.332  -0.809  1.00  0.00     0.224 C 
ATOM     96  C   UNL     1       3.920   8.552  -1.163  1.00  0.00     0.264 C 
ATOM     97  O   UNL     1       4.904   7.068   0.304  1.00  0.00    -0.271 OA
ATOM     98  N   UNL     1       4.431   8.386   0.104  1.00  0.00    -0.233 N 
ATOM     99  O   UNL     1       3.281   9.516  -1.549  1.00  0.00    -0.271 OA
ATOM    100  H   UNL     1       4.464   9.095   0.785  1.00  0.00     0.199 HD
ENDBRANCH  92  94
ENDBRANCH  89  92
ENDBRANCH  85  89
ENDBRANCH  78  81
ENDBRANCH  76  77
ENDBRANCH  75  76
ENDBRANCH   1  75
TORSDOF 17
