REMARK SMILES N#C/C(=C\c1ccc(-c2cc(C(=O)NCCCCNC(=O)c3ccc(-c4c5nc(c(-c6c(F)cc(S(=O)(=O)[O-])cc6F)c6ccc([nH]6)c(-c6c(F)cc(S(=O)(=O)[O-])cc6F)c6nc(c(-c7c(F)cc(S(=O)(=O)[O-])cc7F)c7ccc4[nH]7)C=C6)C=C5)cc3)ccc2Cl)o1)C(=O)N1CCOCC1
REMARK SMILES IDX 16 1 15 2 14 3 12 4 13 5 11 7 9 8 10 9 90 10 89 11 91 12
REMARK SMILES IDX 88 13 8 14 5 15 6 16 92 17 7 18 4 19 3 20 2 21 1 22 93 23
REMARK SMILES IDX 94 24 95 25 96 26 100 27 97 28 99 29 98 30 17 31 18 32 19 33
REMARK SMILES IDX 20 34 21 36 22 37 23 38 87 39 24 40 86 41 25 42 26 43 27 44
REMARK SMILES IDX 80 45 28 46 85 47 79 48 81 49 29 50 84 51 78 52 77 53 30 55
REMARK SMILES IDX 64 56 43 57 63 58 44 59 47 60 62 61 82 62 45 63 46 64 61 66
REMARK SMILES IDX 83 67 48 68 31 69 32 70 41 71 33 72 34 73 40 74 42 75 35 76
REMARK SMILES IDX 36 77 37 78 38 79 39 80 65 81 66 82 75 83 67 84 68 85 74 86
REMARK SMILES IDX 76 87 69 88 70 89 71 90 72 91 73 92 49 93 50 94 59 95 51 96
REMARK SMILES IDX 52 97 58 98 60 99 53 100 54 101 55 102 56 103 57 104
REMARK H PARENT 14 6 19 35 81 54 47 65
REMARK Flexibility Score: inf
ROOT
ATOM      1  C   UNL     1       3.482   5.498 -10.189  1.00  0.00     0.023 C 
ENDROOT
BRANCH   1   2
ATOM      2  C   UNL     1       2.187   4.980  -9.558  1.00  0.00     0.116 C 
BRANCH   2   3
ATOM      3  N   UNL     1       2.374   3.648  -9.017  1.00  0.00    -0.352 N 
ATOM      4  C   UNL     1       2.701   3.180  -7.770  1.00  0.00     0.251 C 
ATOM      5  O   UNL     1       2.763   1.957  -7.630  1.00  0.00    -0.269 OA
ATOM      6  H   UNL     1       2.239   2.934  -9.681  1.00  0.00     0.163 HD
BRANCH   4   7
ATOM      7  C   UNL     1       2.953   4.047  -6.577  1.00  0.00     0.040 A 
ATOM      8  C   UNL     1       3.060   4.158  -4.121  1.00  0.00     0.037 A 
ATOM      9  C   UNL     1       2.859   3.434  -5.311  1.00  0.00     0.027 A 
ATOM     10  C   UNL     1       3.348   5.528  -4.209  1.00  0.00     0.052 A 
ATOM     11  C   UNL     1       3.477   6.139  -5.456  1.00  0.00     0.022 A 
ATOM     12  Cl  UNL     1       3.597   6.526  -2.817  1.00  0.00    -0.084 Cl
ATOM     13  C   UNL     1       3.306   5.397  -6.628  1.00  0.00     0.015 A 
BRANCH   8  14
ATOM     14  C   UNL     1       2.935   3.487  -2.837  1.00  0.00     0.136 A 
ATOM     15  C   UNL     1       3.571   1.995  -1.306  1.00  0.00     0.129 A 
ATOM     16  C   UNL     1       2.569   2.794  -0.757  1.00  0.00     0.051 A 
ATOM     17  O   UNL     1       3.803   2.465  -2.586  1.00  0.00    -0.457 OA
ATOM     18  C   UNL     1       2.130   3.700  -1.745  1.00  0.00     0.051 A 
BRANCH  15  19
ATOM     19  C   UNL     1       4.299   0.894  -0.742  1.00  0.00     0.072 C 
ATOM     20  C   UNL     1       3.750  -0.025   0.092  1.00  0.00     0.121 C 
BRANCH  20  21
ATOM     21  C   UNL     1       2.230  -0.025   0.092  1.00  0.00     0.105 C 
ATOM     22  N   UNL     1       0.969  -0.025   0.092  1.00  0.00    -0.192 NA
ENDBRANCH  20  21
BRANCH  20  23
ATOM     23  C   UNL     1       4.503  -1.223   0.546  1.00  0.00     0.264 C 
ATOM     24  O   UNL     1       3.901  -2.291   0.648  1.00  0.00    -0.268 OA
ATOM     25  N   UNL     1       5.866  -1.133   0.785  1.00  0.00    -0.333 N 
ATOM     26  C   UNL     1       6.679   0.064   1.059  1.00  0.00     0.148 C 
ATOM     27  C   UNL     1       6.667  -2.361   0.768  1.00  0.00     0.148 C 
ATOM     28  C   UNL     1       7.851   0.149   0.067  1.00  0.00     0.181 C 
ATOM     29  C   UNL     1       7.811  -2.203  -0.242  1.00  0.00     0.181 C 
ATOM     30  O   UNL     1       8.626  -1.061   0.082  1.00  0.00    -0.378 OA
ENDBRANCH  20  23
ENDBRANCH  15  19
ENDBRANCH   8  14
ENDBRANCH   4   7
ENDBRANCH   2   3
ENDBRANCH   1   2
BRANCH   1  31
ATOM     31  C   UNL     1       3.730   5.006 -11.619  1.00  0.00     0.023 C 
BRANCH  31  32
ATOM     32  C   UNL     1       2.677   5.425 -12.640  1.00  0.00     0.116 C 
BRANCH  32  33
ATOM     33  N   UNL     1       2.456   6.861 -12.682  1.00  0.00    -0.352 N 
ATOM     34  C   UNL     1       2.085   7.649 -13.748  1.00  0.00     0.251 C 
ATOM     35  H   UNL     1       2.590   7.336 -11.830  1.00  0.00     0.163 HD
ATOM     36  O   UNL     1       2.051   8.862 -13.623  1.00  0.00    -0.269 OA
BRANCH  34  37
ATOM     37  C   UNL     1       1.767   7.015 -15.047  1.00  0.00     0.039 A 
ATOM     38  C   UNL     1       2.306   7.571 -16.209  1.00  0.00     0.014 A 
ATOM     39  C   UNL     1       0.948   5.885 -15.121  1.00  0.00     0.014 A 
ATOM     40  C   UNL     1       2.061   6.963 -17.442  1.00  0.00     0.010 A 
ATOM     41  C   UNL     1       0.768   5.238 -16.340  1.00  0.00     0.010 A 
ATOM     42  C   UNL     1       1.310   5.778 -17.514  1.00  0.00    -0.014 A 
BRANCH  42  43
ATOM     43  C   UNL     1       1.067   5.113 -18.819  1.00  0.00     0.031 A 
ATOM     44  C   UNL     1      -0.329   5.022 -19.373  1.00  0.00     0.074 A 
ATOM     45  C   UNL     1       2.101   4.570 -19.491  1.00  0.00     0.049 A 
ATOM     46  N   UNL     1      -0.738   4.498 -20.500  1.00  0.00    -0.248 NA
ATOM     47  C   UNL     1      -1.412   5.567 -18.538  1.00  0.00     0.031 C 
ATOM     48  C   UNL     1       3.491   4.544 -19.029  1.00  0.00     0.029 A 
ATOM     49  N   UNL     1       2.145   3.941 -20.709  1.00  0.00    -0.354 N 
ATOM     50  C   UNL     1      -2.120   4.648 -20.508  1.00  0.00     0.074 A 
ATOM     51  C   UNL     1      -2.486   5.246 -19.243  1.00  0.00     0.031 C 
ATOM     52  C   UNL     1       4.257   3.970 -19.971  1.00  0.00     0.029 A 
ATOM     53  C   UNL     1       3.412   3.565 -21.090  1.00  0.00     0.049 A 
ATOM     54  H   UNL     1       1.345   3.774 -21.258  1.00  0.00     0.167 HD
ATOM     55  C   UNL     1      -3.002   4.346 -21.491  1.00  0.00     0.037 A 
ATOM     56  C   UNL     1       3.843   2.976 -22.221  1.00  0.00     0.037 A 
ATOM     57  C   UNL     1      -2.629   3.765 -22.755  1.00  0.00     0.049 A 
ATOM     58  C   UNL     1       2.848   2.663 -23.306  1.00  0.00     0.074 A 
ATOM     59  C   UNL     1      -3.437   3.448 -23.832  1.00  0.00     0.029 A 
ATOM     60  N   UNL     1      -1.333   3.416 -23.111  1.00  0.00    -0.354 N 
ATOM     61  N   UNL     1       1.552   2.863 -23.321  1.00  0.00    -0.248 NA
ATOM     62  C   UNL     1       3.380   2.062 -24.536  1.00  0.00     0.031 C 
ATOM     63  C   UNL     1      -2.634   2.878 -24.828  1.00  0.00     0.029 A 
ATOM     64  C   UNL     1      -1.320   2.883 -24.389  1.00  0.00     0.049 A 
ATOM     65  H   UNL     1      -0.540   3.531 -22.539  1.00  0.00     0.167 HD
ATOM     66  C   UNL     1       1.117   2.446 -24.575  1.00  0.00     0.074 A 
ATOM     67  C   UNL     1       2.292   1.992 -25.291  1.00  0.00     0.031 C 
ATOM     68  C   UNL     1      -0.138   2.444 -25.089  1.00  0.00     0.037 A 
BRANCH  55  69
ATOM     69  C   UNL     1      -4.453   4.654 -21.233  1.00  0.00     0.058 A 
ATOM     70  C   UNL     1      -4.920   5.977 -21.150  1.00  0.00     0.135 A 
ATOM     71  C   UNL     1      -5.388   3.621 -21.064  1.00  0.00     0.135 A 
ATOM     72  F   UNL     1      -4.067   7.005 -21.287  1.00  0.00    -0.206 F 
ATOM     73  C   UNL     1      -6.250   6.264 -20.864  1.00  0.00     0.059 A 
ATOM     74  C   UNL     1      -6.731   3.885 -20.808  1.00  0.00     0.059 A 
ATOM     75  F   UNL     1      -5.000   2.338 -21.135  1.00  0.00    -0.206 F 
ATOM     76  C   UNL     1      -7.148   5.210 -20.689  1.00  0.00     0.060 A 
BRANCH  76  77
ATOM     77  S   UNL     1      -8.867   5.599 -20.297  1.00  0.00     0.124 S 
ATOM     78  O   UNL     1      -8.760   6.006 -18.900  1.00  0.00    -0.237 OA
ATOM     79  O   UNL     1      -9.172   6.665 -21.246  1.00  0.00    -0.237 OA
ATOM     80  O   UNL     1      -9.562   4.337 -20.532  1.00  0.00    -0.744 OA
ENDBRANCH  76  77
ENDBRANCH  55  69
BRANCH  56  81
ATOM     81  C   UNL     1       5.292   2.704 -22.412  1.00  0.00     0.058 A 
ATOM     82  C   UNL     1       6.048   3.453 -23.326  1.00  0.00     0.135 A 
ATOM     83  C   UNL     1       5.953   1.706 -21.680  1.00  0.00     0.135 A 
ATOM     84  F   UNL     1       5.460   4.417 -24.052  1.00  0.00    -0.206 F 
ATOM     85  C   UNL     1       7.403   3.210 -23.524  1.00  0.00     0.059 A 
ATOM     86  C   UNL     1       7.313   1.460 -21.843  1.00  0.00     0.059 A 
ATOM     87  F   UNL     1       5.279   0.975 -20.779  1.00  0.00    -0.206 F 
ATOM     88  C   UNL     1       8.028   2.212 -22.776  1.00  0.00     0.060 A 
BRANCH  88  89
ATOM     89  S   UNL     1       9.798   1.938 -23.005  1.00  0.00     0.124 S 
ATOM     90  O   UNL     1       9.826   1.269 -24.301  1.00  0.00    -0.237 OA
ATOM     91  O   UNL     1      10.326   3.298 -22.976  1.00  0.00    -0.237 OA
ATOM     92  O   UNL     1      10.160   1.109 -21.858  1.00  0.00    -0.744 OA
ENDBRANCH  88  89
ENDBRANCH  56  81
BRANCH  68  93
ATOM     93  C   UNL     1      -0.293   1.982 -26.512  1.00  0.00     0.058 A 
ATOM     94  C   UNL     1      -0.146   0.635 -26.876  1.00  0.00     0.135 A 
ATOM     95  C   UNL     1      -0.605   2.905 -27.524  1.00  0.00     0.135 A 
ATOM     96  F   UNL     1       0.155  -0.287 -25.948  1.00  0.00    -0.206 F 
ATOM     97  C   UNL     1      -0.258   0.224 -28.201  1.00  0.00     0.059 A 
ATOM     98  C   UNL     1      -0.751   2.512 -28.851  1.00  0.00     0.059 A 
ATOM     99  F   UNL     1      -0.771   4.204 -27.228  1.00  0.00    -0.206 F 
ATOM    100  C   UNL     1      -0.554   1.173 -29.182  1.00  0.00     0.060 A 
BRANCH 100 101
ATOM    101  S   UNL     1      -0.691   0.633 -30.899  1.00  0.00     0.124 S 
ATOM    102  O   UNL     1       0.711   0.464 -31.265  1.00  0.00    -0.237 OA
ATOM    103  O   UNL     1      -1.468  -0.598 -30.781  1.00  0.00    -0.237 OA
ATOM    104  O   UNL     1      -1.382   1.742 -31.549  1.00  0.00    -0.744 OA
ENDBRANCH 100 101
ENDBRANCH  68  93
ENDBRANCH  42  43
ENDBRANCH  34  37
ENDBRANCH  32  33
ENDBRANCH  31  32
ENDBRANCH   1  31
TORSDOF 18
