REMARK SMILES O=C(C[C@H]1C[N@@H+]([C@@H]2CC(=O)NC2=O)CCO1)NCCCCNC(=O)c1ccc(-c2c3nc(c(-c4c(F)cc(S(=O)(=O)[O-])cc4F)c4ccc([nH]4)c(-c4c(F)cc(S(=O)(=O)[O-])cc4F)c4nc(c(-c5c(F)cc(S(=O)(=O)[O-])cc5F)c5ccc2[nH]5)C=C4)C=C3)cc1
REMARK SMILES IDX 20 1 19 2 18 3 17 4 1 5 2 6 3 8 4 9 5 10 16 11 6 12 15 13
REMARK SMILES IDX 14 14 7 16 8 17 12 18 9 19 11 20 13 21 10 22 21 24 22 25
REMARK SMILES IDX 23 26 24 28 25 29 26 30 90 31 27 32 89 33 28 34 29 35 30 36
REMARK SMILES IDX 83 37 31 38 88 39 82 40 84 41 32 42 87 43 81 44 80 45 33 47
REMARK SMILES IDX 67 48 46 49 66 50 47 51 50 52 65 53 85 54 48 55 49 56 64 58
REMARK SMILES IDX 86 59 51 60 34 61 35 62 44 63 36 64 37 65 43 66 45 67 38 68
REMARK SMILES IDX 39 69 40 70 41 71 42 72 68 73 69 74 78 75 70 76 71 77 77 78
REMARK SMILES IDX 79 79 72 80 73 81 74 82 75 83 76 84 52 85 53 86 62 87 54 88
REMARK SMILES IDX 55 89 61 90 63 91 56 92 57 93 58 94 59 95 60 96
REMARK H PARENT 17 7 6 15 11 23 22 27 84 46 50 57
REMARK Flexibility Score: inf
ROOT
ATOM      1  C   UNL     1      -1.240   2.161  -2.890  1.00  0.00     0.023 C 
ENDROOT
BRANCH   1   2
ATOM      2  C   UNL     1      -0.269   2.495  -4.023  1.00  0.00     0.023 C 
BRANCH   2   3
ATOM      3  C   UNL     1       1.181   2.702  -3.589  1.00  0.00     0.116 C 
BRANCH   3   4
ATOM      4  N   UNL     1       1.701   1.623  -2.780  1.00  0.00    -0.356 N 
ATOM      5  O   UNL     1       1.801   0.098  -4.479  1.00  0.00    -0.275 OA
ATOM      6  C   UNL     1       2.007   0.395  -3.307  1.00  0.00     0.222 C 
ATOM      7  H   UNL     1       1.840   1.775  -1.817  1.00  0.00     0.163 HD
BRANCH   6   8
ATOM      8  C   UNL     1       2.565  -0.604  -2.323  1.00  0.00     0.138 C 
BRANCH   8   9
ATOM      9  C   UNL     1       3.842  -0.240  -1.550  1.00  0.00     0.182 C 
ATOM     10  C   UNL     1       5.101  -1.049  -1.956  1.00  0.00     0.295 C 
ATOM     11  O   UNL     1       4.093   1.164  -1.403  1.00  0.00    -0.366 OA
ATOM     12  N   UNL     1       5.995  -0.455  -2.946  1.00  0.00    -0.320 N 
ATOM     13  C   UNL     1       4.878   1.736  -2.458  1.00  0.00     0.222 C 
ATOM     14  C   UNL     1       6.181   0.976  -2.729  1.00  0.00     0.291 C 
ATOM     15  H   UNL     1       6.882  -0.910  -2.728  1.00  0.00     0.348 HD
BRANCH  12  16
ATOM     16  C   UNL     1       6.007  -0.938  -4.330  1.00  0.00     0.284 C 
ATOM     17  C   UNL     1       4.901  -0.487  -5.281  1.00  0.00     0.176 C 
ATOM     18  C   UNL     1       5.954  -2.462  -4.411  1.00  0.00     0.285 C 
ATOM     19  C   UNL     1       4.255  -1.762  -5.736  1.00  0.00     0.233 C 
ATOM     20  N   UNL     1       4.869  -2.815  -5.149  1.00  0.00    -0.291 N 
ATOM     21  O   UNL     1       6.737  -3.251  -3.915  1.00  0.00    -0.268 OA
ATOM     22  O   UNL     1       3.369  -1.861  -6.573  1.00  0.00    -0.274 OA
ATOM     23  H   UNL     1       4.561  -3.745  -5.247  1.00  0.00     0.173 HD
ENDBRANCH  12  16
ENDBRANCH   8   9
ENDBRANCH   6   8
ENDBRANCH   3   4
ENDBRANCH   2   3
ENDBRANCH   1   2
BRANCH   1  24
ATOM     24  C   UNL     1      -1.191   3.098  -1.690  1.00  0.00     0.116 C 
BRANCH  24  25
ATOM     25  N   UNL     1      -1.511   4.475  -2.030  1.00  0.00    -0.352 N 
ATOM     26  C   UNL     1      -2.289   5.369  -1.335  1.00  0.00     0.251 C 
ATOM     27  H   UNL     1      -1.119   4.811  -2.869  1.00  0.00     0.163 HD
ATOM     28  O   UNL     1      -2.555   6.465  -1.819  1.00  0.00    -0.269 OA
BRANCH  26  29
ATOM     29  C   UNL     1      -2.835   4.984  -0.015  1.00  0.00     0.039 A 
ATOM     30  C   UNL     1      -4.199   5.161   0.228  1.00  0.00     0.014 A 
ATOM     31  C   UNL     1      -2.011   4.420   0.963  1.00  0.00     0.014 A 
ATOM     32  C   UNL     1      -4.750   4.712   1.430  1.00  0.00     0.010 A 
ATOM     33  C   UNL     1      -2.573   3.913   2.132  1.00  0.00     0.010 A 
ATOM     34  C   UNL     1      -3.948   4.053   2.377  1.00  0.00    -0.014 A 
BRANCH  34  35
ATOM     35  C   UNL     1      -4.532   3.499   3.627  1.00  0.00     0.031 A 
ATOM     36  C   UNL     1      -4.117   4.053   4.963  1.00  0.00     0.074 A 
ATOM     37  C   UNL     1      -5.383   2.456   3.561  1.00  0.00     0.049 A 
ATOM     38  N   UNL     1      -4.464   3.661   6.162  1.00  0.00    -0.248 NA
ATOM     39  C   UNL     1      -3.168   5.178   4.950  1.00  0.00     0.031 C 
ATOM     40  C   UNL     1      -5.823   1.799   2.327  1.00  0.00     0.029 A 
ATOM     41  N   UNL     1      -6.025   1.758   4.553  1.00  0.00    -0.354 N 
ATOM     42  C   UNL     1      -3.764   4.476   7.044  1.00  0.00     0.074 A 
ATOM     43  C   UNL     1      -2.938   5.353   6.243  1.00  0.00     0.031 C 
ATOM     44  C   UNL     1      -6.679   0.811   2.636  1.00  0.00     0.029 A 
ATOM     45  C   UNL     1      -6.822   0.739   4.087  1.00  0.00     0.049 A 
ATOM     46  H   UNL     1      -5.924   1.968   5.510  1.00  0.00     0.167 HD
ATOM     47  C   UNL     1      -3.823   4.507   8.397  1.00  0.00     0.037 A 
ATOM     48  C   UNL     1      -7.579  -0.155   4.753  1.00  0.00     0.037 A 
ATOM     49  C   UNL     1      -4.673   3.655   9.187  1.00  0.00     0.049 A 
ATOM     50  C   UNL     1      -7.634  -0.095   6.255  1.00  0.00     0.074 A 
ATOM     51  C   UNL     1      -4.856   3.655  10.558  1.00  0.00     0.029 A 
ATOM     52  N   UNL     1      -5.483   2.651   8.676  1.00  0.00    -0.354 N 
ATOM     53  N   UNL     1      -7.017   0.728   7.070  1.00  0.00    -0.248 NA
ATOM     54  C   UNL     1      -8.491  -1.080   6.930  1.00  0.00     0.031 C 
ATOM     55  C   UNL     1      -5.745   2.624  10.882  1.00  0.00     0.029 A 
ATOM     56  C   UNL     1      -6.151   2.012   9.707  1.00  0.00     0.049 A 
ATOM     57  H   UNL     1      -5.570   2.425   7.722  1.00  0.00     0.167 HD
ATOM     58  C   UNL     1      -7.433   0.378   8.350  1.00  0.00     0.074 A 
ATOM     59  C   UNL     1      -8.362  -0.724   8.201  1.00  0.00     0.031 C 
ATOM     60  C   UNL     1      -7.080   0.922   9.541  1.00  0.00     0.037 A 
BRANCH  47  61
ATOM     61  C   UNL     1      -2.946   5.498   9.111  1.00  0.00     0.058 A 
ATOM     62  C   UNL     1      -3.202   6.877   9.064  1.00  0.00     0.135 A 
ATOM     63  C   UNL     1      -1.856   5.061   9.882  1.00  0.00     0.135 A 
ATOM     64  F   UNL     1      -4.221   7.351   8.330  1.00  0.00    -0.206 F 
ATOM     65  C   UNL     1      -2.392   7.791   9.731  1.00  0.00     0.059 A 
ATOM     66  C   UNL     1      -1.049   5.955  10.580  1.00  0.00     0.059 A 
ATOM     67  F   UNL     1      -1.565   3.753   9.961  1.00  0.00    -0.206 F 
ATOM     68  C   UNL     1      -1.317   7.320  10.485  1.00  0.00     0.060 A 
BRANCH  68  69
ATOM     69  S   UNL     1      -0.278   8.518  11.348  1.00  0.00     0.124 S 
ATOM     70  O   UNL     1       0.479   9.095  10.242  1.00  0.00    -0.237 OA
ATOM     71  O   UNL     1      -1.264   9.398  11.968  1.00  0.00    -0.237 OA
ATOM     72  O   UNL     1       0.493   7.695  12.274  1.00  0.00    -0.744 OA
ENDBRANCH  68  69
ENDBRANCH  47  61
BRANCH  48  73
ATOM     73  C   UNL     1      -8.370  -1.167   4.003  1.00  0.00     0.058 A 
ATOM     74  C   UNL     1      -9.768  -1.083   3.938  1.00  0.00     0.135 A 
ATOM     75  C   UNL     1      -7.747  -2.231   3.332  1.00  0.00     0.135 A 
ATOM     76  F   UNL     1     -10.410  -0.088   4.569  1.00  0.00    -0.206 F 
ATOM     77  C   UNL     1     -10.525  -2.027   3.252  1.00  0.00     0.059 A 
ATOM     78  C   UNL     1      -8.480  -3.174   2.618  1.00  0.00     0.059 A 
ATOM     79  F   UNL     1      -6.410  -2.347   3.349  1.00  0.00    -0.206 F 
ATOM     80  C   UNL     1      -9.870  -3.070   2.593  1.00  0.00     0.060 A 
BRANCH  80  81
ATOM     81  S   UNL     1     -10.858  -4.266   1.669  1.00  0.00     0.124 S 
ATOM     82  O   UNL     1     -11.447  -5.054   2.746  1.00  0.00    -0.237 OA
ATOM     83  O   UNL     1     -11.776  -3.403   0.933  1.00  0.00    -0.237 OA
ATOM     84  O   UNL     1      -9.866  -4.957   0.850  1.00  0.00    -0.744 OA
ENDBRANCH  80  81
ENDBRANCH  48  73
BRANCH  60  85
ATOM     85  C   UNL     1      -7.725   0.359  10.777  1.00  0.00     0.058 A 
ATOM     86  C   UNL     1      -7.364  -0.895  11.292  1.00  0.00     0.135 A 
ATOM     87  C   UNL     1      -8.678   1.110  11.484  1.00  0.00     0.135 A 
ATOM     88  F   UNL     1      -6.462  -1.655  10.650  1.00  0.00    -0.206 F 
ATOM     89  C   UNL     1      -7.940  -1.395  12.455  1.00  0.00     0.059 A 
ATOM     90  C   UNL     1      -9.249   0.641  12.663  1.00  0.00     0.059 A 
ATOM     91  F   UNL     1      -9.052   2.321  11.039  1.00  0.00    -0.206 F 
ATOM     92  C   UNL     1      -8.881  -0.618  13.135  1.00  0.00     0.060 A 
BRANCH  92  93
ATOM     93  S   UNL     1      -9.595  -1.262  14.663  1.00  0.00     0.124 S 
ATOM     94  O   UNL     1     -10.525  -2.264  14.153  1.00  0.00    -0.237 OA
ATOM     95  O   UNL     1      -8.423  -1.782  15.361  1.00  0.00    -0.237 OA
ATOM     96  O   UNL     1     -10.209  -0.086  15.273  1.00  0.00    -0.744 OA
ENDBRANCH  92  93
ENDBRANCH  60  85
ENDBRANCH  34  35
ENDBRANCH  26  29
ENDBRANCH  24  25
ENDBRANCH   1  24
TORSDOF 16
