REMARK SMILES COc1ccc(/C=C/C(=O)NCCCCNC(=O)c2ccc(-c3c4nc(c(-c5c(F)cc(S(=O)(=O)[O-])cc5F)c5ccc([nH]5)c(-c5c(F)cc(S(=O)(=O)[O-])cc5F)c5nc(c(-c6c(F)cc(S(=O)(=O)[O-])cc6F)c6ccc3[nH]6)C=C5)C=C4)cc2)cc1S(=O)(=O)Nc1ccc(F)cc1F
REMARK SMILES IDX 13 1 12 2 11 3 9 4 10 5 8 7 7 8 6 9 3 10 4 11 86 12 5 13
REMARK SMILES IDX 85 14 2 15 1 16 87 17 88 18 89 19 90 20 91 22 92 23 97 24
REMARK SMILES IDX 93 25 96 26 98 27 94 28 95 29 14 30 15 31 16 32 17 33 18 35
REMARK SMILES IDX 19 36 20 37 84 38 21 39 83 40 22 41 23 42 24 43 77 44 25 45
REMARK SMILES IDX 82 46 76 47 78 48 26 49 81 50 75 51 74 52 27 54 61 55 40 56
REMARK SMILES IDX 60 57 41 58 44 59 59 60 79 61 42 62 43 63 58 65 80 66 45 67
REMARK SMILES IDX 28 68 29 69 38 70 30 71 31 72 37 73 39 74 32 75 33 76 34 77
REMARK SMILES IDX 35 78 36 79 62 80 63 81 72 82 64 83 65 84 71 85 73 86 66 87
REMARK SMILES IDX 67 88 68 89 69 90 70 91 46 92 47 93 56 94 48 95 49 96 55 97
REMARK SMILES IDX 57 98 50 99 51 100 52 101 53 102 54 103
REMARK H PARENT 11 6 90 21 16 34 78 53 44 64
REMARK Flexibility Score: inf
ROOT
ATOM      1  C   UNL     1       4.986  -1.913  -8.052  1.00  0.00     0.023 C 
ENDROOT
BRANCH   1   2
ATOM      2  C   UNL     1       3.824  -0.945  -8.258  1.00  0.00     0.116 C 
BRANCH   2   3
ATOM      3  N   UNL     1       2.725  -1.604  -8.939  1.00  0.00    -0.353 N 
ATOM      4  C   UNL     1       1.506  -1.978  -8.468  1.00  0.00     0.243 C 
ATOM      5  O   UNL     1       0.678  -2.496  -9.211  1.00  0.00    -0.270 OA
ATOM      6  H   UNL     1       2.887  -1.813  -9.887  1.00  0.00     0.163 HD
BRANCH   4   7
ATOM      7  C   UNL     1       1.122  -1.621  -7.088  1.00  0.00     0.072 C 
ATOM      8  C   UNL     1       1.748  -2.039  -5.976  1.00  0.00     0.014 C 
BRANCH   8   9
ATOM      9  C   UNL     1       1.356  -1.553  -4.641  1.00  0.00    -0.024 A 
ATOM     10  C   UNL     1       0.737  -0.247  -2.231  1.00  0.00     0.139 A 
ATOM     11  C   UNL     1      -0.264  -0.514  -3.163  1.00  0.00     0.048 A 
ATOM     12  C   UNL     1       2.003  -0.799  -2.408  1.00  0.00     0.130 A 
ATOM     13  C   UNL     1       0.040  -1.176  -4.351  1.00  0.00     0.012 A 
ATOM     14  C   UNL     1       2.319  -1.426  -3.631  1.00  0.00     0.034 A 
BRANCH  10  15
ATOM     15  O   UNL     1       0.360   0.524  -1.171  1.00  0.00    -0.495 OA
ATOM     16  C   UNL     1       0.919   1.836  -1.244  1.00  0.00     0.278 C 
ENDBRANCH  10  15
BRANCH  12  17
ATOM     17  S   UNL     1       3.257  -0.831  -1.152  1.00  0.00     0.265 S 
ATOM     18  O   UNL     1       3.973  -2.082  -1.273  1.00  0.00    -0.201 OA
ATOM     19  O   UNL     1       3.967   0.430  -1.270  1.00  0.00    -0.201 OA
BRANCH  17  20
ATOM     20  N   UNL     1       2.576  -0.787   0.388  1.00  0.00    -0.277 N 
ATOM     21  H   UNL     1       3.075  -0.329   1.102  1.00  0.00     0.180 HD
BRANCH  20  22
ATOM     22  C   UNL     1       1.317  -1.375   0.717  1.00  0.00     0.085 A 
ATOM     23  C   UNL     1       0.527  -0.667   1.637  1.00  0.00     0.033 A 
ATOM     24  C   UNL     1       0.812  -2.555   0.161  1.00  0.00     0.150 A 
ATOM     25  C   UNL     1      -0.788  -1.062   1.886  1.00  0.00     0.041 A 
ATOM     26  C   UNL     1      -0.498  -2.956   0.409  1.00  0.00     0.080 A 
ATOM     27  F   UNL     1       1.548  -3.291  -0.681  1.00  0.00    -0.205 F 
ATOM     28  C   UNL     1      -1.293  -2.190   1.252  1.00  0.00     0.126 A 
ATOM     29  F   UNL     1      -2.571  -2.537   1.452  1.00  0.00    -0.207 F 
ENDBRANCH  20  22
ENDBRANCH  17  20
ENDBRANCH  12  17
ENDBRANCH   8   9
ENDBRANCH   4   7
ENDBRANCH   2   3
ENDBRANCH   1   2
BRANCH   1  30
ATOM     30  C   UNL     1       5.775  -2.226  -9.329  1.00  0.00     0.023 C 
BRANCH  30  31
ATOM     31  C   UNL     1       6.470  -1.029  -9.975  1.00  0.00     0.116 C 
BRANCH  31  32
ATOM     32  N   UNL     1       7.395  -0.353  -9.078  1.00  0.00    -0.352 N 
ATOM     33  C   UNL     1       8.587   0.262  -9.376  1.00  0.00     0.251 C 
ATOM     34  H   UNL     1       7.132  -0.334  -8.130  1.00  0.00     0.163 HD
ATOM     35  O   UNL     1       9.299   0.692  -8.474  1.00  0.00    -0.269 OA
BRANCH  33  36
ATOM     36  C   UNL     1       9.023   0.369 -10.784  1.00  0.00     0.039 A 
ATOM     37  C   UNL     1      10.320  -0.030 -11.117  1.00  0.00     0.014 A 
ATOM     38  C   UNL     1       8.154   0.840 -11.772  1.00  0.00     0.014 A 
ATOM     39  C   UNL     1      10.725  -0.019 -12.453  1.00  0.00     0.010 A 
ATOM     40  C   UNL     1       8.540   0.797 -13.109  1.00  0.00     0.010 A 
ATOM     41  C   UNL     1       9.826   0.361 -13.462  1.00  0.00    -0.014 A 
BRANCH  41  42
ATOM     42  C   UNL     1      10.206   0.291 -14.895  1.00  0.00     0.031 A 
ATOM     43  C   UNL     1      10.314   1.547 -15.713  1.00  0.00     0.074 A 
ATOM     44  C   UNL     1      10.380  -0.913 -15.476  1.00  0.00     0.049 A 
ATOM     45  N   UNL     1      10.557   1.681 -16.991  1.00  0.00    -0.248 NA
ATOM     46  C   UNL     1      10.094   2.819 -15.006  1.00  0.00     0.031 C 
ATOM     47  C   UNL     1      10.252  -2.206 -14.798  1.00  0.00     0.029 A 
ATOM     48  N   UNL     1      10.691  -1.247 -16.770  1.00  0.00    -0.354 N 
ATOM     49  C   UNL     1      10.496   3.045 -17.247  1.00  0.00     0.074 A 
ATOM     50  C   UNL     1      10.158   3.695 -15.999  1.00  0.00     0.031 C 
ATOM     51  C   UNL     1      10.500  -3.190 -15.677  1.00  0.00     0.029 A 
ATOM     52  C   UNL     1      10.775  -2.603 -16.985  1.00  0.00     0.049 A 
ATOM     53  H   UNL     1      10.839  -0.579 -17.477  1.00  0.00     0.167 HD
ATOM     54  C   UNL     1      10.720   3.697 -18.413  1.00  0.00     0.037 A 
ATOM     55  C   UNL     1      11.040  -3.294 -18.110  1.00  0.00     0.037 A 
ATOM     56  C   UNL     1      11.095   3.049 -19.642  1.00  0.00     0.049 A 
ATOM     57  C   UNL     1      11.314  -2.546 -19.385  1.00  0.00     0.074 A 
ATOM     58  C   UNL     1      11.416   3.628 -20.858  1.00  0.00     0.029 A 
ATOM     59  N   UNL     1      11.203   1.676 -19.813  1.00  0.00    -0.354 N 
ATOM     60  N   UNL     1      11.313  -1.252 -19.596  1.00  0.00    -0.248 NA
ATOM     61  C   UNL     1      11.632  -3.350 -20.573  1.00  0.00     0.031 C 
ATOM     62  C   UNL     1      11.688   2.604 -21.772  1.00  0.00     0.029 A 
ATOM     63  C   UNL     1      11.572   1.389 -21.116  1.00  0.00     0.049 A 
ATOM     64  H   UNL     1      11.041   1.006 -19.110  1.00  0.00     0.167 HD
ATOM     65  C   UNL     1      11.651  -1.085 -20.933  1.00  0.00     0.074 A 
ATOM     66  C   UNL     1      11.859  -2.410 -21.481  1.00  0.00     0.031 C 
ATOM     67  C   UNL     1      11.780   0.063 -21.643  1.00  0.00     0.037 A 
BRANCH  54  68
ATOM     68  C   UNL     1      10.569   5.192 -18.414  1.00  0.00     0.058 A 
ATOM     69  C   UNL     1      11.509   6.027 -17.790  1.00  0.00     0.135 A 
ATOM     70  C   UNL     1       9.488   5.800 -19.073  1.00  0.00     0.135 A 
ATOM     71  F   UNL     1      12.553   5.497 -17.132  1.00  0.00    -0.206 F 
ATOM     72  C   UNL     1      11.370   7.411 -17.795  1.00  0.00     0.059 A 
ATOM     73  C   UNL     1       9.342   7.184 -19.112  1.00  0.00     0.059 A 
ATOM     74  F   UNL     1       8.560   5.048 -19.685  1.00  0.00    -0.206 F 
ATOM     75  C   UNL     1      10.281   7.980 -18.457  1.00  0.00     0.060 A 
BRANCH  75  76
ATOM     76  S   UNL     1      10.113   9.778 -18.459  1.00  0.00     0.124 S 
ATOM     77  O   UNL     1       9.632  10.025 -17.103  1.00  0.00    -0.237 OA
ATOM     78  O   UNL     1      11.476  10.220 -18.738  1.00  0.00    -0.237 OA
ATOM     79  O   UNL     1       9.147  10.027 -19.524  1.00  0.00    -0.744 OA
ENDBRANCH  75  76
ENDBRANCH  54  68
BRANCH  55  80
ATOM     80  C   UNL     1      11.094  -4.778 -18.069  1.00  0.00     0.058 A 
ATOM     81  C   UNL     1      12.322  -5.452 -18.137  1.00  0.00     0.135 A 
ATOM     82  C   UNL     1       9.930  -5.549 -17.933  1.00  0.00     0.135 A 
ATOM     83  F   UNL     1      13.462  -4.756 -18.272  1.00  0.00    -0.206 F 
ATOM     84  C   UNL     1      12.396  -6.839 -18.080  1.00  0.00     0.059 A 
ATOM     85  C   UNL     1       9.979  -6.937 -17.855  1.00  0.00     0.059 A 
ATOM     86  F   UNL     1       8.732  -4.949 -17.848  1.00  0.00    -0.206 F 
ATOM     87  C   UNL     1      11.218  -7.574 -17.936  1.00  0.00     0.060 A 
BRANCH  87  88
ATOM     88  S   UNL     1      11.329  -9.372 -17.802  1.00  0.00     0.124 S 
ATOM     89  O   UNL     1      11.588  -9.754 -19.184  1.00  0.00    -0.237 OA
ATOM     90  O   UNL     1      12.441  -9.543 -16.872  1.00  0.00    -0.237 OA
ATOM     91  O   UNL     1      10.020  -9.748 -17.275  1.00  0.00    -0.744 OA
ENDBRANCH  87  88
ENDBRANCH  55  80
BRANCH  67  92
ATOM     92  C   UNL     1      12.192  -0.058 -23.082  1.00  0.00     0.058 A 
ATOM     93  C   UNL     1      11.290  -0.481 -24.070  1.00  0.00     0.135 A 
ATOM     94  C   UNL     1      13.487   0.305 -23.484  1.00  0.00     0.135 A 
ATOM     95  F   UNL     1      10.042  -0.845 -23.735  1.00  0.00    -0.206 F 
ATOM     96  C   UNL     1      11.663  -0.556 -25.408  1.00  0.00     0.059 A 
ATOM     97  C   UNL     1      13.875   0.259 -24.819  1.00  0.00     0.059 A 
ATOM     98  F   UNL     1      14.384   0.724 -22.577  1.00  0.00    -0.206 F 
ATOM     99  C   UNL     1      12.959  -0.183 -25.773  1.00  0.00     0.060 A 
BRANCH  99 100
ATOM    100  S   UNL     1      13.422  -0.246 -27.517  1.00  0.00     0.124 S 
ATOM    101  O   UNL     1      13.634  -1.676 -27.712  1.00  0.00    -0.237 OA
ATOM    102  O   UNL     1      12.247   0.317 -28.176  1.00  0.00    -0.237 OA
ATOM    103  O   UNL     1      14.623   0.582 -27.578  1.00  0.00    -0.744 OA
ENDBRANCH  99 100
ENDBRANCH  67  92
ENDBRANCH  41  42
ENDBRANCH  33  36
ENDBRANCH  31  32
ENDBRANCH  30  31
ENDBRANCH   1  30
TORSDOF 19
