REMARK SMILES CC[C@H](NC(=O)NC[C@@]1(C)CCCO1)C(=O)NCCCCNC(=O)c1ccc(-c2c3nc(c(-c4c(F)cc(S(=O)(=O)[O-])cc4F)c4ccc([nH]4)c(-c4c(F)cc(S(=O)(=O)[O-])cc4F)c4nc(c(-c5c(F)cc(S(=O)(=O)[O-])cc5F)c5ccc2[nH]5)C=C4)C=C3)cc1
REMARK SMILES IDX 19 1 18 2 17 3 15 4 16 5 3 7 2 8 1 9 4 10 5 11 6 13 7 14
REMARK SMILES IDX 8 16 9 17 10 18 11 19 14 20 12 21 13 22 20 23 21 24 22 25
REMARK SMILES IDX 23 26 24 28 25 29 26 30 90 31 27 32 89 33 28 34 29 35 30 36
REMARK SMILES IDX 83 37 31 38 88 39 82 40 84 41 32 42 87 43 81 44 80 45 33 47
REMARK SMILES IDX 67 48 46 49 66 50 47 51 50 52 65 53 85 54 48 55 49 56 64 58
REMARK SMILES IDX 86 59 51 60 34 61 35 62 44 63 36 64 37 65 43 66 45 67 38 68
REMARK SMILES IDX 39 69 40 70 41 71 42 72 68 73 69 74 78 75 70 76 71 77 77 78
REMARK SMILES IDX 79 79 72 80 73 81 74 82 75 83 76 84 52 85 53 86 62 87 54 88
REMARK SMILES IDX 55 89 61 90 63 91 56 92 57 93 58 94 59 95 60 96
REMARK H PARENT 17 6 4 12 7 15 22 27 84 46 50 57
REMARK Flexibility Score: inf
ROOT
ATOM      1  C   UNL     1      -3.263  -1.702   0.635  1.00  0.00     0.023 C 
ENDROOT
BRANCH   1   2
ATOM      2  C   UNL     1      -2.555  -0.665   1.536  1.00  0.00     0.116 C 
BRANCH   2   3
ATOM      3  N   UNL     1      -1.744  -0.987   2.704  1.00  0.00    -0.354 N 
ATOM      4  C   UNL     1      -0.395  -0.882   2.953  1.00  0.00     0.242 C 
ATOM      5  O   UNL     1      -0.003  -0.533   4.072  1.00  0.00    -0.273 OA
ATOM      6  H   UNL     1      -2.261  -1.349   3.460  1.00  0.00     0.163 HD
BRANCH   4   7
ATOM      7  C   UNL     1       0.666  -1.032   1.896  1.00  0.00     0.172 C 
BRANCH   7   8
ATOM      8  C   UNL     1       1.151   0.398   1.515  1.00  0.00     0.032 C 
ATOM      9  C   UNL     1       0.139   1.547   1.651  1.00  0.00     0.006 C 
ENDBRANCH   7   8
BRANCH   7  10
ATOM     10  N   UNL     1       0.210  -1.920   0.862  1.00  0.00    -0.326 N 
ATOM     11  C   UNL     1      -0.298  -3.164   0.972  1.00  0.00     0.315 C 
ATOM     12  H   UNL     1       0.280  -1.571  -0.056  1.00  0.00     0.166 HD
ATOM     13  O   UNL     1      -0.490  -3.767  -0.090  1.00  0.00    -0.249 OA
ATOM     14  N   UNL     1      -0.736  -3.753   2.112  1.00  0.00    -0.335 N 
ATOM     15  H   UNL     1      -1.517  -4.320   1.919  1.00  0.00     0.165 HD
BRANCH  14  16
ATOM     16  C   UNL     1      -0.407  -3.813   3.578  1.00  0.00     0.152 C 
BRANCH  16  17
ATOM     17  C   UNL     1      -1.496  -3.543   4.732  1.00  0.00     0.083 C 
ATOM     18  C   UNL     1      -1.177  -2.342   5.658  1.00  0.00     0.044 C 
ATOM     19  C   UNL     1      -2.942  -3.535   4.282  1.00  0.00     0.039 C 
ATOM     20  O   UNL     1      -1.530  -4.678   5.656  1.00  0.00    -0.373 OA
ATOM     21  C   UNL     1      -3.730  -3.768   5.551  1.00  0.00     0.031 C 
ATOM     22  C   UNL     1      -2.791  -4.625   6.374  1.00  0.00     0.161 C 
ENDBRANCH  16  17
ENDBRANCH  14  16
ENDBRANCH   7  10
ENDBRANCH   4   7
ENDBRANCH   2   3
ENDBRANCH   1   2
BRANCH   1  23
ATOM     23  C   UNL     1      -3.980  -2.993   1.060  1.00  0.00     0.023 C 
BRANCH  23  24
ATOM     24  C   UNL     1      -5.223  -3.030   1.955  1.00  0.00     0.116 C 
BRANCH  24  25
ATOM     25  N   UNL     1      -6.309  -2.128   1.668  1.00  0.00    -0.352 N 
ATOM     26  C   UNL     1      -7.567  -2.166   2.236  1.00  0.00     0.251 C 
ATOM     27  H   UNL     1      -6.138  -1.420   1.007  1.00  0.00     0.163 HD
ATOM     28  O   UNL     1      -8.401  -1.308   1.915  1.00  0.00    -0.269 OA
BRANCH  26  29
ATOM     29  C   UNL     1      -7.962  -3.244   3.188  1.00  0.00     0.039 A 
ATOM     30  C   UNL     1      -9.104  -3.999   2.912  1.00  0.00     0.014 A 
ATOM     31  C   UNL     1      -7.269  -3.490   4.376  1.00  0.00     0.014 A 
ATOM     32  C   UNL     1      -9.526  -5.005   3.798  1.00  0.00     0.010 A 
ATOM     33  C   UNL     1      -7.652  -4.548   5.224  1.00  0.00     0.010 A 
ATOM     34  C   UNL     1      -8.800  -5.314   4.963  1.00  0.00    -0.014 A 
BRANCH  34  35
ATOM     35  C   UNL     1      -9.271  -6.405   5.887  1.00  0.00     0.031 A 
ATOM     36  C   UNL     1      -9.632  -6.121   7.333  1.00  0.00     0.074 A 
ATOM     37  C   UNL     1      -9.405  -7.672   5.434  1.00  0.00     0.049 A 
ATOM     38  N   UNL     1     -10.169  -6.919   8.226  1.00  0.00    -0.248 NA
ATOM     39  C   UNL     1      -9.328  -4.780   7.853  1.00  0.00     0.031 C 
ATOM     40  C   UNL     1      -9.028  -8.133   4.096  1.00  0.00     0.029 A 
ATOM     41  N   UNL     1      -9.912  -8.803   6.036  1.00  0.00    -0.354 N 
ATOM     42  C   UNL     1     -10.259  -6.182   9.405  1.00  0.00     0.074 A 
ATOM     43  C   UNL     1      -9.658  -4.895   9.131  1.00  0.00     0.031 C 
ATOM     44  C   UNL     1      -9.374  -9.424   3.958  1.00  0.00     0.029 A 
ATOM     45  C   UNL     1      -9.972  -9.899   5.203  1.00  0.00     0.049 A 
ATOM     46  H   UNL     1     -10.205  -8.825   6.976  1.00  0.00     0.167 HD
ATOM     47  C   UNL     1     -10.816  -6.521  10.596  1.00  0.00     0.037 A 
ATOM     48  C   UNL     1     -10.468 -11.139   5.400  1.00  0.00     0.037 A 
ATOM     49  C   UNL     1     -11.445  -7.789  10.870  1.00  0.00     0.049 A 
ATOM     50  C   UNL     1     -11.113 -11.487   6.718  1.00  0.00     0.074 A 
ATOM     51  C   UNL     1     -12.104  -8.192  12.021  1.00  0.00     0.029 A 
ATOM     52  N   UNL     1     -11.491  -8.862   9.993  1.00  0.00    -0.354 N 
ATOM     53  N   UNL     1     -11.276 -10.737   7.781  1.00  0.00    -0.248 NA
ATOM     54  C   UNL     1     -11.659 -12.845   6.854  1.00  0.00     0.031 C 
ATOM     55  C   UNL     1     -12.500  -9.525  11.860  1.00  0.00     0.029 A 
ATOM     56  C   UNL     1     -12.147  -9.931  10.584  1.00  0.00     0.049 A 
ATOM     57  H   UNL     1     -11.114  -8.864   9.084  1.00  0.00     0.167 HD
ATOM     58  C   UNL     1     -11.980 -11.518   8.694  1.00  0.00     0.074 A 
ATOM     59  C   UNL     1     -12.218 -12.795   8.055  1.00  0.00     0.031 C 
ATOM     60  C   UNL     1     -12.398 -11.200   9.945  1.00  0.00     0.037 A 
BRANCH  47  61
ATOM     61  C   UNL     1     -10.783  -5.498  11.706  1.00  0.00     0.058 A 
ATOM     62  C   UNL     1     -11.529  -4.309  11.641  1.00  0.00     0.135 A 
ATOM     63  C   UNL     1     -10.029  -5.728  12.869  1.00  0.00     0.135 A 
ATOM     64  F   UNL     1     -12.265  -4.031  10.553  1.00  0.00    -0.206 F 
ATOM     65  C   UNL     1     -11.494  -3.368  12.666  1.00  0.00     0.059 A 
ATOM     66  C   UNL     1     -10.006  -4.815  13.922  1.00  0.00     0.059 A 
ATOM     67  F   UNL     1      -9.304  -6.850  12.995  1.00  0.00    -0.206 F 
ATOM     68  C   UNL     1     -10.727  -3.628  13.802  1.00  0.00     0.060 A 
BRANCH  68  69
ATOM     69  S   UNL     1     -10.683  -2.391  15.116  1.00  0.00     0.124 S 
ATOM     70  O   UNL     1      -9.875  -1.342  14.499  1.00  0.00    -0.237 OA
ATOM     71  O   UNL     1     -12.097  -2.077  15.296  1.00  0.00    -0.237 OA
ATOM     72  O   UNL     1     -10.053  -3.095  16.227  1.00  0.00    -0.744 OA
ENDBRANCH  68  69
ENDBRANCH  47  61
BRANCH  48  73
ATOM     73  C   UNL     1     -10.431 -12.144   4.297  1.00  0.00     0.058 A 
ATOM     74  C   UNL     1     -11.610 -12.566   3.660  1.00  0.00     0.135 A 
ATOM     75  C   UNL     1      -9.222 -12.706   3.861  1.00  0.00     0.135 A 
ATOM     76  F   UNL     1     -12.795 -12.069   4.047  1.00  0.00    -0.206 F 
ATOM     77  C   UNL     1     -11.594 -13.519   2.647  1.00  0.00     0.059 A 
ATOM     78  C   UNL     1      -9.177 -13.639   2.829  1.00  0.00     0.059 A 
ATOM     79  F   UNL     1      -8.064 -12.330   4.426  1.00  0.00    -0.206 F 
ATOM     80  C   UNL     1     -10.370 -14.048   2.235  1.00  0.00     0.060 A 
BRANCH  80  81
ATOM     81  S   UNL     1     -10.355 -15.247   0.883  1.00  0.00     0.124 S 
ATOM     82  O   UNL     1     -10.927 -16.424   1.527  1.00  0.00    -0.237 OA
ATOM     83  O   UNL     1     -11.197 -14.593  -0.114  1.00  0.00    -0.237 OA
ATOM     84  O   UNL     1      -8.941 -15.341   0.535  1.00  0.00    -0.744 OA
ENDBRANCH  80  81
ENDBRANCH  48  73
BRANCH  60  85
ATOM     85  C   UNL     1     -13.214 -12.222  10.694  1.00  0.00     0.058 A 
ATOM     86  C   UNL     1     -12.660 -13.421  11.171  1.00  0.00     0.135 A 
ATOM     87  C   UNL     1     -14.573 -11.981  10.961  1.00  0.00     0.135 A 
ATOM     88  F   UNL     1     -11.368 -13.706  10.946  1.00  0.00    -0.206 F 
ATOM     89  C   UNL     1     -13.433 -14.361  11.848  1.00  0.00     0.059 A 
ATOM     90  C   UNL     1     -15.355 -12.892  11.665  1.00  0.00     0.059 A 
ATOM     91  F   UNL     1     -15.153 -10.846  10.542  1.00  0.00    -0.206 F 
ATOM     92  C   UNL     1     -14.781 -14.089  12.087  1.00  0.00     0.060 A 
BRANCH  92  93
ATOM     93  S   UNL     1     -15.772 -15.315  12.969  1.00  0.00     0.124 S 
ATOM     94  O   UNL     1     -15.938 -16.346  11.950  1.00  0.00    -0.237 OA
ATOM     95  O   UNL     1     -14.909 -15.666  14.092  1.00  0.00    -0.237 OA
ATOM     96  O   UNL     1     -16.984 -14.581  13.323  1.00  0.00    -0.744 OA
ENDBRANCH  92  93
ENDBRANCH  60  85
ENDBRANCH  34  35
ENDBRANCH  26  29
ENDBRANCH  24  25
ENDBRANCH  23  24
ENDBRANCH   1  23
TORSDOF 18
