REMARK SMILES O=C(CCSC1=[NH+][C@@H]2C=Cc3nsnc3[C@@H]2N1)NCCCCNC(=O)c1ccc(-c2c3nc(c(-c4c(F)cc(S(=O)(=O)[O-])cc4F)c4ccc([nH]4)c(-c4c(F)cc(S(=O)(=O)[O-])cc4F)c4nc(c(-c5c(F)cc(S(=O)(=O)[O-])cc5F)c5ccc2[nH]5)C=C4)C=C3)cc1
REMARK SMILES IDX 20 1 19 2 18 3 1 4 2 5 3 7 4 8 5 9 6 10 7 11 17 12 8 13
REMARK SMILES IDX 16 15 9 17 15 18 10 19 11 20 14 21 12 22 13 23 21 24 22 25
REMARK SMILES IDX 23 26 24 27 25 29 26 30 27 31 91 32 28 33 90 34 29 35 30 36
REMARK SMILES IDX 31 37 84 38 32 39 89 40 83 41 85 42 33 43 88 44 82 45 81 46
REMARK SMILES IDX 34 48 68 49 47 50 67 51 48 52 51 53 66 54 86 55 49 56 50 57
REMARK SMILES IDX 65 59 87 60 52 61 35 62 36 63 45 64 37 65 38 66 44 67 46 68
REMARK SMILES IDX 39 69 40 70 41 71 42 72 43 73 69 74 70 75 79 76 71 77 72 78
REMARK SMILES IDX 78 79 80 80 73 81 74 82 75 83 76 84 77 85 53 86 54 87 63 88
REMARK SMILES IDX 55 89 56 90 62 91 64 92 57 93 58 94 59 95 60 96 61 97
REMARK H PARENT 18 6 7 14 17 16 23 28 85 47 51 58
REMARK Flexibility Score: inf
ROOT
ATOM      1  C   UNL     1       4.388  -3.606   0.298  1.00  0.00     0.023 C 
ENDROOT
BRANCH   1   2
ATOM      2  C   UNL     1       3.166  -2.905  -0.454  1.00  0.00     0.116 C 
BRANCH   2   3
ATOM      3  N   UNL     1       3.330  -1.497  -0.779  1.00  0.00    -0.356 N 
ATOM      4  O   UNL     1       1.239  -0.757  -0.123  1.00  0.00    -0.275 OA
ATOM      5  C   UNL     1       2.374  -0.522  -0.529  1.00  0.00     0.220 C 
ATOM      6  H   UNL     1       4.173  -1.217  -1.204  1.00  0.00     0.163 HD
BRANCH   5   7
ATOM      7  C   UNL     1       2.915   0.891  -0.609  1.00  0.00     0.111 C 
BRANCH   7   8
ATOM      8  C   UNL     1       3.317   1.394   0.775  1.00  0.00     0.092 C 
BRANCH   8   9
ATOM      9  S   UNL     1       4.528   0.331   1.563  1.00  0.00    -0.039 SA
BRANCH   9  10
ATOM     10  C   UNL     1       3.570  -0.815   2.498  1.00  0.00     0.305 C 
ATOM     11  N   UNL     1       3.531  -0.588   3.767  1.00  0.00    -0.258 N 
ATOM     12  N   UNL     1       3.186  -2.034   1.971  1.00  0.00    -0.256 N 
ATOM     13  C   UNL     1       3.339  -1.933   4.367  1.00  0.00     0.248 C 
ATOM     14  H   UNL     1       3.611   0.277   4.231  1.00  0.00     0.306 HD
ATOM     15  C   UNL     1       3.294  -3.246   2.873  1.00  0.00     0.274 C 
ATOM     16  H   UNL     1       2.857  -2.111   1.046  1.00  0.00     0.306 HD
ATOM     17  C   UNL     1       4.663  -2.055   5.663  1.00  0.00     0.029 C 
ATOM     18  C   UNL     1       4.710  -4.730   3.055  1.00  0.00     0.131 A 
ATOM     19  C   UNL     1       5.606  -3.123   5.851  1.00  0.00     0.032 C 
ATOM     20  C   UNL     1       5.681  -4.589   4.925  1.00  0.00     0.105 A 
ATOM     21  N   UNL     1       4.084  -6.246   2.763  1.00  0.00    -0.173 NA
ATOM     22  N   UNL     1       5.389  -6.022   5.869  1.00  0.00    -0.173 NA
ATOM     23  S   UNL     1       4.197  -7.529   4.602  1.00  0.00     0.069 S 
ENDBRANCH   9  10
ENDBRANCH   8   9
ENDBRANCH   7   8
ENDBRANCH   5   7
ENDBRANCH   2   3
ENDBRANCH   1   2
BRANCH   1  24
ATOM     24  C   UNL     1       5.433  -3.002   1.493  1.00  0.00     0.023 C 
BRANCH  24  25
ATOM     25  C   UNL     1       5.320  -2.807   3.378  1.00  0.00     0.116 C 
BRANCH  25  26
ATOM     26  N   UNL     1       4.006  -3.825   4.509  1.00  0.00    -0.352 N 
ATOM     27  C   UNL     1       4.068  -5.430   4.624  1.00  0.00     0.251 C 
ATOM     28  H   UNL     1       3.311  -3.333   5.002  1.00  0.00     0.163 HD
ATOM     29  O   UNL     1       2.957  -5.649   5.177  1.00  0.00    -0.269 OA
BRANCH  27  30
ATOM     30  C   UNL     1       5.945  -6.259   3.893  1.00  0.00     0.039 A 
ATOM     31  C   UNL     1       6.702  -7.504   4.349  1.00  0.00     0.014 A 
ATOM     32  C   UNL     1       7.196  -5.523   3.533  1.00  0.00     0.014 A 
ATOM     33  C   UNL     1       7.916  -7.579   5.153  1.00  0.00     0.010 A 
ATOM     34  C   UNL     1       8.414  -5.502   4.375  1.00  0.00     0.010 A 
ATOM     35  C   UNL     1       8.705  -6.463   5.357  1.00  0.00    -0.014 A 
BRANCH  35  36
ATOM     36  C   UNL     1       9.943  -6.456   6.266  1.00  0.00     0.031 A 
ATOM     37  C   UNL     1      10.863  -5.266   6.080  1.00  0.00     0.074 A 
ATOM     38  C   UNL     1      10.111  -7.024   7.503  1.00  0.00     0.049 A 
ATOM     39  N   UNL     1      10.763  -4.106   6.670  1.00  0.00    -0.248 NA
ATOM     40  C   UNL     1      11.845  -5.289   4.994  1.00  0.00     0.031 C 
ATOM     41  C   UNL     1       9.178  -6.844   8.628  1.00  0.00     0.029 A 
ATOM     42  N   UNL     1      11.264  -7.525   8.132  1.00  0.00    -0.354 N 
ATOM     43  C   UNL     1      11.632  -3.235   6.018  1.00  0.00     0.074 A 
ATOM     44  C   UNL     1      12.257  -4.014   4.969  1.00  0.00     0.031 C 
ATOM     45  C   UNL     1       9.822  -7.100   9.792  1.00  0.00     0.029 A 
ATOM     46  C   UNL     1      11.180  -7.590   9.530  1.00  0.00     0.049 A 
ATOM     47  H   UNL     1      12.065  -7.806   7.632  1.00  0.00     0.167 HD
ATOM     48  C   UNL     1      11.824  -1.925   6.345  1.00  0.00     0.037 A 
ATOM     49  C   UNL     1      12.200  -7.553  10.449  1.00  0.00     0.037 A 
ATOM     50  C   UNL     1      11.185  -1.464   7.541  1.00  0.00     0.049 A 
ATOM     51  C   UNL     1      12.445  -6.074  10.552  1.00  0.00     0.074 A 
ATOM     52  C   UNL     1      10.061  -0.760   7.917  1.00  0.00     0.029 A 
ATOM     53  N   UNL     1      11.845  -1.673   8.729  1.00  0.00    -0.354 N 
ATOM     54  N   UNL     1      11.771  -5.202  11.248  1.00  0.00    -0.248 NA
ATOM     55  C   UNL     1      13.303  -5.510   9.512  1.00  0.00     0.031 C 
ATOM     56  C   UNL     1       9.879  -1.044   9.310  1.00  0.00     0.029 A 
ATOM     57  C   UNL     1      10.893  -1.925   9.679  1.00  0.00     0.049 A 
ATOM     58  H   UNL     1      12.819  -1.646   8.870  1.00  0.00     0.167 HD
ATOM     59  C   UNL     1      11.892  -4.006  10.537  1.00  0.00     0.074 A 
ATOM     60  C   UNL     1      12.867  -4.262   9.494  1.00  0.00     0.031 C 
ATOM     61  C   UNL     1      11.053  -2.941  10.695  1.00  0.00     0.037 A 
BRANCH  48  62
ATOM     62  C   UNL     1      12.764  -0.999   5.658  1.00  0.00     0.058 A 
ATOM     63  C   UNL     1      13.959  -0.640   6.303  1.00  0.00     0.135 A 
ATOM     64  C   UNL     1      12.399  -0.281   4.512  1.00  0.00     0.135 A 
ATOM     65  F   UNL     1      14.350  -1.302   7.405  1.00  0.00    -0.206 F 
ATOM     66  C   UNL     1      14.733   0.430   5.871  1.00  0.00     0.059 A 
ATOM     67  C   UNL     1      13.167   0.792   4.052  1.00  0.00     0.059 A 
ATOM     68  F   UNL     1      11.265  -0.579   3.859  1.00  0.00    -0.206 F 
ATOM     69  C   UNL     1      14.317   1.156   4.756  1.00  0.00     0.060 A 
BRANCH  69  70
ATOM     70  S   UNL     1      15.289   2.602   4.273  1.00  0.00     0.124 S 
ATOM     71  O   UNL     1      15.118   3.479   5.426  1.00  0.00    -0.237 OA
ATOM     72  O   UNL     1      16.619   2.028   4.101  1.00  0.00    -0.237 OA
ATOM     73  O   UNL     1      14.641   3.051   3.044  1.00  0.00    -0.744 OA
ENDBRANCH  69  70
ENDBRANCH  48  62
BRANCH  49  74
ATOM     74  C   UNL     1      13.351  -8.525  10.409  1.00  0.00     0.058 A 
ATOM     75  C   UNL     1      13.055  -9.900  10.402  1.00  0.00     0.135 A 
ATOM     76  C   UNL     1      14.725  -8.207  10.431  1.00  0.00     0.135 A 
ATOM     77  F   UNL     1      11.791 -10.316  10.577  1.00  0.00    -0.206 F 
ATOM     78  C   UNL     1      14.034 -10.879  10.219  1.00  0.00     0.059 A 
ATOM     79  C   UNL     1      15.724  -9.161  10.210  1.00  0.00     0.059 A 
ATOM     80  F   UNL     1      15.149  -6.954  10.652  1.00  0.00    -0.206 F 
ATOM     81  C   UNL     1      15.361 -10.492  10.052  1.00  0.00     0.060 A 
BRANCH  81  82
ATOM     82  S   UNL     1      16.561 -11.727   9.507  1.00  0.00     0.124 S 
ATOM     83  O   UNL     1      16.632 -12.618  10.659  1.00  0.00    -0.237 OA
ATOM     84  O   UNL     1      15.905 -12.271   8.321  1.00  0.00    -0.237 OA
ATOM     85  O   UNL     1      17.762 -10.941   9.242  1.00  0.00    -0.744 OA
ENDBRANCH  81  82
ENDBRANCH  49  74
BRANCH  61  86
ATOM     86  C   UNL     1      10.097  -3.016  11.839  1.00  0.00     0.058 A 
ATOM     87  C   UNL     1      10.552  -2.886  13.159  1.00  0.00     0.135 A 
ATOM     88  C   UNL     1       8.714  -3.152  11.636  1.00  0.00     0.135 A 
ATOM     89  F   UNL     1      11.863  -2.743  13.414  1.00  0.00    -0.206 F 
ATOM     90  C   UNL     1       9.666  -2.854  14.233  1.00  0.00     0.059 A 
ATOM     91  C   UNL     1       7.809  -3.099  12.692  1.00  0.00     0.059 A 
ATOM     92  F   UNL     1       8.216  -3.305  10.398  1.00  0.00    -0.206 F 
ATOM     93  C   UNL     1       8.294  -2.942  13.988  1.00  0.00     0.060 A 
BRANCH  93  94
ATOM     94  S   UNL     1       7.155  -2.765  15.377  1.00  0.00     0.124 S 
ATOM     95  O   UNL     1       7.368  -4.009  16.109  1.00  0.00    -0.237 OA
ATOM     96  O   UNL     1       7.647  -1.555  16.031  1.00  0.00    -0.237 OA
ATOM     97  O   UNL     1       5.849  -2.631  14.737  1.00  0.00    -0.744 OA
ENDBRANCH  93  94
ENDBRANCH  61  86
ENDBRANCH  35  36
ENDBRANCH  27  30
ENDBRANCH  25  26
ENDBRANCH  24  25
ENDBRANCH   1  24
TORSDOF 17
