REMARK SMILES Cn1cncc1COc1c(F)cc(C(=O)NCCCCNC(=O)c2ccc(-c3c4nc(c(-c5c(F)cc(S(=O)(=O)[O-])cc5F)c5ccc([nH]5)c(-c5c(F)cc(S(=O)(=O)[O-])cc5F)c5nc(c(-c6c(F)cc(S(=O)(=O)[O-])cc6F)c6ccc3[nH]6)C=C5)C=C4)cc2)cc1F
REMARK SMILES IDX 18 1 17 2 16 3 14 4 15 5 13 7 9 8 10 9 91 10 11 11 12 12
REMARK SMILES IDX 90 13 92 14 8 15 7 16 6 17 1 18 2 19 3 20 4 21 5 22 19 23
REMARK SMILES IDX 20 24 21 25 22 26 23 28 24 29 25 30 89 31 26 32 88 33 27 34
REMARK SMILES IDX 28 35 29 36 82 37 30 38 87 39 81 40 83 41 31 42 86 43 80 44
REMARK SMILES IDX 79 45 32 47 66 48 45 49 65 50 46 51 49 52 64 53 84 54 47 55
REMARK SMILES IDX 48 56 63 58 85 59 50 60 33 61 34 62 43 63 35 64 36 65 42 66
REMARK SMILES IDX 44 67 37 68 38 69 39 70 40 71 41 72 67 73 68 74 77 75 69 76
REMARK SMILES IDX 70 77 76 78 78 79 71 80 72 81 73 82 74 83 75 84 51 85 52 86
REMARK SMILES IDX 61 87 53 88 54 89 60 90 62 91 55 92 56 93 57 94 58 95 59 96
REMARK H PARENT 16 6 21 27 83 46 49 57
REMARK Flexibility Score: inf
ROOT
ATOM      1  C   UNL     1      -0.580   1.740   6.055  1.00  0.00     0.023 C 
ENDROOT
BRANCH   1   2
ATOM      2  C   UNL     1       0.818   1.113   6.046  1.00  0.00     0.116 C 
BRANCH   2   3
ATOM      3  N   UNL     1       0.860  -0.133   6.793  1.00  0.00    -0.352 N 
ATOM      4  C   UNL     1       0.795  -1.444   6.387  1.00  0.00     0.251 C 
ATOM      5  O   UNL     1       1.012  -2.325   7.218  1.00  0.00    -0.269 OA
ATOM      6  H   UNL     1       0.952  -0.016   7.766  1.00  0.00     0.163 HD
BRANCH   4   7
ATOM      7  C   UNL     1       0.496  -1.851   4.986  1.00  0.00     0.045 A 
ATOM      8  C   UNL     1      -0.061  -2.746   2.367  1.00  0.00     0.191 A 
ATOM      9  C   UNL     1      -0.581  -1.550   2.842  1.00  0.00     0.168 A 
ATOM     10  C   UNL     1       0.681  -3.534   3.241  1.00  0.00     0.168 A 
ATOM     11  F   UNL     1      -1.391  -0.799   2.088  1.00  0.00    -0.203 F 
ATOM     12  C   UNL     1      -0.304  -1.102   4.127  1.00  0.00     0.057 A 
ATOM     13  C   UNL     1       0.962  -3.098   4.540  1.00  0.00     0.057 A 
ATOM     14  F   UNL     1       1.136  -4.731   2.846  1.00  0.00    -0.203 F 
BRANCH   8  15
ATOM     15  O   UNL     1      -0.371  -3.191   1.110  1.00  0.00    -0.481 OA
BRANCH  15  16
ATOM     16  C   UNL     1       0.525  -2.671   0.111  1.00  0.00     0.285 C 
BRANCH  16  17
ATOM     17  C   UNL     1       0.027  -1.349  -0.359  1.00  0.00     0.075 A 
ATOM     18  C   UNL     1       2.165  -0.030  -0.095  1.00  0.00     0.151 C 
ATOM     19  N   UNL     1       0.765  -0.190  -0.402  1.00  0.00    -0.335 N 
ATOM     20  C   UNL     1      -0.065   0.821  -0.800  1.00  0.00     0.199 A 
ATOM     21  N   UNL     1      -1.267   0.376  -1.079  1.00  0.00    -0.245 NA
ATOM     22  C   UNL     1      -1.225  -0.966  -0.802  1.00  0.00     0.138 A 
ENDBRANCH  16  17
ENDBRANCH  15  16
ENDBRANCH   8  15
ENDBRANCH   4   7
ENDBRANCH   2   3
ENDBRANCH   1   2
BRANCH   1  23
ATOM     23  C   UNL     1      -0.910   2.593   7.278  1.00  0.00     0.023 C 
BRANCH  23  24
ATOM     24  C   UNL     1      -0.037   3.826   7.463  1.00  0.00     0.116 C 
BRANCH  24  25
ATOM     25  N   UNL     1      -0.047   4.726   6.322  1.00  0.00    -0.352 N 
ATOM     26  C   UNL     1       0.131   6.091   6.310  1.00  0.00     0.251 C 
ATOM     27  H   UNL     1      -0.200   4.305   5.445  1.00  0.00     0.163 HD
ATOM     28  O   UNL     1       0.008   6.717   5.267  1.00  0.00    -0.269 OA
BRANCH  26  29
ATOM     29  C   UNL     1       0.425   6.793   7.579  1.00  0.00     0.039 A 
ATOM     30  C   UNL     1      -0.312   7.936   7.898  1.00  0.00     0.014 A 
ATOM     31  C   UNL     1       1.395   6.312   8.462  1.00  0.00     0.014 A 
ATOM     32  C   UNL     1      -0.114   8.562   9.130  1.00  0.00     0.010 A 
ATOM     33  C   UNL     1       1.535   6.889   9.720  1.00  0.00     0.010 A 
ATOM     34  C   UNL     1       0.788   8.025  10.064  1.00  0.00    -0.014 A 
BRANCH  34  35
ATOM     35  C   UNL     1       0.965   8.650  11.399  1.00  0.00     0.031 A 
ATOM     36  C   UNL     1       2.287   9.260  11.778  1.00  0.00     0.074 A 
ATOM     37  C   UNL     1      -0.055   8.636  12.280  1.00  0.00     0.049 A 
ATOM     38  N   UNL     1       2.636   9.842  12.896  1.00  0.00    -0.248 NA
ATOM     39  C   UNL     1       3.368   9.181  10.782  1.00  0.00     0.031 C 
ATOM     40  C   UNL     1      -1.364   8.021  12.049  1.00  0.00     0.029 A 
ATOM     41  N   UNL     1      -0.153   9.155  13.546  1.00  0.00    -0.354 N 
ATOM     42  C   UNL     1       3.973  10.191  12.741  1.00  0.00     0.074 A 
ATOM     43  C   UNL     1       4.390   9.702  11.446  1.00  0.00     0.031 C 
ATOM     44  C   UNL     1      -2.145   8.231  13.121  1.00  0.00     0.029 A 
ATOM     45  C   UNL     1      -1.386   8.970  14.125  1.00  0.00     0.049 A 
ATOM     46  H   UNL     1       0.591   9.616  13.998  1.00  0.00     0.167 HD
ATOM     47  C   UNL     1       4.771  10.884  13.588  1.00  0.00     0.037 A 
ATOM     48  C   UNL     1      -1.855   9.361  15.326  1.00  0.00     0.037 A 
ATOM     49  C   UNL     1       4.340  11.393  14.863  1.00  0.00     0.049 A 
ATOM     50  C   UNL     1      -0.959  10.155  16.237  1.00  0.00     0.074 A 
ATOM     51  C   UNL     1       5.057  12.146  15.777  1.00  0.00     0.029 A 
ATOM     52  N   UNL     1       3.075  11.208  15.403  1.00  0.00    -0.354 N 
ATOM     53  N   UNL     1       0.287  10.522  16.052  1.00  0.00    -0.248 NA
ATOM     54  C   UNL     1      -1.534  10.598  17.514  1.00  0.00     0.031 C 
ATOM     55  C   UNL     1       4.237  12.386  16.884  1.00  0.00     0.029 A 
ATOM     56  C   UNL     1       2.994  11.824  16.641  1.00  0.00     0.049 A 
ATOM     57  H   UNL     1       2.344  10.711  14.971  1.00  0.00     0.167 HD
ATOM     58  C   UNL     1       0.636  11.261  17.176  1.00  0.00     0.074 A 
ATOM     59  C   UNL     1      -0.534  11.300  18.029  1.00  0.00     0.031 C 
ATOM     60  C   UNL     1       1.819  11.855  17.475  1.00  0.00     0.037 A 
BRANCH  47  61
ATOM     61  C   UNL     1       6.187  11.146  13.153  1.00  0.00     0.058 A 
ATOM     62  C   UNL     1       7.264  10.522  13.803  1.00  0.00     0.135 A 
ATOM     63  C   UNL     1       6.481  12.044  12.114  1.00  0.00     0.135 A 
ATOM     64  F   UNL     1       7.040   9.652  14.800  1.00  0.00    -0.206 F 
ATOM     65  C   UNL     1       8.584  10.779  13.441  1.00  0.00     0.059 A 
ATOM     66  C   UNL     1       7.791  12.294  11.718  1.00  0.00     0.059 A 
ATOM     67  F   UNL     1       5.490  12.654  11.446  1.00  0.00    -0.206 F 
ATOM     68  C   UNL     1       8.836  11.658  12.389  1.00  0.00     0.060 A 
BRANCH  68  69
ATOM     69  S   UNL     1      10.528  12.001  11.863  1.00  0.00     0.124 S 
ATOM     70  O   UNL     1      10.572  11.331  10.567  1.00  0.00    -0.237 OA
ATOM     71  O   UNL     1      10.551  13.460  11.824  1.00  0.00    -0.237 OA
ATOM     72  O   UNL     1      11.341  11.391  12.911  1.00  0.00    -0.744 OA
ENDBRANCH  68  69
ENDBRANCH  47  61
BRANCH  48  73
ATOM     73  C   UNL     1      -3.258   9.051  15.710  1.00  0.00     0.058 A 
ATOM     74  C   UNL     1      -3.661   7.740  16.007  1.00  0.00     0.135 A 
ATOM     75  C   UNL     1      -4.231  10.061  15.759  1.00  0.00     0.135 A 
ATOM     76  F   UNL     1      -2.773   6.736  15.956  1.00  0.00    -0.206 F 
ATOM     77  C   UNL     1      -4.980   7.436  16.330  1.00  0.00     0.059 A 
ATOM     78  C   UNL     1      -5.551   9.786  16.103  1.00  0.00     0.059 A 
ATOM     79  F   UNL     1      -3.894  11.331  15.487  1.00  0.00    -0.206 F 
ATOM     80  C   UNL     1      -5.917   8.468  16.382  1.00  0.00     0.060 A 
BRANCH  80  81
ATOM     81  S   UNL     1      -7.645   8.117  16.774  1.00  0.00     0.124 S 
ATOM     82  O   UNL     1      -7.776   8.720  18.095  1.00  0.00    -0.237 OA
ATOM     83  O   UNL     1      -8.346   8.796  15.689  1.00  0.00    -0.237 OA
ATOM     84  O   UNL     1      -7.708   6.659  16.736  1.00  0.00    -0.744 OA
ENDBRANCH  80  81
ENDBRANCH  48  73
BRANCH  60  85
ATOM     85  C   UNL     1       1.898  12.624  18.764  1.00  0.00     0.058 A 
ATOM     86  C   UNL     1       1.978  14.027  18.750  1.00  0.00     0.135 A 
ATOM     87  C   UNL     1       1.938  11.977  20.009  1.00  0.00     0.135 A 
ATOM     88  F   UNL     1       1.958  14.694  17.585  1.00  0.00    -0.206 F 
ATOM     89  C   UNL     1       2.093  14.763  19.925  1.00  0.00     0.059 A 
ATOM     90  C   UNL     1       2.024  12.695  21.197  1.00  0.00     0.059 A 
ATOM     91  F   UNL     1       1.861  10.639  20.077  1.00  0.00    -0.206 F 
ATOM     92  C   UNL     1       2.100  14.088  21.144  1.00  0.00     0.060 A 
BRANCH  92  93
ATOM     93  S   UNL     1       2.227  15.005  22.694  1.00  0.00     0.124 S 
ATOM     94  O   UNL     1       0.877  14.865  23.230  1.00  0.00    -0.237 OA
ATOM     95  O   UNL     1       3.271  14.273  23.405  1.00  0.00    -0.237 OA
ATOM     96  O   UNL     1       2.595  16.351  22.264  1.00  0.00    -0.744 OA
ENDBRANCH  92  93
ENDBRANCH  60  85
ENDBRANCH  34  35
ENDBRANCH  26  29
ENDBRANCH  24  25
ENDBRANCH  23  24
ENDBRANCH   1  23
TORSDOF 17
