REMARK SMILES O=C(NCCCCNC(=O)c1ccc(-c2c3nc(c(-c4c(F)cc(S(=O)(=O)[O-])cc4F)c4ccc([nH]4)c(-c4c(F)cc(S(=O)(=O)[O-])cc4F)c4nc(c(-c5c(F)cc(S(=O)(=O)[O-])cc5F)c5ccc2[nH]5)C=C4)C=C3)cc1)C1=Cc2cc(Cl)cc(-c3ccc(Cl)cc3)c2O[C@@H]1C(F)(F)F
REMARK SMILES IDX 6 1 5 2 4 3 3 4 1 5 2 6 77 8 78 9 94 10 79 11 93 12 80 13
REMARK SMILES IDX 92 14 81 15 84 16 82 17 83 18 95 19 96 20 97 21 98 22 85 23
REMARK SMILES IDX 86 24 91 25 87 26 90 27 88 28 89 29 7 30 8 31 9 32 10 34
REMARK SMILES IDX 11 35 12 36 76 37 13 38 75 39 14 40 15 41 16 42 69 43 17 44
REMARK SMILES IDX 74 45 68 46 70 47 18 48 73 49 67 50 66 51 19 53 53 54 32 55
REMARK SMILES IDX 52 56 33 57 36 58 51 59 71 60 34 61 35 62 50 64 72 65 37 66
REMARK SMILES IDX 20 67 21 68 30 69 22 70 23 71 29 72 31 73 24 74 25 75 26 76
REMARK SMILES IDX 27 77 28 78 54 79 55 80 64 81 56 82 57 83 63 84 65 85 58 86
REMARK SMILES IDX 59 87 60 88 61 89 62 90 38 91 39 92 48 93 40 94 41 95 47 96
REMARK SMILES IDX 49 97 42 98 43 99 44 100 45 101 46 102
REMARK H PARENT 3 7 8 33 70 52 36 63
REMARK Flexibility Score: inf
ROOT
ATOM      1  C   UNL     1       3.979   3.281   3.158  1.00  0.00     0.023 C 
ENDROOT
BRANCH   1   2
ATOM      2  C   UNL     1       4.175   2.795   1.719  1.00  0.00     0.023 C 
BRANCH   2   3
ATOM      3  C   UNL     1       3.629   1.397   1.420  1.00  0.00     0.116 C 
BRANCH   3   4
ATOM      4  N   UNL     1       2.492   1.394   0.497  1.00  0.00    -0.352 N 
ATOM      5  O   UNL     1       1.086   0.583  -1.078  1.00  0.00    -0.270 OA
ATOM      6  C   UNL     1       2.203   0.579  -0.573  1.00  0.00     0.251 C 
ATOM      7  H   UNL     1       1.822   2.094   0.671  1.00  0.00     0.163 HD
BRANCH   6   8
ATOM      8  C   UNL     1       3.208  -0.423  -0.991  1.00  0.00     0.067 C 
ATOM      9  C   UNL     1       4.413  -0.125  -1.498  1.00  0.00     0.025 C 
ATOM     10  C   UNL     1       2.953  -1.833  -0.565  1.00  0.00     0.314 C 
ATOM     11  C   UNL     1       5.480  -0.705  -0.638  1.00  0.00     0.019 A 
ATOM     12  O   UNL     1       3.891  -2.213   0.462  1.00  0.00    -0.475 OA
ATOM     13  C   UNL     1       6.714  -0.043  -0.591  1.00  0.00     0.032 A 
ATOM     14  C   UNL     1       5.134  -1.609   0.407  1.00  0.00     0.135 A 
ATOM     15  C   UNL     1       7.570  -0.252   0.488  1.00  0.00     0.042 A 
ATOM     16  C   UNL     1       5.970  -1.772   1.537  1.00  0.00     0.026 A 
ATOM     17  Cl  UNL     1       9.036   0.645   0.597  1.00  0.00    -0.084 Cl
ATOM     18  C   UNL     1       7.205  -1.095   1.537  1.00  0.00     0.033 A 
BRANCH  10  19
ATOM     19  C   UNL     1       2.983  -2.790  -1.780  1.00  0.00     0.429 C 
ATOM     20  F   UNL     1       2.641  -4.052  -1.427  1.00  0.00    -0.167 F 
ATOM     21  F   UNL     1       2.111  -2.404  -2.744  1.00  0.00    -0.167 F 
ATOM     22  F   UNL     1       4.204  -2.865  -2.366  1.00  0.00    -0.167 F 
ENDBRANCH  10  19
BRANCH  16  23
ATOM     23  C   UNL     1       5.531  -2.470   2.771  1.00  0.00    -0.015 A 
ATOM     24  C   UNL     1       5.647  -1.831   4.024  1.00  0.00     0.010 A 
ATOM     25  C   UNL     1       4.983  -3.762   2.754  1.00  0.00     0.010 A 
ATOM     26  C   UNL     1       5.263  -2.463   5.209  1.00  0.00     0.021 A 
ATOM     27  C   UNL     1       4.584  -4.394   3.939  1.00  0.00     0.021 A 
ATOM     28  C   UNL     1       4.734  -3.745   5.161  1.00  0.00     0.041 A 
ATOM     29  Cl  UNL     1       4.269  -4.531   6.618  1.00  0.00    -0.084 Cl
ENDBRANCH  16  23
ENDBRANCH   6   8
ENDBRANCH   3   4
ENDBRANCH   2   3
ENDBRANCH   1   2
BRANCH   1  30
ATOM     30  C   UNL     1       4.530   2.386   4.268  1.00  0.00     0.116 C 
BRANCH  30  31
ATOM     31  N   UNL     1       5.946   2.078   4.166  1.00  0.00    -0.352 N 
ATOM     32  C   UNL     1       6.831   1.760   5.185  1.00  0.00     0.251 C 
ATOM     33  H   UNL     1       6.326   2.097   3.258  1.00  0.00     0.163 HD
ATOM     34  O   UNL     1       7.995   1.531   4.936  1.00  0.00    -0.269 OA
BRANCH  32  35
ATOM     35  C   UNL     1       6.341   1.736   6.588  1.00  0.00     0.039 A 
ATOM     36  C   UNL     1       7.044   2.461   7.555  1.00  0.00     0.014 A 
ATOM     37  C   UNL     1       5.171   1.056   6.934  1.00  0.00     0.014 A 
ATOM     38  C   UNL     1       6.510   2.596   8.840  1.00  0.00     0.010 A 
ATOM     39  C   UNL     1       4.615   1.230   8.197  1.00  0.00     0.010 A 
ATOM     40  C   UNL     1       5.265   2.027   9.150  1.00  0.00    -0.014 A 
BRANCH  40  41
ATOM     41  C   UNL     1       4.569   2.338  10.421  1.00  0.00     0.031 A 
ATOM     42  C   UNL     1       4.361   1.279  11.463  1.00  0.00     0.074 A 
ATOM     43  C   UNL     1       4.030   3.564  10.574  1.00  0.00     0.049 A 
ATOM     44  N   UNL     1       3.756   1.370  12.619  1.00  0.00    -0.248 NA
ATOM     45  C   UNL     1       4.875  -0.063  11.153  1.00  0.00     0.031 C 
ATOM     46  C   UNL     1       4.105   4.647   9.589  1.00  0.00     0.029 A 
ATOM     47  N   UNL     1       3.299   4.103  11.602  1.00  0.00    -0.354 N 
ATOM     48  C   UNL     1       3.819   0.100  13.179  1.00  0.00     0.074 A 
ATOM     49  C   UNL     1       4.472  -0.755  12.210  1.00  0.00     0.031 C 
ATOM     50  C   UNL     1       3.465   5.725  10.069  1.00  0.00     0.029 A 
ATOM     51  C   UNL     1       2.915   5.404  11.382  1.00  0.00     0.049 A 
ATOM     52  H   UNL     1       3.071   3.604  12.420  1.00  0.00     0.167 HD
ATOM     53  C   UNL     1       3.387  -0.307  14.398  1.00  0.00     0.037 A 
ATOM     54  C   UNL     1       2.206   6.247  12.157  1.00  0.00     0.037 A 
ATOM     55  C   UNL     1       2.730   0.557  15.346  1.00  0.00     0.049 A 
ATOM     56  C   UNL     1       1.737   5.774  13.504  1.00  0.00     0.074 A 
ATOM     57  C   UNL     1       2.315   0.268  16.634  1.00  0.00     0.029 A 
ATOM     58  N   UNL     1       2.375   1.877  15.100  1.00  0.00    -0.354 N 
ATOM     59  N   UNL     1       1.899   4.599  14.067  1.00  0.00    -0.248 NA
ATOM     60  C   UNL     1       1.001   6.742  14.327  1.00  0.00     0.031 C 
ATOM     61  C   UNL     1       1.668   1.398  17.149  1.00  0.00     0.029 A 
ATOM     62  C   UNL     1       1.722   2.408  16.201  1.00  0.00     0.049 A 
ATOM     63  H   UNL     1       2.560   2.365  14.265  1.00  0.00     0.167 HD
ATOM     64  C   UNL     1       1.314   4.697  15.324  1.00  0.00     0.074 A 
ATOM     65  C   UNL     1       0.801   6.048  15.439  1.00  0.00     0.031 C 
ATOM     66  C   UNL     1       1.216   3.756  16.296  1.00  0.00     0.037 A 
BRANCH  53  67
ATOM     67  C   UNL     1       3.612  -1.749  14.767  1.00  0.00     0.058 A 
ATOM     68  C   UNL     1       4.902  -2.256  15.001  1.00  0.00     0.135 A 
ATOM     69  C   UNL     1       2.531  -2.635  14.899  1.00  0.00     0.135 A 
ATOM     70  F   UNL     1       5.975  -1.458  14.879  1.00  0.00    -0.206 F 
ATOM     71  C   UNL     1       5.114  -3.595  15.311  1.00  0.00     0.059 A 
ATOM     72  C   UNL     1       2.717  -3.973  15.237  1.00  0.00     0.059 A 
ATOM     73  F   UNL     1       1.276  -2.206  14.691  1.00  0.00    -0.206 F 
ATOM     74  C   UNL     1       4.015  -4.448  15.421  1.00  0.00     0.060 A 
BRANCH  74  75
ATOM     75  S   UNL     1       4.308  -6.188  15.805  1.00  0.00     0.124 S 
ATOM     76  O   UNL     1       4.831  -6.682  14.535  1.00  0.00    -0.237 OA
ATOM     77  O   UNL     1       5.272  -6.110  16.898  1.00  0.00    -0.237 OA
ATOM     78  O   UNL     1       2.986  -6.682  16.174  1.00  0.00    -0.744 OA
ENDBRANCH  74  75
ENDBRANCH  53  67
BRANCH  54  79
ATOM     79  C   UNL     1       1.958   7.640  11.701  1.00  0.00     0.058 A 
ATOM     80  C   UNL     1       2.635   8.716  12.293  1.00  0.00     0.135 A 
ATOM     81  C   UNL     1       1.073   7.923  10.649  1.00  0.00     0.135 A 
ATOM     82  F   UNL     1       3.489   8.495  13.305  1.00  0.00    -0.206 F 
ATOM     83  C   UNL     1       2.438  10.025  11.868  1.00  0.00     0.059 A 
ATOM     84  C   UNL     1       0.876   9.223  10.190  1.00  0.00     0.059 A 
ATOM     85  F   UNL     1       0.416   6.927  10.035  1.00  0.00    -0.206 F 
ATOM     86  C   UNL     1       1.559  10.268  10.812  1.00  0.00     0.060 A 
BRANCH  86  87
ATOM     87  S   UNL     1       1.361  11.966  10.227  1.00  0.00     0.124 S 
ATOM     88  O   UNL     1       0.579  12.558  11.306  1.00  0.00    -0.237 OA
ATOM     89  O   UNL     1       2.745  12.415  10.118  1.00  0.00    -0.237 OA
ATOM     90  O   UNL     1       0.662  11.802   8.956  1.00  0.00    -0.744 OA
ENDBRANCH  86  87
ENDBRANCH  54  79
BRANCH  66  91
ATOM     91  C   UNL     1       0.554   4.169  17.582  1.00  0.00     0.058 A 
ATOM     92  C   UNL     1      -0.831   4.377  17.666  1.00  0.00     0.135 A 
ATOM     93  C   UNL     1       1.315   4.333  18.751  1.00  0.00     0.135 A 
ATOM     94  F   UNL     1      -1.603   4.242  16.576  1.00  0.00    -0.206 F 
ATOM     95  C   UNL     1      -1.436   4.762  18.858  1.00  0.00     0.059 A 
ATOM     96  C   UNL     1       0.727   4.690  19.960  1.00  0.00     0.059 A 
ATOM     97  F   UNL     1       2.643   4.138  18.726  1.00  0.00    -0.206 F 
ATOM     98  C   UNL     1      -0.647   4.918  20.000  1.00  0.00     0.060 A 
BRANCH  98  99
ATOM     99  S   UNL     1      -1.446   5.400  21.545  1.00  0.00     0.124 S 
ATOM    100  O   UNL     1      -1.700   6.818  21.314  1.00  0.00    -0.237 OA
ATOM    101  O   UNL     1      -2.625   4.540  21.571  1.00  0.00    -0.237 OA
ATOM    102  O   UNL     1      -0.436   5.098  22.556  1.00  0.00    -0.744 OA
ENDBRANCH  98  99
ENDBRANCH  66  91
ENDBRANCH  40  41
ENDBRANCH  32  35
ENDBRANCH  30  31
ENDBRANCH   1  30
TORSDOF 16
