REMARK SMILES C[C@H]1[C@H](C(=O)NCCCCNC(=O)c2ccc(-c3c4nc(c(-c5c(F)cc(S(=O)(=O)[O-])cc5F)c5ccc([nH]5)c(-c5c(F)cc(S(=O)(=O)[O-])cc5F)c5nc(c(-c6c(F)cc(S(=O)(=O)[O-])cc6F)c6ccc3[nH]6)C=C5)C=C4)cc2)CCN1C(=O)[C@H]1CC=CCC1
REMARK SMILES IDX 9 1 8 2 7 3 6 4 4 5 5 6 3 8 1 9 2 10 82 11 80 12 81 13 83 14
REMARK SMILES IDX 84 15 85 16 86 17 90 18 87 19 89 20 88 21 10 22 11 23 12 24
REMARK SMILES IDX 13 26 14 27 15 28 79 29 16 30 78 31 17 32 18 33 19 34 72 35
REMARK SMILES IDX 20 36 77 37 71 38 73 39 21 40 76 41 70 42 69 43 22 45 56 46
REMARK SMILES IDX 35 47 55 48 36 49 39 50 54 51 74 52 37 53 38 54 53 56 75 57
REMARK SMILES IDX 40 58 23 59 24 60 33 61 25 62 26 63 32 64 34 65 27 66 28 67
REMARK SMILES IDX 29 68 30 69 31 70 57 71 58 72 67 73 59 74 60 75 66 76 68 77
REMARK SMILES IDX 61 78 62 79 63 80 64 81 65 82 41 83 42 84 51 85 43 86 44 87
REMARK SMILES IDX 50 88 52 89 45 90 46 91 47 92 48 93 49 94
REMARK H PARENT 6 7 11 25 73 44 39 55
REMARK Flexibility Score: inf
ROOT
ATOM      1  C   UNL     1      -0.406   0.932   5.374  1.00  0.00     0.023 C 
ENDROOT
BRANCH   1   2
ATOM      2  C   UNL     1      -0.233   0.087   4.123  1.00  0.00     0.023 C 
BRANCH   2   3
ATOM      3  C   UNL     1      -0.996   0.558   2.891  1.00  0.00     0.116 C 
BRANCH   3   4
ATOM      4  N   UNL     1      -0.476   1.804   2.362  1.00  0.00    -0.356 N 
ATOM      5  C   UNL     1      -0.200   2.193   1.092  1.00  0.00     0.225 C 
ATOM      6  O   UNL     1       0.206   3.350   0.936  1.00  0.00    -0.275 OA
ATOM      7  H   UNL     1      -0.291   2.489   3.045  1.00  0.00     0.163 HD
BRANCH   5   8
ATOM      8  C   UNL     1      -0.328   1.281  -0.119  1.00  0.00     0.102 C 
ATOM      9  C   UNL     1       1.490   0.268  -1.502  1.00  0.00     0.032 C 
ATOM     10  C   UNL     1       0.751   0.183  -0.163  1.00  0.00     0.094 C 
ATOM     11  N   UNL     1       0.017  -1.074  -0.033  1.00  0.00    -0.339 N 
ATOM     12  C   UNL     1      -1.676   0.584  -0.295  1.00  0.00     0.037 C 
ATOM     13  C   UNL     1      -1.351  -0.890  -0.494  1.00  0.00     0.120 C 
BRANCH  11  14
ATOM     14  C   UNL     1       0.411  -2.316   0.410  1.00  0.00     0.226 C 
ATOM     15  O   UNL     1      -0.407  -3.250   0.365  1.00  0.00    -0.275 OA
BRANCH  14  16
ATOM     16  C   UNL     1       1.797  -2.638   1.003  1.00  0.00     0.083 C 
ATOM     17  C   UNL     1       2.994  -2.536   0.058  1.00  0.00     0.040 C 
ATOM     18  C   UNL     1       2.062  -2.123   2.420  1.00  0.00     0.018 C 
ATOM     19  C   UNL     1       3.953  -1.421   0.344  1.00  0.00    -0.030 C 
ATOM     20  C   UNL     1       2.899  -0.848   2.530  1.00  0.00     0.028 C 
ATOM     21  C   UNL     1       3.913  -0.670   1.451  1.00  0.00    -0.031 C 
ENDBRANCH  14  16
ENDBRANCH  11  14
ENDBRANCH   5   8
ENDBRANCH   3   4
ENDBRANCH   2   3
ENDBRANCH   1   2
BRANCH   1  22
ATOM     22  C   UNL     1      -1.831   0.980   5.891  1.00  0.00     0.116 C 
BRANCH  22  23
ATOM     23  N   UNL     1      -2.352  -0.342   6.222  1.00  0.00    -0.352 N 
ATOM     24  C   UNL     1      -2.740  -0.852   7.438  1.00  0.00     0.251 C 
ATOM     25  H   UNL     1      -2.438  -0.961   5.462  1.00  0.00     0.163 HD
ATOM     26  O   UNL     1      -2.980  -2.050   7.555  1.00  0.00    -0.269 OA
BRANCH  24  27
ATOM     27  C   UNL     1      -2.838   0.048   8.605  1.00  0.00     0.039 A 
ATOM     28  C   UNL     1      -2.326  -0.365   9.837  1.00  0.00     0.014 A 
ATOM     29  C   UNL     1      -3.396   1.319   8.466  1.00  0.00     0.014 A 
ATOM     30  C   UNL     1      -2.297   0.535  10.904  1.00  0.00     0.010 A 
ATOM     31  C   UNL     1      -3.252   2.248   9.485  1.00  0.00     0.010 A 
ATOM     32  C   UNL     1      -2.716   1.864  10.722  1.00  0.00    -0.014 A 
BRANCH  32  33
ATOM     33  C   UNL     1      -2.631   2.870  11.810  1.00  0.00     0.031 A 
ATOM     34  C   UNL     1      -3.884   3.559  12.284  1.00  0.00     0.074 A 
ATOM     35  C   UNL     1      -1.429   3.224  12.306  1.00  0.00     0.049 A 
ATOM     36  N   UNL     1      -4.015   4.541  13.137  1.00  0.00    -0.248 NA
ATOM     37  C   UNL     1      -5.155   3.115  11.685  1.00  0.00     0.031 C 
ATOM     38  C   UNL     1      -0.138   2.678  11.878  1.00  0.00     0.029 A 
ATOM     39  N   UNL     1      -1.094   4.140  13.271  1.00  0.00    -0.354 N 
ATOM     40  C   UNL     1      -5.371   4.847  13.154  1.00  0.00     0.074 A 
ATOM     41  C   UNL     1      -6.012   3.995  12.178  1.00  0.00     0.031 C 
ATOM     42  C   UNL     1       0.842   3.245  12.600  1.00  0.00     0.029 A 
ATOM     43  C   UNL     1       0.258   4.223  13.511  1.00  0.00     0.049 A 
ATOM     44  H   UNL     1      -1.760   4.687  13.748  1.00  0.00     0.167 HD
ATOM     45  C   UNL     1      -6.029   5.735  13.936  1.00  0.00     0.037 A 
ATOM     46  C   UNL     1       0.946   5.003  14.367  1.00  0.00     0.037 A 
ATOM     47  C   UNL     1      -5.391   6.541  14.941  1.00  0.00     0.049 A 
ATOM     48  C   UNL     1       0.190   5.958  15.250  1.00  0.00     0.074 A 
ATOM     49  C   UNL     1      -5.972   7.416  15.840  1.00  0.00     0.029 A 
ATOM     50  N   UNL     1      -4.025   6.562  15.185  1.00  0.00    -0.354 N 
ATOM     51  N   UNL     1      -1.101   6.187  15.300  1.00  0.00    -0.248 NA
ATOM     52  C   UNL     1       0.981   6.755  16.197  1.00  0.00     0.031 C 
ATOM     53  C   UNL     1      -4.954   7.995  16.604  1.00  0.00     0.029 A 
ATOM     54  C   UNL     1      -3.743   7.447  16.211  1.00  0.00     0.049 A 
ATOM     55  H   UNL     1      -3.356   6.028  14.700  1.00  0.00     0.167 HD
ATOM     56  C   UNL     1      -1.280   7.136  16.301  1.00  0.00     0.074 A 
ATOM     57  C   UNL     1       0.034   7.427  16.838  1.00  0.00     0.031 C 
ATOM     58  C   UNL     1      -2.427   7.714  16.736  1.00  0.00     0.037 A 
BRANCH  45  59
ATOM     59  C   UNL     1      -7.516   5.862  13.745  1.00  0.00     0.058 A 
ATOM     60  C   UNL     1      -8.397   4.831  14.110  1.00  0.00     0.135 A 
ATOM     61  C   UNL     1      -8.070   7.036  13.209  1.00  0.00     0.135 A 
ATOM     62  F   UNL     1      -7.921   3.679  14.610  1.00  0.00    -0.206 F 
ATOM     63  C   UNL     1      -9.770   4.944  13.919  1.00  0.00     0.059 A 
ATOM     64  C   UNL     1      -9.444   7.183  13.037  1.00  0.00     0.059 A 
ATOM     65  F   UNL     1      -7.275   8.052  12.840  1.00  0.00    -0.206 F 
ATOM     66  C   UNL     1     -10.284   6.124  13.380  1.00  0.00     0.060 A 
BRANCH  66  67
ATOM     67  S   UNL     1     -12.068   6.256  13.142  1.00  0.00     0.124 S 
ATOM     68  O   UNL     1     -12.272   5.388  11.986  1.00  0.00    -0.237 OA
ATOM     69  O   UNL     1     -12.591   5.756  14.409  1.00  0.00    -0.237 OA
ATOM     70  O   UNL     1     -12.275   7.681  12.901  1.00  0.00    -0.744 OA
ENDBRANCH  66  67
ENDBRANCH  45  59
BRANCH  46  71
ATOM     71  C   UNL     1       2.427   4.887  14.454  1.00  0.00     0.058 A 
ATOM     72  C   UNL     1       3.038   4.310  15.577  1.00  0.00     0.135 A 
ATOM     73  C   UNL     1       3.258   5.333  13.414  1.00  0.00     0.135 A 
ATOM     74  F   UNL     1       2.287   3.873  16.598  1.00  0.00    -0.206 F 
ATOM     75  C   UNL     1       4.421   4.194  15.676  1.00  0.00     0.059 A 
ATOM     76  C   UNL     1       4.643   5.205  13.479  1.00  0.00     0.059 A 
ATOM     77  F   UNL     1       2.722   5.875  12.310  1.00  0.00    -0.206 F 
ATOM     78  C   UNL     1       5.216   4.644  14.620  1.00  0.00     0.060 A 
BRANCH  78  79
ATOM     79  S   UNL     1       7.007   4.444  14.738  1.00  0.00     0.124 S 
ATOM     80  O   UNL     1       7.354   5.476  15.709  1.00  0.00    -0.237 OA
ATOM     81  O   UNL     1       7.133   3.065  15.198  1.00  0.00    -0.237 OA
ATOM     82  O   UNL     1       7.461   4.684  13.371  1.00  0.00    -0.744 OA
ENDBRANCH  78  79
ENDBRANCH  46  71
BRANCH  58  83
ATOM     83  C   UNL     1      -2.318   8.694  17.869  1.00  0.00     0.058 A 
ATOM     84  C   UNL     1      -1.789   9.980  17.682  1.00  0.00     0.135 A 
ATOM     85  C   UNL     1      -2.805   8.361  19.144  1.00  0.00     0.135 A 
ATOM     86  F   UNL     1      -1.306  10.345  16.484  1.00  0.00    -0.206 F 
ATOM     87  C   UNL     1      -1.725  10.896  18.727  1.00  0.00     0.059 A 
ATOM     88  C   UNL     1      -2.776   9.271  20.195  1.00  0.00     0.059 A 
ATOM     89  F   UNL     1      -3.332   7.148  19.371  1.00  0.00    -0.206 F 
ATOM     90  C   UNL     1      -2.223  10.533  19.980  1.00  0.00     0.060 A 
BRANCH  90  91
ATOM     91  S   UNL     1      -2.168  11.743  21.317  1.00  0.00     0.124 S 
ATOM     92  O   UNL     1      -0.752  11.730  21.667  1.00  0.00    -0.237 OA
ATOM     93  O   UNL     1      -2.648  12.956  20.662  1.00  0.00    -0.237 OA
ATOM     94  O   UNL     1      -3.068  11.182  22.320  1.00  0.00    -0.744 OA
ENDBRANCH  90  91
ENDBRANCH  58  83
ENDBRANCH  32  33
ENDBRANCH  24  27
ENDBRANCH  22  23
ENDBRANCH   1  22
TORSDOF 16
