REMARK SMILES COC(=O)c1ccc([C@H]2Nc3c(C(=O)NCCCCNC(=O)c4ccc(-c5c6nc(c(-c7c(F)cc(S(=O)(=O)[O-])cc7F)c7ccc([nH]7)c(-c7c(F)cc(S(=O)(=O)[O-])cc7F)c7nc(c(-c8c(F)cc(S(=O)(=O)[O-])cc8F)c8ccc5[nH]8)C=C7)C=C6)cc4)cccc3[C@H]3[C@H]4CC[C@H](C4)[C@H]32)cc1
REMARK SMILES IDX 17 1 16 2 15 3 13 4 14 5 12 7 9 8 10 9 99 10 11 11 93 13
REMARK SMILES IDX 97 14 92 15 94 16 96 17 98 18 89 19 91 20 95 21 90 22 8 23
REMARK SMILES IDX 5 24 6 25 101 26 7 27 100 28 3 29 4 30 2 31 1 32 18 33 19 34
REMARK SMILES IDX 20 35 21 36 22 38 23 39 24 40 88 41 25 42 87 43 26 44 27 45
REMARK SMILES IDX 28 46 81 47 29 48 86 49 80 50 82 51 30 52 85 53 79 54 78 55
REMARK SMILES IDX 31 57 65 58 44 59 64 60 45 61 48 62 63 63 83 64 46 65 47 66
REMARK SMILES IDX 62 68 84 69 49 70 32 71 33 72 42 73 34 74 35 75 41 76 43 77
REMARK SMILES IDX 36 78 37 79 38 80 39 81 40 82 66 83 67 84 76 85 68 86 69 87
REMARK SMILES IDX 75 88 77 89 70 90 71 91 72 92 73 93 74 94 50 95 51 96 60 97
REMARK SMILES IDX 52 98 53 99 59 100 61 101 54 102 55 103 56 104 57 105 58 106
REMARK H PARENT 15 6 10 12 20 37 82 56 48 67
REMARK Flexibility Score: inf
ROOT
ATOM      1  C   UNL     1      -2.384  -5.246  13.111  1.00  0.00     0.023 C 
ENDROOT
BRANCH   1   2
ATOM      2  C   UNL     1      -2.965  -4.311  12.058  1.00  0.00     0.116 C 
BRANCH   2   3
ATOM      3  N   UNL     1      -1.985  -3.593  11.251  1.00  0.00    -0.352 N 
ATOM      4  C   UNL     1      -1.901  -3.490   9.870  1.00  0.00     0.253 C 
ATOM      5  O   UNL     1      -0.997  -2.841   9.350  1.00  0.00    -0.269 OA
ATOM      6  H   UNL     1      -1.287  -3.116  11.756  1.00  0.00     0.163 HD
BRANCH   4   7
ATOM      7  C   UNL     1      -2.865  -4.251   9.033  1.00  0.00     0.063 A 
ATOM      8  C   UNL     1      -1.512  -5.016   5.799  1.00  0.00     0.113 C 
ATOM      9  N   UNL     1      -1.273  -4.802   7.244  1.00  0.00    -0.377 N 
ATOM     10  C   UNL     1      -1.621  -6.585   5.674  1.00  0.00     0.027 C 
ATOM     11  C   UNL     1      -2.399  -5.118   8.041  1.00  0.00     0.051 A 
ATOM     12  H   UNL     1      -0.421  -4.474   7.612  1.00  0.00     0.161 HD
ATOM     13  C   UNL     1      -2.514  -7.238   6.773  1.00  0.00     0.030 C 
ATOM     14  C   UNL     1      -1.925  -7.459   4.417  1.00  0.00    -0.005 C 
ATOM     15  C   UNL     1      -3.204  -6.216   7.639  1.00  0.00    -0.020 A 
ATOM     16  C   UNL     1      -3.204  -8.407   6.019  1.00  0.00    -0.003 C 
ATOM     17  C   UNL     1      -3.341  -7.413   3.825  1.00  0.00     0.004 C 
ATOM     18  C   UNL     1      -2.044  -8.847   5.103  1.00  0.00     0.008 C 
ATOM     19  C   UNL     1      -4.233  -4.214   9.301  1.00  0.00     0.016 A 
ATOM     20  C   UNL     1      -4.534  -6.269   8.051  1.00  0.00     0.006 A 
ATOM     21  C   UNL     1      -4.226  -7.986   4.953  1.00  0.00     0.004 C 
ATOM     22  C   UNL     1      -5.066  -5.218   8.804  1.00  0.00     0.001 A 
BRANCH   8  23
ATOM     23  C   UNL     1      -2.639  -4.066   5.351  1.00  0.00    -0.025 A 
ATOM     24  C   UNL     1      -4.900  -2.429   4.720  1.00  0.00     0.060 A 
ATOM     25  C   UNL     1      -3.667  -1.849   5.053  1.00  0.00     0.016 A 
ATOM     26  C   UNL     1      -4.993  -3.809   4.710  1.00  0.00     0.016 A 
ATOM     27  C   UNL     1      -2.544  -2.663   5.360  1.00  0.00     0.007 A 
ATOM     28  C   UNL     1      -3.897  -4.571   5.064  1.00  0.00     0.007 A 
BRANCH  24  29
ATOM     29  C   UNL     1      -6.119  -1.642   4.389  1.00  0.00     0.337 C 
ATOM     30  O   UNL     1      -6.135  -0.467   4.057  1.00  0.00    -0.246 OA
BRANCH  29  31
ATOM     31  O   UNL     1      -7.193  -2.471   4.478  1.00  0.00    -0.465 OA
ATOM     32  C   UNL     1      -8.443  -1.990   3.994  1.00  0.00     0.282 C 
ENDBRANCH  29  31
ENDBRANCH  24  29
ENDBRANCH   8  23
ENDBRANCH   4   7
ENDBRANCH   2   3
ENDBRANCH   1   2
BRANCH   1  33
ATOM     33  C   UNL     1      -1.680  -4.577  14.283  1.00  0.00     0.023 C 
BRANCH  33  34
ATOM     34  C   UNL     1      -2.482  -3.508  15.016  1.00  0.00     0.116 C 
BRANCH  34  35
ATOM     35  N   UNL     1      -3.728  -3.999  15.590  1.00  0.00    -0.352 N 
ATOM     36  C   UNL     1      -4.207  -3.877  16.875  1.00  0.00     0.251 C 
ATOM     37  H   UNL     1      -4.312  -4.489  14.968  1.00  0.00     0.163 HD
ATOM     38  O   UNL     1      -5.242  -4.455  17.197  1.00  0.00    -0.269 OA
BRANCH  36  39
ATOM     39  C   UNL     1      -3.456  -3.086  17.876  1.00  0.00     0.039 A 
ATOM     40  C   UNL     1      -3.252  -3.625  19.149  1.00  0.00     0.014 A 
ATOM     41  C   UNL     1      -2.932  -1.831  17.558  1.00  0.00     0.014 A 
ATOM     42  C   UNL     1      -2.450  -2.944  20.070  1.00  0.00     0.010 A 
ATOM     43  C   UNL     1      -2.064  -1.197  18.443  1.00  0.00     0.010 A 
ATOM     44  C   UNL     1      -1.810  -1.747  19.709  1.00  0.00    -0.014 A 
BRANCH  44  45
ATOM     45  C   UNL     1      -0.861  -1.066  20.631  1.00  0.00     0.031 A 
ATOM     46  C   UNL     1      -1.149   0.328  21.122  1.00  0.00     0.074 A 
ATOM     47  C   UNL     1       0.294  -1.673  20.970  1.00  0.00     0.049 A 
ATOM     48  N   UNL     1      -0.412   1.110  21.869  1.00  0.00    -0.248 NA
ATOM     49  C   UNL     1      -2.422   0.933  20.696  1.00  0.00     0.031 C 
ATOM     50  C   UNL     1       0.716  -3.003  20.521  1.00  0.00     0.029 A 
ATOM     51  N   UNL     1       1.333  -1.250  21.762  1.00  0.00    -0.354 N 
ATOM     52  C   UNL     1      -1.122   2.299  21.991  1.00  0.00     0.074 A 
ATOM     53  C   UNL     1      -2.322   2.156  21.196  1.00  0.00     0.031 C 
ATOM     54  C   UNL     1       1.909  -3.294  21.062  1.00  0.00     0.029 A 
ATOM     55  C   UNL     1       2.361  -2.159  21.860  1.00  0.00     0.049 A 
ATOM     56  H   UNL     1       1.342  -0.377  22.217  1.00  0.00     0.167 HD
ATOM     57  C   UNL     1      -0.815   3.399  22.719  1.00  0.00     0.037 A 
ATOM     58  C   UNL     1       3.540  -2.085  22.510  1.00  0.00     0.037 A 
ATOM     59  C   UNL     1       0.372   3.527  23.525  1.00  0.00     0.049 A 
ATOM     60  C   UNL     1       3.865  -0.847  23.302  1.00  0.00     0.074 A 
ATOM     61  C   UNL     1       0.744   4.579  24.344  1.00  0.00     0.029 A 
ATOM     62  N   UNL     1       1.381   2.579  23.610  1.00  0.00    -0.354 N 
ATOM     63  N   UNL     1       3.149   0.241  23.462  1.00  0.00    -0.248 NA
ATOM     64  C   UNL     1       5.154  -0.826  24.007  1.00  0.00     0.031 C 
ATOM     65  C   UNL     1       2.002   4.290  24.883  1.00  0.00     0.029 A 
ATOM     66  C   UNL     1       2.387   3.032  24.448  1.00  0.00     0.049 A 
ATOM     67  H   UNL     1       1.381   1.711  23.145  1.00  0.00     0.167 HD
ATOM     68  C   UNL     1       3.886   1.061  24.309  1.00  0.00     0.074 A 
ATOM     69  C   UNL     1       5.098   0.339  24.638  1.00  0.00     0.031 C 
ATOM     70  C   UNL     1       3.586   2.299  24.775  1.00  0.00     0.037 A 
BRANCH  57  71
ATOM     71  C   UNL     1      -1.779   4.556  22.680  1.00  0.00     0.058 A 
ATOM     72  C   UNL     1      -3.050   4.479  23.273  1.00  0.00     0.135 A 
ATOM     73  C   UNL     1      -1.413   5.771  22.077  1.00  0.00     0.135 A 
ATOM     74  F   UNL     1      -3.459   3.338  23.851  1.00  0.00    -0.206 F 
ATOM     75  C   UNL     1      -3.934   5.552  23.243  1.00  0.00     0.059 A 
ATOM     76  C   UNL     1      -2.269   6.868  22.063  1.00  0.00     0.059 A 
ATOM     77  F   UNL     1      -0.210   5.902  21.495  1.00  0.00    -0.206 F 
ATOM     78  C   UNL     1      -3.534   6.744  22.636  1.00  0.00     0.060 A 
BRANCH  78  79
ATOM     79  S   UNL     1      -4.692   8.128  22.613  1.00  0.00     0.124 S 
ATOM     80  O   UNL     1      -5.681   7.664  21.645  1.00  0.00    -0.237 OA
ATOM     81  O   UNL     1      -5.140   8.182  24.001  1.00  0.00    -0.237 OA
ATOM     82  O   UNL     1      -3.870   9.253  22.178  1.00  0.00    -0.744 OA
ENDBRANCH  78  79
ENDBRANCH  57  71
BRANCH  58  83
ATOM     83  C   UNL     1       4.495  -3.226  22.455  1.00  0.00     0.058 A 
ATOM     84  C   UNL     1       4.752  -4.008  23.591  1.00  0.00     0.135 A 
ATOM     85  C   UNL     1       5.162  -3.563  21.267  1.00  0.00     0.135 A 
ATOM     86  F   UNL     1       4.145  -3.723  24.753  1.00  0.00    -0.206 F 
ATOM     87  C   UNL     1       5.649  -5.071  23.558  1.00  0.00     0.059 A 
ATOM     88  C   UNL     1       6.043  -4.639  21.201  1.00  0.00     0.059 A 
ATOM     89  F   UNL     1       4.941  -2.857  20.147  1.00  0.00    -0.206 F 
ATOM     90  C   UNL     1       6.288  -5.381  22.356  1.00  0.00     0.060 A 
BRANCH  90  91
ATOM     91  S   UNL     1       7.415  -6.791  22.314  1.00  0.00     0.124 S 
ATOM     92  O   UNL     1       8.553  -6.280  23.069  1.00  0.00    -0.237 OA
ATOM     93  O   UNL     1       6.628  -7.831  22.969  1.00  0.00    -0.237 OA
ATOM     94  O   UNL     1       7.645  -6.995  20.887  1.00  0.00    -0.744 OA
ENDBRANCH  90  91
ENDBRANCH  58  83
BRANCH  70  95
ATOM     95  C   UNL     1       4.562   2.942  25.723  1.00  0.00     0.058 A 
ATOM     96  C   UNL     1       5.809   3.421  25.293  1.00  0.00     0.135 A 
ATOM     97  C   UNL     1       4.219   3.129  27.073  1.00  0.00     0.135 A 
ATOM     98  F   UNL     1       6.190   3.263  24.016  1.00  0.00    -0.206 F 
ATOM     99  C   UNL     1       6.692   4.041  26.172  1.00  0.00     0.059 A 
ATOM    100  C   UNL     1       5.073   3.774  27.962  1.00  0.00     0.059 A 
ATOM    101  F   UNL     1       3.034   2.700  27.536  1.00  0.00    -0.206 F 
ATOM    102  C   UNL     1       6.313   4.216  27.505  1.00  0.00     0.060 A 
BRANCH 102 103
ATOM    103  S   UNL     1       7.454   5.054  28.625  1.00  0.00     0.124 S 
ATOM    104  O   UNL     1       8.485   4.038  28.810  1.00  0.00    -0.237 OA
ATOM    105  O   UNL     1       7.849   6.225  27.850  1.00  0.00    -0.237 OA
ATOM    106  O   UNL     1       6.633   5.335  29.799  1.00  0.00    -0.744 OA
ENDBRANCH 102 103
ENDBRANCH  70  95
ENDBRANCH  44  45
ENDBRANCH  36  39
ENDBRANCH  34  35
ENDBRANCH  33  34
ENDBRANCH   1  33
TORSDOF 17
