REMARK SMILES O=CN1CC[NH+](C[C@@H](CC(=O)Nc2ccc(C(F)(F)F)nc2)C(=O)NCCCCNC(=O)c2ccc(-c3c4nc(c(-c5c(F)cc(S(=O)(=O)[O-])cc5F)c5ccc([nH]5)c(-c5c(F)cc(S(=O)(=O)[O-])cc5F)c5nc(c(-c6c(F)cc(S(=O)(=O)[O-])cc6F)c6ccc3[nH]6)C=C5)C=C4)cc2)CC1
REMARK SMILES IDX 27 1 26 2 25 3 23 4 24 5 8 7 7 8 6 9 1 10 2 11 3 12 4 13
REMARK SMILES IDX 100 14 5 15 99 16 9 18 10 19 11 20 12 21 13 23 14 24 22 25
REMARK SMILES IDX 15 26 21 27 16 28 17 29 18 30 19 31 20 32 28 33 29 34 30 35
REMARK SMILES IDX 31 36 32 38 33 39 34 40 98 41 35 42 97 43 36 44 37 45 38 46
REMARK SMILES IDX 91 47 39 48 96 49 90 50 92 51 40 52 95 53 89 54 88 55 41 57
REMARK SMILES IDX 75 58 54 59 74 60 55 61 58 62 73 63 93 64 56 65 57 66 72 68
REMARK SMILES IDX 94 69 59 70 42 71 43 72 52 73 44 74 45 75 51 76 53 77 46 78
REMARK SMILES IDX 47 79 48 80 49 81 50 82 76 83 77 84 86 85 78 86 79 87 85 88
REMARK SMILES IDX 87 89 80 90 81 91 82 92 83 93 84 94 60 95 61 96 70 97 62 98
REMARK SMILES IDX 63 99 69 100 71 101 64 102 65 103 66 104 67 105 68 106
REMARK H PARENT 25 6 6 17 12 22 30 37 92 56 58 67
REMARK Flexibility Score: inf
ROOT
ATOM      1  C   UNL     1       8.599   1.062   5.858  1.00  0.00     0.023 C 
ENDROOT
BRANCH   1   2
ATOM      2  C   UNL     1       8.092   0.579   4.515  1.00  0.00     0.116 C 
BRANCH   2   3
ATOM      3  N   UNL     1       7.551  -0.746   4.451  1.00  0.00    -0.356 N 
ATOM      4  C   UNL     1       6.552  -1.173   3.625  1.00  0.00     0.229 C 
ATOM      5  O   UNL     1       6.314  -2.385   3.602  1.00  0.00    -0.275 OA
ATOM      6  H   UNL     1       7.937  -1.413   5.063  1.00  0.00     0.163 HD
BRANCH   4   7
ATOM      7  C   UNL     1       5.652  -0.198   2.822  1.00  0.00     0.142 C 
BRANCH   7   8
ATOM      8  C   UNL     1       4.371   0.041   3.639  1.00  0.00     0.276 C 
BRANCH   8   9
ATOM      9  N   UNL     1       3.234   0.875   3.217  1.00  0.00    -0.331 N 
ATOM     10  O   UNL     1       0.210  -1.315  -0.281  1.00  0.00    -0.279 OA
ATOM     11  C   UNL     1       1.113  -0.489  -0.266  1.00  0.00     0.340 C 
ATOM     12  N   UNL     1       1.844  -0.113   0.836  1.00  0.00    -0.334 N 
ATOM     13  C   UNL     1       3.015   0.735   0.695  1.00  0.00     0.180 C 
ATOM     14  C   UNL     1       1.655  -0.778   2.125  1.00  0.00     0.180 C 
ATOM     15  C   UNL     1       3.265   1.592   1.941  1.00  0.00     0.284 C 
ATOM     16  C   UNL     1       1.939   0.158   3.320  1.00  0.00     0.284 C 
ATOM     17  H   UNL     1       3.339   1.620   3.905  1.00  0.00     0.348 HD
ENDBRANCH   8   9
ENDBRANCH   7   8
BRANCH   7  18
ATOM     18  C   UNL     1       6.381   0.866   1.992  1.00  0.00     0.119 C 
BRANCH  18  19
ATOM     19  C   UNL     1       6.971   2.250   2.316  1.00  0.00     0.225 C 
ATOM     20  O   UNL     1       8.051   2.527   1.765  1.00  0.00    -0.275 OA
ATOM     21  N   UNL     1       6.417   3.293   2.978  1.00  0.00    -0.325 N 
ATOM     22  H   UNL     1       6.872   4.141   2.773  1.00  0.00     0.169 HD
BRANCH  21  23
ATOM     23  C   UNL     1       5.363   3.469   3.878  1.00  0.00     0.059 A 
ATOM     24  C   UNL     1       5.204   2.760   5.058  1.00  0.00     0.030 A 
ATOM     25  C   UNL     1       4.471   4.513   3.662  1.00  0.00     0.137 A 
ATOM     26  C   UNL     1       4.080   2.970   5.859  1.00  0.00     0.035 A 
ATOM     27  N   UNL     1       3.362   4.742   4.406  1.00  0.00    -0.250 NA
ATOM     28  C   UNL     1       3.139   3.917   5.469  1.00  0.00     0.144 A 
BRANCH  28  29
ATOM     29  C   UNL     1       1.834   4.013   6.245  1.00  0.00     0.433 C 
ATOM     30  F   UNL     1       1.929   4.806   7.350  1.00  0.00    -0.165 F 
ATOM     31  F   UNL     1       0.792   4.502   5.515  1.00  0.00    -0.165 F 
ATOM     32  F   UNL     1       1.408   2.797   6.708  1.00  0.00    -0.165 F 
ENDBRANCH  28  29
ENDBRANCH  21  23
ENDBRANCH  18  19
ENDBRANCH   7  18
ENDBRANCH   4   7
ENDBRANCH   2   3
ENDBRANCH   1   2
BRANCH   1  33
ATOM     33  C   UNL     1      10.060   0.761   6.133  1.00  0.00     0.023 C 
BRANCH  33  34
ATOM     34  C   UNL     1      11.026   1.117   5.010  1.00  0.00     0.116 C 
BRANCH  34  35
ATOM     35  N   UNL     1      10.980   2.513   4.582  1.00  0.00    -0.352 N 
ATOM     36  C   UNL     1      12.034   3.388   4.417  1.00  0.00     0.251 C 
ATOM     37  H   UNL     1      10.085   2.874   4.388  1.00  0.00     0.163 HD
ATOM     38  O   UNL     1      11.842   4.562   4.122  1.00  0.00    -0.269 OA
BRANCH  36  39
ATOM     39  C   UNL     1      13.402   2.883   4.657  1.00  0.00     0.039 A 
ATOM     40  C   UNL     1      14.204   3.515   5.608  1.00  0.00     0.014 A 
ATOM     41  C   UNL     1      13.815   1.693   4.053  1.00  0.00     0.014 A 
ATOM     42  C   UNL     1      15.373   2.886   6.039  1.00  0.00     0.010 A 
ATOM     43  C   UNL     1      14.916   1.019   4.565  1.00  0.00     0.010 A 
ATOM     44  C   UNL     1      15.703   1.602   5.570  1.00  0.00    -0.014 A 
BRANCH  44  45
ATOM     45  C   UNL     1      16.853   0.843   6.130  1.00  0.00     0.031 A 
ATOM     46  C   UNL     1      17.970   0.398   5.225  1.00  0.00     0.074 A 
ATOM     47  C   UNL     1      16.853   0.483   7.430  1.00  0.00     0.049 A 
ATOM     48  N   UNL     1      19.019  -0.331   5.505  1.00  0.00    -0.248 NA
ATOM     49  C   UNL     1      17.877   0.793   3.809  1.00  0.00     0.031 C 
ATOM     50  C   UNL     1      15.792   0.784   8.396  1.00  0.00     0.029 A 
ATOM     51  N   UNL     1      17.773  -0.223   8.166  1.00  0.00    -0.354 N 
ATOM     52  C   UNL     1      19.695  -0.497   4.303  1.00  0.00     0.074 A 
ATOM     53  C   UNL     1      18.905   0.149   3.279  1.00  0.00     0.031 C 
ATOM     54  C   UNL     1      16.138   0.298   9.600  1.00  0.00     0.029 A 
ATOM     55  C   UNL     1      17.424  -0.381   9.487  1.00  0.00     0.049 A 
ATOM     56  H   UNL     1      18.605  -0.584   7.782  1.00  0.00     0.167 HD
ATOM     57  C   UNL     1      20.885  -1.103   4.075  1.00  0.00     0.037 A 
ATOM     58  C   UNL     1      18.069  -1.003  10.495  1.00  0.00     0.037 A 
ATOM     59  C   UNL     1      21.688  -1.708   5.103  1.00  0.00     0.049 A 
ATOM     60  C   UNL     1      19.402  -1.645  10.224  1.00  0.00     0.074 A 
ATOM     61  C   UNL     1      22.942  -2.282   4.989  1.00  0.00     0.029 A 
ATOM     62  N   UNL     1      21.318  -1.815   6.436  1.00  0.00    -0.354 N 
ATOM     63  N   UNL     1      20.064  -1.725   9.094  1.00  0.00    -0.248 NA
ATOM     64  C   UNL     1      20.081  -2.276  11.365  1.00  0.00     0.031 C 
ATOM     65  C   UNL     1      23.313  -2.772   6.245  1.00  0.00     0.029 A 
ATOM     66  C   UNL     1      22.311  -2.462   7.152  1.00  0.00     0.049 A 
ATOM     67  H   UNL     1      20.474  -1.481   6.816  1.00  0.00     0.167 HD
ATOM     68  C   UNL     1      21.247  -2.392   9.392  1.00  0.00     0.074 A 
ATOM     69  C   UNL     1      21.216  -2.680  10.811  1.00  0.00     0.031 C 
ATOM     70  C   UNL     1      22.266  -2.736   8.566  1.00  0.00     0.037 A 
BRANCH  57  71
ATOM     71  C   UNL     1      21.394  -1.120   2.660  1.00  0.00     0.058 A 
ATOM     72  C   UNL     1      21.830   0.052   2.020  1.00  0.00     0.135 A 
ATOM     73  C   UNL     1      21.468  -2.324   1.941  1.00  0.00     0.135 A 
ATOM     74  F   UNL     1      21.764   1.233   2.655  1.00  0.00    -0.206 F 
ATOM     75  C   UNL     1      22.290   0.037   0.708  1.00  0.00     0.059 A 
ATOM     76  C   UNL     1      21.953  -2.367   0.637  1.00  0.00     0.059 A 
ATOM     77  F   UNL     1      21.062  -3.474   2.503  1.00  0.00    -0.206 F 
ATOM     78  C   UNL     1      22.346  -1.178   0.024  1.00  0.00     0.060 A 
BRANCH  78  79
ATOM     79  S   UNL     1      22.949  -1.180  -1.677  1.00  0.00     0.124 S 
ATOM     80  O   UNL     1      21.819  -0.586  -2.386  1.00  0.00    -0.237 OA
ATOM     81  O   UNL     1      24.145  -0.349  -1.586  1.00  0.00    -0.237 OA
ATOM     82  O   UNL     1      23.190  -2.593  -1.951  1.00  0.00    -0.744 OA
ENDBRANCH  78  79
ENDBRANCH  57  71
BRANCH  58  83
ATOM     83  C   UNL     1      17.479  -1.019  11.861  1.00  0.00     0.058 A 
ATOM     84  C   UNL     1      18.044  -0.262  12.899  1.00  0.00     0.135 A 
ATOM     85  C   UNL     1      16.337  -1.779  12.156  1.00  0.00     0.135 A 
ATOM     86  F   UNL     1      19.140   0.477  12.669  1.00  0.00    -0.206 F 
ATOM     87  C   UNL     1      17.511  -0.271  14.184  1.00  0.00     0.059 A 
ATOM     88  C   UNL     1      15.770  -1.786  13.428  1.00  0.00     0.059 A 
ATOM     89  F   UNL     1      15.747  -2.507  11.196  1.00  0.00    -0.206 F 
ATOM     90  C   UNL     1      16.371  -1.035  14.438  1.00  0.00     0.060 A 
BRANCH  90  91
ATOM     91  S   UNL     1      15.654  -0.999  16.096  1.00  0.00     0.124 S 
ATOM     92  O   UNL     1      16.607  -1.810  16.845  1.00  0.00    -0.237 OA
ATOM     93  O   UNL     1      15.653   0.429  16.398  1.00  0.00    -0.237 OA
ATOM     94  O   UNL     1      14.334  -1.591  15.902  1.00  0.00    -0.744 OA
ENDBRANCH  90  91
ENDBRANCH  58  83
BRANCH  70  95
ATOM     95  C   UNL     1      23.445  -3.438   9.179  1.00  0.00     0.058 A 
ATOM     96  C   UNL     1      23.371  -4.776   9.596  1.00  0.00     0.135 A 
ATOM     97  C   UNL     1      24.678  -2.777   9.307  1.00  0.00     0.135 A 
ATOM     98  F   UNL     1      22.215  -5.450   9.501  1.00  0.00    -0.206 F 
ATOM     99  C   UNL     1      24.472  -5.427  10.143  1.00  0.00     0.059 A 
ATOM    100  C   UNL     1      25.799  -3.417   9.825  1.00  0.00     0.059 A 
ATOM    101  F   UNL     1      24.805  -1.500   8.912  1.00  0.00    -0.206 F 
ATOM    102  C   UNL     1      25.682  -4.739  10.252  1.00  0.00     0.060 A 
BRANCH 102 103
ATOM    103  S   UNL     1      27.111  -5.603  10.938  1.00  0.00     0.124 S 
ATOM    104  O   UNL     1      26.783  -5.629  12.360  1.00  0.00    -0.237 OA
ATOM    105  O   UNL     1      27.057  -6.890  10.251  1.00  0.00    -0.237 OA
ATOM    106  O   UNL     1      28.235  -4.749  10.567  1.00  0.00    -0.744 OA
ENDBRANCH 102 103
ENDBRANCH  70  95
ENDBRANCH  44  45
ENDBRANCH  36  39
ENDBRANCH  34  35
ENDBRANCH  33  34
ENDBRANCH   1  33
TORSDOF 20
