REMARK SMILES O=C(NCCCCNC(=O)c1cc(NC(=O)c2cccc(Cl)c2)ccc1N1CC[NH+](CC(=O)N2CCOCC2)CC1)c1ccc(-c2c3nc(c(-c4c(F)cc(S(=O)(=O)[O-])cc4F)c4ccc([nH]4)c(-c4c(F)cc(S(=O)(=O)[O-])cc4F)c4nc(c(-c5c(F)cc(S(=O)(=O)[O-])cc5F)c5ccc2[nH]5)C=C4)C=C3)cc1
REMARK SMILES IDX 5 1 4 2 3 3 1 4 2 5 42 7 43 8 107 9 44 10 106 11 45 12 46 13
REMARK SMILES IDX 47 14 100 15 48 16 105 17 99 18 101 19 49 20 104 21 98 22
REMARK SMILES IDX 97 23 50 25 84 26 63 27 83 28 64 29 67 30 82 31 102 32 65 33
REMARK SMILES IDX 66 34 81 36 103 37 68 38 51 39 52 40 61 41 53 42 54 43 60 44
REMARK SMILES IDX 62 45 55 46 56 47 57 48 58 49 59 50 85 51 86 52 95 53 87 54
REMARK SMILES IDX 88 55 94 56 96 57 89 58 90 59 91 60 92 61 93 62 69 63 70 64
REMARK SMILES IDX 79 65 71 66 72 67 78 68 80 69 73 70 74 71 75 72 76 73 77 74
REMARK SMILES IDX 6 75 7 76 8 77 9 78 10 80 11 81 12 82 26 83 13 84 25 85
REMARK SMILES IDX 24 86 27 87 28 88 41 89 29 90 40 91 30 92 31 94 32 95 33 96
REMARK SMILES IDX 34 97 35 98 39 99 36 100 38 101 37 102 14 103 15 104 16 106
REMARK SMILES IDX 17 107 18 108 23 109 19 110 21 111 20 112 22 113
REMARK H PARENT 3 6 101 24 67 35 8 79 30 93 14 105
REMARK Flexibility Score: inf
ROOT
ATOM      1  C   UNL     1       5.047  -2.906  -0.401  1.00  0.00     0.023 C 
ENDROOT
BRANCH   1   2
ATOM      2  C   UNL     1       4.701  -1.422  -0.442  1.00  0.00     0.116 C 
BRANCH   2   3
ATOM      3  N   UNL     1       3.280  -1.135  -0.555  1.00  0.00    -0.352 N 
ATOM      4  O   UNL     1       1.302  -0.189  -0.007  1.00  0.00    -0.269 OA
ATOM      5  C   UNL     1       2.497  -0.289   0.206  1.00  0.00     0.251 C 
ATOM      6  H   UNL     1       2.809  -1.612  -1.277  1.00  0.00     0.163 HD
BRANCH   5   7
ATOM      7  C   UNL     1       3.125   0.449   1.327  1.00  0.00     0.039 A 
ATOM      8  C   UNL     1       4.275   1.213   1.123  1.00  0.00     0.014 A 
ATOM      9  C   UNL     1       2.595   0.298   2.611  1.00  0.00     0.014 A 
ATOM     10  C   UNL     1       4.999   1.666   2.223  1.00  0.00     0.010 A 
ATOM     11  C   UNL     1       3.286   0.821   3.709  1.00  0.00     0.010 A 
ATOM     12  C   UNL     1       4.526   1.453   3.530  1.00  0.00    -0.014 A 
BRANCH  12  13
ATOM     13  C   UNL     1       5.351   1.880   4.692  1.00  0.00     0.031 A 
ATOM     14  C   UNL     1       5.929   0.864   5.646  1.00  0.00     0.074 A 
ATOM     15  C   UNL     1       5.612   3.189   4.868  1.00  0.00     0.049 A 
ATOM     16  N   UNL     1       6.689   1.056   6.695  1.00  0.00    -0.248 NA
ATOM     17  C   UNL     1       5.608  -0.550   5.395  1.00  0.00     0.031 C 
ATOM     18  C   UNL     1       5.107   4.270   4.019  1.00  0.00     0.029 A 
ATOM     19  N   UNL     1       6.378   3.833   5.806  1.00  0.00    -0.354 N 
ATOM     20  C   UNL     1       6.913  -0.202   7.245  1.00  0.00     0.074 A 
ATOM     21  C   UNL     1       6.192  -1.151   6.423  1.00  0.00     0.031 C 
ATOM     22  C   UNL     1       5.614   5.436   4.445  1.00  0.00     0.029 A 
ATOM     23  C   UNL     1       6.435   5.195   5.627  1.00  0.00     0.049 A 
ATOM     24  H   UNL     1       6.843   3.365   6.537  1.00  0.00     0.167 HD
ATOM     25  C   UNL     1       7.655  -0.536   8.330  1.00  0.00     0.037 A 
ATOM     26  C   UNL     1       7.071   6.146   6.336  1.00  0.00     0.037 A 
ATOM     27  C   UNL     1       8.398   0.407   9.127  1.00  0.00     0.049 A 
ATOM     28  C   UNL     1       7.885   5.750   7.534  1.00  0.00     0.074 A 
ATOM     29  C   UNL     1       9.220   0.159  10.214  1.00  0.00     0.029 A 
ATOM     30  N   UNL     1       8.408   1.780   8.928  1.00  0.00    -0.354 N 
ATOM     31  N   UNL     1       8.107   4.552   8.020  1.00  0.00    -0.248 NA
ATOM     32  C   UNL     1       8.531   6.836   8.283  1.00  0.00     0.031 C 
ATOM     33  C   UNL     1       9.696   1.384  10.694  1.00  0.00     0.029 A 
ATOM     34  C   UNL     1       9.204   2.393   9.883  1.00  0.00     0.049 A 
ATOM     35  H   UNL     1       7.920   2.250   8.213  1.00  0.00     0.167 HD
ATOM     36  C   UNL     1       8.934   4.738   9.121  1.00  0.00     0.074 A 
ATOM     37  C   UNL     1       9.183   6.162   9.221  1.00  0.00     0.031 C 
ATOM     38  C   UNL     1       9.442   3.812   9.972  1.00  0.00     0.037 A 
BRANCH  25  39
ATOM     39  C   UNL     1       7.688  -1.986   8.735  1.00  0.00     0.058 A 
ATOM     40  C   UNL     1       8.401  -2.946   8.000  1.00  0.00     0.135 A 
ATOM     41  C   UNL     1       7.026  -2.413   9.898  1.00  0.00     0.135 A 
ATOM     42  F   UNL     1       9.043  -2.596   6.874  1.00  0.00    -0.206 F 
ATOM     43  C   UNL     1       8.431  -4.284   8.386  1.00  0.00     0.059 A 
ATOM     44  C   UNL     1       7.061  -3.740  10.316  1.00  0.00     0.059 A 
ATOM     45  F   UNL     1       6.332  -1.536  10.641  1.00  0.00    -0.206 F 
ATOM     46  C   UNL     1       7.753  -4.672   9.543  1.00  0.00     0.060 A 
BRANCH  46  47
ATOM     47  S   UNL     1       7.790  -6.412  10.028  1.00  0.00     0.124 S 
ATOM     48  O   UNL     1       6.853  -6.997   9.074  1.00  0.00    -0.237 OA
ATOM     49  O   UNL     1       9.193  -6.763   9.834  1.00  0.00    -0.237 OA
ATOM     50  O   UNL     1       7.340  -6.387  11.416  1.00  0.00    -0.744 OA
ENDBRANCH  46  47
ENDBRANCH  25  39
BRANCH  26  51
ATOM     51  C   UNL     1       6.971   7.566   5.913  1.00  0.00     0.058 A 
ATOM     52  C   UNL     1       8.066   8.222   5.335  1.00  0.00     0.135 A 
ATOM     53  C   UNL     1       5.769   8.279   6.040  1.00  0.00     0.135 A 
ATOM     54  F   UNL     1       9.237   7.581   5.197  1.00  0.00    -0.206 F 
ATOM     55  C   UNL     1       7.977   9.540   4.901  1.00  0.00     0.059 A 
ATOM     56  C   UNL     1       5.648   9.590   5.591  1.00  0.00     0.059 A 
ATOM     57  F   UNL     1       4.688   7.687   6.572  1.00  0.00    -0.206 F 
ATOM     58  C   UNL     1       6.761  10.214   5.029  1.00  0.00     0.060 A 
BRANCH  58  59
ATOM     59  S   UNL     1       6.632  11.900   4.396  1.00  0.00     0.124 S 
ATOM     60  O   UNL     1       7.322  12.656   5.434  1.00  0.00    -0.237 OA
ATOM     61  O   UNL     1       7.321  11.801   3.112  1.00  0.00    -0.237 OA
ATOM     62  O   UNL     1       5.191  12.114   4.308  1.00  0.00    -0.744 OA
ENDBRANCH  58  59
ENDBRANCH  26  51
BRANCH  38  63
ATOM     63  C   UNL     1      10.339   4.312  11.069  1.00  0.00     0.058 A 
ATOM     64  C   UNL     1       9.827   4.991  12.185  1.00  0.00     0.135 A 
ATOM     65  C   UNL     1      11.724   4.092  11.010  1.00  0.00     0.135 A 
ATOM     66  F   UNL     1       8.511   5.234  12.284  1.00  0.00    -0.206 F 
ATOM     67  C   UNL     1      10.662   5.463  13.193  1.00  0.00     0.059 A 
ATOM     68  C   UNL     1      12.575   4.534  12.018  1.00  0.00     0.059 A 
ATOM     69  F   UNL     1      12.262   3.439   9.968  1.00  0.00    -0.206 F 
ATOM     70  C   UNL     1      12.036   5.233  13.098  1.00  0.00     0.060 A 
BRANCH  70  71
ATOM     71  S   UNL     1      13.113   5.838  14.415  1.00  0.00     0.124 S 
ATOM     72  O   UNL     1      13.199   7.259  14.093  1.00  0.00    -0.237 OA
ATOM     73  O   UNL     1      12.356   5.505  15.619  1.00  0.00    -0.237 OA
ATOM     74  O   UNL     1      14.342   5.074  14.225  1.00  0.00    -0.744 OA
ENDBRANCH  70  71
ENDBRANCH  38  63
ENDBRANCH  12  13
ENDBRANCH   5   7
ENDBRANCH   2   3
ENDBRANCH   1   2
BRANCH   1  75
ATOM     75  C   UNL     1       4.599  -3.755  -1.590  1.00  0.00     0.023 C 
BRANCH  75  76
ATOM     76  C   UNL     1       4.923  -3.202  -2.973  1.00  0.00     0.116 C 
BRANCH  76  77
ATOM     77  N   UNL     1       6.338  -2.971  -3.197  1.00  0.00    -0.352 N 
ATOM     78  C   UNL     1       6.998  -2.882  -4.399  1.00  0.00     0.253 C 
ATOM     79  H   UNL     1       6.893  -2.867  -2.390  1.00  0.00     0.163 HD
ATOM     80  O   UNL     1       8.207  -2.650  -4.415  1.00  0.00    -0.269 OA
BRANCH  78  81
ATOM     81  C   UNL     1       6.283  -3.121  -5.685  1.00  0.00     0.065 A 
ATOM     82  C   UNL     1       6.899  -4.066  -6.508  1.00  0.00     0.042 A 
ATOM     83  C   UNL     1       5.107  -2.459  -6.095  1.00  0.00     0.050 A 
ATOM     84  C   UNL     1       6.256  -4.593  -7.615  1.00  0.00     0.042 A 
ATOM     85  C   UNL     1       4.473  -2.969  -7.237  1.00  0.00     0.029 A 
ATOM     86  C   UNL     1       5.030  -4.031  -7.978  1.00  0.00     0.028 A 
BRANCH  83  87
ATOM     87  N   UNL     1       4.674  -1.298  -5.461  1.00  0.00    -0.360 N 
ATOM     88  C   UNL     1       3.338  -0.691  -5.628  1.00  0.00     0.178 C 
ATOM     89  C   UNL     1       5.728  -0.283  -5.337  1.00  0.00     0.178 C 
ATOM     90  C   UNL     1       3.091   0.442  -4.571  1.00  0.00     0.284 C 
ATOM     91  C   UNL     1       5.468   0.585  -4.108  1.00  0.00     0.284 C 
ATOM     92  N   UNL     1       4.216   1.329  -4.194  1.00  0.00    -0.324 N 
ATOM     93  H   UNL     1       3.974   1.654  -3.258  1.00  0.00     0.348 HD
BRANCH  92  94
ATOM     94  C   UNL     1       4.329   2.612  -4.906  1.00  0.00     0.363 C 
BRANCH  94  95
ATOM     95  C   UNL     1       4.465   2.545  -6.433  1.00  0.00     0.277 C 
ATOM     96  O   UNL     1       3.463   2.315  -7.120  1.00  0.00    -0.268 OA
ATOM     97  N   UNL     1       5.703   2.800  -7.032  1.00  0.00    -0.333 N 
ATOM     98  C   UNL     1       7.021   2.558  -6.419  1.00  0.00     0.148 C 
ATOM     99  C   UNL     1       5.725   2.889  -8.493  1.00  0.00     0.148 C 
ATOM    100  C   UNL     1       8.176   3.322  -7.071  1.00  0.00     0.181 C 
ATOM    101  C   UNL     1       6.901   3.725  -8.998  1.00  0.00     0.181 C 
ATOM    102  O   UNL     1       8.140   3.209  -8.499  1.00  0.00    -0.378 OA
ENDBRANCH  94  95
ENDBRANCH  92  94
ENDBRANCH  83  87
BRANCH  84 103
ATOM    103  N   UNL     1       6.771  -5.657  -8.385  1.00  0.00    -0.322 N 
ATOM    104  C   UNL     1       7.827  -6.527  -8.171  1.00  0.00     0.255 C 
ATOM    105  H   UNL     1       6.292  -5.808  -9.232  1.00  0.00     0.170 HD
ATOM    106  O   UNL     1       8.199  -7.279  -9.070  1.00  0.00    -0.269 OA
BRANCH 104 107
ATOM    107  C   UNL     1       8.519  -6.598  -6.866  1.00  0.00     0.041 A 
ATOM    108  C   UNL     1       9.883  -6.284  -6.815  1.00  0.00     0.014 A 
ATOM    109  C   UNL     1       7.802  -6.856  -5.691  1.00  0.00     0.034 A 
ATOM    110  C   UNL     1      10.509  -6.134  -5.576  1.00  0.00     0.002 A 
ATOM    111  C   UNL     1       8.432  -6.675  -4.461  1.00  0.00     0.041 A 
ATOM    112  C   UNL     1       9.777  -6.306  -4.399  1.00  0.00     0.020 A 
ATOM    113  Cl  UNL     1       7.517  -6.818  -3.011  1.00  0.00    -0.084 Cl
ENDBRANCH 104 107
ENDBRANCH  84 103
ENDBRANCH  78  81
ENDBRANCH  76  77
ENDBRANCH  75  76
ENDBRANCH   1  75
TORSDOF 19
