REMARK SMILES O=C(C[C@H]1CN(C(=O)c2sccc2Br)CCO1)NCCCCNC(=O)c1ccc(-c2c3nc(c(-c4c(F)cc(S(=O)(=O)[O-])cc4F)c4ccc([nH]4)c(-c4c(F)cc(S(=O)(=O)[O-])cc4F)c4nc(c(-c5c(F)cc(S(=O)(=O)[O-])cc5F)c5ccc2[nH]5)C=C4)C=C3)cc1
REMARK SMILES IDX 20 1 19 2 18 3 1 4 2 5 3 7 4 8 5 9 17 10 6 11 16 12 15 13
REMARK SMILES IDX 7 14 8 15 9 16 10 17 13 18 11 19 12 20 14 21 21 22 22 23
REMARK SMILES IDX 23 24 24 25 25 27 26 28 27 29 91 30 28 31 90 32 29 33 30 34
REMARK SMILES IDX 31 35 84 36 32 37 89 38 83 39 85 40 33 41 88 42 82 43 81 44
REMARK SMILES IDX 34 46 68 47 47 48 67 49 48 50 51 51 66 52 86 53 49 54 50 55
REMARK SMILES IDX 65 57 87 58 52 59 35 60 36 61 45 62 37 63 38 64 44 65 46 66
REMARK SMILES IDX 39 67 40 68 41 69 42 70 43 71 69 72 70 73 79 74 71 75 72 76
REMARK SMILES IDX 78 77 80 78 73 79 74 80 75 81 76 82 77 83 53 84 54 85 63 86
REMARK SMILES IDX 55 87 56 88 62 89 64 90 57 91 58 92 59 93 60 94 61 95
REMARK H PARENT 18 6 23 26 85 45 51 56
REMARK Flexibility Score: inf
ROOT
ATOM      1  C   UNL     1       8.350   5.070   2.484  1.00  0.00     0.023 C 
ENDROOT
BRANCH   1   2
ATOM      2  C   UNL     1       7.664   3.708   2.420  1.00  0.00     0.116 C 
BRANCH   2   3
ATOM      3  N   UNL     1       6.735   3.603   1.307  1.00  0.00    -0.356 N 
ATOM      4  O   UNL     1       7.588   1.688   0.446  1.00  0.00    -0.275 OA
ATOM      5  C   UNL     1       6.704   2.541   0.446  1.00  0.00     0.222 C 
ATOM      6  H   UNL     1       6.094   4.336   1.165  1.00  0.00     0.163 HD
BRANCH   5   7
ATOM      7  C   UNL     1       5.571   2.521  -0.579  1.00  0.00     0.133 C 
BRANCH   7   8
ATOM      8  C   UNL     1       4.127   2.141  -0.177  1.00  0.00     0.147 C 
ATOM      9  C   UNL     1       3.863   1.220   1.016  1.00  0.00     0.152 C 
ATOM     10  O   UNL     1       3.279   3.301  -0.039  1.00  0.00    -0.374 OA
ATOM     11  N   UNL     1       4.307   1.858   2.226  1.00  0.00    -0.333 N 
ATOM     12  C   UNL     1       3.438   4.012   1.191  1.00  0.00     0.182 C 
ATOM     13  C   UNL     1       3.621   3.143   2.457  1.00  0.00     0.148 C 
BRANCH  11  14
ATOM     14  C   UNL     1       5.136   1.327   3.221  1.00  0.00     0.265 C 
ATOM     15  O   UNL     1       5.284   2.042   4.224  1.00  0.00    -0.268 OA
BRANCH  14  16
ATOM     16  C   UNL     1       5.797  -0.001   3.170  1.00  0.00     0.106 A 
ATOM     17  S   UNL     1       6.169  -0.605   4.789  1.00  0.00    -0.137 S 
ATOM     18  C   UNL     1       6.275  -0.939   2.256  1.00  0.00     0.041 A 
ATOM     19  C   UNL     1       6.982  -1.977   4.222  1.00  0.00     0.067 A 
ATOM     20  C   UNL     1       6.956  -2.046   2.857  1.00  0.00     0.028 A 
ATOM     21  Br  UNL     1       6.295  -1.049   0.355  1.00  0.00    -0.049 Br
ENDBRANCH  14  16
ENDBRANCH  11  14
ENDBRANCH   7   8
ENDBRANCH   5   7
ENDBRANCH   2   3
ENDBRANCH   1   2
BRANCH   1  22
ATOM     22  C   UNL     1       7.403   6.274   2.519  1.00  0.00     0.023 C 
BRANCH  22  23
ATOM     23  C   UNL     1       6.385   6.281   3.657  1.00  0.00     0.116 C 
BRANCH  23  24
ATOM     24  N   UNL     1       6.995   6.474   4.960  1.00  0.00    -0.352 N 
ATOM     25  C   UNL     1       6.804   7.479   5.880  1.00  0.00     0.251 C 
ATOM     26  H   UNL     1       7.643   5.782   5.224  1.00  0.00     0.163 HD
ATOM     27  O   UNL     1       7.535   7.552   6.862  1.00  0.00    -0.269 OA
BRANCH  25  28
ATOM     28  C   UNL     1       5.742   8.493   5.676  1.00  0.00     0.039 A 
ATOM     29  C   UNL     1       6.053   9.840   5.883  1.00  0.00     0.014 A 
ATOM     30  C   UNL     1       4.446   8.128   5.299  1.00  0.00     0.014 A 
ATOM     31  C   UNL     1       5.087  10.822   5.642  1.00  0.00     0.010 A 
ATOM     32  C   UNL     1       3.507   9.113   4.989  1.00  0.00     0.010 A 
ATOM     33  C   UNL     1       3.817  10.473   5.153  1.00  0.00    -0.014 A 
BRANCH  33  34
ATOM     34  C   UNL     1       2.819  11.518   4.796  1.00  0.00     0.031 A 
ATOM     35  C   UNL     1       1.508  11.611   5.531  1.00  0.00     0.074 A 
ATOM     36  C   UNL     1       3.073  12.360   3.773  1.00  0.00     0.049 A 
ATOM     37  N   UNL     1       0.502  12.424   5.327  1.00  0.00    -0.248 NA
ATOM     38  C   UNL     1       1.289  10.650   6.623  1.00  0.00     0.031 C 
ATOM     39  C   UNL     1       4.285  12.348   2.950  1.00  0.00     0.029 A 
ATOM     40  N   UNL     1       2.325  13.383   3.241  1.00  0.00    -0.354 N 
ATOM     41  C   UNL     1      -0.467  12.072   6.260  1.00  0.00     0.074 A 
ATOM     42  C   UNL     1       0.047  10.933   6.990  1.00  0.00     0.031 C 
ATOM     43  C   UNL     1       4.207  13.328   2.036  1.00  0.00     0.029 A 
ATOM     44  C   UNL     1       2.925  14.011   2.175  1.00  0.00     0.049 A 
ATOM     45  H   UNL     1       1.442  13.641   3.591  1.00  0.00     0.167 HD
ATOM     46  C   UNL     1      -1.665  12.658   6.503  1.00  0.00     0.037 A 
ATOM     47  C   UNL     1       2.492  15.016   1.388  1.00  0.00     0.037 A 
ATOM     48  C   UNL     1      -2.169  13.798   5.780  1.00  0.00     0.049 A 
ATOM     49  C   UNL     1       1.149  15.639   1.663  1.00  0.00     0.074 A 
ATOM     50  C   UNL     1      -3.351  14.490   5.981  1.00  0.00     0.029 A 
ATOM     51  N   UNL     1      -1.527  14.412   4.713  1.00  0.00    -0.354 N 
ATOM     52  N   UNL     1       0.272  15.331   2.589  1.00  0.00    -0.248 NA
ATOM     53  C   UNL     1       0.738  16.749   0.792  1.00  0.00     0.031 C 
ATOM     54  C   UNL     1      -3.450  15.486   5.004  1.00  0.00     0.029 A 
ATOM     55  C   UNL     1      -2.300  15.457   4.231  1.00  0.00     0.049 A 
ATOM     56  H   UNL     1      -0.651  14.144   4.352  1.00  0.00     0.167 HD
ATOM     57  C   UNL     1      -0.780  16.227   2.430  1.00  0.00     0.074 A 
ATOM     58  C   UNL     1      -0.424  17.096   1.327  1.00  0.00     0.031 C 
ATOM     59  C   UNL     1      -1.935  16.321   3.135  1.00  0.00     0.037 A 
BRANCH  46  60
ATOM     60  C   UNL     1      -2.518  12.075   7.599  1.00  0.00     0.058 A 
ATOM     61  C   UNL     1      -2.152  12.174   8.951  1.00  0.00     0.135 A 
ATOM     62  C   UNL     1      -3.736  11.442   7.299  1.00  0.00     0.135 A 
ATOM     63  F   UNL     1      -0.994  12.759   9.297  1.00  0.00    -0.206 F 
ATOM     64  C   UNL     1      -2.942  11.637   9.962  1.00  0.00     0.059 A 
ATOM     65  C   UNL     1      -4.558  10.925   8.297  1.00  0.00     0.059 A 
ATOM     66  F   UNL     1      -4.139  11.320   6.024  1.00  0.00    -0.206 F 
ATOM     67  C   UNL     1      -4.144  11.014   9.625  1.00  0.00     0.060 A 
BRANCH  67  68
ATOM     68  S   UNL     1      -5.156  10.320  10.949  1.00  0.00     0.124 S 
ATOM     69  O   UNL     1      -4.361   9.163  11.348  1.00  0.00    -0.237 OA
ATOM     70  O   UNL     1      -5.204  11.417  11.911  1.00  0.00    -0.237 OA
ATOM     71  O   UNL     1      -6.420  10.014  10.288  1.00  0.00    -0.744 OA
ENDBRANCH  67  68
ENDBRANCH  46  60
BRANCH  47  72
ATOM     72  C   UNL     1       3.345  15.503   0.269  1.00  0.00     0.058 A 
ATOM     73  C   UNL     1       3.940  16.773   0.308  1.00  0.00     0.135 A 
ATOM     74  C   UNL     1       3.594  14.701  -0.856  1.00  0.00     0.135 A 
ATOM     75  F   UNL     1       3.727  17.581   1.358  1.00  0.00    -0.206 F 
ATOM     76  C   UNL     1       4.739  17.237  -0.732  1.00  0.00     0.059 A 
ATOM     77  C   UNL     1       4.412  15.131  -1.896  1.00  0.00     0.059 A 
ATOM     78  F   UNL     1       3.061  13.472  -0.937  1.00  0.00    -0.206 F 
ATOM     79  C   UNL     1       4.973  16.405  -1.829  1.00  0.00     0.060 A 
BRANCH  79  80
ATOM     80  S   UNL     1       6.054  16.996  -3.149  1.00  0.00     0.124 S 
ATOM     81  O   UNL     1       5.219  18.010  -3.782  1.00  0.00    -0.237 OA
ATOM     82  O   UNL     1       7.206  17.491  -2.402  1.00  0.00    -0.237 OA
ATOM     83  O   UNL     1       6.301  15.796  -3.943  1.00  0.00    -0.744 OA
ENDBRANCH  79  80
ENDBRANCH  47  72
BRANCH  59  84
ATOM     84  C   UNL     1      -2.890  17.424   2.764  1.00  0.00     0.058 A 
ATOM     85  C   UNL     1      -3.629  17.396   1.571  1.00  0.00     0.135 A 
ATOM     86  C   UNL     1      -3.106  18.500   3.641  1.00  0.00     0.135 A 
ATOM     87  F   UNL     1      -3.458  16.396   0.692  1.00  0.00    -0.206 F 
ATOM     88  C   UNL     1      -4.531  18.407   1.250  1.00  0.00     0.059 A 
ATOM     89  C   UNL     1      -4.026  19.505   3.355  1.00  0.00     0.059 A 
ATOM     90  F   UNL     1      -2.434  18.573   4.801  1.00  0.00    -0.206 F 
ATOM     91  C   UNL     1      -4.725  19.456   2.151  1.00  0.00     0.060 A 
BRANCH  91  92
ATOM     92  S   UNL     1      -5.923  20.741   1.737  1.00  0.00     0.124 S 
ATOM     93  O   UNL     1      -5.228  21.461   0.675  1.00  0.00    -0.237 OA
ATOM     94  O   UNL     1      -7.084  19.961   1.319  1.00  0.00    -0.237 OA
ATOM     95  O   UNL     1      -6.085  21.472   2.990  1.00  0.00    -0.744 OA
ENDBRANCH  91  92
ENDBRANCH  59  84
ENDBRANCH  33  34
ENDBRANCH  25  28
ENDBRANCH  23  24
ENDBRANCH  22  23
ENDBRANCH   1  22
TORSDOF 17
