REMARK SMILES C[C@@H]1CCC[C@@]1(C(=O)NCCCCNC(=O)c1ccc(-c2c3nc(c(-c4c(F)cc(S(=O)(=O)[O-])cc4F)c4ccc([nH]4)c(-c4c(F)cc(S(=O)(=O)[O-])cc4F)c4nc(c(-c5c(F)cc(S(=O)(=O)[O-])cc5F)c5ccc2[nH]5)C=C4)C=C3)cc1)c1ccc(Cl)cc1Cl
REMARK SMILES IDX 12 1 11 2 10 3 9 4 7 5 8 6 6 8 1 9 2 10 3 11 4 12 5 13 83 14
REMARK SMILES IDX 84 15 89 16 85 17 88 18 90 19 86 20 87 21 13 22 14 23 15 24
REMARK SMILES IDX 16 26 17 27 18 28 82 29 19 30 81 31 20 32 21 33 22 34 75 35
REMARK SMILES IDX 23 36 80 37 74 38 76 39 24 40 79 41 73 42 72 43 25 45 59 46
REMARK SMILES IDX 38 47 58 48 39 49 42 50 57 51 77 52 40 53 41 54 56 56 78 57
REMARK SMILES IDX 43 58 26 59 27 60 36 61 28 62 29 63 35 64 37 65 30 66 31 67
REMARK SMILES IDX 32 68 33 69 34 70 60 71 61 72 70 73 62 74 63 75 69 76 71 77
REMARK SMILES IDX 64 78 65 79 66 80 67 81 68 82 44 83 45 84 54 85 46 86 47 87
REMARK SMILES IDX 53 88 55 89 48 90 49 91 50 92 51 93 52 94
REMARK H PARENT 9 7 14 25 76 44 42 55
REMARK Flexibility Score: inf
ROOT
ATOM      1  C   UNL     1       4.551   1.710   2.443  1.00  0.00     0.023 C 
ENDROOT
BRANCH   1   2
ATOM      2  C   UNL     1       3.256   0.909   2.481  1.00  0.00     0.023 C 
BRANCH   2   3
ATOM      3  C   UNL     1       1.991   1.758   2.452  1.00  0.00     0.116 C 
BRANCH   3   4
ATOM      4  N   UNL     1       1.752   2.365   1.158  1.00  0.00    -0.355 N 
ATOM      5  C   UNL     1       0.748   2.136   0.254  1.00  0.00     0.230 C 
ATOM      6  O   UNL     1       0.767   2.785  -0.795  1.00  0.00    -0.274 OA
ATOM      7  H   UNL     1       2.410   3.045   0.887  1.00  0.00     0.163 HD
BRANCH   5   8
ATOM      8  C   UNL     1      -0.321   1.041   0.535  1.00  0.00     0.078 C 
ATOM      9  C   UNL     1       1.537  -0.388  -0.677  1.00  0.00     0.009 C 
ATOM     10  C   UNL     1       0.414  -0.353   0.387  1.00  0.00     0.006 C 
ATOM     11  C   UNL     1      -0.659  -1.355  -0.062  1.00  0.00     0.005 C 
ATOM     12  C   UNL     1      -1.780  -0.535  -0.682  1.00  0.00     0.002 C 
ATOM     13  C   UNL     1      -1.361   0.935  -0.607  1.00  0.00     0.022 C 
BRANCH   8  14
ATOM     14  C   UNL     1      -1.086   1.320   1.870  1.00  0.00    -0.013 A 
ATOM     15  C   UNL     1      -1.420   0.263   2.743  1.00  0.00     0.008 A 
ATOM     16  C   UNL     1      -1.419   2.627   2.318  1.00  0.00     0.046 A 
ATOM     17  C   UNL     1      -1.963   0.490   4.014  1.00  0.00     0.021 A 
ATOM     18  C   UNL     1      -1.914   2.854   3.612  1.00  0.00     0.041 A 
ATOM     19  Cl  UNL     1      -1.282   4.047   1.340  1.00  0.00    -0.084 Cl
ATOM     20  C   UNL     1      -2.173   1.786   4.456  1.00  0.00     0.042 A 
ATOM     21  Cl  UNL     1      -2.765   2.066   6.046  1.00  0.00    -0.084 Cl
ENDBRANCH   8  14
ENDBRANCH   5   8
ENDBRANCH   3   4
ENDBRANCH   2   3
ENDBRANCH   1   2
BRANCH   1  22
ATOM     22  C   UNL     1       4.650   2.806   3.496  1.00  0.00     0.116 C 
BRANCH  22  23
ATOM     23  N   UNL     1       4.373   2.333   4.848  1.00  0.00    -0.352 N 
ATOM     24  C   UNL     1       5.075   2.580   6.002  1.00  0.00     0.251 C 
ATOM     25  H   UNL     1       3.578   1.761   4.946  1.00  0.00     0.163 HD
ATOM     26  O   UNL     1       4.777   2.013   7.048  1.00  0.00    -0.269 OA
BRANCH  24  27
ATOM     27  C   UNL     1       6.217   3.511   5.945  1.00  0.00     0.039 A 
ATOM     28  C   UNL     1       7.459   3.090   6.422  1.00  0.00     0.014 A 
ATOM     29  C   UNL     1       6.069   4.758   5.333  1.00  0.00     0.014 A 
ATOM     30  C   UNL     1       8.577   3.896   6.212  1.00  0.00     0.010 A 
ATOM     31  C   UNL     1       7.197   5.515   5.047  1.00  0.00     0.010 A 
ATOM     32  C   UNL     1       8.461   5.093   5.485  1.00  0.00    -0.014 A 
BRANCH  32  33
ATOM     33  C   UNL     1       9.650   5.925   5.176  1.00  0.00     0.031 A 
ATOM     34  C   UNL     1       9.739   7.326   5.715  1.00  0.00     0.074 A 
ATOM     35  C   UNL     1      10.605   5.446   4.355  1.00  0.00     0.049 A 
ATOM     36  N   UNL     1      10.655   8.235   5.502  1.00  0.00    -0.248 NA
ATOM     37  C   UNL     1       8.635   7.777   6.578  1.00  0.00     0.031 C 
ATOM     38  C   UNL     1      10.594   4.127   3.717  1.00  0.00     0.029 A 
ATOM     39  N   UNL     1      11.770   6.018   3.908  1.00  0.00    -0.354 N 
ATOM     40  C   UNL     1      10.228   9.366   6.186  1.00  0.00     0.074 A 
ATOM     41  C   UNL     1       8.943   9.051   6.770  1.00  0.00     0.031 C 
ATOM     42  C   UNL     1      11.711   3.981   2.985  1.00  0.00     0.029 A 
ATOM     43  C   UNL     1      12.502   5.205   3.075  1.00  0.00     0.049 A 
ATOM     44  H   UNL     1      12.055   6.926   4.161  1.00  0.00     0.167 HD
ATOM     45  C   UNL     1      10.863  10.552   6.339  1.00  0.00     0.037 A 
ATOM     46  C   UNL     1      13.677   5.423   2.455  1.00  0.00     0.037 A 
ATOM     47  C   UNL     1      12.160  10.843   5.790  1.00  0.00     0.049 A 
ATOM     48  C   UNL     1      14.380   6.736   2.667  1.00  0.00     0.074 A 
ATOM     49  C   UNL     1      12.923  11.987   5.941  1.00  0.00     0.029 A 
ATOM     50  N   UNL     1      12.889   9.979   4.986  1.00  0.00    -0.354 N 
ATOM     51  N   UNL     1      13.995   7.772   3.374  1.00  0.00    -0.248 NA
ATOM     52  C   UNL     1      15.681   6.908   2.007  1.00  0.00     0.031 C 
ATOM     53  C   UNL     1      14.100  11.827   5.202  1.00  0.00     0.029 A 
ATOM     54  C   UNL     1      14.088  10.568   4.624  1.00  0.00     0.049 A 
ATOM     55  H   UNL     1      12.597   9.079   4.713  1.00  0.00     0.167 HD
ATOM     56  C   UNL     1      15.016   8.708   3.264  1.00  0.00     0.074 A 
ATOM     57  C   UNL     1      16.042   8.111   2.433  1.00  0.00     0.031 C 
ATOM     58  C   UNL     1      15.099   9.950   3.803  1.00  0.00     0.037 A 
BRANCH  45  59
ATOM     59  C   UNL     1      10.168  11.611   7.148  1.00  0.00     0.058 A 
ATOM     60  C   UNL     1      10.009  11.490   8.538  1.00  0.00     0.135 A 
ATOM     61  C   UNL     1       9.670  12.770   6.531  1.00  0.00     0.135 A 
ATOM     62  F   UNL     1      10.450  10.393   9.175  1.00  0.00    -0.206 F 
ATOM     63  C   UNL     1       9.353  12.463   9.284  1.00  0.00     0.059 A 
ATOM     64  C   UNL     1       9.035  13.770   7.263  1.00  0.00     0.059 A 
ATOM     65  F   UNL     1       9.792  12.937   5.205  1.00  0.00    -0.206 F 
ATOM     66  C   UNL     1       8.867  13.599   8.636  1.00  0.00     0.060 A 
BRANCH  66  67
ATOM     67  S   UNL     1       8.021  14.854   9.619  1.00  0.00     0.124 S 
ATOM     68  O   UNL     1       6.736  14.208   9.870  1.00  0.00    -0.237 OA
ATOM     69  O   UNL     1       8.898  14.990  10.777  1.00  0.00    -0.237 OA
ATOM     70  O   UNL     1       7.979  16.011   8.729  1.00  0.00    -0.744 OA
ENDBRANCH  66  67
ENDBRANCH  45  59
BRANCH  46  71
ATOM     71  C   UNL     1      14.281   4.361   1.607  1.00  0.00     0.058 A 
ATOM     72  C   UNL     1      15.418   3.659   2.035  1.00  0.00     0.135 A 
ATOM     73  C   UNL     1      13.729   4.015   0.364  1.00  0.00     0.135 A 
ATOM     74  F   UNL     1      15.984   3.955   3.215  1.00  0.00    -0.206 F 
ATOM     75  C   UNL     1      15.998   2.664   1.254  1.00  0.00     0.059 A 
ATOM     76  C   UNL     1      14.277   3.009  -0.425  1.00  0.00     0.059 A 
ATOM     77  F   UNL     1      12.630   4.644  -0.082  1.00  0.00    -0.206 F 
ATOM     78  C   UNL     1      15.419   2.345   0.025  1.00  0.00     0.060 A 
BRANCH  78  79
ATOM     79  S   UNL     1      16.150   1.019  -0.959  1.00  0.00     0.124 S 
ATOM     80  O   UNL     1      17.346   1.668  -1.483  1.00  0.00    -0.237 OA
ATOM     81  O   UNL     1      16.373  -0.020   0.042  1.00  0.00    -0.237 OA
ATOM     82  O   UNL     1      15.111   0.719  -1.940  1.00  0.00    -0.744 OA
ENDBRANCH  78  79
ENDBRANCH  46  71
BRANCH  58  83
ATOM     83  C   UNL     1      16.354  10.733   3.538  1.00  0.00     0.058 A 
ATOM     84  C   UNL     1      16.611  11.310   2.285  1.00  0.00     0.135 A 
ATOM     85  C   UNL     1      17.284  10.952   4.567  1.00  0.00     0.135 A 
ATOM     86  F   UNL     1      15.755  11.126   1.268  1.00  0.00    -0.206 F 
ATOM     87  C   UNL     1      17.760  12.059   2.054  1.00  0.00     0.059 A 
ATOM     88  C   UNL     1      18.427  11.718   4.365  1.00  0.00     0.059 A 
ATOM     89  F   UNL     1      17.078  10.431   5.787  1.00  0.00    -0.206 F 
ATOM     90  C   UNL     1      18.662  12.258   3.101  1.00  0.00     0.060 A 
BRANCH  90  91
ATOM     91  S   UNL     1      20.134  13.258   2.799  1.00  0.00     0.124 S 
ATOM     92  O   UNL     1      20.966  12.332   2.038  1.00  0.00    -0.237 OA
ATOM     93  O   UNL     1      19.596  14.389   2.049  1.00  0.00    -0.237 OA
ATOM     94  O   UNL     1      20.611  13.574   4.142  1.00  0.00    -0.744 OA
ENDBRANCH  90  91
ENDBRANCH  58  83
ENDBRANCH  32  33
ENDBRANCH  24  27
ENDBRANCH  22  23
ENDBRANCH   1  22
TORSDOF 15
