REMARK SMILES O=C(CN1CC2(CCC1=O)CC[NH+](Cc1nc3ccccc3[nH]1)CC2)NCCCCNC(=O)c1ccc(-c2c3nc(c(-c4c(F)cc(S(=O)(=O)[O-])cc4F)c4ccc([nH]4)c(-c4c(F)cc(S(=O)(=O)[O-])cc4F)c4nc(c(-c5c(F)cc(S(=O)(=O)[O-])cc5F)c5ccc2[nH]5)C=C4)C=C3)cc1
REMARK SMILES IDX 28 1 27 2 26 3 1 4 2 5 3 7 4 8 5 9 9 10 6 11 8 12 10 13 7 14
REMARK SMILES IDX 11 15 25 16 12 17 24 18 13 19 14 21 15 22 16 23 23 24 17 25
REMARK SMILES IDX 22 26 18 28 21 29 19 30 20 31 29 32 30 33 31 34 32 35 33 37
REMARK SMILES IDX 34 38 35 39 99 40 36 41 98 42 37 43 38 44 39 45 92 46 40 47
REMARK SMILES IDX 97 48 91 49 93 50 41 51 96 52 90 53 89 54 42 56 76 57 55 58
REMARK SMILES IDX 75 59 56 60 59 61 74 62 94 63 57 64 58 65 73 67 95 68 60 69
REMARK SMILES IDX 43 70 44 71 53 72 45 73 46 74 52 75 54 76 47 77 48 78 49 79
REMARK SMILES IDX 50 80 51 81 77 82 78 83 87 84 79 85 80 86 86 87 88 88 81 89
REMARK SMILES IDX 82 90 83 91 84 92 85 93 61 94 62 95 71 96 63 97 64 98 70 99
REMARK SMILES IDX 72 100 65 101 66 102 67 103 68 104 69 105
REMARK H PARENT 26 6 13 20 23 27 31 36 93 55 59 66
REMARK Flexibility Score: inf
ROOT
ATOM      1  C   UNL     1       2.499   0.754   3.619  1.00  0.00     0.023 C 
ENDROOT
BRANCH   1   2
ATOM      2  C   UNL     1       2.136   1.060   2.171  1.00  0.00     0.116 C 
BRANCH   2   3
ATOM      3  N   UNL     1       2.932   0.275   1.254  1.00  0.00    -0.355 N 
ATOM      4  O   UNL     1       1.216  -0.368  -0.139  1.00  0.00    -0.273 OA
ATOM      5  C   UNL     1       2.412  -0.346   0.139  1.00  0.00     0.239 C 
ATOM      6  H   UNL     1       3.895   0.178   1.436  1.00  0.00     0.163 HD
BRANCH   5   7
ATOM      7  C   UNL     1       3.499  -0.867  -0.803  1.00  0.00     0.219 C 
BRANCH   7   8
ATOM      8  N   UNL     1       4.084   0.136  -1.702  1.00  0.00    -0.333 N 
ATOM      9  C   UNL     1       4.109   1.565  -1.371  1.00  0.00     0.127 C 
ATOM     10  C   UNL     1       4.650  -0.329  -2.880  1.00  0.00     0.223 C 
ATOM     11  C   UNL     1       3.560   2.385  -2.543  1.00  0.00    -0.001 C 
ATOM     12  C   UNL     1       4.692   0.645  -4.044  1.00  0.00     0.101 C 
ATOM     13  O   UNL     1       4.944  -1.512  -3.049  1.00  0.00    -0.275 OA
ATOM     14  C   UNL     1       4.553   2.119  -3.696  1.00  0.00     0.019 C 
ATOM     15  C   UNL     1       2.126   1.898  -2.878  1.00  0.00     0.070 C 
ATOM     16  C   UNL     1       3.574   3.902  -2.234  1.00  0.00     0.070 C 
ATOM     17  C   UNL     1       1.034   2.491  -1.987  1.00  0.00     0.263 C 
ATOM     18  C   UNL     1       2.389   4.410  -1.407  1.00  0.00     0.263 C 
ATOM     19  N   UNL     1       1.079   3.937  -1.843  1.00  0.00    -0.329 N 
ATOM     20  H   UNL     1       0.451   4.135  -1.065  1.00  0.00     0.348 HD
BRANCH  19  21
ATOM     21  C   UNL     1       0.401   4.735  -2.878  1.00  0.00     0.338 C 
BRANCH  21  22
ATOM     22  C   UNL     1       1.060   4.792  -4.219  1.00  0.00     0.162 A 
ATOM     23  N   UNL     1       1.896   5.712  -4.662  1.00  0.00    -0.227 NA
ATOM     24  N   UNL     1       0.900   3.806  -5.166  1.00  0.00    -0.337 N 
ATOM     25  C   UNL     1       2.506   5.147  -5.755  1.00  0.00     0.089 A 
ATOM     26  C   UNL     1       1.948   3.908  -6.047  1.00  0.00     0.066 A 
ATOM     27  H   UNL     1       0.168   3.149  -5.205  1.00  0.00     0.168 HD
ATOM     28  C   UNL     1       3.607   5.594  -6.498  1.00  0.00     0.030 A 
ATOM     29  C   UNL     1       2.474   3.030  -6.997  1.00  0.00     0.028 A 
ATOM     30  C   UNL     1       4.162   4.732  -7.453  1.00  0.00     0.002 A 
ATOM     31  C   UNL     1       3.616   3.465  -7.681  1.00  0.00     0.002 A 
ENDBRANCH  21  22
ENDBRANCH  19  21
ENDBRANCH   7   8
ENDBRANCH   5   7
ENDBRANCH   2   3
ENDBRANCH   1   2
BRANCH   1  32
ATOM     32  C   UNL     1       3.980   0.948   3.965  1.00  0.00     0.023 C 
BRANCH  32  33
ATOM     33  C   UNL     1       4.514   2.363   3.760  1.00  0.00     0.116 C 
BRANCH  33  34
ATOM     34  N   UNL     1       3.927   3.310   4.692  1.00  0.00    -0.352 N 
ATOM     35  C   UNL     1       4.537   4.093   5.645  1.00  0.00     0.251 C 
ATOM     36  H   UNL     1       2.949   3.406   4.633  1.00  0.00     0.163 HD
ATOM     37  O   UNL     1       3.854   4.676   6.478  1.00  0.00    -0.269 OA
BRANCH  35  38
ATOM     38  C   UNL     1       6.014   4.213   5.679  1.00  0.00     0.039 A 
ATOM     39  C   UNL     1       6.668   4.144   6.913  1.00  0.00     0.014 A 
ATOM     40  C   UNL     1       6.753   4.407   4.509  1.00  0.00     0.014 A 
ATOM     41  C   UNL     1       8.064   4.201   6.964  1.00  0.00     0.010 A 
ATOM     42  C   UNL     1       8.147   4.388   4.555  1.00  0.00     0.010 A 
ATOM     43  C   UNL     1       8.819   4.284   5.782  1.00  0.00    -0.014 A 
BRANCH  43  44
ATOM     44  C   UNL     1      10.307   4.250   5.812  1.00  0.00     0.031 A 
ATOM     45  C   UNL     1      11.107   5.426   5.317  1.00  0.00     0.074 A 
ATOM     46  C   UNL     1      10.940   3.134   6.228  1.00  0.00     0.049 A 
ATOM     47  N   UNL     1      12.405   5.555   5.208  1.00  0.00    -0.248 NA
ATOM     48  C   UNL     1      10.350   6.604   4.864  1.00  0.00     0.031 C 
ATOM     49  C   UNL     1      10.281   1.911   6.692  1.00  0.00     0.029 A 
ATOM     50  N   UNL     1      12.279   2.841   6.319  1.00  0.00    -0.354 N 
ATOM     51  C   UNL     1      12.619   6.816   4.662  1.00  0.00     0.074 A 
ATOM     52  C   UNL     1      11.315   7.393   4.415  1.00  0.00     0.031 C 
ATOM     53  C   UNL     1      11.215   1.012   7.042  1.00  0.00     0.029 A 
ATOM     54  C   UNL     1      12.538   1.573   6.786  1.00  0.00     0.049 A 
ATOM     55  H   UNL     1      12.987   3.479   6.074  1.00  0.00     0.167 HD
ATOM     56  C   UNL     1      13.793   7.443   4.410  1.00  0.00     0.037 A 
ATOM     57  C   UNL     1      13.706   0.929   6.978  1.00  0.00     0.037 A 
ATOM     58  C   UNL     1      15.088   6.872   4.679  1.00  0.00     0.049 A 
ATOM     59  C   UNL     1      14.997   1.642   6.674  1.00  0.00     0.074 A 
ATOM     60  C   UNL     1      16.334   7.454   4.516  1.00  0.00     0.029 A 
ATOM     61  N   UNL     1      15.308   5.589   5.159  1.00  0.00    -0.354 N 
ATOM     62  N   UNL     1      15.179   2.860   6.223  1.00  0.00    -0.248 NA
ATOM     63  C   UNL     1      16.241   0.896   6.910  1.00  0.00     0.031 C 
ATOM     64  C   UNL     1      17.307   6.504   4.841  1.00  0.00     0.029 A 
ATOM     65  C   UNL     1      16.669   5.351   5.269  1.00  0.00     0.049 A 
ATOM     66  H   UNL     1      14.601   4.943   5.387  1.00  0.00     0.167 HD
ATOM     67  C   UNL     1      16.558   3.037   6.153  1.00  0.00     0.074 A 
ATOM     68  C   UNL     1      17.160   1.805   6.618  1.00  0.00     0.031 C 
ATOM     69  C   UNL     1      17.259   4.123   5.742  1.00  0.00     0.037 A 
BRANCH  56  70
ATOM     70  C   UNL     1      13.737   8.823   3.809  1.00  0.00     0.058 A 
ATOM     71  C   UNL     1      13.274   9.931   4.537  1.00  0.00     0.135 A 
ATOM     72  C   UNL     1      14.200   9.050   2.502  1.00  0.00     0.135 A 
ATOM     73  F   UNL     1      12.807   9.772   5.786  1.00  0.00    -0.206 F 
ATOM     74  C   UNL     1      13.243  11.206   3.982  1.00  0.00     0.059 A 
ATOM     75  C   UNL     1      14.208  10.322   1.938  1.00  0.00     0.059 A 
ATOM     76  F   UNL     1      14.655   8.029   1.759  1.00  0.00    -0.206 F 
ATOM     77  C   UNL     1      13.713  11.392   2.682  1.00  0.00     0.060 A 
BRANCH  77  78
ATOM     78  S   UNL     1      13.674  13.056   1.982  1.00  0.00     0.124 S 
ATOM     79  O   UNL     1      12.242  13.251   1.776  1.00  0.00    -0.237 OA
ATOM     80  O   UNL     1      14.276  13.855   3.044  1.00  0.00    -0.237 OA
ATOM     81  O   UNL     1      14.471  12.933   0.765  1.00  0.00    -0.744 OA
ENDBRANCH  77  78
ENDBRANCH  56  70
BRANCH  57  82
ATOM     82  C   UNL     1      13.713  -0.465   7.501  1.00  0.00     0.058 A 
ATOM     83  C   UNL     1      14.197  -0.752   8.786  1.00  0.00     0.135 A 
ATOM     84  C   UNL     1      13.235  -1.537   6.731  1.00  0.00     0.135 A 
ATOM     85  F   UNL     1      14.672   0.237   9.559  1.00  0.00    -0.206 F 
ATOM     86  C   UNL     1      14.226  -2.051   9.283  1.00  0.00     0.059 A 
ATOM     87  C   UNL     1      13.226  -2.841   7.216  1.00  0.00     0.059 A 
ATOM     88  F   UNL     1      12.746  -1.316   5.500  1.00  0.00    -0.206 F 
ATOM     89  C   UNL     1      13.736  -3.090   8.489  1.00  0.00     0.060 A 
BRANCH  89  90
ATOM     90  S   UNL     1      13.739  -4.766   9.161  1.00  0.00     0.124 S 
ATOM     91  O   UNL     1      15.161  -5.088   9.139  1.00  0.00    -0.237 OA
ATOM     92  O   UNL     1      13.148  -4.568  10.480  1.00  0.00    -0.237 OA
ATOM     93  O   UNL     1      12.909  -5.507   8.215  1.00  0.00    -0.744 OA
ENDBRANCH  89  90
ENDBRANCH  57  82
BRANCH  69  94
ATOM     94  C   UNL     1      18.761   4.050   5.814  1.00  0.00     0.058 A 
ATOM     95  C   UNL     1      19.509   3.247   4.939  1.00  0.00     0.135 A 
ATOM     96  C   UNL     1      19.465   4.838   6.741  1.00  0.00     0.135 A 
ATOM     97  F   UNL     1      18.887   2.469   4.039  1.00  0.00    -0.206 F 
ATOM     98  C   UNL     1      20.898   3.208   4.996  1.00  0.00     0.059 A 
ATOM     99  C   UNL     1      20.855   4.839   6.794  1.00  0.00     0.059 A 
ATOM    100  F   UNL     1      18.800   5.632   7.596  1.00  0.00    -0.206 F 
ATOM    101  C   UNL     1      21.563   4.011   5.925  1.00  0.00     0.060 A 
BRANCH 101 102
ATOM    102  S   UNL     1      23.368   3.978   5.963  1.00  0.00     0.124 S 
ATOM    103  O   UNL     1      23.625   2.669   6.554  1.00  0.00    -0.237 OA
ATOM    104  O   UNL     1      23.712   4.115   4.551  1.00  0.00    -0.237 OA
ATOM    105  O   UNL     1      23.712   5.124   6.800  1.00  0.00    -0.744 OA
ENDBRANCH 101 102
ENDBRANCH  69  94
ENDBRANCH  43  44
ENDBRANCH  35  38
ENDBRANCH  33  34
ENDBRANCH  32  33
ENDBRANCH   1  32
TORSDOF 17
