REMARK SMILES C[NH+](C)Cc1ccccc1[C@H]1[NH2+][C@@H](C(=O)NCCCCNC(=O)c2ccc(-c3c4nc(c(-c5c(F)cc(S(=O)(=O)[O-])cc5F)c5ccc([nH]5)c(-c5c(F)cc(S(=O)(=O)[O-])cc5F)c5nc(c(-c6c(F)cc(S(=O)(=O)[O-])cc6F)c6ccc3[nH]6)C=C5)C=C4)cc2)C(C)(C)S1
REMARK SMILES IDX 18 1 17 2 16 3 14 4 15 5 13 7 11 8 12 9 93 10 90 13 91 14
REMARK SMILES IDX 92 15 10 16 5 17 6 18 7 19 9 20 8 21 4 22 2 23 1 24 3 25
REMARK SMILES IDX 19 27 20 28 21 29 22 30 23 32 24 33 25 34 89 35 26 36 88 37
REMARK SMILES IDX 27 38 28 39 29 40 82 41 30 42 87 43 81 44 83 45 31 46 86 47
REMARK SMILES IDX 80 48 79 49 32 51 66 52 45 53 65 54 46 55 49 56 64 57 84 58
REMARK SMILES IDX 47 59 48 60 63 62 85 63 50 64 33 65 34 66 43 67 35 68 36 69
REMARK SMILES IDX 42 70 44 71 37 72 38 73 39 74 40 75 41 76 67 77 68 78 77 79
REMARK SMILES IDX 69 80 70 81 76 82 78 83 71 84 72 85 73 86 74 87 75 88 51 89
REMARK SMILES IDX 52 90 61 91 53 92 54 93 60 94 62 95 55 96 56 97 57 98 58 99
REMARK SMILES IDX 59 100
REMARK H PARENT 16 6 12 11 12 12 2 26 21 31 83 50 49 61
REMARK Flexibility Score: inf
ROOT
ATOM      1  C   UNL     1       2.851   1.557   3.095  1.00  0.00     0.023 C 
ENDROOT
BRANCH   1   2
ATOM      2  C   UNL     1       3.484   0.458   2.245  1.00  0.00     0.116 C 
BRANCH   2   3
ATOM      3  N   UNL     1       4.644  -0.141   2.874  1.00  0.00    -0.351 N 
ATOM      4  C   UNL     1       4.908  -1.393   3.339  1.00  0.00     0.279 C 
ATOM      5  O   UNL     1       6.029  -1.558   3.840  1.00  0.00    -0.268 OA
ATOM      6  H   UNL     1       5.395   0.485   2.990  1.00  0.00     0.163 HD
BRANCH   4   7
ATOM      7  C   UNL     1       3.903  -2.566   3.359  1.00  0.00     0.289 C 
ATOM      8  C   UNL     1       2.207  -3.837   2.308  1.00  0.00     0.275 C 
ATOM      9  N   UNL     1       3.229  -2.821   2.060  1.00  0.00    -0.320 N 
ATOM     10  S   UNL     1       1.583  -3.684   4.003  1.00  0.00    -0.081 SA
ATOM     11  H   UNL     1       2.797  -1.964   1.714  1.00  0.00     0.348 HD
ATOM     12  H   UNL     1       3.897  -3.137   1.357  1.00  0.00     0.348 HD
ATOM     13  C   UNL     1       2.921  -2.557   4.556  1.00  0.00     0.077 C 
ATOM     14  C   UNL     1       2.277  -1.224   4.930  1.00  0.00     0.030 C 
ATOM     15  C   UNL     1       3.584  -3.136   5.813  1.00  0.00     0.030 C 
BRANCH   8  16
ATOM     16  C   UNL     1       1.115  -3.901   1.238  1.00  0.00     0.029 A 
ATOM     17  C   UNL     1       0.153  -2.887   0.952  1.00  0.00     0.016 A 
ATOM     18  C   UNL     1      -0.831  -3.150  -0.026  1.00  0.00     0.010 A 
ATOM     19  C   UNL     1      -0.852  -4.340  -0.750  1.00  0.00     0.001 A 
ATOM     20  C   UNL     1       1.064  -5.099   0.484  1.00  0.00     0.011 A 
ATOM     21  C   UNL     1       0.098  -5.315  -0.497  1.00  0.00     0.001 A 
BRANCH  17  22
ATOM     22  C   UNL     1       0.056  -1.584   1.729  1.00  0.00     0.299 C 
BRANCH  22  23
ATOM     23  N   UNL     1      -0.034  -0.295   1.019  1.00  0.00    -0.336 N 
ATOM     24  C   UNL     1       0.625  -0.220  -0.278  1.00  0.00     0.332 C 
ATOM     25  C   UNL     1      -1.388   0.247   0.982  1.00  0.00     0.332 C 
ATOM     26  H   UNL     1       0.528   0.318   1.609  1.00  0.00     0.347 HD
ENDBRANCH  22  23
ENDBRANCH  17  22
ENDBRANCH   8  16
ENDBRANCH   4   7
ENDBRANCH   2   3
ENDBRANCH   1   2
BRANCH   1  27
ATOM     27  C   UNL     1       3.252   2.975   2.717  1.00  0.00     0.023 C 
BRANCH  27  28
ATOM     28  C   UNL     1       2.927   3.387   1.288  1.00  0.00     0.116 C 
BRANCH  28  29
ATOM     29  N   UNL     1       1.522   3.263   0.922  1.00  0.00    -0.352 N 
ATOM     30  C   UNL     1       0.785   4.107   0.117  1.00  0.00     0.251 C 
ATOM     31  H   UNL     1       1.042   2.487   1.293  1.00  0.00     0.163 HD
ATOM     32  O   UNL     1      -0.408   3.914  -0.080  1.00  0.00    -0.269 OA
BRANCH  30  33
ATOM     33  C   UNL     1       1.463   5.286  -0.467  1.00  0.00     0.039 A 
ATOM     34  C   UNL     1       0.950   6.559  -0.209  1.00  0.00     0.014 A 
ATOM     35  C   UNL     1       2.669   5.132  -1.154  1.00  0.00     0.014 A 
ATOM     36  C   UNL     1       1.705   7.684  -0.551  1.00  0.00     0.010 A 
ATOM     37  C   UNL     1       3.454   6.249  -1.415  1.00  0.00     0.010 A 
ATOM     38  C   UNL     1       2.988   7.536  -1.103  1.00  0.00    -0.014 A 
BRANCH  38  39
ATOM     39  C   UNL     1       3.873   8.704  -1.347  1.00  0.00     0.031 A 
ATOM     40  C   UNL     1       4.340   9.011  -2.744  1.00  0.00     0.074 A 
ATOM     41  C   UNL     1       4.336   9.427  -0.306  1.00  0.00     0.049 A 
ATOM     42  N   UNL     1       5.213   9.897  -3.148  1.00  0.00    -0.248 NA
ATOM     43  C   UNL     1       3.781   8.182  -3.825  1.00  0.00     0.031 C 
ATOM     44  C   UNL     1       4.013   9.192   1.104  1.00  0.00     0.029 A 
ATOM     45  N   UNL     1       5.193  10.499  -0.272  1.00  0.00    -0.354 N 
ATOM     46  C   UNL     1       5.335   9.709  -4.519  1.00  0.00     0.074 A 
ATOM     47  C   UNL     1       4.479   8.598  -4.872  1.00  0.00     0.031 C 
ATOM     48  C   UNL     1       4.641  10.108   1.859  1.00  0.00     0.029 A 
ATOM     49  C   UNL     1       5.438  10.974   0.996  1.00  0.00     0.049 A 
ATOM     50  H   UNL     1       5.594  10.893  -1.080  1.00  0.00     0.167 HD
ATOM     51  C   UNL     1       6.077  10.411  -5.408  1.00  0.00     0.037 A 
ATOM     52  C   UNL     1       6.217  11.990   1.414  1.00  0.00     0.037 A 
ATOM     53  C   UNL     1       6.880  11.553  -5.064  1.00  0.00     0.049 A 
ATOM     54  C   UNL     1       6.980  12.797   0.400  1.00  0.00     0.074 A 
ATOM     55  C   UNL     1       7.610  12.377  -5.903  1.00  0.00     0.029 A 
ATOM     56  N   UNL     1       7.047  12.042  -3.777  1.00  0.00    -0.354 N 
ATOM     57  N   UNL     1       7.043  12.636  -0.900  1.00  0.00    -0.248 NA
ATOM     58  C   UNL     1       7.773  13.926   0.907  1.00  0.00     0.031 C 
ATOM     59  C   UNL     1       8.232  13.356  -5.121  1.00  0.00     0.029 A 
ATOM     60  C   UNL     1       7.867  13.157  -3.799  1.00  0.00     0.049 A 
ATOM     61  H   UNL     1       6.642  11.654  -2.969  1.00  0.00     0.167 HD
ATOM     62  C   UNL     1       7.859  13.659  -1.369  1.00  0.00     0.074 A 
ATOM     63  C   UNL     1       8.263  14.436  -0.215  1.00  0.00     0.031 C 
ATOM     64  C   UNL     1       8.241  13.929  -2.641  1.00  0.00     0.037 A 
BRANCH  51  65
ATOM     65  C   UNL     1       6.035   9.968  -6.842  1.00  0.00     0.058 A 
ATOM     66  C   UNL     1       4.900  10.175  -7.642  1.00  0.00     0.135 A 
ATOM     67  C   UNL     1       7.145   9.338  -7.428  1.00  0.00     0.135 A 
ATOM     68  F   UNL     1       3.807  10.757  -7.124  1.00  0.00    -0.206 F 
ATOM     69  C   UNL     1       4.852   9.742  -8.962  1.00  0.00     0.059 A 
ATOM     70  C   UNL     1       7.128   8.918  -8.755  1.00  0.00     0.059 A 
ATOM     71  F   UNL     1       8.255   9.114  -6.707  1.00  0.00    -0.206 F 
ATOM     72  C   UNL     1       5.970   9.108  -9.508  1.00  0.00     0.060 A 
BRANCH  72  73
ATOM     73  S   UNL     1       5.892   8.540 -11.219  1.00  0.00     0.124 S 
ATOM     74  O   UNL     1       5.111   7.314 -11.081  1.00  0.00    -0.237 OA
ATOM     75  O   UNL     1       5.219   9.647 -11.890  1.00  0.00    -0.237 OA
ATOM     76  O   UNL     1       7.295   8.355 -11.577  1.00  0.00    -0.744 OA
ENDBRANCH  72  73
ENDBRANCH  51  65
BRANCH  52  77
ATOM     77  C   UNL     1       6.285  12.329   2.860  1.00  0.00     0.058 A 
ATOM     78  C   UNL     1       5.635  13.469   3.357  1.00  0.00     0.135 A 
ATOM     79  C   UNL     1       6.986  11.525   3.770  1.00  0.00     0.135 A 
ATOM     80  F   UNL     1       4.957  14.271   2.522  1.00  0.00    -0.206 F 
ATOM     81  C   UNL     1       5.689  13.809   4.704  1.00  0.00     0.059 A 
ATOM     82  C   UNL     1       7.038  11.835   5.126  1.00  0.00     0.059 A 
ATOM     83  F   UNL     1       7.609  10.415   3.345  1.00  0.00    -0.206 F 
ATOM     84  C   UNL     1       6.394  12.985   5.582  1.00  0.00     0.060 A 
BRANCH  84  85
ATOM     85  S   UNL     1       6.419  13.406   7.338  1.00  0.00     0.124 S 
ATOM     86  O   UNL     1       7.401  14.483   7.368  1.00  0.00    -0.237 OA
ATOM     87  O   UNL     1       5.034  13.797   7.583  1.00  0.00    -0.237 OA
ATOM     88  O   UNL     1       6.829  12.157   7.974  1.00  0.00    -0.744 OA
ENDBRANCH  84  85
ENDBRANCH  52  77
BRANCH  64  89
ATOM     89  C   UNL     1       9.105  15.135  -2.862  1.00  0.00     0.058 A 
ATOM     90  C   UNL     1      10.476  15.119  -2.567  1.00  0.00     0.135 A 
ATOM     91  C   UNL     1       8.566  16.298  -3.434  1.00  0.00     0.135 A 
ATOM     92  F   UNL     1      11.036  14.032  -2.014  1.00  0.00    -0.206 F 
ATOM     93  C   UNL     1      11.284  16.222  -2.822  1.00  0.00     0.059 A 
ATOM     94  C   UNL     1       9.358  17.406  -3.714  1.00  0.00     0.059 A 
ATOM     95  F   UNL     1       7.260  16.358  -3.740  1.00  0.00    -0.206 F 
ATOM     96  C   UNL     1      10.716  17.361  -3.398  1.00  0.00     0.060 A 
BRANCH  96  97
ATOM     97  S   UNL     1      11.781  18.771  -3.771  1.00  0.00     0.124 S 
ATOM     98  O   UNL     1      11.928  19.383  -2.454  1.00  0.00    -0.237 OA
ATOM     99  O   UNL     1      12.977  18.130  -4.309  1.00  0.00    -0.237 OA
ATOM    100  O   UNL     1      11.000  19.537  -4.737  1.00  0.00    -0.744 OA
ENDBRANCH  96  97
ENDBRANCH  64  89
ENDBRANCH  38  39
ENDBRANCH  30  33
ENDBRANCH  28  29
ENDBRANCH  27  28
ENDBRANCH   1  27
TORSDOF 17
