REMARK SMILES O=C(C[C@@H]([NH2+]Cc1ccccc1)C(=O)NCCCCNC(=O)c1ccc(-c2c3nc(c(-c4c(F)cc(S(=O)(=O)[O-])cc4F)c4ccc([nH]4)c(-c4c(F)cc(S(=O)(=O)[O-])cc4F)c4nc(c(-c5c(F)cc(S(=O)(=O)[O-])cc5F)c5ccc2[nH]5)C=C4)C=C3)cc1)Nc1cccc(Cl)c1Cl
REMARK SMILES IDX 17 1 16 2 15 3 13 4 14 5 4 7 3 8 2 9 1 10 89 11 90 13 91 14
REMARK SMILES IDX 96 15 92 16 94 17 97 18 93 19 95 20 5 21 6 24 7 25 8 26
REMARK SMILES IDX 12 27 9 28 11 29 10 30 18 31 19 32 20 33 21 34 22 36 23 37
REMARK SMILES IDX 24 38 88 39 25 40 87 41 26 42 27 43 28 44 81 45 29 46 86 47
REMARK SMILES IDX 80 48 82 49 30 50 85 51 79 52 78 53 31 55 65 56 44 57 64 58
REMARK SMILES IDX 45 59 48 60 63 61 83 62 46 63 47 64 62 66 84 67 49 68 32 69
REMARK SMILES IDX 33 70 42 71 34 72 35 73 41 74 43 75 36 76 37 77 38 78 39 79
REMARK SMILES IDX 40 80 66 81 67 82 76 83 68 84 69 85 75 86 77 87 70 88 71 89
REMARK SMILES IDX 72 90 73 91 74 92 50 93 51 94 60 95 52 96 53 97 59 98 61 99
REMARK SMILES IDX 54 100 55 101 56 102 57 103 58 104
REMARK H PARENT 15 6 89 12 5 22 5 23 20 35 82 54 48 65
REMARK Flexibility Score: inf
ROOT
ATOM      1  C   UNL     1       5.440  -1.494   3.232  1.00  0.00     0.023 C 
ENDROOT
BRANCH   1   2
ATOM      2  C   UNL     1       5.946  -1.484   1.790  1.00  0.00     0.116 C 
BRANCH   2   3
ATOM      3  N   UNL     1       5.577  -2.706   1.105  1.00  0.00    -0.351 N 
ATOM      4  C   UNL     1       4.666  -2.914   0.113  1.00  0.00     0.278 C 
ATOM      5  O   UNL     1       4.515  -4.069  -0.293  1.00  0.00    -0.268 OA
ATOM      6  H   UNL     1       6.058  -3.512   1.404  1.00  0.00     0.163 HD
BRANCH   4   7
ATOM      7  C   UNL     1       3.877  -1.747  -0.515  1.00  0.00     0.282 C 
BRANCH   7   8
ATOM      8  C   UNL     1       2.915  -1.139   0.516  1.00  0.00     0.175 C 
BRANCH   8   9
ATOM      9  C   UNL     1       2.061  -0.041  -0.070  1.00  0.00     0.230 C 
ATOM     10  O   UNL     1       0.894  -0.227  -0.399  1.00  0.00    -0.274 OA
ATOM     11  N   UNL     1       2.765   1.141  -0.254  1.00  0.00    -0.325 N 
ATOM     12  H   UNL     1       3.719   1.163  -0.010  1.00  0.00     0.169 HD
BRANCH  11  13
ATOM     13  C   UNL     1       2.179   2.312  -0.775  1.00  0.00     0.061 A 
ATOM     14  C   UNL     1       2.817   2.891  -1.881  1.00  0.00     0.028 A 
ATOM     15  C   UNL     1       1.028   2.917  -0.230  1.00  0.00     0.083 A 
ATOM     16  C   UNL     1       2.272   4.015  -2.500  1.00  0.00     0.004 A 
ATOM     17  C   UNL     1       0.504   4.064  -0.846  1.00  0.00     0.061 A 
ATOM     18  Cl  UNL     1       0.378   2.372   1.289  1.00  0.00    -0.080 Cl
ATOM     19  C   UNL     1       1.115   4.596  -1.987  1.00  0.00     0.022 A 
ATOM     20  Cl  UNL     1      -0.880   4.905  -0.233  1.00  0.00    -0.083 Cl
ENDBRANCH  11  13
ENDBRANCH   8   9
ENDBRANCH   7   8
BRANCH   7  21
ATOM     21  N   UNL     1       4.793  -0.738  -1.146  1.00  0.00    -0.332 N 
ATOM     22  H   UNL     1       5.364  -0.313  -0.415  1.00  0.00     0.347 HD
ATOM     23  H   UNL     1       4.211  -0.046  -1.618  1.00  0.00     0.347 HD
BRANCH  21  24
ATOM     24  C   UNL     1       5.689  -1.339  -2.159  1.00  0.00     0.297 C 
BRANCH  24  25
ATOM     25  C   UNL     1       4.922  -1.843  -3.360  1.00  0.00     0.006 A 
ATOM     26  C   UNL     1       4.181  -0.954  -4.156  1.00  0.00     0.009 A 
ATOM     27  C   UNL     1       4.854  -3.216  -3.630  1.00  0.00     0.009 A 
ATOM     28  C   UNL     1       3.346  -1.435  -5.163  1.00  0.00     0.001 A 
ATOM     29  C   UNL     1       4.030  -3.692  -4.649  1.00  0.00     0.001 A 
ATOM     30  C   UNL     1       3.266  -2.805  -5.404  1.00  0.00     0.000 A 
ENDBRANCH  24  25
ENDBRANCH  21  24
ENDBRANCH   7  21
ENDBRANCH   4   7
ENDBRANCH   2   3
ENDBRANCH   1   2
BRANCH   1  31
ATOM     31  C   UNL     1       6.151  -2.501   4.139  1.00  0.00     0.023 C 
BRANCH  31  32
ATOM     32  C   UNL     1       7.666  -2.344   4.213  1.00  0.00     0.116 C 
BRANCH  32  33
ATOM     33  N   UNL     1       8.073  -1.014   4.637  1.00  0.00    -0.352 N 
ATOM     34  C   UNL     1       9.031  -0.651   5.550  1.00  0.00     0.251 C 
ATOM     35  H   UNL     1       7.593  -0.268   4.209  1.00  0.00     0.163 HD
ATOM     36  O   UNL     1       9.132   0.525   5.892  1.00  0.00    -0.269 OA
BRANCH  34  37
ATOM     37  C   UNL     1       9.914  -1.679   6.141  1.00  0.00     0.039 A 
ATOM     38  C   UNL     1      10.137  -1.659   7.519  1.00  0.00     0.014 A 
ATOM     39  C   UNL     1      10.505  -2.667   5.347  1.00  0.00     0.014 A 
ATOM     40  C   UNL     1      10.899  -2.668   8.108  1.00  0.00     0.010 A 
ATOM     41  C   UNL     1      11.198  -3.716   5.947  1.00  0.00     0.010 A 
ATOM     42  C   UNL     1      11.401  -3.729   7.334  1.00  0.00    -0.014 A 
BRANCH  42  43
ATOM     43  C   UNL     1      12.104  -4.869   7.979  1.00  0.00     0.031 A 
ATOM     44  C   UNL     1      13.548  -5.158   7.670  1.00  0.00     0.074 A 
ATOM     45  C   UNL     1      11.419  -5.669   8.821  1.00  0.00     0.049 A 
ATOM     46  N   UNL     1      14.319  -6.100   8.149  1.00  0.00    -0.248 NA
ATOM     47  C   UNL     1      14.206  -4.293   6.678  1.00  0.00     0.031 C 
ATOM     48  C   UNL     1       9.997  -5.531   9.148  1.00  0.00     0.029 A 
ATOM     49  N   UNL     1      11.822  -6.755   9.556  1.00  0.00    -0.354 N 
ATOM     50  C   UNL     1      15.548  -5.944   7.519  1.00  0.00     0.074 A 
ATOM     51  C   UNL     1      15.403  -4.854   6.579  1.00  0.00     0.031 C 
ATOM     52  C   UNL     1       9.658  -6.470  10.045  1.00  0.00     0.029 A 
ATOM     53  C   UNL     1      10.823  -7.301  10.328  1.00  0.00     0.049 A 
ATOM     54  H   UNL     1      12.741  -7.109   9.534  1.00  0.00     0.167 HD
ATOM     55  C   UNL     1      16.699  -6.631   7.723  1.00  0.00     0.037 A 
ATOM     56  C   UNL     1      10.841  -8.353  11.169  1.00  0.00     0.037 A 
ATOM     57  C   UNL     1      16.838  -7.708   8.670  1.00  0.00     0.049 A 
ATOM     58  C   UNL     1      12.132  -9.096  11.380  1.00  0.00     0.074 A 
ATOM     59  C   UNL     1      17.976  -8.427   8.995  1.00  0.00     0.029 A 
ATOM     60  N   UNL     1      15.806  -8.230   9.438  1.00  0.00    -0.354 N 
ATOM     61  N   UNL     1      13.307  -8.881  10.836  1.00  0.00    -0.248 NA
ATOM     62  C   UNL     1      12.103 -10.217  12.328  1.00  0.00     0.031 C 
ATOM     63  C   UNL     1      17.621  -9.418   9.916  1.00  0.00     0.029 A 
ATOM     64  C   UNL     1      16.275  -9.280  10.213  1.00  0.00     0.049 A 
ATOM     65  H   UNL     1      14.878  -7.903   9.433  1.00  0.00     0.167 HD
ATOM     66  C   UNL     1      14.161  -9.828  11.390  1.00  0.00     0.074 A 
ATOM     67  C   UNL     1      13.373 -10.596  12.332  1.00  0.00     0.031 C 
ATOM     68  C   UNL     1      15.477 -10.046  11.139  1.00  0.00     0.037 A 
BRANCH  55  69
ATOM     69  C   UNL     1      17.904  -6.237   6.910  1.00  0.00     0.058 A 
ATOM     70  C   UNL     1      18.563  -5.013   7.111  1.00  0.00     0.135 A 
ATOM     71  C   UNL     1      18.437  -7.114   5.951  1.00  0.00     0.135 A 
ATOM     72  F   UNL     1      18.090  -4.128   8.002  1.00  0.00    -0.206 F 
ATOM     73  C   UNL     1      19.691  -4.663   6.374  1.00  0.00     0.059 A 
ATOM     74  C   UNL     1      19.582  -6.798   5.225  1.00  0.00     0.059 A 
ATOM     75  F   UNL     1      17.848  -8.297   5.716  1.00  0.00    -0.206 F 
ATOM     76  C   UNL     1      20.195  -5.563   5.435  1.00  0.00     0.060 A 
BRANCH  76  77
ATOM     77  S   UNL     1      21.667  -5.098   4.500  1.00  0.00     0.124 S 
ATOM     78  O   UNL     1      21.137  -4.060   3.621  1.00  0.00    -0.237 OA
ATOM     79  O   UNL     1      22.570  -4.638   5.550  1.00  0.00    -0.237 OA
ATOM     80  O   UNL     1      22.058  -6.339   3.839  1.00  0.00    -0.744 OA
ENDBRANCH  76  77
ENDBRANCH  55  69
BRANCH  56  81
ATOM     81  C   UNL     1       9.602  -8.753  11.889  1.00  0.00     0.058 A 
ATOM     82  C   UNL     1       9.486  -8.594  13.278  1.00  0.00     0.135 A 
ATOM     83  C   UNL     1       8.506  -9.297  11.201  1.00  0.00     0.135 A 
ATOM     84  F   UNL     1      10.507  -8.083  13.982  1.00  0.00    -0.206 F 
ATOM     85  C   UNL     1       8.338  -8.979  13.963  1.00  0.00     0.059 A 
ATOM     86  C   UNL     1       7.336  -9.661  11.859  1.00  0.00     0.059 A 
ATOM     87  F   UNL     1       8.557  -9.454   9.868  1.00  0.00    -0.206 F 
ATOM     88  C   UNL     1       7.266  -9.510  13.243  1.00  0.00     0.060 A 
BRANCH  88  89
ATOM     89  S   UNL     1       5.765  -9.966  14.136  1.00  0.00     0.124 S 
ATOM     90  O   UNL     1       6.196 -11.168  14.840  1.00  0.00    -0.237 OA
ATOM     91  O   UNL     1       5.532  -8.788  14.965  1.00  0.00    -0.237 OA
ATOM     92  O   UNL     1       4.790 -10.174  13.069  1.00  0.00    -0.744 OA
ENDBRANCH  88  89
ENDBRANCH  56  81
BRANCH  68  93
ATOM     93  C   UNL     1      16.147 -11.150  11.913  1.00  0.00     0.058 A 
ATOM     94  C   UNL     1      15.840 -12.502  11.688  1.00  0.00     0.135 A 
ATOM     95  C   UNL     1      17.113 -10.853  12.888  1.00  0.00     0.135 A 
ATOM     96  F   UNL     1      14.921 -12.843  10.770  1.00  0.00    -0.206 F 
ATOM     97  C   UNL     1      16.430 -13.516  12.435  1.00  0.00     0.059 A 
ATOM     98  C   UNL     1      17.741 -11.854  13.623  1.00  0.00     0.059 A 
ATOM     99  F   UNL     1      17.457  -9.579  13.135  1.00  0.00    -0.206 F 
ATOM    100  C   UNL     1      17.376 -13.181  13.405  1.00  0.00     0.060 A 
BRANCH 100 101
ATOM    101  S   UNL     1      18.128 -14.505  14.374  1.00  0.00     0.124 S 
ATOM    102  O   UNL     1      17.030 -14.878  15.261  1.00  0.00    -0.237 OA
ATOM    103  O   UNL     1      18.476 -15.485  13.350  1.00  0.00    -0.237 OA
ATOM    104  O   UNL     1      19.262 -13.852  15.020  1.00  0.00    -0.744 OA
ENDBRANCH 100 101
ENDBRANCH  68  93
ENDBRANCH  42  43
ENDBRANCH  34  37
ENDBRANCH  32  33
ENDBRANCH  31  32
ENDBRANCH   1  31
TORSDOF 20
