REMARK SMILES CC[NH2+][C@]1(C(=O)NCCCCNC(=O)c2ccc(-c3c4nc(c(-c5c(F)cc(S(=O)(=O)[O-])cc5F)c5ccc([nH]5)c(-c5c(F)cc(S(=O)(=O)[O-])cc5F)c5nc(c(-c6c(F)cc(S(=O)(=O)[O-])cc6F)c6ccc3[nH]6)C=C5)C=C4)cc2)CC[C@H](OCC)C1
REMARK SMILES IDX 10 1 9 2 8 3 7 4 5 5 6 6 4 8 81 9 87 10 82 11 83 12 3 13
REMARK SMILES IDX 2 16 1 17 84 18 85 19 86 20 11 21 12 22 13 23 14 25 15 26
REMARK SMILES IDX 16 27 80 28 17 29 79 30 18 31 19 32 20 33 73 34 21 35 78 36
REMARK SMILES IDX 72 37 74 38 22 39 77 40 71 41 70 42 23 44 57 45 36 46 56 47
REMARK SMILES IDX 37 48 40 49 55 50 75 51 38 52 39 53 54 55 76 56 41 57 24 58
REMARK SMILES IDX 25 59 34 60 26 61 27 62 33 63 35 64 28 65 29 66 30 67 31 68
REMARK SMILES IDX 32 69 58 70 59 71 68 72 60 73 61 74 67 75 69 76 62 77 63 78
REMARK SMILES IDX 64 79 65 80 66 81 42 82 43 83 52 84 44 85 45 86 51 87 53 88
REMARK SMILES IDX 46 89 47 90 48 91 49 92 50 93
REMARK H PARENT 7 7 3 14 3 15 12 24 74 43 40 54
REMARK Flexibility Score: inf
ROOT
ATOM      1  C   UNL     1       5.460  -1.207  -1.659  1.00  0.00     0.023 C 
ENDROOT
BRANCH   1   2
ATOM      2  C   UNL     1       4.836  -0.574  -2.904  1.00  0.00     0.023 C 
BRANCH   2   3
ATOM      3  C   UNL     1       3.434  -1.068  -3.244  1.00  0.00     0.116 C 
BRANCH   3   4
ATOM      4  N   UNL     1       2.485  -0.806  -2.180  1.00  0.00    -0.351 N 
ATOM      5  C   UNL     1       1.167  -0.461  -2.184  1.00  0.00     0.281 C 
ATOM      6  O   UNL     1       0.687  -0.252  -1.065  1.00  0.00    -0.268 OA
ATOM      7  H   UNL     1       2.868  -0.895  -1.277  1.00  0.00     0.163 HD
BRANCH   5   8
ATOM      8  C   UNL     1       0.347  -0.285  -3.503  1.00  0.00     0.178 C 
ATOM      9  C   UNL     1       0.807   1.004  -4.211  1.00  0.00     0.082 C 
ATOM     10  C   UNL     1       0.542  -1.386  -4.565  1.00  0.00     0.111 C 
ATOM     11  C   UNL     1       0.456   0.798  -5.674  1.00  0.00     0.039 C 
ATOM     12  C   UNL     1       0.676  -0.693  -5.933  1.00  0.00     0.125 C 
BRANCH   8  13
ATOM     13  N   UNL     1      -1.123  -0.157  -3.241  1.00  0.00    -0.334 N 
ATOM     14  H   UNL     1      -1.283   0.719  -2.742  1.00  0.00     0.347 HD
ATOM     15  H   UNL     1      -1.585  -0.186  -4.150  1.00  0.00     0.347 HD
BRANCH  13  16
ATOM     16  C   UNL     1      -1.695  -1.250  -2.445  1.00  0.00     0.257 C 
ATOM     17  C   UNL     1      -3.195  -1.349  -2.683  1.00  0.00     0.071 C 
ENDBRANCH  13  16
ENDBRANCH   8  13
BRANCH  12  18
ATOM     18  O   UNL     1      -0.181  -1.080  -7.006  1.00  0.00    -0.378 OA
BRANCH  18  19
ATOM     19  C   UNL     1      -0.945  -2.272  -6.889  1.00  0.00     0.157 C 
ATOM     20  C   UNL     1      -0.096  -3.532  -6.859  1.00  0.00     0.035 C 
ENDBRANCH  18  19
ENDBRANCH  12  18
ENDBRANCH   5   8
ENDBRANCH   3   4
ENDBRANCH   2   3
ENDBRANCH   1   2
BRANCH   1  21
ATOM     21  C   UNL     1       5.463  -2.731  -1.642  1.00  0.00     0.116 C 
BRANCH  21  22
ATOM     22  N   UNL     1       6.246  -3.300  -2.729  1.00  0.00    -0.352 N 
ATOM     23  C   UNL     1       7.401  -4.047  -2.678  1.00  0.00     0.251 C 
ATOM     24  H   UNL     1       5.899  -3.124  -3.634  1.00  0.00     0.163 HD
ATOM     25  O   UNL     1       8.021  -4.285  -3.705  1.00  0.00    -0.269 OA
BRANCH  23  26
ATOM     26  C   UNL     1       7.899  -4.533  -1.372  1.00  0.00     0.039 A 
ATOM     27  C   UNL     1       9.249  -4.366  -1.056  1.00  0.00     0.014 A 
ATOM     28  C   UNL     1       7.030  -5.128  -0.454  1.00  0.00     0.014 A 
ATOM     29  C   UNL     1       9.707  -4.721   0.215  1.00  0.00     0.010 A 
ATOM     30  C   UNL     1       7.469  -5.396   0.838  1.00  0.00     0.010 A 
ATOM     31  C   UNL     1       8.812  -5.196   1.189  1.00  0.00    -0.014 A 
BRANCH  31  32
ATOM     32  C   UNL     1       9.258  -5.479   2.579  1.00  0.00     0.031 A 
ATOM     33  C   UNL     1       9.140  -6.870   3.143  1.00  0.00     0.074 A 
ATOM     34  C   UNL     1       9.701  -4.470   3.357  1.00  0.00     0.049 A 
ATOM     35  N   UNL     1       9.401  -7.295   4.353  1.00  0.00    -0.248 NA
ATOM     36  C   UNL     1       8.634  -7.915   2.238  1.00  0.00     0.031 C 
ATOM     37  C   UNL     1       9.806  -3.068   2.946  1.00  0.00     0.029 A 
ATOM     38  N   UNL     1      10.132  -4.464   4.661  1.00  0.00    -0.354 N 
ATOM     39  C   UNL     1       9.077  -8.646   4.358  1.00  0.00     0.074 A 
ATOM     40  C   UNL     1       8.549  -8.960   3.049  1.00  0.00     0.031 C 
ATOM     41  C   UNL     1      10.291  -2.344   3.967  1.00  0.00     0.029 A 
ATOM     42  C   UNL     1      10.492  -3.217   5.119  1.00  0.00     0.049 A 
ATOM     43  H   UNL     1      10.180  -5.276   5.215  1.00  0.00     0.167 HD
ATOM     44  C   UNL     1       9.230  -9.550   5.356  1.00  0.00     0.037 A 
ATOM     45  C   UNL     1      10.922  -2.819   6.332  1.00  0.00     0.037 A 
ATOM     46  C   UNL     1       9.784  -9.237   6.647  1.00  0.00     0.049 A 
ATOM     47  C   UNL     1      11.093  -3.843   7.422  1.00  0.00     0.074 A 
ATOM     48  C   UNL     1      10.040 -10.095   7.702  1.00  0.00     0.029 A 
ATOM     49  N   UNL     1      10.165  -7.969   7.063  1.00  0.00    -0.354 N 
ATOM     50  N   UNL     1      10.846  -5.131   7.387  1.00  0.00    -0.248 NA
ATOM     51  C   UNL     1      11.608  -3.364   8.712  1.00  0.00     0.031 C 
ATOM     52  C   UNL     1      10.528  -9.340   8.772  1.00  0.00     0.029 A 
ATOM     53  C   UNL     1      10.632  -8.019   8.366  1.00  0.00     0.049 A 
ATOM     54  H   UNL     1      10.110  -7.154   6.513  1.00  0.00     0.167 HD
ATOM     55  C   UNL     1      11.199  -5.620   8.640  1.00  0.00     0.074 A 
ATOM     56  C   UNL     1      11.690  -4.492   9.405  1.00  0.00     0.031 C 
ATOM     57  C   UNL     1      11.124  -6.888   9.114  1.00  0.00     0.037 A 
BRANCH  44  58
ATOM     58  C   UNL     1       8.800 -10.967   5.091  1.00  0.00     0.058 A 
ATOM     59  C   UNL     1       9.503 -11.799   4.205  1.00  0.00     0.135 A 
ATOM     60  C   UNL     1       7.703 -11.519   5.773  1.00  0.00     0.135 A 
ATOM     61  F   UNL     1      10.549 -11.320   3.513  1.00  0.00    -0.206 F 
ATOM     62  C   UNL     1       9.122 -13.119   3.988  1.00  0.00     0.059 A 
ATOM     63  C   UNL     1       7.322 -12.846   5.594  1.00  0.00     0.059 A 
ATOM     64  F   UNL     1       6.992 -10.769   6.630  1.00  0.00    -0.206 F 
ATOM     65  C   UNL     1       8.032 -13.635   4.690  1.00  0.00     0.060 A 
BRANCH  65  66
ATOM     66  S   UNL     1       7.567 -15.357   4.412  1.00  0.00     0.124 S 
ATOM     67  O   UNL     1       7.003 -15.293   3.067  1.00  0.00    -0.237 OA
ATOM     68  O   UNL     1       8.847 -16.047   4.530  1.00  0.00    -0.237 OA
ATOM     69  O   UNL     1       6.610 -15.628   5.481  1.00  0.00    -0.744 OA
ENDBRANCH  65  66
ENDBRANCH  44  58
BRANCH  45  70
ATOM     70  C   UNL     1      11.238  -1.384   6.573  1.00  0.00     0.058 A 
ATOM     71  C   UNL     1      12.560  -0.954   6.755  1.00  0.00     0.135 A 
ATOM     72  C   UNL     1      10.225  -0.412   6.605  1.00  0.00     0.135 A 
ATOM     73  F   UNL     1      13.564  -1.845   6.740  1.00  0.00    -0.206 F 
ATOM     74  C   UNL     1      12.868   0.386   6.973  1.00  0.00     0.059 A 
ATOM     75  C   UNL     1      10.511   0.936   6.793  1.00  0.00     0.059 A 
ATOM     76  F   UNL     1       8.945  -0.769   6.419  1.00  0.00    -0.206 F 
ATOM     77  C   UNL     1      11.836   1.325   6.986  1.00  0.00     0.060 A 
BRANCH  77  78
ATOM     78  S   UNL     1      12.253   3.067   7.212  1.00  0.00     0.124 S 
ATOM     79  O   UNL     1      12.623   3.101   8.622  1.00  0.00    -0.237 OA
ATOM     80  O   UNL     1      13.345   3.245   6.260  1.00  0.00    -0.237 OA
ATOM     81  O   UNL     1      11.013   3.757   6.866  1.00  0.00    -0.744 OA
ENDBRANCH  77  78
ENDBRANCH  45  70
BRANCH  57  82
ATOM     82  C   UNL     1      11.616  -7.139  10.513  1.00  0.00     0.058 A 
ATOM     83  C   UNL     1      10.903  -6.697  11.639  1.00  0.00     0.135 A 
ATOM     84  C   UNL     1      12.787  -7.885  10.730  1.00  0.00     0.135 A 
ATOM     85  F   UNL     1       9.781  -5.976  11.488  1.00  0.00    -0.206 F 
ATOM     86  C   UNL     1      11.347  -6.965  12.930  1.00  0.00     0.059 A 
ATOM     87  C   UNL     1      13.232  -8.191  12.012  1.00  0.00     0.059 A 
ATOM     88  F   UNL     1      13.500  -8.341   9.689  1.00  0.00    -0.206 F 
ATOM     89  C   UNL     1      12.511  -7.716  13.107  1.00  0.00     0.060 A 
BRANCH  89  90
ATOM     90  S   UNL     1      13.055  -8.086  14.787  1.00  0.00     0.124 S 
ATOM     91  O   UNL     1      13.551  -6.787  15.229  1.00  0.00    -0.237 OA
ATOM     92  O   UNL     1      11.821  -8.542  15.421  1.00  0.00    -0.237 OA
ATOM     93  O   UNL     1      14.072  -9.115  14.597  1.00  0.00    -0.744 OA
ENDBRANCH  89  90
ENDBRANCH  57  82
ENDBRANCH  31  32
ENDBRANCH  23  26
ENDBRANCH  21  22
ENDBRANCH   1  21
TORSDOF 18
