REMARK SMILES CC(C)C[C@H](NC(=O)[C@H]1CCCCC[C@H]1[NH3+])C(=O)NCCCCNC(=O)c1ccc(-c2c3nc(c(-c4c(F)cc(S(=O)(=O)[O-])cc4F)c4ccc([nH]4)c(-c4c(F)cc(S(=O)(=O)[O-])cc4F)c4nc(c(-c5c(F)cc(S(=O)(=O)[O-])cc5F)c5ccc2[nH]5)C=C4)C=C3)cc1
REMARK SMILES IDX 20 1 19 2 17 3 18 4 5 6 4 7 2 8 1 9 3 10 6 11 7 12 8 14 9 15
REMARK SMILES IDX 10 16 11 17 15 19 14 20 13 21 12 22 16 24 21 28 22 29 23 30
REMARK SMILES IDX 24 31 25 32 26 34 27 35 28 36 92 37 29 38 91 39 30 40 31 41
REMARK SMILES IDX 32 42 85 43 33 44 90 45 84 46 86 47 34 48 89 49 83 50 82 51
REMARK SMILES IDX 35 53 69 54 48 55 68 56 49 57 52 58 67 59 87 60 50 61 51 62
REMARK SMILES IDX 66 64 88 65 53 66 36 67 37 68 46 69 38 70 39 71 45 72 47 73
REMARK SMILES IDX 40 74 41 75 42 76 43 77 44 78 70 79 71 80 80 81 72 82 73 83
REMARK SMILES IDX 79 84 81 85 74 86 75 87 76 88 77 89 78 90 54 91 55 92 64 93
REMARK SMILES IDX 56 94 57 95 63 96 65 97 58 98 59 99 60 100 61 101 62 102
REMARK H PARENT 19 5 6 13 16 25 16 26 16 27 24 33 86 52 52 63
REMARK Flexibility Score: 90.00
ROOT
ATOM      1  C   UNL     1      -1.525  -3.136   0.109  1.00  0.00     0.116 C 
ENDROOT
BRANCH   1   2
ATOM      2  N   UNL     1      -2.160  -3.825  -0.992  1.00  0.00    -0.354 N 
ATOM      3  C   UNL     1      -3.008  -4.899  -0.951  1.00  0.00     0.242 C 
ATOM      4  O   UNL     1      -3.751  -5.079  -1.921  1.00  0.00    -0.273 OA
ATOM      5  H   UNL     1      -1.956  -3.477  -1.890  1.00  0.00     0.163 HD
BRANCH   3   6
ATOM      6  C   UNL     1      -3.145  -5.777   0.317  1.00  0.00     0.171 C 
BRANCH   6   7
ATOM      7  C   UNL     1      -3.962  -4.932   1.359  1.00  0.00     0.038 C 
BRANCH   7   8
ATOM      8  C   UNL     1      -3.623  -4.828   2.878  1.00  0.00    -0.015 C 
ATOM      9  C   UNL     1      -2.252  -4.284   3.315  1.00  0.00     0.007 C 
ATOM     10  C   UNL     1      -4.657  -3.872   3.514  1.00  0.00     0.007 C 
ENDBRANCH   7   8
ENDBRANCH   6   7
BRANCH   6  11
ATOM     11  N   UNL     1      -1.882  -6.322   0.804  1.00  0.00    -0.344 N 
ATOM     12  C   UNL     1      -1.003  -7.263   0.382  1.00  0.00     0.229 C 
ATOM     13  H   UNL     1      -1.598  -5.901   1.647  1.00  0.00     0.164 HD
ATOM     14  O   UNL     1      -0.191  -7.580   1.266  1.00  0.00    -0.275 OA
BRANCH  12  15
ATOM     15  C   UNL     1      -0.994  -7.977  -0.996  1.00  0.00     0.136 C 
BRANCH  15  16
ATOM     16  C   UNL     1      -1.026  -7.109  -2.261  1.00  0.00     0.020 C 
BRANCH  16  17
ATOM     17  C   UNL     1      -0.073  -5.930  -2.244  1.00  0.00     0.001 CG0
ATOM     18  G   UNL     1       1.399  -6.158  -2.555  1.00  0.00     0.000 G0
ENDBRANCH  16  17
ENDBRANCH  15  16
BRANCH  15  19
ATOM     19  C   UNL     1       0.213  -8.963  -1.126  1.00  0.00     0.193 C 
BRANCH  19  20
ATOM     20  C   UNL     1       1.605  -8.288  -1.117  1.00  0.00     0.066 C 
BRANCH  20  21
ATOM     21  C   UNL     1       1.949  -7.567  -2.419  1.00  0.00     0.006 C 
BRANCH  21  22
ATOM     22  C   UNL     1       1.399  -6.158  -2.555  1.00  0.00     0.000 CG0
ATOM     23  G   UNL     1      -0.073  -5.930  -2.244  1.00  0.00     0.000 G0
ENDBRANCH  21  22
ENDBRANCH  20  21
ENDBRANCH  19  20
BRANCH  19  24
ATOM     24  N   UNL     1       0.154 -10.013  -0.094  1.00  0.00    -0.354 N 
ATOM     25  H   UNL     1       0.259  -9.590   0.828  1.00  0.00     0.344 HD
ATOM     26  H   UNL     1       0.908 -10.683  -0.248  1.00  0.00     0.344 HD
ATOM     27  H   UNL     1      -0.744 -10.493  -0.148  1.00  0.00     0.344 HD
ENDBRANCH  19  24
ENDBRANCH  15  19
ENDBRANCH  12  15
ENDBRANCH   6  11
ENDBRANCH   3   6
ENDBRANCH   1   2
BRANCH   1  28
ATOM     28  C   UNL     1      -0.007  -3.219   0.174  1.00  0.00     0.023 C 
BRANCH  28  29
ATOM     29  C   UNL     1       0.708  -2.707  -1.068  1.00  0.00     0.023 C 
BRANCH  29  30
ATOM     30  C   UNL     1       0.330  -1.293  -1.465  1.00  0.00     0.116 C 
BRANCH  30  31
ATOM     31  N   UNL     1       0.764  -0.317  -0.481  1.00  0.00    -0.352 N 
ATOM     32  C   UNL     1       1.636   0.732  -0.647  1.00  0.00     0.251 C 
ATOM     33  H   UNL     1       0.385  -0.420   0.422  1.00  0.00     0.163 HD
ATOM     34  O   UNL     1       2.077   1.326   0.330  1.00  0.00    -0.269 OA
BRANCH  32  35
ATOM     35  C   UNL     1       2.049   1.117  -2.015  1.00  0.00     0.039 A 
ATOM     36  C   UNL     1       3.392   1.401  -2.268  1.00  0.00     0.014 A 
ATOM     37  C   UNL     1       1.110   1.173  -3.049  1.00  0.00     0.014 A 
ATOM     38  C   UNL     1       3.798   1.694  -3.571  1.00  0.00     0.010 A 
ATOM     39  C   UNL     1       1.534   1.357  -4.359  1.00  0.00     0.010 A 
ATOM     40  C   UNL     1       2.878   1.646  -4.632  1.00  0.00    -0.014 A 
BRANCH  40  41
ATOM     41  C   UNL     1       3.285   1.943  -6.029  1.00  0.00     0.031 A 
ATOM     42  C   UNL     1       2.658   3.106  -6.754  1.00  0.00     0.074 A 
ATOM     43  C   UNL     1       4.164   1.141  -6.661  1.00  0.00     0.049 A 
ATOM     44  N   UNL     1       2.816   3.489  -7.995  1.00  0.00    -0.248 NA
ATOM     45  C   UNL     1       1.697   3.926  -5.996  1.00  0.00     0.031 C 
ATOM     46  C   UNL     1       4.796  -0.047  -6.082  1.00  0.00     0.029 A 
ATOM     47  N   UNL     1       4.673   1.198  -7.933  1.00  0.00    -0.354 N 
ATOM     48  C   UNL     1       1.960   4.571  -8.169  1.00  0.00     0.074 A 
ATOM     49  C   UNL     1       1.240   4.747  -6.928  1.00  0.00     0.031 C 
ATOM     50  C   UNL     1       5.633  -0.586  -6.985  1.00  0.00     0.029 A 
ATOM     51  C   UNL     1       5.567   0.192  -8.218  1.00  0.00     0.049 A 
ATOM     52  H   UNL     1       4.422   1.894  -8.583  1.00  0.00     0.167 HD
ATOM     53  C   UNL     1       1.809   5.366  -9.254  1.00  0.00     0.037 A 
ATOM     54  C   UNL     1       6.253  -0.073  -9.347  1.00  0.00     0.037 A 
ATOM     55  C   UNL     1       2.567   5.215 -10.467  1.00  0.00     0.049 A 
ATOM     56  C   UNL     1       6.083   0.837 -10.534  1.00  0.00     0.074 A 
ATOM     57  C   UNL     1       2.547   6.011 -11.598  1.00  0.00     0.029 A 
ATOM     58  N   UNL     1       3.483   4.201 -10.706  1.00  0.00    -0.354 N 
ATOM     59  N   UNL     1       5.319   1.897 -10.658  1.00  0.00    -0.248 NA
ATOM     60  C   UNL     1       6.871   0.520 -11.733  1.00  0.00     0.031 C 
ATOM     61  C   UNL     1       3.420   5.454 -12.538  1.00  0.00     0.029 A 
ATOM     62  C   UNL     1       4.020   4.339 -11.974  1.00  0.00     0.049 A 
ATOM     63  H   UNL     1       3.716   3.488 -10.068  1.00  0.00     0.167 HD
ATOM     64  C   UNL     1       5.558   2.390 -11.936  1.00  0.00     0.074 A 
ATOM     65  C   UNL     1       6.544   1.518 -12.541  1.00  0.00     0.031 C 
ATOM     66  C   UNL     1       5.011   3.466 -12.554  1.00  0.00     0.037 A 
BRANCH  53  67
ATOM     67  C   UNL     1       0.796   6.476  -9.174  1.00  0.00     0.058 A 
ATOM     68  C   UNL     1       0.990   7.596  -8.348  1.00  0.00     0.135 A 
ATOM     69  C   UNL     1      -0.369   6.435  -9.956  1.00  0.00     0.135 A 
ATOM     70  F   UNL     1       2.078   7.679  -7.565  1.00  0.00    -0.206 F 
ATOM     71  C   UNL     1       0.051   8.619  -8.277  1.00  0.00     0.059 A 
ATOM     72  C   UNL     1      -1.308   7.463  -9.924  1.00  0.00     0.059 A 
ATOM     73  F   UNL     1      -0.607   5.388 -10.761  1.00  0.00    -0.206 F 
ATOM     74  C   UNL     1      -1.095   8.544  -9.070  1.00  0.00     0.060 A 
BRANCH  74  75
ATOM     75  S   UNL     1      -2.299   9.886  -8.972  1.00  0.00     0.124 S 
ATOM     76  O   UNL     1      -2.906   9.637  -7.669  1.00  0.00    -0.237 OA
ATOM     77  O   UNL     1      -1.452  11.071  -9.060  1.00  0.00    -0.237 OA
ATOM     78  O   UNL     1      -3.165   9.650 -10.123  1.00  0.00    -0.744 OA
ENDBRANCH  74  75
ENDBRANCH  53  67
BRANCH  54  79
ATOM     79  C   UNL     1       7.187  -1.230  -9.398  1.00  0.00     0.058 A 
ATOM     80  C   UNL     1       8.575  -1.032  -9.448  1.00  0.00     0.135 A 
ATOM     81  C   UNL     1       6.716  -2.552  -9.390  1.00  0.00     0.135 A 
ATOM     82  F   UNL     1       9.075   0.213  -9.463  1.00  0.00    -0.206 F 
ATOM     83  C   UNL     1       9.463  -2.102  -9.508  1.00  0.00     0.059 A 
ATOM     84  C   UNL     1       7.585  -3.638  -9.422  1.00  0.00     0.059 A 
ATOM     85  F   UNL     1       5.397  -2.796  -9.325  1.00  0.00    -0.206 F 
ATOM     86  C   UNL     1       8.957  -3.402  -9.492  1.00  0.00     0.060 A 
BRANCH  86  87
ATOM     87  S   UNL     1      10.120  -4.784  -9.527  1.00  0.00     0.124 S 
ATOM     88  O   UNL     1      10.580  -4.746 -10.910  1.00  0.00    -0.237 OA
ATOM     89  O   UNL     1      11.097  -4.387  -8.517  1.00  0.00    -0.237 OA
ATOM     90  O   UNL     1       9.290  -5.930  -9.167  1.00  0.00    -0.744 OA
ENDBRANCH  86  87
ENDBRANCH  54  79
BRANCH  66  91
ATOM     91  C   UNL     1       5.492   3.787 -13.941  1.00  0.00     0.058 A 
ATOM     92  C   UNL     1       5.125   3.008 -15.048  1.00  0.00     0.135 A 
ATOM     93  C   UNL     1       6.284   4.924 -14.170  1.00  0.00     0.135 A 
ATOM     94  F   UNL     1       4.374   1.908 -14.882  1.00  0.00    -0.206 F 
ATOM     95  C   UNL     1       5.545   3.332 -16.334  1.00  0.00     0.059 A 
ATOM     96  C   UNL     1       6.691   5.283 -15.451  1.00  0.00     0.059 A 
ATOM     97  F   UNL     1       6.653   5.710 -13.146  1.00  0.00    -0.206 F 
ATOM     98  C   UNL     1       6.326   4.474 -16.525  1.00  0.00     0.060 A 
BRANCH  98  99
ATOM     99  S   UNL     1       6.834   4.903 -18.203  1.00  0.00     0.124 S 
ATOM    100  O   UNL     1       7.870   3.908 -18.460  1.00  0.00    -0.237 OA
ATOM    101  O   UNL     1       5.595   4.739 -18.957  1.00  0.00    -0.237 OA
ATOM    102  O   UNL     1       7.304   6.280 -18.074  1.00  0.00    -0.744 OA
ENDBRANCH  98  99
ENDBRANCH  66  91
ENDBRANCH  40  41
ENDBRANCH  32  35
ENDBRANCH  30  31
ENDBRANCH  29  30
ENDBRANCH  28  29
ENDBRANCH   1  28
TORSDOF 19
