REMARK SMILES O=C(NCCCCNC(=O)[C@H]1CCC(=O)N(C2CCCCC2)[C@H]1c1ccccc1)c1ccc(-c2c3nc(c(-c4c(F)cc(S(=O)(=O)[O-])cc4F)c4ccc([nH]4)c(-c4c(F)cc(S(=O)(=O)[O-])cc4F)c4nc(c(-c5c(F)cc(S(=O)(=O)[O-])cc5F)c5ccc2[nH]5)C=C4)C=C3)cc1
REMARK SMILES IDX 4 1 3 2 1 3 2 4 30 6 31 7 95 8 32 9 94 10 33 11 34 12 35 13
REMARK SMILES IDX 88 14 36 15 93 16 87 17 89 18 37 19 92 20 86 21 85 22 38 24
REMARK SMILES IDX 72 25 51 26 71 27 52 28 55 29 70 30 90 31 53 32 54 33 69 35
REMARK SMILES IDX 91 36 56 37 39 38 40 39 49 40 41 41 42 42 48 43 50 44 43 45
REMARK SMILES IDX 44 46 45 47 46 48 47 49 73 50 74 51 83 52 75 53 76 54 82 55
REMARK SMILES IDX 84 56 77 57 78 58 79 59 80 60 81 61 57 62 58 63 67 64 59 65
REMARK SMILES IDX 60 66 66 67 68 68 61 69 62 70 63 71 64 72 65 73 5 74 6 75
REMARK SMILES IDX 7 76 8 77 9 78 10 80 11 81 12 82 23 83 13 84 16 85 14 86
REMARK SMILES IDX 15 87 24 88 25 89 29 90 26 91 28 92 27 93 17 94 18 95 22 96
REMARK SMILES IDX 19 97 21 98 20 99
REMARK H PARENT 3 5 89 23 55 34 8 79
REMARK Flexibility Score: inf
ROOT
ATOM      1  C   UNL     1       7.286 -10.645  -0.446  1.00  0.00     0.116 C 
ENDROOT
BRANCH   1   2
ATOM      2  N   UNL     1       8.559 -11.264  -0.098  1.00  0.00    -0.352 N 
ATOM      3  O   UNL     1      10.149 -12.868  -0.132  1.00  0.00    -0.269 OA
ATOM      4  C   UNL     1       9.127 -12.398  -0.623  1.00  0.00     0.251 C 
ATOM      5  H   UNL     1       9.079 -10.810   0.604  1.00  0.00     0.163 HD
BRANCH   4   6
ATOM      6  C   UNL     1       8.461 -13.049  -1.763  1.00  0.00     0.039 A 
ATOM      7  C   UNL     1       7.995 -12.269  -2.825  1.00  0.00     0.014 A 
ATOM      8  C   UNL     1       8.233 -14.424  -1.728  1.00  0.00     0.014 A 
ATOM      9  C   UNL     1       7.154 -12.835  -3.767  1.00  0.00     0.010 A 
ATOM     10  C   UNL     1       7.479 -15.012  -2.741  1.00  0.00     0.010 A 
ATOM     11  C   UNL     1       6.911 -14.215  -3.748  1.00  0.00    -0.014 A 
BRANCH  11  12
ATOM     12  C   UNL     1       6.126 -14.822  -4.844  1.00  0.00     0.031 A 
ATOM     13  C   UNL     1       4.819 -15.502  -4.571  1.00  0.00     0.074 A 
ATOM     14  C   UNL     1       6.626 -14.749  -6.092  1.00  0.00     0.049 A 
ATOM     15  N   UNL     1       4.050 -16.160  -5.397  1.00  0.00    -0.248 NA
ATOM     16  C   UNL     1       4.312 -15.445  -3.191  1.00  0.00     0.031 C 
ATOM     17  C   UNL     1       7.890 -14.100  -6.455  1.00  0.00     0.029 A 
ATOM     18  N   UNL     1       6.141 -15.219  -7.282  1.00  0.00    -0.354 N 
ATOM     19  C   UNL     1       2.986 -16.628  -4.635  1.00  0.00     0.074 A 
ATOM     20  C   UNL     1       3.214 -16.184  -3.276  1.00  0.00     0.031 C 
ATOM     21  C   UNL     1       8.066 -14.188  -7.780  1.00  0.00     0.029 A 
ATOM     22  C   UNL     1       6.973 -14.967  -8.345  1.00  0.00     0.049 A 
ATOM     23  H   UNL     1       5.281 -15.691  -7.367  1.00  0.00     0.167 HD
ATOM     24  C   UNL     1       1.925 -17.365  -5.041  1.00  0.00     0.037 A 
ATOM     25  C   UNL     1       6.887 -15.354  -9.630  1.00  0.00     0.037 A 
ATOM     26  C   UNL     1       1.717 -17.783  -6.404  1.00  0.00     0.049 A 
ATOM     27  C   UNL     1       5.712 -16.180 -10.052  1.00  0.00     0.074 A 
ATOM     28  C   UNL     1       0.669 -18.514  -6.933  1.00  0.00     0.029 A 
ATOM     29  N   UNL     1       2.582 -17.507  -7.457  1.00  0.00    -0.354 N 
ATOM     30  N   UNL     1       4.713 -16.615  -9.321  1.00  0.00    -0.248 NA
ATOM     31  C   UNL     1       5.650 -16.572 -11.463  1.00  0.00     0.031 C 
ATOM     32  C   UNL     1       0.917 -18.711  -8.296  1.00  0.00     0.029 A 
ATOM     33  C   UNL     1       2.098 -18.065  -8.628  1.00  0.00     0.049 A 
ATOM     34  H   UNL     1       3.417 -16.991  -7.380  1.00  0.00     0.167 HD
ATOM     35  C   UNL     1       3.891 -17.322 -10.187  1.00  0.00     0.074 A 
ATOM     36  C   UNL     1       4.508 -17.247 -11.498  1.00  0.00     0.031 C 
ATOM     37  C   UNL     1       2.731 -17.970  -9.922  1.00  0.00     0.037 A 
BRANCH  24  38
ATOM     38  C   UNL     1       0.935 -17.794  -3.993  1.00  0.00     0.058 A 
ATOM     39  C   UNL     1       0.052 -16.886  -3.388  1.00  0.00     0.135 A 
ATOM     40  C   UNL     1       0.867 -19.138  -3.590  1.00  0.00     0.135 A 
ATOM     41  F   UNL     1       0.083 -15.586  -3.724  1.00  0.00    -0.206 F 
ATOM     42  C   UNL     1      -0.836 -17.286  -2.393  1.00  0.00     0.059 A 
ATOM     43  C   UNL     1      -0.029 -19.565  -2.614  1.00  0.00     0.059 A 
ATOM     44  F   UNL     1       1.687 -20.049  -4.136  1.00  0.00    -0.206 F 
ATOM     45  C   UNL     1      -0.862 -18.627  -2.006  1.00  0.00     0.060 A 
BRANCH  45  46
ATOM     46  S   UNL     1      -1.992 -19.128  -0.689  1.00  0.00     0.124 S 
ATOM     47  O   UNL     1      -1.302 -18.617   0.492  1.00  0.00    -0.237 OA
ATOM     48  O   UNL     1      -3.224 -18.435  -1.051  1.00  0.00    -0.237 OA
ATOM     49  O   UNL     1      -2.034 -20.581  -0.812  1.00  0.00    -0.744 OA
ENDBRANCH  45  46
ENDBRANCH  24  38
BRANCH  25  50
ATOM     50  C   UNL     1       7.963 -14.960 -10.573  1.00  0.00     0.058 A 
ATOM     51  C   UNL     1       7.751 -13.959 -11.529  1.00  0.00     0.135 A 
ATOM     52  C   UNL     1       9.253 -15.506 -10.466  1.00  0.00     0.135 A 
ATOM     53  F   UNL     1       6.535 -13.406 -11.664  1.00  0.00    -0.206 F 
ATOM     54  C   UNL     1       8.782 -13.504 -12.344  1.00  0.00     0.059 A 
ATOM     55  C   UNL     1      10.305 -15.051 -11.252  1.00  0.00     0.059 A 
ATOM     56  F   UNL     1       9.509 -16.449  -9.546  1.00  0.00    -0.206 F 
ATOM     57  C   UNL     1      10.059 -14.050 -12.190  1.00  0.00     0.060 A 
BRANCH  57  58
ATOM     58  S   UNL     1      11.412 -13.383 -13.184  1.00  0.00     0.124 S 
ATOM     59  O   UNL     1      11.134 -13.972 -14.488  1.00  0.00    -0.237 OA
ATOM     60  O   UNL     1      11.195 -11.944 -13.072  1.00  0.00    -0.237 OA
ATOM     61  O   UNL     1      12.603 -13.883 -12.504  1.00  0.00    -0.744 OA
ENDBRANCH  57  58
ENDBRANCH  25  50
BRANCH  37  62
ATOM     62  C   UNL     1       2.034 -18.620 -11.080  1.00  0.00     0.058 A 
ATOM     63  C   UNL     1       2.485 -19.831 -11.624  1.00  0.00     0.135 A 
ATOM     64  C   UNL     1       0.863 -18.052 -11.607  1.00  0.00     0.135 A 
ATOM     65  F   UNL     1       3.607 -20.404 -11.161  1.00  0.00    -0.206 F 
ATOM     66  C   UNL     1       1.802 -20.455 -12.662  1.00  0.00     0.059 A 
ATOM     67  C   UNL     1       0.153 -18.670 -12.630  1.00  0.00     0.059 A 
ATOM     68  F   UNL     1       0.391 -16.896 -11.114  1.00  0.00    -0.206 F 
ATOM     69  C   UNL     1       0.634 -19.869 -13.155  1.00  0.00     0.060 A 
BRANCH  69  70
ATOM     70  S   UNL     1      -0.275 -20.716 -14.464  1.00  0.00     0.124 S 
ATOM     71  O   UNL     1       0.551 -20.424 -15.631  1.00  0.00    -0.237 OA
ATOM     72  O   UNL     1      -0.262 -22.102 -14.008  1.00  0.00    -0.237 OA
ATOM     73  O   UNL     1      -1.583 -20.068 -14.441  1.00  0.00    -0.744 OA
ENDBRANCH  69  70
ENDBRANCH  37  62
ENDBRANCH  11  12
ENDBRANCH   4   6
ENDBRANCH   1   2
BRANCH   1  74
ATOM     74  C   UNL     1       6.472 -10.247   0.763  1.00  0.00     0.023 C 
BRANCH  74  75
ATOM     75  C   UNL     1       7.225  -9.376   1.747  1.00  0.00     0.023 C 
BRANCH  75  76
ATOM     76  C   UNL     1       7.620  -7.973   1.261  1.00  0.00     0.116 C 
BRANCH  76  77
ATOM     77  N   UNL     1       6.509  -7.034   1.187  1.00  0.00    -0.356 N 
ATOM     78  C   UNL     1       6.051  -6.108   2.086  1.00  0.00     0.225 C 
ATOM     79  H   UNL     1       6.000  -7.070   0.345  1.00  0.00     0.163 HD
ATOM     80  O   UNL     1       5.162  -5.343   1.706  1.00  0.00    -0.275 OA
BRANCH  78  81
ATOM     81  C   UNL     1       6.639  -6.008   3.493  1.00  0.00     0.106 C 
ATOM     82  C   UNL     1       5.960  -4.968   4.379  1.00  0.00     0.026 C 
ATOM     83  C   UNL     1       6.647  -7.308   4.296  1.00  0.00     0.128 C 
ATOM     84  C   UNL     1       6.617  -4.875   5.759  1.00  0.00     0.101 C 
ATOM     85  N   UNL     1       7.556  -7.164   5.442  1.00  0.00    -0.332 N 
ATOM     86  C   UNL     1       7.498  -6.033   6.234  1.00  0.00     0.223 C 
ATOM     87  O   UNL     1       8.174  -5.902   7.255  1.00  0.00    -0.275 OA
BRANCH  83  88
ATOM     88  C   UNL     1       5.331  -8.047   4.597  1.00  0.00    -0.025 A 
ATOM     89  C   UNL     1       5.154  -8.762   5.791  1.00  0.00     0.006 A 
ATOM     90  C   UNL     1       4.347  -8.240   3.605  1.00  0.00     0.006 A 
ATOM     91  C   UNL     1       4.126  -9.701   5.944  1.00  0.00     0.000 A 
ATOM     92  C   UNL     1       3.311  -9.169   3.756  1.00  0.00     0.000 A 
ATOM     93  C   UNL     1       3.218  -9.921   4.916  1.00  0.00     0.000 A 
ENDBRANCH  83  88
BRANCH  85  94
ATOM     94  C   UNL     1       8.647  -8.167   5.573  1.00  0.00     0.085 C 
ATOM     95  C   UNL     1      10.026  -7.552   5.276  1.00  0.00     0.025 C 
ATOM     96  C   UNL     1       8.666  -8.963   6.883  1.00  0.00     0.025 C 
ATOM     97  C   UNL     1      11.121  -8.618   5.260  1.00  0.00     0.002 C 
ATOM     98  C   UNL     1       9.748 -10.045   6.830  1.00  0.00     0.002 C 
ATOM     99  C   UNL     1      11.123  -9.452   6.539  1.00  0.00     0.000 C 
ENDBRANCH  85  94
ENDBRANCH  78  81
ENDBRANCH  76  77
ENDBRANCH  75  76
ENDBRANCH  74  75
ENDBRANCH   1  74
TORSDOF 16
