REMARK SMILES CC(C)(C)c1cc(Nc2ccccc2C(=O)NCCCCNC(=O)c2ccc(-c3c4nc(c(-c5c(F)cc(S(=O)(=O)[O-])cc5F)c5ccc([nH]5)c(-c5c(F)cc(S(=O)(=O)[O-])cc5F)c5nc(c(-c6c(F)cc(S(=O)(=O)[O-])cc6F)c6ccc3[nH]6)C=C5)C=C4)cc2)cc2c1OCC2(C)C
REMARK SMILES IDX 19 1 18 2 17 3 15 4 16 5 14 7 9 8 10 9 11 10 13 11 12 12
REMARK SMILES IDX 8 13 7 15 5 16 6 17 93 18 92 19 94 20 91 21 96 22 95 23
REMARK SMILES IDX 97 24 98 25 2 26 1 27 3 28 4 29 20 30 21 31 22 32 23 33
REMARK SMILES IDX 24 35 25 36 26 37 90 38 27 39 89 40 28 41 29 42 30 43 83 44
REMARK SMILES IDX 31 45 88 46 82 47 84 48 32 49 87 50 81 51 80 52 33 54 67 55
REMARK SMILES IDX 46 56 66 57 47 58 50 59 65 60 85 61 48 62 49 63 64 65 86 66
REMARK SMILES IDX 51 67 34 68 35 69 44 70 36 71 37 72 43 73 45 74 38 75 39 76
REMARK SMILES IDX 40 77 41 78 42 79 68 80 69 81 78 82 70 83 71 84 77 85 79 86
REMARK SMILES IDX 72 87 73 88 74 89 75 90 76 91 52 92 53 93 62 94 54 95 55 96
REMARK SMILES IDX 61 97 63 98 56 99 57 100 58 101 59 102 60 103
REMARK H PARENT 17 6 8 14 22 34 84 53 50 64
REMARK Flexibility Score: inf
ROOT
ATOM      1  C   UNL     1       4.380  -0.285  -1.994  1.00  0.00     0.023 C 
ENDROOT
BRANCH   1   2
ATOM      2  C   UNL     1       3.827  -0.092  -3.396  1.00  0.00     0.116 C 
BRANCH   2   3
ATOM      3  N   UNL     1       4.644   0.606  -4.346  1.00  0.00    -0.352 N 
ATOM      4  C   UNL     1       4.524   0.668  -5.713  1.00  0.00     0.253 C 
ATOM      5  O   UNL     1       5.309   1.424  -6.294  1.00  0.00    -0.269 OA
ATOM      6  H   UNL     1       5.397   1.113  -3.964  1.00  0.00     0.163 HD
BRANCH   4   7
ATOM      7  C   UNL     1       3.586  -0.147  -6.561  1.00  0.00     0.063 A 
ATOM      8  C   UNL     1       2.228  -0.478  -6.355  1.00  0.00     0.051 A 
ATOM      9  C   UNL     1       1.525  -1.130  -7.401  1.00  0.00     0.027 A 
ATOM     10  C   UNL     1       2.145  -1.531  -8.581  1.00  0.00     0.002 A 
ATOM     11  C   UNL     1       4.192  -0.572  -7.771  1.00  0.00     0.016 A 
ATOM     12  C   UNL     1       3.491  -1.270  -8.758  1.00  0.00     0.001 A 
BRANCH   8  13
ATOM     13  N   UNL     1       1.502  -0.293  -5.157  1.00  0.00    -0.355 N 
ATOM     14  H   UNL     1       1.251   0.628  -4.918  1.00  0.00     0.167 HD
BRANCH  13  15
ATOM     15  C   UNL     1       1.103  -1.329  -4.267  1.00  0.00     0.039 A 
ATOM     16  C   UNL     1       0.443  -2.023  -1.967  1.00  0.00     0.002 A 
ATOM     17  C   UNL     1       0.642  -1.026  -2.962  1.00  0.00     0.034 A 
ATOM     18  C   UNL     1       0.612  -3.340  -2.392  1.00  0.00     0.127 A 
ATOM     19  C   UNL     1       1.038  -3.659  -3.669  1.00  0.00     0.006 A 
ATOM     20  O   UNL     1       0.370  -4.450  -1.629  1.00  0.00    -0.492 OA
ATOM     21  C   UNL     1       1.296  -2.673  -4.602  1.00  0.00     0.034 A 
ATOM     22  C   UNL     1       1.171  -5.132  -3.839  1.00  0.00     0.028 C 
ATOM     23  C   UNL     1       0.767  -5.588  -2.425  1.00  0.00     0.240 C 
ATOM     24  C   UNL     1       0.199  -5.646  -4.905  1.00  0.00     0.020 C 
ATOM     25  C   UNL     1       2.606  -5.551  -4.175  1.00  0.00     0.020 C 
BRANCH  16  26
ATOM     26  C   UNL     1       0.074  -1.675  -0.511  1.00  0.00    -0.009 C 
ATOM     27  C   UNL     1       0.538  -0.263  -0.105  1.00  0.00     0.016 C 
ATOM     28  C   UNL     1       0.724  -2.620   0.532  1.00  0.00     0.016 C 
ATOM     29  C   UNL     1      -1.455  -1.734  -0.362  1.00  0.00     0.016 C 
ENDBRANCH  16  26
ENDBRANCH  13  15
ENDBRANCH   8  13
ENDBRANCH   4   7
ENDBRANCH   2   3
ENDBRANCH   1   2
BRANCH   1  30
ATOM     30  C   UNL     1       4.749   0.965  -1.195  1.00  0.00     0.023 C 
BRANCH  30  31
ATOM     31  C   UNL     1       3.988   2.256  -1.484  1.00  0.00     0.116 C 
BRANCH  31  32
ATOM     32  N   UNL     1       2.594   2.284  -1.051  1.00  0.00    -0.352 N 
ATOM     33  C   UNL     1       2.005   2.840   0.065  1.00  0.00     0.251 C 
ATOM     34  H   UNL     1       1.968   1.829  -1.660  1.00  0.00     0.163 HD
ATOM     35  O   UNL     1       0.789   2.777   0.228  1.00  0.00    -0.269 OA
BRANCH  33  36
ATOM     36  C   UNL     1       2.841   3.477   1.095  1.00  0.00     0.039 A 
ATOM     37  C   UNL     1       3.770   4.438   0.720  1.00  0.00     0.014 A 
ATOM     38  C   UNL     1       2.729   3.081   2.432  1.00  0.00     0.014 A 
ATOM     39  C   UNL     1       4.754   4.807   1.619  1.00  0.00     0.010 A 
ATOM     40  C   UNL     1       3.645   3.564   3.373  1.00  0.00     0.010 A 
ATOM     41  C   UNL     1       4.709   4.377   2.958  1.00  0.00    -0.014 A 
BRANCH  41  42
ATOM     42  C   UNL     1       5.806   4.810   3.864  1.00  0.00     0.031 A 
ATOM     43  C   UNL     1       6.742   3.810   4.490  1.00  0.00     0.074 A 
ATOM     44  C   UNL     1       6.029   6.133   3.999  1.00  0.00     0.049 A 
ATOM     45  N   UNL     1       7.829   4.033   5.185  1.00  0.00    -0.248 NA
ATOM     46  C   UNL     1       6.424   2.382   4.329  1.00  0.00     0.031 C 
ATOM     47  C   UNL     1       5.175   7.187   3.442  1.00  0.00     0.029 A 
ATOM     48  N   UNL     1       7.065   6.820   4.575  1.00  0.00    -0.354 N 
ATOM     49  C   UNL     1       8.306   2.783   5.565  1.00  0.00     0.074 A 
ATOM     50  C   UNL     1       7.383   1.802   5.040  1.00  0.00     0.031 C 
ATOM     51  C   UNL     1       5.773   8.374   3.609  1.00  0.00     0.029 A 
ATOM     52  C   UNL     1       7.009   8.177   4.356  1.00  0.00     0.049 A 
ATOM     53  H   UNL     1       7.779   6.386   5.096  1.00  0.00     0.167 HD
ATOM     54  C   UNL     1       9.418   2.486   6.279  1.00  0.00     0.037 A 
ATOM     55  C   UNL     1       7.856   9.160   4.715  1.00  0.00     0.037 A 
ATOM     56  C   UNL     1      10.354   3.471   6.757  1.00  0.00     0.049 A 
ATOM     57  C   UNL     1       9.090   8.800   5.489  1.00  0.00     0.074 A 
ATOM     58  C   UNL     1      11.528   3.270   7.461  1.00  0.00     0.029 A 
ATOM     59  N   UNL     1      10.229   4.841   6.572  1.00  0.00    -0.354 N 
ATOM     60  N   UNL     1       9.522   7.610   5.833  1.00  0.00    -0.248 NA
ATOM     61  C   UNL     1       9.937   9.909   5.942  1.00  0.00     0.031 C 
ATOM     62  C   UNL     1      12.094   4.520   7.734  1.00  0.00     0.029 A 
ATOM     63  C   UNL     1      11.292   5.498   7.167  1.00  0.00     0.049 A 
ATOM     64  H   UNL     1       9.492   5.280   6.089  1.00  0.00     0.167 HD
ATOM     65  C   UNL     1      10.685   7.828   6.560  1.00  0.00     0.074 A 
ATOM     66  C   UNL     1      10.909   9.260   6.571  1.00  0.00     0.031 C 
ATOM     67  C   UNL     1      11.486   6.926   7.176  1.00  0.00     0.037 A 
BRANCH  54  68
ATOM     68  C   UNL     1       9.694   1.043   6.601  1.00  0.00     0.058 A 
ATOM     69  C   UNL     1      10.185   0.151   5.636  1.00  0.00     0.135 A 
ATOM     70  C   UNL     1       9.545   0.570   7.915  1.00  0.00     0.135 A 
ATOM     71  F   UNL     1      10.330   0.546   4.362  1.00  0.00    -0.206 F 
ATOM     72  C   UNL     1      10.517  -1.161   5.962  1.00  0.00     0.059 A 
ATOM     73  C   UNL     1       9.889  -0.733   8.268  1.00  0.00     0.059 A 
ATOM     74  F   UNL     1       9.076   1.381   8.876  1.00  0.00    -0.206 F 
ATOM     75  C   UNL     1      10.371  -1.593   7.282  1.00  0.00     0.060 A 
BRANCH  75  76
ATOM     76  S   UNL     1      10.842  -3.287   7.694  1.00  0.00     0.124 S 
ATOM     77  O   UNL     1       9.775  -4.050   7.052  1.00  0.00    -0.237 OA
ATOM     78  O   UNL     1      12.160  -3.402   7.079  1.00  0.00    -0.237 OA
ATOM     79  O   UNL     1      10.830  -3.300   9.153  1.00  0.00    -0.744 OA
ENDBRANCH  75  76
ENDBRANCH  54  68
BRANCH  55  80
ATOM     80  C   UNL     1       7.542  10.568   4.361  1.00  0.00     0.058 A 
ATOM     81  C   UNL     1       8.298  11.268   3.411  1.00  0.00     0.135 A 
ATOM     82  C   UNL     1       6.441  11.226   4.935  1.00  0.00     0.135 A 
ATOM     83  F   UNL     1       9.363  10.685   2.838  1.00  0.00    -0.206 F 
ATOM     84  C   UNL     1       7.976  12.571   3.042  1.00  0.00     0.059 A 
ATOM     85  C   UNL     1       6.083  12.515   4.562  1.00  0.00     0.059 A 
ATOM     86  F   UNL     1       5.675  10.592   5.837  1.00  0.00    -0.206 F 
ATOM     87  C   UNL     1       6.862  13.184   3.619  1.00  0.00     0.060 A 
BRANCH  87  88
ATOM     88  S   UNL     1       6.408  14.848   3.087  1.00  0.00     0.124 S 
ATOM     89  O   UNL     1       7.412  15.657   3.769  1.00  0.00    -0.237 OA
ATOM     90  O   UNL     1       6.540  14.755   1.636  1.00  0.00    -0.237 OA
ATOM     91  O   UNL     1       5.040  14.994   3.574  1.00  0.00    -0.744 OA
ENDBRANCH  87  88
ENDBRANCH  55  80
BRANCH  67  92
ATOM     92  C   UNL     1      12.666   7.462   7.931  1.00  0.00     0.058 A 
ATOM     93  C   UNL     1      12.505   8.075   9.183  1.00  0.00     0.135 A 
ATOM     94  C   UNL     1      13.968   7.307   7.431  1.00  0.00     0.135 A 
ATOM     95  F   UNL     1      11.278   8.253   9.696  1.00  0.00    -0.206 F 
ATOM     96  C   UNL     1      13.599   8.528   9.911  1.00  0.00     0.059 A 
ATOM     97  C   UNL     1      15.077   7.734   8.153  1.00  0.00     0.059 A 
ATOM     98  F   UNL     1      14.170   6.720   6.241  1.00  0.00    -0.206 F 
ATOM     99  C   UNL     1      14.881   8.349   9.390  1.00  0.00     0.060 A 
BRANCH  99 100
ATOM    100  S   UNL     1      16.294   8.902  10.368  1.00  0.00     0.124 S 
ATOM    101  O   UNL     1      16.206  10.350  10.219  1.00  0.00    -0.237 OA
ATOM    102  O   UNL     1      15.978   8.380  11.694  1.00  0.00    -0.237 OA
ATOM    103  O   UNL     1      17.432   8.270   9.708  1.00  0.00    -0.744 OA
ENDBRANCH  99 100
ENDBRANCH  67  92
ENDBRANCH  41  42
ENDBRANCH  33  36
ENDBRANCH  31  32
ENDBRANCH  30  31
ENDBRANCH   1  30
TORSDOF 17
