REMARK SMILES CCCCCCCNC(=O)Oc1cccc(-c2ccc([C@@H](C)C(=O)NCCCCNC(=O)c3ccc(-c4c5nc(c(-c6c(F)cc(S(=O)(=O)[O-])cc6F)c6ccc([nH]6)c(-c6c(F)cc(S(=O)(=O)[O-])cc6F)c6nc(c(-c7c(F)cc(S(=O)(=O)[O-])cc7F)c7ccc4[nH]7)C=C6)C=C5)cc3)cc2F)c1
REMARK SMILES IDX 21 1 22 2 20 3 17 4 18 5 100 6 19 7 99 8 101 9 16 10 12 11
REMARK SMILES IDX 13 12 102 13 14 14 15 15 11 16 9 17 8 18 10 20 7 21 6 22
REMARK SMILES IDX 5 23 4 24 3 25 2 26 1 27 23 28 24 29 25 30 26 32 27 33 28 34
REMARK SMILES IDX 29 35 30 36 31 37 32 39 33 40 34 41 98 42 35 43 97 44 36 45
REMARK SMILES IDX 37 46 38 47 91 48 39 49 96 50 90 51 92 52 40 53 95 54 89 55
REMARK SMILES IDX 88 56 41 58 75 59 54 60 74 61 55 62 58 63 73 64 93 65 56 66
REMARK SMILES IDX 57 67 72 69 94 70 59 71 42 72 43 73 52 74 44 75 45 76 51 77
REMARK SMILES IDX 53 78 46 79 47 80 48 81 49 82 50 83 76 84 77 85 86 86 78 87
REMARK SMILES IDX 79 88 85 89 87 90 80 91 81 92 82 93 83 94 84 95 60 96 61 97
REMARK SMILES IDX 70 98 62 99 63 100 69 101 71 102 64 103 65 104 66 105 67 106
REMARK SMILES IDX 68 107
REMARK H PARENT 8 19 25 31 30 38 92 57 58 68
REMARK Flexibility Score: inf
ROOT
ATOM      1  C   UNL     1     -10.615   4.914   8.746  1.00  0.00     0.105 C 
ATOM      2  C   UNL     1     -11.676   4.837   9.844  1.00  0.00     0.023 C 
ENDROOT
BRANCH   1   3
ATOM      3  C   UNL     1      -9.375   4.062   8.962  1.00  0.00    -0.033 A 
ATOM      4  C   UNL     1      -6.910   2.626   9.229  1.00  0.00     0.018 A 
ATOM      5  C   UNL     1      -7.489   3.313  10.309  1.00  0.00     0.012 A 
ATOM      6  C   UNL     1      -7.634   2.636   8.027  1.00  0.00     0.131 A 
ATOM      7  C   UNL     1      -8.716   3.977  10.190  1.00  0.00     0.005 A 
ATOM      8  C   UNL     1      -8.825   3.356   7.884  1.00  0.00     0.044 A 
ATOM      9  F   UNL     1      -7.202   1.943   6.962  1.00  0.00    -0.206 F 
BRANCH   4  10
ATOM     10  C   UNL     1      -5.596   1.957   9.378  1.00  0.00    -0.012 A 
ATOM     11  C   UNL     1      -3.432   1.286   8.491  1.00  0.00     0.133 A 
ATOM     12  C   UNL     1      -3.062   0.723   9.707  1.00  0.00     0.047 A 
ATOM     13  C   UNL     1      -4.677   1.895   8.318  1.00  0.00     0.056 A 
ATOM     14  C   UNL     1      -3.951   0.777  10.772  1.00  0.00     0.004 A 
ATOM     15  C   UNL     1      -5.205   1.377  10.604  1.00  0.00     0.009 A 
BRANCH  11  16
ATOM     16  O   UNL     1      -2.558   1.086   7.412  1.00  0.00    -0.410 OA
BRANCH  16  17
ATOM     17  C   UNL     1      -2.184   2.181   6.650  1.00  0.00     0.412 C 
ATOM     18  N   UNL     1      -1.435   1.828   5.560  1.00  0.00    -0.321 N 
ATOM     19  H   UNL     1      -1.108   2.562   4.991  1.00  0.00     0.167 HD
ATOM     20  O   UNL     1      -2.453   3.351   6.884  1.00  0.00    -0.224 OA
BRANCH  18  21
ATOM     21  C   UNL     1      -1.077   0.484   5.160  1.00  0.00     0.119 C 
BRANCH  21  22
ATOM     22  C   UNL     1      -1.595   0.146   3.763  1.00  0.00     0.021 C 
BRANCH  22  23
ATOM     23  C   UNL     1      -1.005   1.007   2.639  1.00  0.00     0.002 C 
BRANCH  23  24
ATOM     24  C   UNL     1       0.522   0.969   2.524  1.00  0.00     0.000 C 
BRANCH  24  25
ATOM     25  C   UNL     1       1.120  -0.415   2.248  1.00  0.00    -0.000 C 
BRANCH  25  26
ATOM     26  C   UNL     1       0.663  -1.072   0.943  1.00  0.00    -0.003 C 
ATOM     27  C   UNL     1       1.025  -0.266  -0.295  1.00  0.00     0.004 C 
ENDBRANCH  25  26
ENDBRANCH  24  25
ENDBRANCH  23  24
ENDBRANCH  22  23
ENDBRANCH  21  22
ENDBRANCH  18  21
ENDBRANCH  16  17
ENDBRANCH  11  16
ENDBRANCH   4  10
ENDBRANCH   1   3
BRANCH   1  28
ATOM     28  C   UNL     1     -10.306   6.345   8.275  1.00  0.00     0.227 C 
ATOM     29  O   UNL     1     -10.545   6.667   7.105  1.00  0.00    -0.274 OA
ATOM     30  N   UNL     1      -9.791   7.314   9.080  1.00  0.00    -0.356 N 
ATOM     31  H   UNL     1      -9.711   8.196   8.649  1.00  0.00     0.163 HD
BRANCH  30  32
ATOM     32  C   UNL     1      -9.338   7.284  10.455  1.00  0.00     0.116 C 
BRANCH  32  33
ATOM     33  C   UNL     1      -7.826   7.082  10.559  1.00  0.00     0.023 C 
BRANCH  33  34
ATOM     34  C   UNL     1      -7.001   8.365  10.512  1.00  0.00     0.023 C 
BRANCH  34  35
ATOM     35  C   UNL     1      -7.271   9.346  11.644  1.00  0.00     0.116 C 
BRANCH  35  36
ATOM     36  N   UNL     1      -7.047   8.796  12.975  1.00  0.00    -0.352 N 
ATOM     37  C   UNL     1      -6.606   9.466  14.096  1.00  0.00     0.251 C 
ATOM     38  H   UNL     1      -7.232   7.836  13.086  1.00  0.00     0.163 HD
ATOM     39  O   UNL     1      -6.381   8.864  15.140  1.00  0.00    -0.269 OA
BRANCH  37  40
ATOM     40  C   UNL     1      -6.369  10.920  13.993  1.00  0.00     0.039 A 
ATOM     41  C   UNL     1      -5.117  11.433  14.337  1.00  0.00     0.014 A 
ATOM     42  C   UNL     1      -7.355  11.749  13.454  1.00  0.00     0.014 A 
ATOM     43  C   UNL     1      -4.827  12.772  14.066  1.00  0.00     0.010 A 
ATOM     44  C   UNL     1      -7.034  13.053  13.105  1.00  0.00     0.010 A 
ATOM     45  C   UNL     1      -5.769  13.580  13.409  1.00  0.00    -0.014 A 
BRANCH  45  46
ATOM     46  C   UNL     1      -5.478  14.990  13.044  1.00  0.00     0.031 A 
ATOM     47  C   UNL     1      -6.316  16.091  13.634  1.00  0.00     0.074 A 
ATOM     48  C   UNL     1      -4.535  15.271  12.122  1.00  0.00     0.049 A 
ATOM     49  N   UNL     1      -6.331  17.366  13.345  1.00  0.00    -0.248 NA
ATOM     50  C   UNL     1      -7.297  15.695  14.658  1.00  0.00     0.031 C 
ATOM     51  C   UNL     1      -3.686  14.287  11.447  1.00  0.00     0.029 A 
ATOM     52  N   UNL     1      -4.146  16.471  11.579  1.00  0.00    -0.354 N 
ATOM     53  C   UNL     1      -7.337  17.917  14.130  1.00  0.00     0.074 A 
ATOM     54  C   UNL     1      -7.948  16.830  14.862  1.00  0.00     0.031 C 
ATOM     55  C   UNL     1      -2.864  14.924  10.596  1.00  0.00     0.029 A 
ATOM     56  C   UNL     1      -3.156  16.354  10.631  1.00  0.00     0.049 A 
ATOM     57  H   UNL     1      -4.539  17.334  11.843  1.00  0.00     0.167 HD
ATOM     58  C   UNL     1      -7.701  19.216  14.251  1.00  0.00     0.037 A 
ATOM     59  C   UNL     1      -2.561  17.293   9.869  1.00  0.00     0.037 A 
ATOM     60  C   UNL     1      -7.063  20.294  13.545  1.00  0.00     0.049 A 
ATOM     61  C   UNL     1      -2.978  18.732  10.022  1.00  0.00     0.074 A 
ATOM     62  C   UNL     1      -7.318  21.651  13.634  1.00  0.00     0.029 A 
ATOM     63  N   UNL     1      -6.038  20.139  12.623  1.00  0.00    -0.354 N 
ATOM     64  N   UNL     1      -3.899  19.244  10.804  1.00  0.00    -0.248 NA
ATOM     65  C   UNL     1      -2.274  19.721   9.194  1.00  0.00     0.031 C 
ATOM     66  C   UNL     1      -6.475  22.313  12.736  1.00  0.00     0.029 A 
ATOM     67  C   UNL     1      -5.658  21.374  12.126  1.00  0.00     0.049 A 
ATOM     68  H   UNL     1      -5.640  19.277  12.361  1.00  0.00     0.167 HD
ATOM     69  C   UNL     1      -3.858  20.618  10.591  1.00  0.00     0.074 A 
ATOM     70  C   UNL     1      -2.823  20.856   9.607  1.00  0.00     0.031 C 
ATOM     71  C   UNL     1      -4.607  21.593  11.162  1.00  0.00     0.037 A 
BRANCH  58  72
ATOM     72  C   UNL     1      -8.838  19.533  15.184  1.00  0.00     0.058 A 
ATOM     73  C   UNL     1      -8.711  19.392  16.576  1.00  0.00     0.135 A 
ATOM     74  C   UNL     1     -10.066  19.993  14.683  1.00  0.00     0.135 A 
ATOM     75  F   UNL     1      -7.565  18.940  17.109  1.00  0.00    -0.206 F 
ATOM     76  C   UNL     1      -9.774  19.655  17.433  1.00  0.00     0.059 A 
ATOM     77  C   UNL     1     -11.133  20.294  15.525  1.00  0.00     0.059 A 
ATOM     78  F   UNL     1     -10.243  20.146  13.361  1.00  0.00    -0.206 F 
ATOM     79  C   UNL     1     -10.982  20.103  16.898  1.00  0.00     0.060 A 
BRANCH  79  80
ATOM     80  S   UNL     1     -12.355  20.429  18.024  1.00  0.00     0.124 S 
ATOM     81  O   UNL     1     -12.762  19.074  18.384  1.00  0.00    -0.237 OA
ATOM     82  O   UNL     1     -11.713  21.200  19.084  1.00  0.00    -0.237 OA
ATOM     83  O   UNL     1     -13.303  21.171  17.198  1.00  0.00    -0.744 OA
ENDBRANCH  79  80
ENDBRANCH  58  72
BRANCH  59  84
ATOM     84  C   UNL     1      -1.484  16.906   8.917  1.00  0.00     0.058 A 
ATOM     85  C   UNL     1      -0.148  17.257   9.162  1.00  0.00     0.135 A 
ATOM     86  C   UNL     1      -1.762  16.167   7.756  1.00  0.00     0.135 A 
ATOM     87  F   UNL     1       0.168  17.969  10.255  1.00  0.00    -0.206 F 
ATOM     88  C   UNL     1       0.873  16.903   8.286  1.00  0.00     0.059 A 
ATOM     89  C   UNL     1      -0.755  15.779   6.877  1.00  0.00     0.059 A 
ATOM     90  F   UNL     1      -3.021  15.793   7.483  1.00  0.00    -0.206 F 
ATOM     91  C   UNL     1       0.559  16.160   7.147  1.00  0.00     0.060 A 
BRANCH  91  92
ATOM     92  S   UNL     1       1.901  15.663   6.043  1.00  0.00     0.124 S 
ATOM     93  O   UNL     1       2.244  16.930   5.408  1.00  0.00    -0.237 OA
ATOM     94  O   UNL     1       2.886  15.131   6.980  1.00  0.00    -0.237 OA
ATOM     95  O   UNL     1       1.272  14.671   5.176  1.00  0.00    -0.744 OA
ENDBRANCH  91  92
ENDBRANCH  59  84
BRANCH  71  96
ATOM     96  C   UNL     1      -4.303  23.017  10.788  1.00  0.00     0.058 A 
ATOM     97  C   UNL     1      -4.665  23.550   9.542  1.00  0.00     0.135 A 
ATOM     98  C   UNL     1      -3.709  23.879  11.725  1.00  0.00     0.135 A 
ATOM     99  F   UNL     1      -5.229  22.767   8.610  1.00  0.00    -0.206 F 
ATOM    100  C   UNL     1      -4.436  24.887   9.233  1.00  0.00     0.059 A 
ATOM    101  C   UNL     1      -3.497  25.225  11.447  1.00  0.00     0.059 A 
ATOM    102  F   UNL     1      -3.353  23.420  12.936  1.00  0.00    -0.206 F 
ATOM    103  C   UNL     1      -3.857  25.718  10.194  1.00  0.00     0.060 A 
BRANCH 103 104
ATOM    104  S   UNL     1      -3.618  27.464   9.800  1.00  0.00     0.124 S 
ATOM    105  O   UNL     1      -2.491  27.404   8.875  1.00  0.00    -0.237 OA
ATOM    106  O   UNL     1      -4.902  27.830   9.212  1.00  0.00    -0.237 OA
ATOM    107  O   UNL     1      -3.334  28.070  11.097  1.00  0.00    -0.744 OA
ENDBRANCH 103 104
ENDBRANCH  71  96
ENDBRANCH  45  46
ENDBRANCH  37  40
ENDBRANCH  35  36
ENDBRANCH  34  35
ENDBRANCH  33  34
ENDBRANCH  32  33
ENDBRANCH  30  32
ENDBRANCH   1  28
TORSDOF 24
