REMARK SMILES CC(C)CCc1cc2c(cc1Cl)C=C(C(=O)NCCCCNC(=O)c1ccc(-c3c4nc(c(-c5c(F)cc(S(=O)(=O)[O-])cc5F)c5ccc([nH]5)c(-c5c(F)cc(S(=O)(=O)[O-])cc5F)c5nc(c(-c6c(F)cc(S(=O)(=O)[O-])cc6F)c6ccc3[nH]6)C=C5)C=C4)cc1)[C@@H](C(F)(F)F)O2
REMARK SMILES IDX 19 1 18 2 17 3 15 4 16 5 14 7 6 8 7 9 11 10 8 11 10 12 12 13
REMARK SMILES IDX 9 14 96 15 13 16 91 17 5 18 4 19 2 20 1 21 3 22 92 23 93 24
REMARK SMILES IDX 94 25 95 26 20 27 21 28 22 29 23 30 24 32 25 33 26 34 90 35
REMARK SMILES IDX 27 36 89 37 28 38 29 39 30 40 83 41 31 42 88 43 82 44 84 45
REMARK SMILES IDX 32 46 87 47 81 48 80 49 33 51 67 52 46 53 66 54 47 55 50 56
REMARK SMILES IDX 65 57 85 58 48 59 49 60 64 62 86 63 51 64 34 65 35 66 44 67
REMARK SMILES IDX 36 68 37 69 43 70 45 71 38 72 39 73 40 74 41 75 42 76 68 77
REMARK SMILES IDX 69 78 78 79 70 80 71 81 77 82 79 83 72 84 73 85 74 86 75 87
REMARK SMILES IDX 76 88 52 89 53 90 62 91 54 92 55 93 61 94 63 95 56 96 57 97
REMARK SMILES IDX 58 98 59 99 60 100
REMARK H PARENT 17 6 22 31 84 50 50 61
REMARK Flexibility Score: inf
ROOT
ATOM      1  C   UNL     1      -1.040  10.786  -0.572  1.00  0.00     0.023 C 
ENDROOT
BRANCH   1   2
ATOM      2  C   UNL     1      -1.738  10.289  -1.834  1.00  0.00     0.116 C 
BRANCH   2   3
ATOM      3  N   UNL     1      -0.796   9.836  -2.842  1.00  0.00    -0.352 N 
ATOM      4  C   UNL     1      -0.324   8.648  -3.285  1.00  0.00     0.251 C 
ATOM      5  O   UNL     1       0.477   8.716  -4.223  1.00  0.00    -0.270 OA
ATOM      6  H   UNL     1      -0.397  10.591  -3.330  1.00  0.00     0.163 HD
BRANCH   4   7
ATOM      7  C   UNL     1      -0.693   7.311  -2.736  1.00  0.00     0.067 C 
ATOM      8  C   UNL     1      -1.111   2.346  -1.847  1.00  0.00    -0.026 A 
ATOM      9  C   UNL     1      -1.319   3.516  -1.084  1.00  0.00     0.052 A 
ATOM     10  C   UNL     1      -0.599   2.508  -3.148  1.00  0.00     0.045 A 
ATOM     11  C   UNL     1      -1.026   4.777  -1.599  1.00  0.00     0.128 A 
ATOM     12  C   UNL     1      -0.235   3.777  -3.630  1.00  0.00     0.032 A 
ATOM     13  Cl  UNL     1      -0.434   1.214  -4.279  1.00  0.00    -0.084 Cl
ATOM     14  C   UNL     1      -0.455   4.916  -2.859  1.00  0.00     0.019 A 
ATOM     15  O   UNL     1      -1.336   5.866  -0.827  1.00  0.00    -0.475 OA
ATOM     16  C   UNL     1      -0.120   6.251  -3.341  1.00  0.00     0.025 C 
ATOM     17  C   UNL     1      -1.645   7.071  -1.597  1.00  0.00     0.314 C 
BRANCH   8  18
ATOM     18  C   UNL     1      -1.583   1.048  -1.217  1.00  0.00     0.037 C 
BRANCH  18  19
ATOM     19  C   UNL     1      -0.838  -0.271  -1.463  1.00  0.00     0.008 C 
BRANCH  19  20
ATOM     20  C   UNL     1       0.676  -0.249  -1.187  1.00  0.00    -0.017 C 
ATOM     21  C   UNL     1       0.982  -0.139   0.306  1.00  0.00     0.007 C 
ATOM     22  C   UNL     1       1.318  -1.517  -1.758  1.00  0.00     0.007 C 
ENDBRANCH  19  20
ENDBRANCH  18  19
ENDBRANCH   8  18
BRANCH  17  23
ATOM     23  C   UNL     1      -3.120   7.040  -2.055  1.00  0.00     0.429 C 
ATOM     24  F   UNL     1      -3.949   7.157  -0.988  1.00  0.00    -0.167 F 
ATOM     25  F   UNL     1      -3.424   8.059  -2.894  1.00  0.00    -0.167 F 
ATOM     26  F   UNL     1      -3.453   5.898  -2.697  1.00  0.00    -0.167 F 
ENDBRANCH  17  23
ENDBRANCH   4   7
ENDBRANCH   2   3
ENDBRANCH   1   2
BRANCH   1  27
ATOM     27  C   UNL     1      -0.511  12.221  -0.658  1.00  0.00     0.023 C 
BRANCH  27  28
ATOM     28  C   UNL     1      -1.539  13.284  -1.041  1.00  0.00     0.116 C 
BRANCH  28  29
ATOM     29  N   UNL     1      -2.749  13.273  -0.228  1.00  0.00    -0.352 N 
ATOM     30  C   UNL     1      -3.640  14.308  -0.047  1.00  0.00     0.251 C 
ATOM     31  H   UNL     1      -2.951  12.433   0.244  1.00  0.00     0.163 HD
ATOM     32  O   UNL     1      -4.606  14.191   0.699  1.00  0.00    -0.269 OA
BRANCH  30  33
ATOM     33  C   UNL     1      -3.358  15.585  -0.728  1.00  0.00     0.039 A 
ATOM     34  C   UNL     1      -3.240  15.619  -2.120  1.00  0.00     0.014 A 
ATOM     35  C   UNL     1      -3.050  16.704   0.048  1.00  0.00     0.014 A 
ATOM     36  C   UNL     1      -2.648  16.723  -2.723  1.00  0.00     0.010 A 
ATOM     37  C   UNL     1      -2.504  17.831  -0.567  1.00  0.00     0.010 A 
ATOM     38  C   UNL     1      -2.237  17.819  -1.946  1.00  0.00    -0.014 A 
BRANCH  38  39
ATOM     39  C   UNL     1      -1.435  18.899  -2.571  1.00  0.00     0.031 A 
ATOM     40  C   UNL     1       0.026  19.041  -2.230  1.00  0.00     0.074 A 
ATOM     41  C   UNL     1      -1.996  19.703  -3.491  1.00  0.00     0.049 A 
ATOM     42  N   UNL     1       0.886  19.938  -2.639  1.00  0.00    -0.248 NA
ATOM     43  C   UNL     1       0.597  18.043  -1.308  1.00  0.00     0.031 C 
ATOM     44  C   UNL     1      -3.389  19.634  -3.935  1.00  0.00     0.029 A 
ATOM     45  N   UNL     1      -1.455  20.718  -4.235  1.00  0.00    -0.354 N 
ATOM     46  C   UNL     1       2.086  19.633  -2.008  1.00  0.00     0.074 A 
ATOM     47  C   UNL     1       1.845  18.471  -1.180  1.00  0.00     0.031 C 
ATOM     48  C   UNL     1      -3.582  20.542  -4.905  1.00  0.00     0.029 A 
ATOM     49  C   UNL     1      -2.343  21.286  -5.115  1.00  0.00     0.049 A 
ATOM     50  H   UNL     1      -0.520  21.013  -4.147  1.00  0.00     0.167 HD
ATOM     51  C   UNL     1       3.282  20.260  -2.114  1.00  0.00     0.037 A 
ATOM     52  C   UNL     1      -2.181  22.301  -5.983  1.00  0.00     0.037 A 
ATOM     53  C   UNL     1       3.530  21.394  -2.963  1.00  0.00     0.049 A 
ATOM     54  C   UNL     1      -0.854  22.997  -6.063  1.00  0.00     0.074 A 
ATOM     55  C   UNL     1       4.707  22.102  -3.136  1.00  0.00     0.029 A 
ATOM     56  N   UNL     1       2.586  21.978  -3.794  1.00  0.00    -0.354 N 
ATOM     57  N   UNL     1       0.254  22.733  -5.413  1.00  0.00    -0.248 NA
ATOM     58  C   UNL     1      -0.762  24.145  -6.976  1.00  0.00     0.031 C 
ATOM     59  C   UNL     1       4.469  23.126  -4.061  1.00  0.00     0.029 A 
ATOM     60  C   UNL     1       3.150  23.041  -4.478  1.00  0.00     0.049 A 
ATOM     61  H   UNL     1       1.652  21.680  -3.885  1.00  0.00     0.167 HD
ATOM     62  C   UNL     1       1.172  23.689  -5.827  1.00  0.00     0.074 A 
ATOM     63  C   UNL     1       0.498  24.522  -6.804  1.00  0.00     0.031 C 
ATOM     64  C   UNL     1       2.454  23.870  -5.427  1.00  0.00     0.037 A 
BRANCH  51  65
ATOM     65  C   UNL     1       4.412  19.741  -1.274  1.00  0.00     0.058 A 
ATOM     66  C   UNL     1       5.131  18.593  -1.640  1.00  0.00     0.135 A 
ATOM     67  C   UNL     1       4.801  20.416  -0.107  1.00  0.00     0.135 A 
ATOM     68  F   UNL     1       4.784  17.899  -2.736  1.00  0.00    -0.206 F 
ATOM     69  C   UNL     1       6.189  18.123  -0.869  1.00  0.00     0.059 A 
ATOM     70  C   UNL     1       5.865  19.973   0.672  1.00  0.00     0.059 A 
ATOM     71  F   UNL     1       4.140  21.515   0.289  1.00  0.00    -0.206 F 
ATOM     72  C   UNL     1       6.546  18.818   0.289  1.00  0.00     0.060 A 
BRANCH  72  73
ATOM     73  S   UNL     1       7.920  18.198   1.284  1.00  0.00     0.124 S 
ATOM     74  O   UNL     1       7.292  17.077   1.976  1.00  0.00    -0.237 OA
ATOM     75  O   UNL     1       8.908  17.843   0.271  1.00  0.00    -0.237 OA
ATOM     76  O   UNL     1       8.270  19.338   2.124  1.00  0.00    -0.744 OA
ENDBRANCH  72  73
ENDBRANCH  51  65
BRANCH  52  77
ATOM     77  C   UNL     1      -3.320  22.723  -6.833  1.00  0.00     0.058 A 
ATOM     78  C   UNL     1      -3.367  22.381  -8.191  1.00  0.00     0.135 A 
ATOM     79  C   UNL     1      -4.402  23.432  -6.292  1.00  0.00     0.135 A 
ATOM     80  F   UNL     1      -2.349  21.709  -8.749  1.00  0.00    -0.206 F 
ATOM     81  C   UNL     1      -4.454  22.724  -8.987  1.00  0.00     0.059 A 
ATOM     82  C   UNL     1      -5.508  23.771  -7.063  1.00  0.00     0.059 A 
ATOM     83  F   UNL     1      -4.403  23.769  -4.993  1.00  0.00    -0.206 F 
ATOM     84  C   UNL     1      -5.523  23.415  -8.412  1.00  0.00     0.060 A 
BRANCH  84  85
ATOM     85  S   UNL     1      -6.973  23.782  -9.424  1.00  0.00     0.124 S 
ATOM     86  O   UNL     1      -6.535  24.975 -10.139  1.00  0.00    -0.237 OA
ATOM     87  O   UNL     1      -7.109  22.570 -10.226  1.00  0.00    -0.237 OA
ATOM     88  O   UNL     1      -8.025  23.987  -8.433  1.00  0.00    -0.744 OA
ENDBRANCH  84  85
ENDBRANCH  52  77
BRANCH  64  89
ATOM     89  C   UNL     1       3.196  25.024  -6.029  1.00  0.00     0.058 A 
ATOM     90  C   UNL     1       3.000  26.331  -5.559  1.00  0.00     0.135 A 
ATOM     91  C   UNL     1       4.127  24.822  -7.059  1.00  0.00     0.135 A 
ATOM     92  F   UNL     1       2.115  26.571  -4.579  1.00  0.00    -0.206 F 
ATOM     93  C   UNL     1       3.692  27.407  -6.103  1.00  0.00     0.059 A 
ATOM     94  C   UNL     1       4.840  25.883  -7.609  1.00  0.00     0.059 A 
ATOM     95  F   UNL     1       4.351  23.588  -7.535  1.00  0.00    -0.206 F 
ATOM     96  C   UNL     1       4.607  27.173  -7.132  1.00  0.00     0.060 A 
BRANCH  96  97
ATOM     97  S   UNL     1       5.516  28.572  -7.823  1.00  0.00     0.124 S 
ATOM     98  O   UNL     1       4.528  29.142  -8.732  1.00  0.00    -0.237 OA
ATOM     99  O   UNL     1       5.822  29.368  -6.638  1.00  0.00    -0.237 OA
ATOM    100  O   UNL     1       6.669  27.942  -8.460  1.00  0.00    -0.744 OA
ENDBRANCH  96  97
ENDBRANCH  64  89
ENDBRANCH  38  39
ENDBRANCH  30  33
ENDBRANCH  28  29
ENDBRANCH  27  28
ENDBRANCH   1  27
TORSDOF 18
