REMARK SMILES O=C(NCCCCNC(=O)c1cc(NC(=O)c2cccs2)ccc1N1CCC[C@H](C[NH+]2CCCC2)C1)c1ccc(-c2c3nc(c(-c4c(F)cc(S(=O)(=O)[O-])cc4F)c4ccc([nH]4)c(-c4c(F)cc(S(=O)(=O)[O-])cc4F)c4nc(c(-c5c(F)cc(S(=O)(=O)[O-])cc5F)c5ccc2[nH]5)C=C4)C=C3)cc1
REMARK SMILES IDX 5 1 4 2 3 3 1 4 2 5 37 7 38 8 102 9 39 10 101 11 40 12 41 13
REMARK SMILES IDX 42 14 95 15 43 16 100 17 94 18 96 19 44 20 99 21 93 22 92 23
REMARK SMILES IDX 45 25 79 26 58 27 78 28 59 29 62 30 77 31 97 32 60 33 61 34
REMARK SMILES IDX 76 36 98 37 63 38 46 39 47 40 56 41 48 42 49 43 55 44 57 45
REMARK SMILES IDX 50 46 51 47 52 48 53 49 54 50 80 51 81 52 90 53 82 54 83 55
REMARK SMILES IDX 89 56 91 57 84 58 85 59 86 60 87 61 88 62 64 63 65 64 74 65
REMARK SMILES IDX 66 66 67 67 73 68 75 69 68 70 69 71 70 72 71 73 72 74 6 75
REMARK SMILES IDX 7 76 8 77 9 78 10 80 11 81 12 82 24 83 13 84 23 85 22 86
REMARK SMILES IDX 25 87 26 88 36 89 27 90 29 91 28 92 30 93 31 94 32 95 35 96
REMARK SMILES IDX 33 98 34 99 14 100 15 101 16 103 17 104 18 105 21 106 19 107
REMARK SMILES IDX 20 108
REMARK H PARENT 3 6 96 24 62 35 8 79 31 97 14 102
REMARK Flexibility Score: inf
ROOT
ATOM      1  C   UNL     1       5.137   2.480   0.213  1.00  0.00     0.023 C 
ENDROOT
BRANCH   1   2
ATOM      2  C   UNL     1       4.697   1.101   0.698  1.00  0.00     0.116 C 
BRANCH   2   3
ATOM      3  N   UNL     1       3.254   0.923   0.685  1.00  0.00    -0.352 N 
ATOM      4  O   UNL     1       1.260   0.186  -0.055  1.00  0.00    -0.269 OA
ATOM      5  C   UNL     1       2.479   0.094  -0.097  1.00  0.00     0.251 C 
ATOM      6  H   UNL     1       2.758   1.476   1.331  1.00  0.00     0.163 HD
BRANCH   5   7
ATOM      7  C   UNL     1       3.123  -0.885  -1.003  1.00  0.00     0.039 A 
ATOM      8  C   UNL     1       4.157  -1.708  -0.551  1.00  0.00     0.014 A 
ATOM      9  C   UNL     1       2.669  -0.997  -2.321  1.00  0.00     0.014 A 
ATOM     10  C   UNL     1       4.826  -2.539  -1.445  1.00  0.00     0.010 A 
ATOM     11  C   UNL     1       3.289  -1.893  -3.199  1.00  0.00     0.010 A 
ATOM     12  C   UNL     1       4.387  -2.657  -2.773  1.00  0.00    -0.014 A 
BRANCH  12  13
ATOM     13  C   UNL     1       5.017  -3.665  -3.665  1.00  0.00     0.031 A 
ATOM     14  C   UNL     1       5.792  -3.258  -4.888  1.00  0.00     0.074 A 
ATOM     15  C   UNL     1       4.871  -4.969  -3.355  1.00  0.00     0.049 A 
ATOM     16  N   UNL     1       6.377  -4.020  -5.777  1.00  0.00    -0.248 NA
ATOM     17  C   UNL     1       5.925  -1.817  -5.157  1.00  0.00     0.031 C 
ATOM     18  C   UNL     1       4.117  -5.480  -2.205  1.00  0.00     0.029 A 
ATOM     19  N   UNL     1       5.339  -6.101  -3.971  1.00  0.00    -0.354 N 
ATOM     20  C   UNL     1       6.926  -3.159  -6.721  1.00  0.00     0.074 A 
ATOM     21  C   UNL     1       6.598  -1.813  -6.301  1.00  0.00     0.031 C 
ATOM     22  C   UNL     1       4.186  -6.818  -2.191  1.00  0.00     0.029 A 
ATOM     23  C   UNL     1       4.935  -7.265  -3.359  1.00  0.00     0.049 A 
ATOM     24  H   UNL     1       5.909  -6.083  -4.773  1.00  0.00     0.167 HD
ATOM     25  C   UNL     1       7.638  -3.471  -7.830  1.00  0.00     0.037 A 
ATOM     26  C   UNL     1       5.111  -8.551  -3.716  1.00  0.00     0.037 A 
ATOM     27  C   UNL     1       7.986  -4.816  -8.218  1.00  0.00     0.049 A 
ATOM     28  C   UNL     1       5.884  -8.862  -4.965  1.00  0.00     0.074 A 
ATOM     29  C   UNL     1       8.789  -5.224  -9.270  1.00  0.00     0.029 A 
ATOM     30  N   UNL     1       7.541  -5.966  -7.586  1.00  0.00    -0.354 N 
ATOM     31  N   UNL     1       6.465  -8.032  -5.797  1.00  0.00    -0.248 NA
ATOM     32  C   UNL     1       6.016 -10.278  -5.330  1.00  0.00     0.031 C 
ATOM     33  C   UNL     1       8.784  -6.622  -9.307  1.00  0.00     0.029 A 
ATOM     34  C   UNL     1       8.014  -7.085  -8.252  1.00  0.00     0.049 A 
ATOM     35  H   UNL     1       6.972  -5.986  -6.782  1.00  0.00     0.167 HD
ATOM     36  C   UNL     1       7.031  -8.826  -6.787  1.00  0.00     0.074 A 
ATOM     37  C   UNL     1       6.749 -10.202  -6.433  1.00  0.00     0.031 C 
ATOM     38  C   UNL     1       7.715  -8.448  -7.894  1.00  0.00     0.037 A 
BRANCH  25  39
ATOM     39  C   UNL     1       8.094  -2.356  -8.730  1.00  0.00     0.058 A 
ATOM     40  C   UNL     1       9.184  -1.537  -8.398  1.00  0.00     0.135 A 
ATOM     41  C   UNL     1       7.507  -2.185  -9.995  1.00  0.00     0.135 A 
ATOM     42  F   UNL     1       9.775  -1.651  -7.198  1.00  0.00    -0.206 F 
ATOM     43  C   UNL     1       9.677  -0.589  -9.290  1.00  0.00     0.059 A 
ATOM     44  C   UNL     1       7.995  -1.256 -10.910  1.00  0.00     0.059 A 
ATOM     45  F   UNL     1       6.462  -2.944 -10.361  1.00  0.00    -0.206 F 
ATOM     46  C   UNL     1       9.081  -0.461 -10.547  1.00  0.00     0.060 A 
BRANCH  46  47
ATOM     47  S   UNL     1       9.767   0.737 -11.711  1.00  0.00     0.124 S 
ATOM     48  O   UNL     1       9.337   1.999 -11.117  1.00  0.00    -0.237 OA
ATOM     49  O   UNL     1      11.198   0.459 -11.638  1.00  0.00    -0.237 OA
ATOM     50  O   UNL     1       9.127   0.390 -12.976  1.00  0.00    -0.744 OA
ENDBRANCH  46  47
ENDBRANCH  25  39
BRANCH  26  51
ATOM     51  C   UNL     1       4.492  -9.634  -2.908  1.00  0.00     0.058 A 
ATOM     52  C   UNL     1       5.276 -10.523  -2.160  1.00  0.00     0.135 A 
ATOM     53  C   UNL     1       3.098  -9.797  -2.871  1.00  0.00     0.135 A 
ATOM     54  F   UNL     1       6.612 -10.409  -2.167  1.00  0.00    -0.206 F 
ATOM     55  C   UNL     1       4.700 -11.551  -1.419  1.00  0.00     0.059 A 
ATOM     56  C   UNL     1       2.498 -10.798  -2.117  1.00  0.00     0.059 A 
ATOM     57  F   UNL     1       2.304  -8.959  -3.556  1.00  0.00    -0.206 F 
ATOM     58  C   UNL     1       3.310 -11.681  -1.407  1.00  0.00     0.060 A 
BRANCH  58  59
ATOM     59  S   UNL     1       2.567 -13.000  -0.424  1.00  0.00     0.124 S 
ATOM     60  O   UNL     1       2.799 -14.162  -1.273  1.00  0.00    -0.237 OA
ATOM     61  O   UNL     1       3.345 -12.944   0.810  1.00  0.00    -0.237 OA
ATOM     62  O   UNL     1       1.175 -12.577  -0.297  1.00  0.00    -0.744 OA
ENDBRANCH  58  59
ENDBRANCH  26  51
BRANCH  38  63
ATOM     63  C   UNL     1       8.198  -9.537  -8.806  1.00  0.00     0.058 A 
ATOM     64  C   UNL     1       7.313 -10.224  -9.651  1.00  0.00     0.135 A 
ATOM     65  C   UNL     1       9.562  -9.862  -8.876  1.00  0.00     0.135 A 
ATOM     66  F   UNL     1       5.997  -9.958  -9.611  1.00  0.00    -0.206 F 
ATOM     67  C   UNL     1       7.761 -11.207 -10.526  1.00  0.00     0.059 A 
ATOM     68  C   UNL     1      10.036 -10.825  -9.762  1.00  0.00     0.059 A 
ATOM     69  F   UNL     1      10.449  -9.230  -8.092  1.00  0.00    -0.206 F 
ATOM     70  C   UNL     1       9.126 -11.497 -10.577  1.00  0.00     0.060 A 
BRANCH  70  71
ATOM     71  S   UNL     1       9.701 -12.741 -11.752  1.00  0.00     0.124 S 
ATOM     72  O   UNL     1       9.271 -13.976 -11.106  1.00  0.00    -0.237 OA
ATOM     73  O   UNL     1       8.982 -12.378 -12.969  1.00  0.00    -0.237 OA
ATOM     74  O   UNL     1      11.144 -12.525 -11.796  1.00  0.00    -0.744 OA
ENDBRANCH  70  71
ENDBRANCH  38  63
ENDBRANCH  12  13
ENDBRANCH   5   7
ENDBRANCH   2   3
ENDBRANCH   1   2
BRANCH   1  75
ATOM     75  C   UNL     1       4.766   3.662   1.109  1.00  0.00     0.023 C 
BRANCH  75  76
ATOM     76  C   UNL     1       5.037   3.475   2.597  1.00  0.00     0.116 C 
BRANCH  76  77
ATOM     77  N   UNL     1       6.393   3.103   2.937  1.00  0.00    -0.352 N 
ATOM     78  C   UNL     1       6.993   3.168   4.174  1.00  0.00     0.253 C 
ATOM     79  H   UNL     1       6.950   2.764   2.200  1.00  0.00     0.163 HD
ATOM     80  O   UNL     1       8.098   2.657   4.338  1.00  0.00    -0.269 OA
BRANCH  78  81
ATOM     81  C   UNL     1       6.386   3.959   5.274  1.00  0.00     0.065 A 
ATOM     82  C   UNL     1       7.178   5.059   5.663  1.00  0.00     0.042 A 
ATOM     83  C   UNL     1       5.143   3.713   5.884  1.00  0.00     0.050 A 
ATOM     84  C   UNL     1       6.716   6.011   6.564  1.00  0.00     0.042 A 
ATOM     85  C   UNL     1       4.726   4.653   6.846  1.00  0.00     0.029 A 
ATOM     86  C   UNL     1       5.488   5.782   7.177  1.00  0.00     0.028 A 
BRANCH  83  87
ATOM     87  N   UNL     1       4.341   2.600   5.672  1.00  0.00    -0.370 N 
ATOM     88  C   UNL     1       2.936   2.782   5.295  1.00  0.00     0.116 C 
ATOM     89  C   UNL     1       4.952   1.276   5.515  1.00  0.00     0.126 C 
ATOM     90  C   UNL     1       2.061   1.689   5.887  1.00  0.00     0.022 C 
ATOM     91  C   UNL     1       4.092   0.202   6.210  1.00  0.00     0.064 C 
ATOM     92  C   UNL     1       2.664   0.308   5.653  1.00  0.00     0.013 C 
BRANCH  91  93
ATOM     93  C   UNL     1       4.233   0.348   7.750  1.00  0.00     0.267 C 
BRANCH  93  94
ATOM     94  N   UNL     1       3.688  -0.677   8.647  1.00  0.00    -0.335 N 
ATOM     95  C   UNL     1       4.143  -2.041   8.392  1.00  0.00     0.262 C 
ATOM     96  C   UNL     1       2.236  -0.707   8.794  1.00  0.00     0.262 C 
ATOM     97  H   UNL     1       4.088  -0.348   9.526  1.00  0.00     0.348 HD
ATOM     98  C   UNL     1       2.990  -2.718   7.680  1.00  0.00     0.067 C 
ATOM     99  C   UNL     1       1.759  -2.057   8.273  1.00  0.00     0.067 C 
ENDBRANCH  93  94
ENDBRANCH  91  93
ENDBRANCH  83  87
BRANCH  84 100
ATOM    100  N   UNL     1       7.410   7.183   6.921  1.00  0.00    -0.321 N 
ATOM    101  C   UNL     1       8.508   7.824   6.373  1.00  0.00     0.265 C 
ATOM    102  H   UNL     1       7.043   7.635   7.715  1.00  0.00     0.170 HD
ATOM    103  O   UNL     1       8.998   8.751   7.023  1.00  0.00    -0.268 OA
BRANCH 101 104
ATOM    104  C   UNL     1       8.987   7.444   5.062  1.00  0.00     0.092 A 
ATOM    105  C   UNL     1       8.304   7.404   3.860  1.00  0.00     0.025 A 
ATOM    106  S   UNL     1      10.614   6.939   4.882  1.00  0.00    -0.139 S 
ATOM    107  C   UNL     1       9.080   6.803   2.825  1.00  0.00     0.012 A 
ATOM    108  C   UNL     1      10.346   6.474   3.255  1.00  0.00     0.065 A 
ENDBRANCH 101 104
ENDBRANCH  84 100
ENDBRANCH  78  81
ENDBRANCH  76  77
ENDBRANCH  75  76
ENDBRANCH   1  75
TORSDOF 19
