REMARK SMILES [NH3+][C@@]1(C(=O)NCCCCNC(=O)c2ccc(-c3c4nc(c(-c5c(F)cc(S(=O)(=O)[O-])cc5F)c5ccc([nH]5)c(-c5c(F)cc(S(=O)(=O)[O-])cc5F)c5nc(c(-c6c(F)cc(S(=O)(=O)[O-])cc6F)c6ccc3[nH]6)C=C5)C=C4)cc2)CC[N@@H+](Cc2ccc(OCC(=O)N3CCCCC3)cc2)C1
REMARK SMILES IDX 6 1 5 2 3 3 4 4 2 6 79 7 99 8 80 9 81 10 1 12 82 16 83 17
REMARK SMILES IDX 84 18 98 19 85 20 97 21 86 22 87 23 88 24 89 25 90 26 91 27
REMARK SMILES IDX 92 28 96 29 93 30 95 31 94 32 7 33 8 34 9 35 10 36 11 37
REMARK SMILES IDX 12 39 13 40 14 41 78 42 15 43 77 44 16 45 17 46 18 47 71 48
REMARK SMILES IDX 19 49 76 50 70 51 72 52 20 53 75 54 69 55 68 56 21 58 55 59
REMARK SMILES IDX 34 60 54 61 35 62 38 63 53 64 73 65 36 66 37 67 52 69 74 70
REMARK SMILES IDX 39 71 22 72 23 73 32 74 24 75 25 76 31 77 33 78 26 79 27 80
REMARK SMILES IDX 28 81 29 82 30 83 56 84 57 85 66 86 58 87 59 88 65 89 67 90
REMARK SMILES IDX 60 91 61 92 62 93 63 94 64 95 40 96 41 97 50 98 42 99 43 100
REMARK SMILES IDX 49 101 51 102 44 103 45 104 46 105 47 106 48 107
REMARK H PARENT 5 5 81 11 1 13 1 14 1 15 10 38 72 57 38 68
REMARK Flexibility Score: inf
ROOT
ATOM      1  C   UNL     1      -2.119   2.500  -3.215  1.00  0.00     0.116 C 
ENDROOT
BRANCH   1   2
ATOM      2  N   UNL     1      -1.374   1.257  -3.068  1.00  0.00    -0.350 N 
ATOM      3  C   UNL     1      -0.754   0.599  -2.051  1.00  0.00     0.287 C 
ATOM      4  O   UNL     1      -0.548  -0.608  -2.286  1.00  0.00    -0.268 OA
ATOM      5  H   UNL     1      -1.300   0.769  -3.921  1.00  0.00     0.163 HD
BRANCH   3   6
ATOM      6  C   UNL     1      -0.202   1.160  -0.677  1.00  0.00     0.228 C 
ATOM      7  C   UNL     1      -0.767   2.455  -0.093  1.00  0.00     0.146 C 
ATOM      8  C   UNL     1       1.285   1.532  -0.862  1.00  0.00     0.342 C 
ATOM      9  C   UNL     1       0.207   3.573  -0.526  1.00  0.00     0.270 C 
ATOM     10  N   UNL     1       1.133   2.878  -1.392  1.00  0.00    -0.325 N 
ATOM     11  H   UNL     1       0.693   2.887  -2.312  1.00  0.00     0.348 HD
BRANCH   6  12
ATOM     12  N   UNL     1      -0.351   0.050   0.321  1.00  0.00    -0.340 N 
ATOM     13  H   UNL     1      -1.339  -0.180   0.428  1.00  0.00     0.345 HD
ATOM     14  H   UNL     1       0.028   0.348   1.220  1.00  0.00     0.345 HD
ATOM     15  H   UNL     1       0.156  -0.772  -0.006  1.00  0.00     0.345 HD
ENDBRANCH   6  12
BRANCH  10  16
ATOM     16  C   UNL     1       2.302   3.518  -1.984  1.00  0.00     0.299 C 
BRANCH  16  17
ATOM     17  C   UNL     1       2.732   2.775  -3.252  1.00  0.00     0.006 A 
ATOM     18  C   UNL     1       3.998   2.807  -3.826  1.00  0.00     0.013 A 
ATOM     19  C   UNL     1       1.781   2.001  -3.915  1.00  0.00     0.013 A 
ATOM     20  C   UNL     1       4.279   2.006  -4.960  1.00  0.00     0.047 A 
ATOM     21  C   UNL     1       2.031   1.217  -5.025  1.00  0.00     0.047 A 
ATOM     22  C   UNL     1       3.301   1.182  -5.542  1.00  0.00     0.120 A 
BRANCH  22  23
ATOM     23  O   UNL     1       3.683   0.354  -6.557  1.00  0.00    -0.484 OA
BRANCH  23  24
ATOM     24  C   UNL     1       2.677  -0.398  -7.222  1.00  0.00     0.329 C 
BRANCH  24  25
ATOM     25  C   UNL     1       1.708  -1.440  -6.569  1.00  0.00     0.260 C 
ATOM     26  O   UNL     1       0.522  -1.444  -6.927  1.00  0.00    -0.271 OA
ATOM     27  N   UNL     1       2.176  -2.364  -5.648  1.00  0.00    -0.340 N 
ATOM     28  C   UNL     1       1.307  -3.460  -5.210  1.00  0.00     0.119 C 
ATOM     29  C   UNL     1       3.476  -2.325  -4.990  1.00  0.00     0.119 C 
ATOM     30  C   UNL     1       1.126  -3.483  -3.691  1.00  0.00     0.022 C 
ATOM     31  C   UNL     1       3.280  -2.190  -3.480  1.00  0.00     0.022 C 
ATOM     32  C   UNL     1       2.454  -3.359  -2.945  1.00  0.00     0.004 C 
ENDBRANCH  24  25
ENDBRANCH  23  24
ENDBRANCH  22  23
ENDBRANCH  16  17
ENDBRANCH  10  16
ENDBRANCH   3   6
ENDBRANCH   1   2
BRANCH   1  33
ATOM     33  C   UNL     1      -1.409   3.717  -3.833  1.00  0.00     0.023 C 
BRANCH  33  34
ATOM     34  C   UNL     1      -0.811   3.620  -5.240  1.00  0.00     0.023 C 
BRANCH  34  35
ATOM     35  C   UNL     1      -1.718   3.215  -6.386  1.00  0.00     0.116 C 
BRANCH  35  36
ATOM     36  N   UNL     1      -2.486   4.338  -6.884  1.00  0.00    -0.352 N 
ATOM     37  C   UNL     1      -2.467   4.916  -8.133  1.00  0.00     0.251 C 
ATOM     38  H   UNL     1      -3.109   4.744  -6.239  1.00  0.00     0.163 HD
ATOM     39  O   UNL     1      -2.987   6.020  -8.284  1.00  0.00    -0.269 OA
BRANCH  37  40
ATOM     40  C   UNL     1      -1.833   4.236  -9.294  1.00  0.00     0.039 A 
ATOM     41  C   UNL     1      -1.173   5.011 -10.256  1.00  0.00     0.014 A 
ATOM     42  C   UNL     1      -1.950   2.856  -9.490  1.00  0.00     0.014 A 
ATOM     43  C   UNL     1      -0.615   4.407 -11.390  1.00  0.00     0.010 A 
ATOM     44  C   UNL     1      -1.338   2.246 -10.586  1.00  0.00     0.010 A 
ATOM     45  C   UNL     1      -0.686   3.017 -11.560  1.00  0.00    -0.014 A 
BRANCH  45  46
ATOM     46  C   UNL     1      -0.146   2.347 -12.774  1.00  0.00     0.031 A 
ATOM     47  C   UNL     1      -1.092   1.673 -13.735  1.00  0.00     0.074 A 
ATOM     48  C   UNL     1       1.184   2.282 -12.981  1.00  0.00     0.049 A 
ATOM     49  N   UNL     1      -0.825   0.932 -14.779  1.00  0.00    -0.248 NA
ATOM     50  C   UNL     1      -2.531   1.833 -13.467  1.00  0.00     0.031 C 
ATOM     51  C   UNL     1       2.205   2.869 -12.112  1.00  0.00     0.029 A 
ATOM     52  N   UNL     1       1.906   1.673 -13.977  1.00  0.00    -0.354 N 
ATOM     53  C   UNL     1      -2.056   0.515 -15.274  1.00  0.00     0.074 A 
ATOM     54  C   UNL     1      -3.069   1.057 -14.396  1.00  0.00     0.031 C 
ATOM     55  C   UNL     1       3.420   2.595 -12.614  1.00  0.00     0.029 A 
ATOM     56  C   UNL     1       3.268   1.784 -13.820  1.00  0.00     0.049 A 
ATOM     57  H   UNL     1       1.489   1.202 -14.734  1.00  0.00     0.167 HD
ATOM     58  C   UNL     1      -2.319  -0.235 -16.371  1.00  0.00     0.037 A 
ATOM     59  C   UNL     1       4.279   1.275 -14.552  1.00  0.00     0.037 A 
ATOM     60  C   UNL     1      -1.310  -0.735 -17.266  1.00  0.00     0.049 A 
ATOM     61  C   UNL     1       3.963   0.442 -15.765  1.00  0.00     0.074 A 
ATOM     62  C   UNL     1      -1.478  -1.436 -18.447  1.00  0.00     0.029 A 
ATOM     63  N   UNL     1       0.056  -0.587 -17.078  1.00  0.00    -0.354 N 
ATOM     64  N   UNL     1       2.792   0.106 -16.251  1.00  0.00    -0.248 NA
ATOM     65  C   UNL     1       5.104  -0.087 -16.527  1.00  0.00     0.031 C 
ATOM     66  C   UNL     1      -0.211  -1.743 -18.956  1.00  0.00     0.029 A 
ATOM     67  C   UNL     1       0.745  -1.204 -18.109  1.00  0.00     0.049 A 
ATOM     68  H   UNL     1       0.475  -0.114 -16.323  1.00  0.00     0.167 HD
ATOM     69  C   UNL     1       3.054  -0.663 -17.380  1.00  0.00     0.074 A 
ATOM     70  C   UNL     1       4.495  -0.730 -17.515  1.00  0.00     0.031 C 
ATOM     71  C   UNL     1       2.180  -1.261 -18.226  1.00  0.00     0.037 A 
BRANCH  58  72
ATOM     72  C   UNL     1      -3.758  -0.555 -16.668  1.00  0.00     0.058 A 
ATOM     73  C   UNL     1      -4.648   0.422 -17.142  1.00  0.00     0.135 A 
ATOM     74  C   UNL     1      -4.248  -1.862 -16.505  1.00  0.00     0.135 A 
ATOM     75  F   UNL     1      -4.235   1.689 -17.303  1.00  0.00    -0.206 F 
ATOM     76  C   UNL     1      -5.979   0.124 -17.413  1.00  0.00     0.059 A 
ATOM     77  C   UNL     1      -5.571  -2.188 -16.794  1.00  0.00     0.059 A 
ATOM     78  F   UNL     1      -3.440  -2.836 -16.057  1.00  0.00    -0.206 F 
ATOM     79  C   UNL     1      -6.433  -1.183 -17.232  1.00  0.00     0.060 A 
BRANCH  79  80
ATOM     80  S   UNL     1      -8.164  -1.554 -17.586  1.00  0.00     0.124 S 
ATOM     81  O   UNL     1      -8.829  -0.971 -16.425  1.00  0.00    -0.237 OA
ATOM     82  O   UNL     1      -8.381  -0.863 -18.852  1.00  0.00    -0.237 OA
ATOM     83  O   UNL     1      -8.192  -3.012 -17.659  1.00  0.00    -0.744 OA
ENDBRANCH  79  80
ENDBRANCH  58  72
BRANCH  59  84
ATOM     84  C   UNL     1       5.687   1.543 -14.157  1.00  0.00     0.058 A 
ATOM     85  C   UNL     1       6.488   2.420 -14.902  1.00  0.00     0.135 A 
ATOM     86  C   UNL     1       6.253   0.945 -13.020  1.00  0.00     0.135 A 
ATOM     87  F   UNL     1       5.995   3.008 -16.003  1.00  0.00    -0.206 F 
ATOM     88  C   UNL     1       7.803   2.693 -14.538  1.00  0.00     0.059 A 
ATOM     89  C   UNL     1       7.559   1.218 -12.624  1.00  0.00     0.059 A 
ATOM     90  F   UNL     1       5.524   0.106 -12.268  1.00  0.00    -0.206 F 
ATOM     91  C   UNL     1       8.329   2.089 -13.395  1.00  0.00     0.060 A 
BRANCH  91  92
ATOM     92  S   UNL     1      10.017   2.493 -12.893  1.00  0.00     0.124 S 
ATOM     93  O   UNL     1      10.801   1.728 -13.860  1.00  0.00    -0.237 OA
ATOM     94  O   UNL     1      10.048   3.946 -13.060  1.00  0.00    -0.237 OA
ATOM     95  O   UNL     1      10.080   2.028 -11.518  1.00  0.00    -0.744 OA
ENDBRANCH  91  92
ENDBRANCH  59  84
BRANCH  71  96
ATOM     96  C   UNL     1       2.750  -2.038 -19.378  1.00  0.00     0.058 A 
ATOM     97  C   UNL     1       3.298  -3.316 -19.194  1.00  0.00     0.135 A 
ATOM     98  C   UNL     1       2.670  -1.538 -20.687  1.00  0.00     0.135 A 
ATOM     99  F   UNL     1       3.404  -3.834 -17.960  1.00  0.00    -0.206 F 
ATOM    100  C   UNL     1       3.752  -4.072 -20.269  1.00  0.00     0.059 A 
ATOM    101  C   UNL     1       3.099  -2.285 -21.780  1.00  0.00     0.059 A 
ATOM    102  F   UNL     1       2.147  -0.323 -20.916  1.00  0.00    -0.206 F 
ATOM    103  C   UNL     1       3.642  -3.550 -21.560  1.00  0.00     0.060 A 
BRANCH 103 104
ATOM    104  S   UNL     1       4.174  -4.568 -22.953  1.00  0.00     0.124 S 
ATOM    105  O   UNL     1       5.626  -4.469 -22.853  1.00  0.00    -0.237 OA
ATOM    106  O   UNL     1       3.603  -5.871 -22.626  1.00  0.00    -0.237 OA
ATOM    107  O   UNL     1       3.577  -3.902 -24.108  1.00  0.00    -0.744 OA
ENDBRANCH 103 104
ENDBRANCH  71  96
ENDBRANCH  45  46
ENDBRANCH  37  40
ENDBRANCH  35  36
ENDBRANCH  34  35
ENDBRANCH  33  34
ENDBRANCH   1  33
TORSDOF 20
