REMARK SMILES Cn1cc(/C=C2\SC(=S)N(c3cccc(C(=O)NCCCCNC(=O)c4ccc(-c5c6nc(c(-c7c(F)cc(S(=O)(=O)[O-])cc7F)c7ccc([nH]7)c(-c7c(F)cc(S(=O)(=O)[O-])cc7F)c7nc(c(-c8c(F)cc(S(=O)(=O)[O-])cc8F)c8ccc5[nH]8)C=C7)C=C6)cc4)c3)C2=O)c2ccccc21
REMARK SMILES IDX 21 1 20 2 19 3 18 4 16 5 17 6 15 8 11 9 12 10 92 11 13 12
REMARK SMILES IDX 14 13 10 14 5 15 6 16 7 17 93 18 8 19 94 20 9 21 4 22 1 23
REMARK SMILES IDX 2 24 3 25 100 26 95 27 99 28 96 29 98 30 97 31 22 32 23 33
REMARK SMILES IDX 24 34 25 36 26 37 27 38 91 39 28 40 90 41 29 42 30 43 31 44
REMARK SMILES IDX 84 45 32 46 89 47 83 48 85 49 33 50 88 51 82 52 81 53 34 55
REMARK SMILES IDX 68 56 47 57 67 58 48 59 51 60 66 61 86 62 49 63 50 64 65 66
REMARK SMILES IDX 87 67 52 68 35 69 36 70 45 71 37 72 38 73 44 74 46 75 39 76
REMARK SMILES IDX 40 77 41 78 42 79 43 80 69 81 70 82 79 83 71 84 72 85 78 86
REMARK SMILES IDX 80 87 73 88 74 89 75 90 76 91 77 92 53 93 54 94 63 95 55 96
REMARK SMILES IDX 56 97 62 98 64 99 57 100 58 101 59 102 60 103 61 104
REMARK H PARENT 18 7 23 35 85 54 51 65
REMARK Flexibility Score: inf
ROOT
ATOM      1  C   UNL     1      -1.911  -7.477   6.933  1.00  0.00     0.023 C 
ENDROOT
BRANCH   1   2
ATOM      2  C   UNL     1      -1.327  -7.202   5.554  1.00  0.00     0.023 C 
BRANCH   2   3
ATOM      3  C   UNL     1       0.167  -7.443   5.382  1.00  0.00     0.116 C 
BRANCH   3   4
ATOM      4  N   UNL     1       0.596  -8.820   5.567  1.00  0.00    -0.352 N 
ATOM      5  C   UNL     1       1.449  -9.612   4.826  1.00  0.00     0.251 C 
ATOM      6  O   UNL     1       1.661 -10.767   5.190  1.00  0.00    -0.269 OA
ATOM      7  H   UNL     1       0.212  -9.264   6.357  1.00  0.00     0.163 HD
BRANCH   5   8
ATOM      8  C   UNL     1       2.059  -9.134   3.557  1.00  0.00     0.041 A 
ATOM      9  C   UNL     1       2.730  -7.317   2.088  1.00  0.00     0.051 A 
ATOM     10  C   UNL     1       2.788  -8.229   1.025  1.00  0.00     0.027 A 
ATOM     11  C   UNL     1       2.464  -7.809   3.372  1.00  0.00     0.040 A 
ATOM     12  C   UNL     1       2.551  -9.589   1.234  1.00  0.00     0.003 A 
ATOM     13  C   UNL     1       2.158 -10.037   2.493  1.00  0.00     0.014 A 
BRANCH   9  14
ATOM     14  N   UNL     1       2.735  -5.904   1.851  1.00  0.00    -0.261 N 
ATOM     15  C   UNL     1       1.139  -3.187   0.047  1.00  0.00     0.031 C 
ATOM     16  C   UNL     1       1.905  -3.908   0.882  1.00  0.00     0.081 C 
ATOM     17  S   UNL     1       2.875  -3.344   2.178  1.00  0.00    -0.054 SA
ATOM     18  C   UNL     1       1.949  -5.393   0.815  1.00  0.00     0.270 C 
ATOM     19  C   UNL     1       3.364  -4.965   2.658  1.00  0.00     0.152 C 
ATOM     20  O   UNL     1       1.319  -6.019  -0.031  1.00  0.00    -0.268 OA
ATOM     21  S   UNL     1       4.511  -5.178   3.858  1.00  0.00    -0.051 S 
BRANCH  15  22
ATOM     22  C   UNL     1       1.020  -1.765   0.004  1.00  0.00     0.001 A 
ATOM     23  C   UNL     1       2.400   1.574  -0.044  1.00  0.00     0.149 C 
ATOM     24  N   UNL     1       1.587   0.379  -0.051  1.00  0.00    -0.350 N 
ATOM     25  C   UNL     1       2.085  -0.894  -0.046  1.00  0.00     0.094 A 
ATOM     26  C   UNL     1       0.208   0.356  -0.052  1.00  0.00     0.048 A 
ATOM     27  C   UNL     1      -0.178  -0.990  -0.032  1.00  0.00     0.007 A 
ATOM     28  C   UNL     1      -0.728   1.403  -0.060  1.00  0.00     0.027 A 
ATOM     29  C   UNL     1      -1.557  -1.294  -0.023  1.00  0.00     0.011 A 
ATOM     30  C   UNL     1      -2.085   1.073  -0.049  1.00  0.00     0.002 A 
ATOM     31  C   UNL     1      -2.497  -0.255  -0.032  1.00  0.00     0.001 A 
ENDBRANCH  15  22
ENDBRANCH   9  14
ENDBRANCH   5   8
ENDBRANCH   3   4
ENDBRANCH   2   3
ENDBRANCH   1   2
BRANCH   1  32
ATOM     32  C   UNL     1      -1.177  -6.857   8.115  1.00  0.00     0.116 C 
BRANCH  32  33
ATOM     33  N   UNL     1      -1.004  -5.415   8.021  1.00  0.00    -0.352 N 
ATOM     34  C   UNL     1      -1.284  -4.429   8.944  1.00  0.00     0.251 C 
ATOM     35  H   UNL     1      -0.630  -5.095   7.168  1.00  0.00     0.163 HD
ATOM     36  O   UNL     1      -1.117  -3.256   8.651  1.00  0.00    -0.269 OA
BRANCH  34  37
ATOM     37  C   UNL     1      -1.836  -4.796  10.270  1.00  0.00     0.039 A 
ATOM     38  C   UNL     1      -2.957  -4.107  10.742  1.00  0.00     0.014 A 
ATOM     39  C   UNL     1      -1.283  -5.835  11.021  1.00  0.00     0.014 A 
ATOM     40  C   UNL     1      -3.583  -4.528  11.919  1.00  0.00     0.010 A 
ATOM     41  C   UNL     1      -1.954  -6.303  12.147  1.00  0.00     0.010 A 
ATOM     42  C   UNL     1      -3.117  -5.663  12.602  1.00  0.00    -0.014 A 
BRANCH  42  43
ATOM     43  C   UNL     1      -3.843  -6.215  13.775  1.00  0.00     0.031 A 
ATOM     44  C   UNL     1      -3.175  -6.277  15.120  1.00  0.00     0.074 A 
ATOM     45  C   UNL     1      -5.068  -6.753  13.606  1.00  0.00     0.049 A 
ATOM     46  N   UNL     1      -3.606  -6.811  16.233  1.00  0.00    -0.248 NA
ATOM     47  C   UNL     1      -1.828  -5.693  15.215  1.00  0.00     0.031 C 
ATOM     48  C   UNL     1      -5.794  -6.824  12.336  1.00  0.00     0.029 A 
ATOM     49  N   UNL     1      -5.910  -7.364  14.502  1.00  0.00    -0.354 N 
ATOM     50  C   UNL     1      -2.577  -6.651  17.153  1.00  0.00     0.074 A 
ATOM     51  C   UNL     1      -1.482  -6.014  16.452  1.00  0.00     0.031 C 
ATOM     52  C   UNL     1      -6.972  -7.436  12.536  1.00  0.00     0.029 A 
ATOM     53  C   UNL     1      -7.075  -7.827  13.938  1.00  0.00     0.049 A 
ATOM     54  H   UNL     1      -5.699  -7.461  15.459  1.00  0.00     0.167 HD
ATOM     55  C   UNL     1      -2.553  -6.983  18.466  1.00  0.00     0.037 A 
ATOM     56  C   UNL     1      -8.107  -8.499  14.484  1.00  0.00     0.037 A 
ATOM     57  C   UNL     1      -3.656  -7.588  19.166  1.00  0.00     0.049 A 
ATOM     58  C   UNL     1      -8.083  -8.816  15.953  1.00  0.00     0.074 A 
ATOM     59  C   UNL     1      -3.760  -7.893  20.512  1.00  0.00     0.029 A 
ATOM     60  N   UNL     1      -4.847  -7.984  18.573  1.00  0.00    -0.354 N 
ATOM     61  N   UNL     1      -7.134  -8.584  16.828  1.00  0.00    -0.248 NA
ATOM     62  C   UNL     1      -9.272  -9.472  16.513  1.00  0.00     0.031 C 
ATOM     63  C   UNL     1      -5.002  -8.502  20.727  1.00  0.00     0.029 A 
ATOM     64  C   UNL     1      -5.687  -8.542  19.523  1.00  0.00     0.049 A 
ATOM     65  H   UNL     1      -5.063  -7.882  17.618  1.00  0.00     0.167 HD
ATOM     66  C   UNL     1      -7.616  -9.052  18.045  1.00  0.00     0.074 A 
ATOM     67  C   UNL     1      -8.947  -9.568  17.796  1.00  0.00     0.031 C 
ATOM     68  C   UNL     1      -7.009  -9.054  19.258  1.00  0.00     0.037 A 
BRANCH  55  69
ATOM     69  C   UNL     1      -1.287  -6.690  19.223  1.00  0.00     0.058 A 
ATOM     70  C   UNL     1      -0.892  -5.374  19.515  1.00  0.00     0.135 A 
ATOM     71  C   UNL     1      -0.449  -7.734  19.647  1.00  0.00     0.135 A 
ATOM     72  F   UNL     1      -1.650  -4.338  19.122  1.00  0.00    -0.206 F 
ATOM     73  C   UNL     1       0.312  -5.101  20.154  1.00  0.00     0.059 A 
ATOM     74  C   UNL     1       0.748  -7.484  20.312  1.00  0.00     0.059 A 
ATOM     75  F   UNL     1      -0.780  -9.011  19.398  1.00  0.00    -0.206 F 
ATOM     76  C   UNL     1       1.132  -6.163  20.538  1.00  0.00     0.060 A 
BRANCH  76  77
ATOM     77  S   UNL     1       2.712  -5.795  21.330  1.00  0.00     0.124 S 
ATOM     78  O   UNL     1       3.524  -5.401  20.183  1.00  0.00    -0.237 OA
ATOM     79  O   UNL     1       2.360  -4.722  22.254  1.00  0.00    -0.237 OA
ATOM     80  O   UNL     1       3.080  -7.061  21.956  1.00  0.00    -0.744 OA
ENDBRANCH  76  77
ENDBRANCH  55  69
BRANCH  56  81
ATOM     81  C   UNL     1      -9.258  -8.889  13.630  1.00  0.00     0.058 A 
ATOM     82  C   UNL     1     -10.475  -8.197  13.701  1.00  0.00     0.135 A 
ATOM     83  C   UNL     1      -9.144  -9.920  12.684  1.00  0.00     0.135 A 
ATOM     84  F   UNL     1     -10.633  -7.208  14.594  1.00  0.00    -0.206 F 
ATOM     85  C   UNL     1     -11.541  -8.511  12.864  1.00  0.00     0.059 A 
ATOM     86  C   UNL     1     -10.190 -10.240  11.823  1.00  0.00     0.059 A 
ATOM     87  F   UNL     1      -7.993 -10.600  12.566  1.00  0.00    -0.206 F 
ATOM     88  C   UNL     1     -11.386  -9.530  11.922  1.00  0.00     0.060 A 
BRANCH  88  89
ATOM     89  S   UNL     1     -12.743  -9.870  10.780  1.00  0.00     0.124 S 
ATOM     90  O   UNL     1     -13.677 -10.589  11.638  1.00  0.00    -0.237 OA
ATOM     91  O   UNL     1     -13.150  -8.527  10.377  1.00  0.00    -0.237 OA
ATOM     92  O   UNL     1     -12.107 -10.662   9.732  1.00  0.00    -0.744 OA
ENDBRANCH  88  89
ENDBRANCH  56  81
BRANCH  68  93
ATOM     93  C   UNL     1      -7.785  -9.616  20.416  1.00  0.00     0.058 A 
ATOM     94  C   UNL     1      -7.966 -10.998  20.576  1.00  0.00     0.135 A 
ATOM     95  C   UNL     1      -8.305  -8.765  21.404  1.00  0.00     0.135 A 
ATOM     96  F   UNL     1      -7.495 -11.853  19.655  1.00  0.00    -0.206 F 
ATOM     97  C   UNL     1      -8.652 -11.517  21.669  1.00  0.00     0.059 A 
ATOM     98  C   UNL     1      -8.975  -9.264  22.517  1.00  0.00     0.059 A 
ATOM     99  F   UNL     1      -8.151  -7.435  21.301  1.00  0.00    -0.206 F 
ATOM    100  C   UNL     1      -9.153 -10.642  22.635  1.00  0.00     0.060 A 
BRANCH 100 101
ATOM    101  S   UNL     1     -10.008 -11.328  24.070  1.00  0.00     0.124 S 
ATOM    102  O   UNL     1     -11.306 -11.673  23.500  1.00  0.00    -0.237 OA
ATOM    103  O   UNL     1      -9.156 -12.456  24.435  1.00  0.00    -0.237 OA
ATOM    104  O   UNL     1     -10.013 -10.221  25.022  1.00  0.00    -0.744 OA
ENDBRANCH 100 101
ENDBRANCH  68  93
ENDBRANCH  42  43
ENDBRANCH  34  37
ENDBRANCH  32  33
ENDBRANCH   1  32
TORSDOF 16
