REMARK SMILES CCc1nc2sc(C(=O)NCC(=O)NCCCCNC(=O)c3ccc(-c4c5nc(c(-c6c(F)cc(S(=O)(=O)[O-])cc6F)c6ccc([nH]6)c(-c6c(F)cc(S(=O)(=O)[O-])cc6F)c6nc(c(-c7c(F)cc(S(=O)(=O)[O-])cc7F)c7ccc4[nH]7)C=C6)C=C5)cc3)c(N)c2c(C(F)(F)F)c1C
REMARK SMILES IDX 16 1 15 2 14 3 12 4 13 5 11 7 10 8 8 9 9 10 7 12 3 13 4 14
REMARK SMILES IDX 96 15 5 16 91 17 97 18 6 19 90 20 88 21 2 22 1 23 92 24
REMARK SMILES IDX 93 25 94 26 95 27 89 28 17 31 18 32 19 33 20 34 21 36 22 37
REMARK SMILES IDX 23 38 87 39 24 40 86 41 25 42 26 43 27 44 80 45 28 46 85 47
REMARK SMILES IDX 79 48 81 49 29 50 84 51 78 52 77 53 30 55 64 56 43 57 63 58
REMARK SMILES IDX 44 59 47 60 62 61 82 62 45 63 46 64 61 66 83 67 48 68 31 69
REMARK SMILES IDX 32 70 41 71 33 72 34 73 40 74 42 75 35 76 36 77 37 78 38 79
REMARK SMILES IDX 39 80 65 81 66 82 75 83 67 84 68 85 74 86 76 87 69 88 70 89
REMARK SMILES IDX 71 90 72 91 73 92 49 93 50 94 59 95 51 96 52 97 58 98 60 99
REMARK SMILES IDX 53 100 54 101 55 102 56 103 57 104
REMARK H PARENT 14 6 10 11 89 29 89 30 19 35 81 54 47 65
REMARK Flexibility Score: inf
ROOT
ATOM      1  C   UNL     1       1.139   6.967   7.582  1.00  0.00     0.023 C 
ENDROOT
BRANCH   1   2
ATOM      2  C   UNL     1       0.633   6.845   6.146  1.00  0.00     0.116 C 
BRANCH   2   3
ATOM      3  N   UNL     1       0.497   8.119   5.469  1.00  0.00    -0.355 N 
ATOM      4  C   UNL     1       1.363   8.851   4.717  1.00  0.00     0.239 C 
ATOM      5  O   UNL     1       0.913   9.897   4.232  1.00  0.00    -0.273 OA
ATOM      6  H   UNL     1      -0.390   8.533   5.573  1.00  0.00     0.163 HD
BRANCH   4   7
ATOM      7  C   UNL     1       2.797   8.416   4.353  1.00  0.00     0.216 C 
BRANCH   7   8
ATOM      8  N   UNL     1       3.498   7.396   5.102  1.00  0.00    -0.342 N 
ATOM      9  C   UNL     1       3.708   6.052   4.916  1.00  0.00     0.264 C 
ATOM     10  O   UNL     1       4.556   5.601   5.698  1.00  0.00    -0.268 OA
ATOM     11  H   UNL     1       3.914   7.740   5.925  1.00  0.00     0.164 HD
BRANCH   9  12
ATOM     12  C   UNL     1       2.974   5.201   3.970  1.00  0.00     0.118 A 
ATOM     13  C   UNL     1       0.989   1.527   1.749  1.00  0.00     0.045 A 
ATOM     14  N   UNL     1       1.996   1.781   2.611  1.00  0.00    -0.242 NA
ATOM     15  C   UNL     1       0.192   2.522   1.158  1.00  0.00    -0.017 A 
ATOM     16  C   UNL     1       2.188   3.074   2.919  1.00  0.00     0.127 A 
ATOM     17  C   UNL     1       0.462   3.885   1.465  1.00  0.00     0.073 A 
ATOM     18  C   UNL     1      -0.920   2.175   0.198  1.00  0.00     0.047 C 
ATOM     19  S   UNL     1       3.383   3.514   4.035  1.00  0.00    -0.108 S 
ATOM     20  C   UNL     1       1.494   4.156   2.415  1.00  0.00     0.048 A 
ATOM     21  C   UNL     1       1.963   5.378   3.036  1.00  0.00     0.066 A 
BRANCH  13  22
ATOM     22  C   UNL     1       0.799   0.056   1.446  1.00  0.00     0.053 C 
ATOM     23  C   UNL     1       1.355  -0.324   0.081  1.00  0.00     0.011 C 
ENDBRANCH  13  22
BRANCH  17  24
ATOM     24  C   UNL     1      -0.328   5.027   0.861  1.00  0.00     0.417 C 
ATOM     25  F   UNL     1      -1.130   5.635   1.780  1.00  0.00    -0.166 F 
ATOM     26  F   UNL     1       0.489   6.013   0.378  1.00  0.00    -0.166 F 
ATOM     27  F   UNL     1      -1.131   4.707  -0.185  1.00  0.00    -0.166 F 
ENDBRANCH  17  24
BRANCH  21  28
ATOM     28  N   UNL     1       1.364   6.552   2.747  1.00  0.00    -0.397 N 
ATOM     29  H   UNL     1       1.681   7.384   3.168  1.00  0.00     0.156 HD
ATOM     30  H   UNL     1       0.609   6.578   2.115  1.00  0.00     0.156 HD
ENDBRANCH  21  28
ENDBRANCH   9  12
ENDBRANCH   7   8
ENDBRANCH   4   7
ENDBRANCH   2   3
ENDBRANCH   1   2
BRANCH   1  31
ATOM     31  C   UNL     1       0.109   7.489   8.592  1.00  0.00     0.023 C 
BRANCH  31  32
ATOM     32  C   UNL     1      -1.101   6.584   8.771  1.00  0.00     0.116 C 
BRANCH  32  33
ATOM     33  N   UNL     1      -0.778   5.275   9.347  1.00  0.00    -0.352 N 
ATOM     34  C   UNL     1      -1.669   4.256   9.669  1.00  0.00     0.251 C 
ATOM     35  H   UNL     1       0.173   5.096   9.525  1.00  0.00     0.163 HD
ATOM     36  O   UNL     1      -1.383   3.383  10.466  1.00  0.00    -0.269 OA
BRANCH  34  37
ATOM     37  C   UNL     1      -2.971   4.259   8.976  1.00  0.00     0.039 A 
ATOM     38  C   UNL     1      -4.185   4.009   9.622  1.00  0.00     0.014 A 
ATOM     39  C   UNL     1      -2.932   4.602   7.630  1.00  0.00     0.014 A 
ATOM     40  C   UNL     1      -5.366   4.175   8.898  1.00  0.00     0.010 A 
ATOM     41  C   UNL     1      -4.077   5.000   7.011  1.00  0.00     0.010 A 
ATOM     42  C   UNL     1      -5.294   4.681   7.592  1.00  0.00    -0.014 A 
BRANCH  42  43
ATOM     43  C   UNL     1      -6.470   4.945   6.780  1.00  0.00     0.031 A 
ATOM     44  C   UNL     1      -7.431   5.912   7.368  1.00  0.00     0.074 A 
ATOM     45  C   UNL     1      -6.534   4.531   5.494  1.00  0.00     0.049 A 
ATOM     46  N   UNL     1      -8.617   5.664   7.811  1.00  0.00    -0.248 NA
ATOM     47  C   UNL     1      -6.970   7.282   7.649  1.00  0.00     0.031 C 
ATOM     48  C   UNL     1      -5.524   3.820   4.693  1.00  0.00     0.029 A 
ATOM     49  N   UNL     1      -7.515   4.755   4.584  1.00  0.00    -0.354 N 
ATOM     50  C   UNL     1      -9.143   6.887   8.217  1.00  0.00     0.074 A 
ATOM     51  C   UNL     1      -8.028   7.795   8.281  1.00  0.00     0.031 C 
ATOM     52  C   UNL     1      -5.850   3.881   3.383  1.00  0.00     0.029 A 
ATOM     53  C   UNL     1      -7.168   4.470   3.266  1.00  0.00     0.049 A 
ATOM     54  H   UNL     1      -8.405   5.094   4.837  1.00  0.00     0.167 HD
ATOM     55  C   UNL     1     -10.489   7.100   8.248  1.00  0.00     0.037 A 
ATOM     56  C   UNL     1      -7.923   4.719   2.165  1.00  0.00     0.037 A 
ATOM     57  C   UNL     1     -11.207   5.852   8.130  1.00  0.00     0.049 A 
ATOM     58  C   UNL     1      -9.329   4.849   2.646  1.00  0.00     0.074 A 
ATOM     59  C   UNL     1     -11.259   4.701   8.892  1.00  0.00     0.029 A 
ATOM     60  N   UNL     1     -11.677   5.499   6.885  1.00  0.00    -0.354 N 
ATOM     61  N   UNL     1      -9.994   3.853   3.175  1.00  0.00    -0.248 NA
ATOM     62  C   UNL     1      -9.784   6.176   3.040  1.00  0.00     0.031 C 
ATOM     63  C   UNL     1     -11.264   3.636   7.944  1.00  0.00     0.029 A 
ATOM     64  C   UNL     1     -11.310   4.193   6.664  1.00  0.00     0.049 A 
ATOM     65  H   UNL     1     -12.182   6.075   6.267  1.00  0.00     0.167 HD
ATOM     66  C   UNL     1     -10.663   4.399   4.265  1.00  0.00     0.074 A 
ATOM     67  C   UNL     1     -10.540   5.848   4.094  1.00  0.00     0.031 C 
ATOM     68  C   UNL     1     -10.991   3.646   5.360  1.00  0.00     0.037 A 
BRANCH  55  69
ATOM     69  C   UNL     1     -11.167   8.433   8.046  1.00  0.00     0.058 A 
ATOM     70  C   UNL     1     -12.555   8.542   8.273  1.00  0.00     0.135 A 
ATOM     71  C   UNL     1     -10.572   9.529   7.383  1.00  0.00     0.135 A 
ATOM     72  F   UNL     1     -13.225   7.563   8.901  1.00  0.00    -0.206 F 
ATOM     73  C   UNL     1     -13.309   9.617   7.799  1.00  0.00     0.059 A 
ATOM     74  C   UNL     1     -11.296  10.635   6.950  1.00  0.00     0.059 A 
ATOM     75  F   UNL     1      -9.281   9.540   7.033  1.00  0.00    -0.206 F 
ATOM     76  C   UNL     1     -12.670  10.650   7.121  1.00  0.00     0.060 A 
BRANCH  76  77
ATOM     77  S   UNL     1     -13.655  11.971   6.396  1.00  0.00     0.124 S 
ATOM     78  O   UNL     1     -14.405  11.249   5.375  1.00  0.00    -0.237 OA
ATOM     79  O   UNL     1     -14.423  12.439   7.545  1.00  0.00    -0.237 OA
ATOM     80  O   UNL     1     -12.650  12.905   5.897  1.00  0.00    -0.744 OA
ENDBRANCH  76  77
ENDBRANCH  55  69
BRANCH  56  81
ATOM     81  C   UNL     1      -7.452   5.166   0.825  1.00  0.00     0.058 A 
ATOM     82  C   UNL     1      -8.272   5.113  -0.316  1.00  0.00     0.135 A 
ATOM     83  C   UNL     1      -6.251   5.894   0.685  1.00  0.00     0.135 A 
ATOM     84  F   UNL     1      -9.448   4.469  -0.269  1.00  0.00    -0.206 F 
ATOM     85  C   UNL     1      -7.934   5.761  -1.514  1.00  0.00     0.059 A 
ATOM     86  C   UNL     1      -5.891   6.544  -0.496  1.00  0.00     0.059 A 
ATOM     87  F   UNL     1      -5.423   6.065   1.727  1.00  0.00    -0.206 F 
ATOM     88  C   UNL     1      -6.746   6.489  -1.589  1.00  0.00     0.060 A 
BRANCH  88  89
ATOM     89  S   UNL     1      -6.364   7.436  -3.085  1.00  0.00     0.124 S 
ATOM     90  O   UNL     1      -6.200   6.381  -4.079  1.00  0.00    -0.237 OA
ATOM     91  O   UNL     1      -7.551   8.272  -3.231  1.00  0.00    -0.237 OA
ATOM     92  O   UNL     1      -5.141   8.152  -2.731  1.00  0.00    -0.744 OA
ENDBRANCH  88  89
ENDBRANCH  56  81
BRANCH  68  93
ATOM     93  C   UNL     1     -10.794   2.147   5.296  1.00  0.00     0.058 A 
ATOM     94  C   UNL     1      -9.540   1.518   5.182  1.00  0.00     0.135 A 
ATOM     95  C   UNL     1     -11.893   1.317   5.559  1.00  0.00     0.135 A 
ATOM     96  F   UNL     1      -8.420   2.235   5.038  1.00  0.00    -0.206 F 
ATOM     97  C   UNL     1      -9.389   0.133   5.288  1.00  0.00     0.059 A 
ATOM     98  C   UNL     1     -11.764  -0.064   5.698  1.00  0.00     0.059 A 
ATOM     99  F   UNL     1     -13.109   1.855   5.749  1.00  0.00    -0.206 F 
ATOM    100  C   UNL     1     -10.510  -0.652   5.549  1.00  0.00     0.060 A 
BRANCH 100 101
ATOM    101  S   UNL     1     -10.306  -2.435   5.751  1.00  0.00     0.124 S 
ATOM    102  O   UNL     1      -9.965  -2.859   4.397  1.00  0.00    -0.237 OA
ATOM    103  O   UNL     1      -9.228  -2.522   6.731  1.00  0.00    -0.237 OA
ATOM    104  O   UNL     1     -11.613  -2.877   6.232  1.00  0.00    -0.744 OA
ENDBRANCH 100 101
ENDBRANCH  68  93
ENDBRANCH  42  43
ENDBRANCH  34  37
ENDBRANCH  32  33
ENDBRANCH  31  32
ENDBRANCH   1  31
TORSDOF 19
