REMARK SMILES O=C(NCCCCNC(=O)c1ccc(-c2c3nc(c(-c4c(F)cc(S(=O)(=O)[O-])cc4F)c4ccc([nH]4)c(-c4c(F)cc(S(=O)(=O)[O-])cc4F)c4nc(c(-c5c(F)cc(S(=O)(=O)[O-])cc5F)c5ccc2[nH]5)C=C4)C=C3)cc1)C1=NN(c2ccc(S(=O)(=O)[O-])cc2)C(=O)/C1=C/Nc1ccccc1
REMARK SMILES IDX 6 1 5 2 4 3 3 4 1 5 2 6 77 8 78 9 92 10 79 11 90 12 93 13
REMARK SMILES IDX 91 14 80 15 81 16 89 17 82 18 88 19 83 20 84 21 85 22 86 23
REMARK SMILES IDX 87 24 94 25 95 27 96 28 100 29 97 30 99 31 98 32 7 33 8 34
REMARK SMILES IDX 9 35 10 37 11 38 12 39 76 40 13 41 75 42 14 43 15 44 16 45
REMARK SMILES IDX 69 46 17 47 74 48 68 49 70 50 18 51 73 52 67 53 66 54 19 56
REMARK SMILES IDX 53 57 32 58 52 59 33 60 36 61 51 62 71 63 34 64 35 65 50 67
REMARK SMILES IDX 72 68 37 69 20 70 21 71 30 72 22 73 23 74 29 75 31 76 24 77
REMARK SMILES IDX 25 78 26 79 27 80 28 81 54 82 55 83 64 84 56 85 57 86 63 87
REMARK SMILES IDX 65 88 58 89 59 90 60 91 61 92 62 93 38 94 39 95 48 96 40 97
REMARK SMILES IDX 41 98 47 99 49 100 42 101 43 102 44 103 45 104 46 105
REMARK H PARENT 3 7 94 26 8 36 70 55 36 66
REMARK Flexibility Score: inf
ROOT
ATOM      1  C   UNL     1       4.539  -3.251  -1.627  1.00  0.00     0.023 C 
ENDROOT
BRANCH   1   2
ATOM      2  C   UNL     1       5.023  -2.430  -0.429  1.00  0.00     0.023 C 
BRANCH   2   3
ATOM      3  C   UNL     1       4.539  -0.985  -0.382  1.00  0.00     0.116 C 
BRANCH   3   4
ATOM      4  N   UNL     1       3.094  -0.873  -0.309  1.00  0.00    -0.351 N 
ATOM      5  O   UNL     1       1.153   0.195   0.194  1.00  0.00    -0.267 OA
ATOM      6  C   UNL     1       2.362   0.085   0.346  1.00  0.00     0.272 C 
ATOM      7  H   UNL     1       2.579  -1.564  -0.785  1.00  0.00     0.163 HD
BRANCH   6   8
ATOM      8  C   UNL     1       3.063   1.084   1.206  1.00  0.00     0.163 C 
ATOM      9  N   UNL     1       3.003   1.095   2.513  1.00  0.00    -0.158 NA
ATOM     10  C   UNL     1       3.865   2.179   0.663  1.00  0.00     0.091 C 
ATOM     11  N   UNL     1       3.729   2.225   2.905  1.00  0.00    -0.196 N 
ATOM     12  C   UNL     1       4.368   2.895   1.849  1.00  0.00     0.282 C 
ATOM     13  C   UNL     1       4.096   2.566  -0.593  1.00  0.00     0.099 C 
ATOM     14  O   UNL     1       5.117   3.856   1.833  1.00  0.00    -0.267 OA
BRANCH  11  15
ATOM     15  C   UNL     1       3.554   2.710   4.223  1.00  0.00     0.069 A 
ATOM     16  C   UNL     1       3.082   1.870   5.244  1.00  0.00     0.030 A 
ATOM     17  C   UNL     1       3.751   4.069   4.511  1.00  0.00     0.030 A 
ATOM     18  C   UNL     1       2.805   2.378   6.519  1.00  0.00     0.021 A 
ATOM     19  C   UNL     1       3.449   4.591   5.771  1.00  0.00     0.021 A 
ATOM     20  C   UNL     1       2.980   3.741   6.769  1.00  0.00     0.054 A 
BRANCH  20  21
ATOM     21  S   UNL     1       2.538   4.397   8.351  1.00  0.00     0.124 S 
ATOM     22  O   UNL     1       1.191   3.972   8.659  1.00  0.00    -0.237 OA
ATOM     23  O   UNL     1       3.636   4.152   9.259  1.00  0.00    -0.237 OA
ATOM     24  O   UNL     1       2.464   5.998   8.153  1.00  0.00    -0.744 OA
ENDBRANCH  20  21
ENDBRANCH  11  15
BRANCH  13  25
ATOM     25  N   UNL     1       3.521   2.114  -1.753  1.00  0.00    -0.361 N 
ATOM     26  H   UNL     1       2.731   1.534  -1.658  1.00  0.00     0.166 HD
BRANCH  25  27
ATOM     27  C   UNL     1       3.945   2.395  -3.061  1.00  0.00     0.038 A 
ATOM     28  C   UNL     1       2.982   2.615  -4.054  1.00  0.00     0.026 A 
ATOM     29  C   UNL     1       5.297   2.530  -3.397  1.00  0.00     0.026 A 
ATOM     30  C   UNL     1       3.361   2.937  -5.358  1.00  0.00     0.002 A 
ATOM     31  C   UNL     1       5.679   2.829  -4.707  1.00  0.00     0.002 A 
ATOM     32  C   UNL     1       4.710   3.035  -5.686  1.00  0.00     0.000 A 
ENDBRANCH  25  27
ENDBRANCH  13  25
ENDBRANCH   6   8
ENDBRANCH   3   4
ENDBRANCH   2   3
ENDBRANCH   1   2
BRANCH   1  33
ATOM     33  C   UNL     1       4.880  -2.682  -3.002  1.00  0.00     0.116 C 
BRANCH  33  34
ATOM     34  N   UNL     1       6.313  -2.635  -3.254  1.00  0.00    -0.352 N 
ATOM     35  C   UNL     1       7.044  -3.229  -4.257  1.00  0.00     0.251 C 
ATOM     36  H   UNL     1       6.835  -2.099  -2.614  1.00  0.00     0.163 HD
ATOM     37  O   UNL     1       8.271  -3.193  -4.224  1.00  0.00    -0.269 OA
BRANCH  35  38
ATOM     38  C   UNL     1       6.352  -3.939  -5.356  1.00  0.00     0.039 A 
ATOM     39  C   UNL     1       6.770  -5.226  -5.705  1.00  0.00     0.014 A 
ATOM     40  C   UNL     1       5.283  -3.343  -6.029  1.00  0.00     0.014 A 
ATOM     41  C   UNL     1       6.059  -5.951  -6.667  1.00  0.00     0.010 A 
ATOM     42  C   UNL     1       4.537  -4.090  -6.938  1.00  0.00     0.010 A 
ATOM     43  C   UNL     1       4.909  -5.405  -7.259  1.00  0.00    -0.014 A 
BRANCH  43  44
ATOM     44  C   UNL     1       4.064  -6.184  -8.205  1.00  0.00     0.031 A 
ATOM     45  C   UNL     1       3.893  -5.706  -9.622  1.00  0.00     0.074 A 
ATOM     46  C   UNL     1       3.365  -7.250  -7.763  1.00  0.00     0.049 A 
ATOM     47  N   UNL     1       3.068  -6.131 -10.543  1.00  0.00    -0.248 NA
ATOM     48  C   UNL     1       4.741  -4.580 -10.050  1.00  0.00     0.031 C 
ATOM     49  C   UNL     1       3.411  -7.791  -6.402  1.00  0.00     0.029 A 
ATOM     50  N   UNL     1       2.454  -8.053  -8.404  1.00  0.00    -0.354 N 
ATOM     51  C   UNL     1       3.267  -5.304 -11.642  1.00  0.00     0.074 A 
ATOM     52  C   UNL     1       4.276  -4.337 -11.268  1.00  0.00     0.031 C 
ATOM     53  C   UNL     1       2.567  -8.832  -6.312  1.00  0.00     0.029 A 
ATOM     54  C   UNL     1       1.887  -9.008  -7.591  1.00  0.00     0.049 A 
ATOM     55  H   UNL     1       2.226  -7.954  -9.357  1.00  0.00     0.167 HD
ATOM     56  C   UNL     1       2.669  -5.354 -12.856  1.00  0.00     0.037 A 
ATOM     57  C   UNL     1       0.913  -9.907  -7.840  1.00  0.00     0.037 A 
ATOM     58  C   UNL     1       1.712  -6.356 -13.245  1.00  0.00     0.049 A 
ATOM     59  C   UNL     1       0.285  -9.955  -9.208  1.00  0.00     0.074 A 
ATOM     60  C   UNL     1       1.121  -6.541 -14.483  1.00  0.00     0.029 A 
ATOM     61  N   UNL     1       1.211  -7.341 -12.410  1.00  0.00    -0.354 N 
ATOM     62  N   UNL     1       0.534  -9.205 -10.255  1.00  0.00    -0.248 NA
ATOM     63  C   UNL     1      -0.756 -10.969  -9.431  1.00  0.00     0.031 C 
ATOM     64  C   UNL     1       0.235  -7.618 -14.388  1.00  0.00     0.029 A 
ATOM     65  C   UNL     1       0.305  -8.128 -13.102  1.00  0.00     0.049 A 
ATOM     66  H   UNL     1       1.461  -7.464 -11.466  1.00  0.00     0.167 HD
ATOM     67  C   UNL     1      -0.290  -9.683 -11.268  1.00  0.00     0.074 A 
ATOM     68  C   UNL     1      -1.045 -10.785 -10.712  1.00  0.00     0.031 C 
ATOM     69  C   UNL     1      -0.410  -9.246 -12.545  1.00  0.00     0.037 A 
BRANCH  56  70
ATOM     70  C   UNL     1       3.032  -4.306 -13.870  1.00  0.00     0.058 A 
ATOM     71  C   UNL     1       4.262  -4.328 -14.543  1.00  0.00     0.135 A 
ATOM     72  C   UNL     1       2.099  -3.322 -14.235  1.00  0.00     0.135 A 
ATOM     73  F   UNL     1       5.194  -5.238 -14.220  1.00  0.00    -0.206 F 
ATOM     74  C   UNL     1       4.558  -3.405 -15.541  1.00  0.00     0.059 A 
ATOM     75  C   UNL     1       2.364  -2.404 -15.246  1.00  0.00     0.059 A 
ATOM     76  F   UNL     1       0.908  -3.257 -13.618  1.00  0.00    -0.206 F 
ATOM     77  C   UNL     1       3.600  -2.451 -15.889  1.00  0.00     0.060 A 
BRANCH  77  78
ATOM     78  S   UNL     1       3.982  -1.290 -17.218  1.00  0.00     0.124 S 
ATOM     79  O   UNL     1       4.930  -0.396 -16.559  1.00  0.00    -0.237 OA
ATOM     80  O   UNL     1       4.544  -2.163 -18.244  1.00  0.00    -0.237 OA
ATOM     81  O   UNL     1       2.686  -0.703 -17.541  1.00  0.00    -0.744 OA
ENDBRANCH  77  78
ENDBRANCH  56  70
BRANCH  57  82
ATOM     82  C   UNL     1       0.455 -10.838  -6.774  1.00  0.00     0.058 A 
ATOM     83  C   UNL     1       0.723 -12.213  -6.855  1.00  0.00     0.135 A 
ATOM     84  C   UNL     1      -0.292 -10.382  -5.677  1.00  0.00     0.135 A 
ATOM     85  F   UNL     1       1.429 -12.698  -7.888  1.00  0.00    -0.206 F 
ATOM     86  C   UNL     1       0.236 -13.109  -5.908  1.00  0.00     0.059 A 
ATOM     87  C   UNL     1      -0.769 -11.255  -4.704  1.00  0.00     0.059 A 
ATOM     88  F   UNL     1      -0.560  -9.074  -5.542  1.00  0.00    -0.206 F 
ATOM     89  C   UNL     1      -0.517 -12.620  -4.840  1.00  0.00     0.060 A 
BRANCH  89  90
ATOM     90  S   UNL     1      -1.147 -13.787  -3.613  1.00  0.00     0.124 S 
ATOM     91  O   UNL     1      -2.276 -14.375  -4.324  1.00  0.00    -0.237 OA
ATOM     92  O   UNL     1       0.002 -14.663  -3.401  1.00  0.00    -0.237 OA
ATOM     93  O   UNL     1      -1.487 -12.928  -2.482  1.00  0.00    -0.744 OA
ENDBRANCH  89  90
ENDBRANCH  57  82
BRANCH  69  94
ATOM     94  C   UNL     1      -1.342  -9.993 -13.456  1.00  0.00     0.058 A 
ATOM     95  C   UNL     1      -2.734  -9.842 -13.372  1.00  0.00     0.135 A 
ATOM     96  C   UNL     1      -0.827 -10.803 -14.482  1.00  0.00     0.135 A 
ATOM     97  F   UNL     1      -3.275  -9.085 -12.405  1.00  0.00    -0.206 F 
ATOM     98  C   UNL     1      -3.586 -10.475 -14.272  1.00  0.00     0.059 A 
ATOM     99  C   UNL     1      -1.659 -11.426 -15.405  1.00  0.00     0.059 A 
ATOM    100  F   UNL     1       0.498 -10.971 -14.608  1.00  0.00    -0.206 F 
ATOM    101  C   UNL     1      -3.039 -11.260 -15.289  1.00  0.00     0.060 A 
BRANCH 101 102
ATOM    102  S   UNL     1      -4.150 -12.023 -16.490  1.00  0.00     0.124 S 
ATOM    103  O   UNL     1      -4.705 -13.128 -15.716  1.00  0.00    -0.237 OA
ATOM    104  O   UNL     1      -5.075 -10.936 -16.796  1.00  0.00    -0.237 OA
ATOM    105  O   UNL     1      -3.260 -12.404 -17.582  1.00  0.00    -0.744 OA
ENDBRANCH 101 102
ENDBRANCH  69  94
ENDBRANCH  43  44
ENDBRANCH  35  38
ENDBRANCH  33  34
ENDBRANCH   1  33
TORSDOF 18
