REMARK SMILES O=C(NCCCCNC(=O)[C@@H]1CCC(=O)N1C(=O)/C=C/c1ccccc1)c1ccc(-c2c3nc(c(-c4c(F)cc(S(=O)(=O)[O-])cc4F)c4ccc([nH]4)c(-c4c(F)cc(S(=O)(=O)[O-])cc4F)c4nc(c(-c5c(F)cc(S(=O)(=O)[O-])cc5F)c5ccc2[nH]5)C=C4)C=C3)cc1
REMARK SMILES IDX 5 1 4 2 3 3 1 4 2 5 27 7 28 8 92 9 29 10 91 11 30 12 31 13
REMARK SMILES IDX 32 14 85 15 33 16 90 17 84 18 86 19 34 20 89 21 83 22 82 23
REMARK SMILES IDX 35 25 69 26 48 27 68 28 49 29 52 30 67 31 87 32 50 33 51 34
REMARK SMILES IDX 66 36 88 37 53 38 36 39 37 40 46 41 38 42 39 43 45 44 47 45
REMARK SMILES IDX 40 46 41 47 42 48 43 49 44 50 70 51 71 52 80 53 72 54 73 55
REMARK SMILES IDX 79 56 81 57 74 58 75 59 76 60 77 61 78 62 54 63 55 64 64 65
REMARK SMILES IDX 56 66 57 67 63 68 65 69 58 70 59 71 60 72 61 73 62 74 6 75
REMARK SMILES IDX 7 76 8 77 9 78 10 80 11 81 12 82 16 83 13 84 14 85 15 86
REMARK SMILES IDX 17 87 18 88 19 89 20 90 21 91 22 92 26 93 23 94 25 95 24 96
REMARK H PARENT 3 6 86 24 52 35 8 79
REMARK Flexibility Score: inf
ROOT
ATOM      1  C   UNL     1       4.865  -2.001  -1.895  1.00  0.00     0.023 C 
ENDROOT
BRANCH   1   2
ATOM      2  C   UNL     1       4.591  -0.735  -1.091  1.00  0.00     0.116 C 
BRANCH   2   3
ATOM      3  N   UNL     1       3.175  -0.415  -1.001  1.00  0.00    -0.352 N 
ATOM      4  O   UNL     1       1.221   0.048   0.025  1.00  0.00    -0.269 OA
ATOM      5  C   UNL     1       2.441  -0.054   0.105  1.00  0.00     0.251 C 
ATOM      6  H   UNL     1       2.673  -0.464  -1.847  1.00  0.00     0.163 HD
BRANCH   5   7
ATOM      7  C   UNL     1       3.130   0.178   1.393  1.00  0.00     0.039 A 
ATOM      8  C   UNL     1       4.289   0.955   1.450  1.00  0.00     0.014 A 
ATOM      9  C   UNL     1       2.612  -0.399   2.556  1.00  0.00     0.014 A 
ATOM     10  C   UNL     1       5.003   1.042   2.639  1.00  0.00     0.010 A 
ATOM     11  C   UNL     1       3.292  -0.248   3.768  1.00  0.00     0.010 A 
ATOM     12  C   UNL     1       4.510   0.448   3.813  1.00  0.00    -0.014 A 
BRANCH  12  13
ATOM     13  C   UNL     1       5.259   0.619   5.083  1.00  0.00     0.031 A 
ATOM     14  C   UNL     1       5.903  -0.552   5.772  1.00  0.00     0.074 A 
ATOM     15  C   UNL     1       5.379   1.859   5.597  1.00  0.00     0.049 A 
ATOM     16  N   UNL     1       6.611  -0.569   6.873  1.00  0.00    -0.248 NA
ATOM     17  C   UNL     1       5.725  -1.875   5.155  1.00  0.00     0.031 C 
ATOM     18  C   UNL     1       4.779   3.067   5.025  1.00  0.00     0.029 A 
ATOM     19  N   UNL     1       6.053   2.313   6.700  1.00  0.00    -0.354 N 
ATOM     20  C   UNL     1       6.947  -1.900   7.093  1.00  0.00     0.074 A 
ATOM     21  C   UNL     1       6.348  -2.666   6.019  1.00  0.00     0.031 C 
ATOM     22  C   UNL     1       5.146   4.129   5.757  1.00  0.00     0.029 A 
ATOM     23  C   UNL     1       5.962   3.673   6.876  1.00  0.00     0.049 A 
ATOM     24  H   UNL     1       6.554   1.723   7.308  1.00  0.00     0.167 HD
ATOM     25  C   UNL     1       7.690  -2.430   8.094  1.00  0.00     0.037 A 
ATOM     26  C   UNL     1       6.468   4.468   7.838  1.00  0.00     0.037 A 
ATOM     27  C   UNL     1       8.300  -1.658   9.147  1.00  0.00     0.049 A 
ATOM     28  C   UNL     1       7.297   3.856   8.928  1.00  0.00     0.074 A 
ATOM     29  C   UNL     1       9.103  -2.099  10.185  1.00  0.00     0.029 A 
ATOM     30  N   UNL     1       8.177  -0.284   9.297  1.00  0.00    -0.354 N 
ATOM     31  N   UNL     1       7.625   2.598   9.103  1.00  0.00    -0.248 NA
ATOM     32  C   UNL     1       7.822   4.768   9.953  1.00  0.00     0.031 C 
ATOM     33  C   UNL     1       9.438  -0.998  10.981  1.00  0.00     0.029 A 
ATOM     34  C   UNL     1       8.874   0.136  10.418  1.00  0.00     0.049 A 
ATOM     35  H   UNL     1       7.668   0.306   8.695  1.00  0.00     0.167 HD
ATOM     36  C   UNL     1       8.401   2.567  10.255  1.00  0.00     0.074 A 
ATOM     37  C   UNL     1       8.510   3.935  10.722  1.00  0.00     0.031 C 
ATOM     38  C   UNL     1       8.967   1.501  10.872  1.00  0.00     0.037 A 
BRANCH  25  39
ATOM     39  C   UNL     1       7.879  -3.922   8.112  1.00  0.00     0.058 A 
ATOM     40  C   UNL     1       8.742  -4.567   7.213  1.00  0.00     0.135 A 
ATOM     41  C   UNL     1       7.226  -4.711   9.073  1.00  0.00     0.135 A 
ATOM     42  F   UNL     1       9.380  -3.863   6.265  1.00  0.00    -0.206 F 
ATOM     43  C   UNL     1       8.937  -5.945   7.253  1.00  0.00     0.059 A 
ATOM     44  C   UNL     1       7.421  -6.088   9.145  1.00  0.00     0.059 A 
ATOM     45  F   UNL     1       6.389  -4.144   9.957  1.00  0.00    -0.206 F 
ATOM     46  C   UNL     1       8.269  -6.697   8.222  1.00  0.00     0.060 A 
BRANCH  46  47
ATOM     47  S   UNL     1       8.535  -8.483   8.266  1.00  0.00     0.124 S 
ATOM     48  O   UNL     1       7.740  -8.922   7.123  1.00  0.00    -0.237 OA
ATOM     49  O   UNL     1       9.982  -8.590   8.110  1.00  0.00    -0.237 OA
ATOM     50  O   UNL     1       8.019  -8.871   9.575  1.00  0.00    -0.744 OA
ENDBRANCH  46  47
ENDBRANCH  25  39
BRANCH  26  51
ATOM     51  C   UNL     1       6.196   5.926   7.798  1.00  0.00     0.058 A 
ATOM     52  C   UNL     1       7.201   6.840   7.451  1.00  0.00     0.135 A 
ATOM     53  C   UNL     1       4.912   6.428   8.058  1.00  0.00     0.135 A 
ATOM     54  F   UNL     1       8.444   6.406   7.196  1.00  0.00    -0.206 F 
ATOM     55  C   UNL     1       6.943   8.204   7.366  1.00  0.00     0.059 A 
ATOM     56  C   UNL     1       4.624   7.785   7.957  1.00  0.00     0.059 A 
ATOM     57  F   UNL     1       3.913   5.589   8.376  1.00  0.00    -0.206 F 
ATOM     58  C   UNL     1       5.650   8.666   7.617  1.00  0.00     0.060 A 
BRANCH  58  59
ATOM     59  S   UNL     1       5.303  10.429   7.436  1.00  0.00     0.124 S 
ATOM     60  O   UNL     1       5.850  10.963   8.678  1.00  0.00    -0.237 OA
ATOM     61  O   UNL     1       6.035  10.766   6.219  1.00  0.00    -0.237 OA
ATOM     62  O   UNL     1       3.849  10.472   7.314  1.00  0.00    -0.744 OA
ENDBRANCH  58  59
ENDBRANCH  26  51
BRANCH  38  63
ATOM     63  C   UNL     1       9.764   1.778  12.114  1.00  0.00     0.058 A 
ATOM     64  C   UNL     1       9.137   2.074  13.334  1.00  0.00     0.135 A 
ATOM     65  C   UNL     1      11.165   1.717  12.090  1.00  0.00     0.135 A 
ATOM     66  F   UNL     1       7.799   2.151  13.405  1.00  0.00    -0.206 F 
ATOM     67  C   UNL     1       9.875   2.325  14.486  1.00  0.00     0.059 A 
ATOM     68  C   UNL     1      11.923   1.944  13.235  1.00  0.00     0.059 A 
ATOM     69  F   UNL     1      11.811   1.430  10.949  1.00  0.00    -0.206 F 
ATOM     70  C   UNL     1      11.268   2.260  14.425  1.00  0.00     0.060 A 
BRANCH  70  71
ATOM     71  S   UNL     1      12.219   2.566  15.930  1.00  0.00     0.124 S 
ATOM     72  O   UNL     1      12.169   4.021  16.016  1.00  0.00    -0.237 OA
ATOM     73  O   UNL     1      11.451   1.844  16.940  1.00  0.00    -0.237 OA
ATOM     74  O   UNL     1      13.528   1.998  15.623  1.00  0.00    -0.744 OA
ENDBRANCH  70  71
ENDBRANCH  38  63
ENDBRANCH  12  13
ENDBRANCH   5   7
ENDBRANCH   2   3
ENDBRANCH   1   2
BRANCH   1  75
ATOM     75  C   UNL     1       4.387  -1.970  -3.349  1.00  0.00     0.023 C 
BRANCH  75  76
ATOM     76  C   UNL     1       4.911  -0.792  -4.167  1.00  0.00     0.116 C 
BRANCH  76  77
ATOM     77  N   UNL     1       6.356  -0.831  -4.300  1.00  0.00    -0.354 N 
ATOM     78  C   UNL     1       7.127  -0.937  -5.418  1.00  0.00     0.243 C 
ATOM     79  H   UNL     1       6.854  -0.772  -3.453  1.00  0.00     0.163 HD
ATOM     80  O   UNL     1       8.351  -0.836  -5.292  1.00  0.00    -0.273 OA
BRANCH  78  81
ATOM     81  C   UNL     1       6.483  -1.192  -6.789  1.00  0.00     0.183 C 
ATOM     82  C   UNL     1       6.952  -2.546  -7.306  1.00  0.00     0.046 C 
ATOM     83  N   UNL     1       6.995  -0.223  -7.742  1.00  0.00    -0.266 N 
ATOM     84  C   UNL     1       7.147  -2.323  -8.789  1.00  0.00     0.103 C 
ATOM     85  C   UNL     1       7.508  -0.863  -8.880  1.00  0.00     0.230 C 
ATOM     86  O   UNL     1       8.081  -0.377  -9.842  1.00  0.00    -0.274 OA
BRANCH  83  87
ATOM     87  C   UNL     1       6.679   1.114  -7.541  1.00  0.00     0.253 C 
ATOM     88  O   UNL     1       5.905   1.485  -6.657  1.00  0.00    -0.269 OA
BRANCH  87  89
ATOM     89  C   UNL     1       7.310   2.141  -8.396  1.00  0.00     0.072 C 
ATOM     90  C   UNL     1       6.956   2.298  -9.680  1.00  0.00     0.014 C 
BRANCH  90  91
ATOM     91  C   UNL     1       7.471   3.329 -10.599  1.00  0.00    -0.025 A 
ATOM     92  C   UNL     1       6.983   3.348 -11.915  1.00  0.00     0.008 A 
ATOM     93  C   UNL     1       8.424   4.291 -10.234  1.00  0.00     0.008 A 
ATOM     94  C   UNL     1       7.426   4.302 -12.835  1.00  0.00     0.001 A 
ATOM     95  C   UNL     1       8.868   5.246 -11.154  1.00  0.00     0.001 A 
ATOM     96  C   UNL     1       8.368   5.252 -12.454  1.00  0.00     0.000 A 
ENDBRANCH  90  91
ENDBRANCH  87  89
ENDBRANCH  83  87
ENDBRANCH  78  81
ENDBRANCH  76  77
ENDBRANCH  75  76
ENDBRANCH   1  75
TORSDOF 17
