REMARK SMILES O=C(NCCCCNC(=O)[C@]1([NH2+]C2CC2)CC[C@@H](SCCCO)C1)c1ccc(-c2c3nc(c(-c4c(F)cc(S(=O)(=O)[O-])cc4F)c4ccc([nH]4)c(-c4c(F)cc(S(=O)(=O)[O-])cc4F)c4nc(c(-c5c(F)cc(S(=O)(=O)[O-])cc5F)c5ccc2[nH]5)C=C4)C=C3)cc1
REMARK SMILES IDX 6 1 5 2 4 3 3 4 1 5 2 6 25 8 26 9 90 10 27 11 89 12 28 13
REMARK SMILES IDX 29 14 30 15 83 16 31 17 88 18 82 19 84 20 32 21 87 22 81 23
REMARK SMILES IDX 80 24 33 26 67 27 46 28 66 29 47 30 50 31 65 32 85 33 48 34
REMARK SMILES IDX 49 35 64 37 86 38 51 39 34 40 35 41 44 42 36 43 37 44 43 45
REMARK SMILES IDX 45 46 38 47 39 48 40 49 41 50 42 51 68 52 69 53 78 54 70 55
REMARK SMILES IDX 71 56 77 57 79 58 72 59 73 60 74 61 75 62 76 63 52 64 53 65
REMARK SMILES IDX 62 66 54 67 55 68 61 69 63 70 56 71 57 72 58 73 59 74 60 75
REMARK SMILES IDX 7 76 8 77 9 78 10 80 11 81 16 82 24 83 17 84 18 85 12 86
REMARK SMILES IDX 13 89 14 90 15 91 19 92 20 93 21 94 22 95 23 96
REMARK H PARENT 3 7 84 25 50 36 8 79 12 87 12 88 23 97
REMARK Flexibility Score: inf
ROOT
ATOM      1  C   UNL     1       6.337  -9.709   3.211  1.00  0.00     0.023 C 
ENDROOT
BRANCH   1   2
ATOM      2  C   UNL     1       6.306 -10.194   4.660  1.00  0.00     0.023 C 
BRANCH   2   3
ATOM      3  C   UNL     1       5.075 -11.016   5.015  1.00  0.00     0.116 C 
BRANCH   3   4
ATOM      4  N   UNL     1       4.888 -12.196   4.182  1.00  0.00    -0.352 N 
ATOM      5  O   UNL     1       4.111 -14.287   3.761  1.00  0.00    -0.269 OA
ATOM      6  C   UNL     1       4.151 -13.318   4.499  1.00  0.00     0.251 C 
ATOM      7  H   UNL     1       5.333 -12.193   3.304  1.00  0.00     0.163 HD
BRANCH   6   8
ATOM      8  C   UNL     1       3.450 -13.312   5.797  1.00  0.00     0.039 A 
ATOM      9  C   UNL     1       2.548 -12.285   6.080  1.00  0.00     0.014 A 
ATOM     10  C   UNL     1       3.816 -14.242   6.771  1.00  0.00     0.014 A 
ATOM     11  C   UNL     1       2.120 -12.102   7.386  1.00  0.00     0.010 A 
ATOM     12  C   UNL     1       3.314 -14.104   8.066  1.00  0.00     0.010 A 
ATOM     13  C   UNL     1       2.490 -13.014   8.390  1.00  0.00    -0.014 A 
BRANCH  13  14
ATOM     14  C   UNL     1       1.944 -12.842   9.757  1.00  0.00     0.031 A 
ATOM     15  C   UNL     1       2.837 -12.536  10.925  1.00  0.00     0.074 A 
ATOM     16  C   UNL     1       0.610 -12.941   9.919  1.00  0.00     0.049 A 
ATOM     17  N   UNL     1       2.516 -12.374  12.183  1.00  0.00    -0.248 NA
ATOM     18  C   UNL     1       4.278 -12.402  10.654  1.00  0.00     0.031 C 
ATOM     19  C   UNL     1      -0.346 -13.241   8.849  1.00  0.00     0.029 A 
ATOM     20  N   UNL     1      -0.174 -12.785  11.030  1.00  0.00    -0.354 N 
ATOM     21  C   UNL     1       3.709 -12.148  12.859  1.00  0.00     0.074 A 
ATOM     22  C   UNL     1       4.767 -12.203  11.872  1.00  0.00     0.031 C 
ATOM     23  C   UNL     1      -1.589 -13.200   9.345  1.00  0.00     0.029 A 
ATOM     24  C   UNL     1      -1.515 -12.945  10.777  1.00  0.00     0.049 A 
ATOM     25  H   UNL     1       0.187 -12.579  11.922  1.00  0.00     0.167 HD
ATOM     26  C   UNL     1       3.897 -11.915  14.181  1.00  0.00     0.037 A 
ATOM     27  C   UNL     1      -2.571 -12.915  11.610  1.00  0.00     0.037 A 
ATOM     28  C   UNL     1       2.828 -11.844  15.146  1.00  0.00     0.049 A 
ATOM     29  C   UNL     1      -2.333 -12.662  13.068  1.00  0.00     0.074 A 
ATOM     30  C   UNL     1       2.908 -11.584  16.504  1.00  0.00     0.029 A 
ATOM     31  N   UNL     1       1.483 -12.034  14.857  1.00  0.00    -0.354 N 
ATOM     32  N   UNL     1      -1.198 -12.442  13.688  1.00  0.00    -0.248 NA
ATOM     33  C   UNL     1      -3.512 -12.663  13.941  1.00  0.00     0.031 C 
ATOM     34  C   UNL     1       1.617 -11.653  17.041  1.00  0.00     0.029 A 
ATOM     35  C   UNL     1       0.727 -11.914  16.012  1.00  0.00     0.049 A 
ATOM     36  H   UNL     1       1.120 -12.225  13.962  1.00  0.00     0.167 HD
ATOM     37  C   UNL     1      -1.526 -12.274  15.026  1.00  0.00     0.074 A 
ATOM     38  C   UNL     1      -2.968 -12.395  15.120  1.00  0.00     0.031 C 
ATOM     39  C   UNL     1      -0.707 -12.046  16.082  1.00  0.00     0.037 A 
BRANCH  26  40
ATOM     40  C   UNL     1       5.309 -11.742  14.671  1.00  0.00     0.058 A 
ATOM     41  C   UNL     1       6.044 -10.574  14.416  1.00  0.00     0.135 A 
ATOM     42  C   UNL     1       5.917 -12.739  15.452  1.00  0.00     0.135 A 
ATOM     43  F   UNL     1       5.517  -9.595  13.664  1.00  0.00    -0.206 F 
ATOM     44  C   UNL     1       7.339 -10.409  14.899  1.00  0.00     0.059 A 
ATOM     45  C   UNL     1       7.203 -12.586  15.964  1.00  0.00     0.059 A 
ATOM     46  F   UNL     1       5.259 -13.876  15.728  1.00  0.00    -0.206 F 
ATOM     47  C   UNL     1       7.912 -11.422  15.670  1.00  0.00     0.060 A 
BRANCH  47  48
ATOM     48  S   UNL     1       9.592 -11.194  16.292  1.00  0.00     0.124 S 
ATOM     49  O   UNL     1      10.380 -11.402  15.080  1.00  0.00    -0.237 OA
ATOM     50  O   UNL     1       9.557  -9.824  16.795  1.00  0.00    -0.237 OA
ATOM     51  O   UNL     1       9.722 -12.230  17.311  1.00  0.00    -0.744 OA
ENDBRANCH  47  48
ENDBRANCH  26  40
BRANCH  27  52
ATOM     52  C   UNL     1      -3.933 -13.147  11.069  1.00  0.00     0.058 A 
ATOM     53  C   UNL     1      -4.859 -12.100  10.969  1.00  0.00     0.135 A 
ATOM     54  C   UNL     1      -4.314 -14.410  10.587  1.00  0.00     0.135 A 
ATOM     55  F   UNL     1      -4.538 -10.877  11.417  1.00  0.00    -0.206 F 
ATOM     56  C   UNL     1      -6.117 -12.295  10.412  1.00  0.00     0.059 A 
ATOM     57  C   UNL     1      -5.556 -14.623  10.002  1.00  0.00     0.059 A 
ATOM     58  F   UNL     1      -3.453 -15.438  10.640  1.00  0.00    -0.206 F 
ATOM     59  C   UNL     1      -6.455 -13.560   9.926  1.00  0.00     0.060 A 
BRANCH  59  60
ATOM     60  S   UNL     1      -8.063 -13.789   9.138  1.00  0.00     0.124 S 
ATOM     61  O   UNL     1      -8.947 -13.856  10.296  1.00  0.00    -0.237 OA
ATOM     62  O   UNL     1      -8.178 -12.590   8.314  1.00  0.00    -0.237 OA
ATOM     63  O   UNL     1      -7.896 -15.035   8.396  1.00  0.00    -0.744 OA
ENDBRANCH  59  60
ENDBRANCH  27  52
BRANCH  39  64
ATOM     64  C   UNL     1      -1.362 -11.901  17.425  1.00  0.00     0.058 A 
ATOM     65  C   UNL     1      -1.865 -13.012  18.118  1.00  0.00     0.135 A 
ATOM     66  C   UNL     1      -1.465 -10.641  18.034  1.00  0.00     0.135 A 
ATOM     67  F   UNL     1      -1.798 -14.237  17.572  1.00  0.00    -0.206 F 
ATOM     68  C   UNL     1      -2.472 -12.876  19.361  1.00  0.00     0.059 A 
ATOM     69  C   UNL     1      -2.048 -10.484  19.286  1.00  0.00     0.059 A 
ATOM     70  F   UNL     1      -0.993  -9.548  17.412  1.00  0.00    -0.206 F 
ATOM     71  C   UNL     1      -2.560 -11.607  19.936  1.00  0.00     0.060 A 
BRANCH  71  72
ATOM     72  S   UNL     1      -3.331 -11.443  21.560  1.00  0.00     0.124 S 
ATOM     73  O   UNL     1      -4.747 -11.547  21.224  1.00  0.00    -0.237 OA
ATOM     74  O   UNL     1      -2.767 -12.573  22.292  1.00  0.00    -0.237 OA
ATOM     75  O   UNL     1      -2.888 -10.127  22.013  1.00  0.00    -0.744 OA
ENDBRANCH  71  72
ENDBRANCH  39  64
ENDBRANCH  13  14
ENDBRANCH   6   8
ENDBRANCH   3   4
ENDBRANCH   2   3
ENDBRANCH   1   2
BRANCH   1  76
ATOM     76  C   UNL     1       5.211  -8.731   2.861  1.00  0.00     0.116 C 
BRANCH  76  77
ATOM     77  N   UNL     1       5.672  -7.368   3.001  1.00  0.00    -0.351 N 
ATOM     78  C   UNL     1       6.302  -6.538   2.130  1.00  0.00     0.281 C 
ATOM     79  H   UNL     1       5.499  -6.971   3.885  1.00  0.00     0.163 HD
ATOM     80  O   UNL     1       6.971  -5.638   2.659  1.00  0.00    -0.268 OA
BRANCH  78  81
ATOM     81  C   UNL     1       6.269  -6.686   0.561  1.00  0.00     0.176 C 
ATOM     82  C   UNL     1       4.898  -7.037  -0.047  1.00  0.00     0.080 C 
ATOM     83  C   UNL     1       7.238  -7.792   0.086  1.00  0.00     0.093 C 
ATOM     84  C   UNL     1       4.997  -8.421  -0.696  1.00  0.00     0.022 C 
ATOM     85  C   UNL     1       6.380  -8.964  -0.367  1.00  0.00     0.053 C 
BRANCH  81  86
ATOM     86  N   UNL     1       6.841  -5.417  -0.006  1.00  0.00    -0.331 N 
ATOM     87  H   UNL     1       7.202  -5.635  -0.935  1.00  0.00     0.347 HD
ATOM     88  H   UNL     1       7.537  -5.122   0.679  1.00  0.00     0.347 HD
BRANCH  86  89
ATOM     89  C   UNL     1       5.944  -4.259  -0.144  1.00  0.00     0.183 C 
ATOM     90  C   UNL     1       5.208  -3.607   0.992  1.00  0.00     0.071 C 
ATOM     91  C   UNL     1       6.421  -2.941   0.418  1.00  0.00     0.071 C 
ENDBRANCH  86  89
ENDBRANCH  81  86
BRANCH  85  92
ATOM     92  S   UNL     1       7.046 -10.119  -1.618  1.00  0.00    -0.158 SA
BRANCH  92  93
ATOM     93  C   UNL     1       7.846  -9.061  -2.877  1.00  0.00     0.072 C 
BRANCH  93  94
ATOM     94  C   UNL     1       6.905  -8.460  -3.921  1.00  0.00     0.039 C 
BRANCH  94  95
ATOM     95  C   UNL     1       6.518  -7.009  -3.671  1.00  0.00     0.157 C 
BRANCH  95  96
ATOM     96  O   UNL     1       7.675  -6.192  -3.573  1.00  0.00    -0.396 OA
ATOM     97  H   UNL     1       8.223  -6.495  -2.832  1.00  0.00     0.210 HD
ENDBRANCH  95  96
ENDBRANCH  94  95
ENDBRANCH  93  94
ENDBRANCH  92  93
ENDBRANCH  85  92
ENDBRANCH  78  81
ENDBRANCH  76  77
ENDBRANCH   1  76
TORSDOF 21
