REMARK SMILES CN(C(=O)N1CCC(C(=O)NCCCCNC(=O)c2ccc(-c3c4nc(c(-c5c(F)cc(S(=O)(=O)[O-])cc5F)c5ccc([nH]5)c(-c5c(F)cc(S(=O)(=O)[O-])cc5F)c5nc(c(-c6c(F)cc(S(=O)(=O)[O-])cc6F)c6ccc3[nH]6)C=C5)C=C4)cc2)CC1)[C@H]1CCSC1
REMARK SMILES IDX 14 1 13 2 12 3 11 4 9 5 10 6 8 8 3 9 4 10 5 11 6 12 86 13
REMARK SMILES IDX 7 14 85 15 2 16 1 17 87 18 88 19 91 20 89 21 90 22 15 23
REMARK SMILES IDX 16 24 17 25 18 27 19 28 20 29 84 30 21 31 83 32 22 33 23 34
REMARK SMILES IDX 24 35 77 36 25 37 82 38 76 39 78 40 26 41 81 42 75 43 74 44
REMARK SMILES IDX 27 46 61 47 40 48 60 49 41 50 44 51 59 52 79 53 42 54 43 55
REMARK SMILES IDX 58 57 80 58 45 59 28 60 29 61 38 62 30 63 31 64 37 65 39 66
REMARK SMILES IDX 32 67 33 68 34 69 35 70 36 71 62 72 63 73 72 74 64 75 65 76
REMARK SMILES IDX 71 77 73 78 66 79 67 80 68 81 69 82 70 83 46 84 47 85 56 86
REMARK SMILES IDX 48 87 49 88 55 89 57 90 50 91 51 92 52 93 53 94 54 95
REMARK H PARENT 11 7 16 26 78 45 44 56
REMARK Flexibility Score: inf
ROOT
ATOM      1  C   UNL     1       4.333   9.927  -4.982  1.00  0.00     0.023 C 
ENDROOT
BRANCH   1   2
ATOM      2  C   UNL     1       3.713   8.551  -4.743  1.00  0.00     0.023 C 
BRANCH   2   3
ATOM      3  C   UNL     1       2.257   8.580  -4.284  1.00  0.00     0.116 C 
BRANCH   3   4
ATOM      4  N   UNL     1       1.365   9.021  -5.343  1.00  0.00    -0.356 N 
ATOM      5  C   UNL     1       0.418   8.350  -6.049  1.00  0.00     0.223 C 
ATOM      6  O   UNL     1      -0.202   8.970  -6.917  1.00  0.00    -0.275 OA
ATOM      7  H   UNL     1       1.464   9.969  -5.590  1.00  0.00     0.163 HD
BRANCH   5   8
ATOM      8  C   UNL     1       0.090   6.888  -5.781  1.00  0.00     0.082 C 
ATOM      9  C   UNL     1       0.992   3.738  -3.326  1.00  0.00     0.320 C 
ATOM     10  O   UNL     1       2.207   3.842  -3.174  1.00  0.00    -0.248 OA
ATOM     11  N   UNL     1       0.344   4.413  -4.343  1.00  0.00    -0.325 N 
ATOM     12  C   UNL     1       0.970   4.519  -5.651  1.00  0.00     0.122 C 
ATOM     13  C   UNL     1      -0.845   5.228  -4.116  1.00  0.00     0.122 C 
ATOM     14  C   UNL     1       1.278   5.956  -6.039  1.00  0.00     0.035 C 
ATOM     15  C   UNL     1      -0.570   6.699  -4.410  1.00  0.00     0.035 C 
BRANCH   9  16
ATOM     16  N   UNL     1       0.201   2.909  -2.538  1.00  0.00    -0.324 N 
ATOM     17  C   UNL     1      -1.097   2.410  -2.978  1.00  0.00     0.149 C 
BRANCH  16  18
ATOM     18  C   UNL     1       0.712   2.326  -1.288  1.00  0.00     0.097 C 
ATOM     19  C   UNL     1       1.938   1.421  -1.436  1.00  0.00     0.037 C 
ATOM     20  C   UNL     1       1.070   3.343  -0.204  1.00  0.00     0.094 C 
ATOM     21  C   UNL     1       2.265   0.936  -0.031  1.00  0.00     0.072 C 
ATOM     22  S   UNL     1       1.935   2.353   1.060  1.00  0.00    -0.160 SA
ENDBRANCH  16  18
ENDBRANCH   9  16
ENDBRANCH   5   8
ENDBRANCH   3   4
ENDBRANCH   2   3
ENDBRANCH   1   2
BRANCH   1  23
ATOM     23  C   UNL     1       4.231  10.898  -3.811  1.00  0.00     0.116 C 
BRANCH  23  24
ATOM     24  N   UNL     1       4.789  10.369  -2.575  1.00  0.00    -0.352 N 
ATOM     25  C   UNL     1       5.568  11.011  -1.642  1.00  0.00     0.251 C 
ATOM     26  H   UNL     1       4.580   9.426  -2.381  1.00  0.00     0.163 HD
ATOM     27  O   UNL     1       6.050  10.386  -0.702  1.00  0.00    -0.269 OA
BRANCH  25  28
ATOM     28  C   UNL     1       5.850  12.451  -1.806  1.00  0.00     0.039 A 
ATOM     29  C   UNL     1       7.173  12.892  -1.728  1.00  0.00     0.014 A 
ATOM     30  C   UNL     1       4.817  13.351  -2.082  1.00  0.00     0.014 A 
ATOM     31  C   UNL     1       7.469  14.229  -1.999  1.00  0.00     0.010 A 
ATOM     32  C   UNL     1       5.122  14.663  -2.424  1.00  0.00     0.010 A 
ATOM     33  C   UNL     1       6.450  15.115  -2.387  1.00  0.00    -0.014 A 
BRANCH  33  34
ATOM     34  C   UNL     1       6.750  16.520  -2.761  1.00  0.00     0.031 A 
ATOM     35  C   UNL     1       6.202  17.650  -1.935  1.00  0.00     0.074 A 
ATOM     36  C   UNL     1       7.453  16.777  -3.881  1.00  0.00     0.049 A 
ATOM     37  N   UNL     1       6.290  18.939  -2.137  1.00  0.00    -0.248 NA
ATOM     38  C   UNL     1       5.428  17.279  -0.740  1.00  0.00     0.031 C 
ATOM     39  C   UNL     1       7.999  15.766  -4.789  1.00  0.00     0.029 A 
ATOM     40  N   UNL     1       7.823  17.968  -4.451  1.00  0.00    -0.354 N 
ATOM     41  C   UNL     1       5.570  19.532  -1.107  1.00  0.00     0.074 A 
ATOM     42  C   UNL     1       5.006  18.460  -0.316  1.00  0.00     0.031 C 
ATOM     43  C   UNL     1       8.659  16.379  -5.784  1.00  0.00     0.029 A 
ATOM     44  C   UNL     1       8.553  17.825  -5.606  1.00  0.00     0.049 A 
ATOM     45  H   UNL     1       7.588  18.845  -4.068  1.00  0.00     0.167 HD
ATOM     46  C   UNL     1       5.413  20.849  -0.831  1.00  0.00     0.037 A 
ATOM     47  C   UNL     1       9.079  18.753  -6.429  1.00  0.00     0.037 A 
ATOM     48  C   UNL     1       5.995  21.910  -1.611  1.00  0.00     0.049 A 
ATOM     49  C   UNL     1       8.891  20.209  -6.107  1.00  0.00     0.074 A 
ATOM     50  C   UNL     1       5.940  23.274  -1.387  1.00  0.00     0.029 A 
ATOM     51  N   UNL     1       6.738  21.724  -2.768  1.00  0.00    -0.354 N 
ATOM     52  N   UNL     1       8.253  20.754  -5.098  1.00  0.00    -0.248 NA
ATOM     53  C   UNL     1       9.498  21.177  -7.031  1.00  0.00     0.031 C 
ATOM     54  C   UNL     1       6.622  23.915  -2.429  1.00  0.00     0.029 A 
ATOM     55  C   UNL     1       7.135  22.948  -3.280  1.00  0.00     0.049 A 
ATOM     56  H   UNL     1       6.952  20.849  -3.167  1.00  0.00     0.167 HD
ATOM     57  C   UNL     1       8.402  22.128  -5.252  1.00  0.00     0.074 A 
ATOM     58  C   UNL     1       9.197  22.329  -6.447  1.00  0.00     0.031 C 
ATOM     59  C   UNL     1       7.928  23.130  -4.471  1.00  0.00     0.037 A 
BRANCH  46  60
ATOM     60  C   UNL     1       4.574  21.201   0.366  1.00  0.00     0.058 A 
ATOM     61  C   UNL     1       5.011  20.937   1.675  1.00  0.00     0.135 A 
ATOM     62  C   UNL     1       3.309  21.790   0.206  1.00  0.00     0.135 A 
ATOM     63  F   UNL     1       6.206  20.362   1.885  1.00  0.00    -0.206 F 
ATOM     64  C   UNL     1       4.204  21.194   2.778  1.00  0.00     0.059 A 
ATOM     65  C   UNL     1       2.496  22.082   1.298  1.00  0.00     0.059 A 
ATOM     66  F   UNL     1       2.842  22.067  -1.021  1.00  0.00    -0.206 F 
ATOM     67  C   UNL     1       2.943  21.756   2.578  1.00  0.00     0.060 A 
BRANCH  67  68
ATOM     68  S   UNL     1       1.887  22.044   4.014  1.00  0.00     0.124 S 
ATOM     69  O   UNL     1       1.413  20.693   4.300  1.00  0.00    -0.237 OA
ATOM     70  O   UNL     1       2.820  22.606   4.985  1.00  0.00    -0.237 OA
ATOM     71  O   UNL     1       0.877  22.971   3.511  1.00  0.00    -0.744 OA
ENDBRANCH  67  68
ENDBRANCH  46  60
BRANCH  47  72
ATOM     72  C   UNL     1       9.874  18.324  -7.609  1.00  0.00     0.058 A 
ATOM     73  C   UNL     1      11.270  18.456  -7.615  1.00  0.00     0.135 A 
ATOM     74  C   UNL     1       9.267  17.736  -8.729  1.00  0.00     0.135 A 
ATOM     75  F   UNL     1      11.894  19.019  -6.568  1.00  0.00    -0.206 F 
ATOM     76  C   UNL     1      12.039  18.022  -8.689  1.00  0.00     0.059 A 
ATOM     77  C   UNL     1      10.016  17.275  -9.808  1.00  0.00     0.059 A 
ATOM     78  F   UNL     1       7.935  17.573  -8.764  1.00  0.00    -0.206 F 
ATOM     79  C   UNL     1      11.403  17.426  -9.779  1.00  0.00     0.060 A 
BRANCH  79  80
ATOM     80  S   UNL     1      12.418  16.797 -11.134  1.00  0.00     0.124 S 
ATOM     81  O   UNL     1      12.831  18.032 -11.790  1.00  0.00    -0.237 OA
ATOM     82  O   UNL     1      13.465  16.072 -10.422  1.00  0.00    -0.237 OA
ATOM     83  O   UNL     1      11.489  15.961 -11.888  1.00  0.00    -0.744 OA
ENDBRANCH  79  80
ENDBRANCH  47  72
BRANCH  59  84
ATOM     84  C   UNL     1       8.279  24.537  -4.866  1.00  0.00     0.058 A 
ATOM     85  C   UNL     1       7.664  25.171  -5.956  1.00  0.00     0.135 A 
ATOM     86  C   UNL     1       9.206  25.276  -4.112  1.00  0.00     0.135 A 
ATOM     87  F   UNL     1       6.777  24.506  -6.713  1.00  0.00    -0.206 F 
ATOM     88  C   UNL     1       7.968  26.485  -6.296  1.00  0.00     0.059 A 
ATOM     89  C   UNL     1       9.507  26.598  -4.420  1.00  0.00     0.059 A 
ATOM     90  F   UNL     1       9.815  24.717  -3.055  1.00  0.00    -0.206 F 
ATOM     91  C   UNL     1       8.891  27.191  -5.521  1.00  0.00     0.060 A 
BRANCH  91  92
ATOM     92  S   UNL     1       9.249  28.908  -5.949  1.00  0.00     0.124 S 
ATOM     93  O   UNL     1      10.108  28.747  -7.117  1.00  0.00    -0.237 OA
ATOM     94  O   UNL     1       7.920  29.451  -6.210  1.00  0.00    -0.237 OA
ATOM     95  O   UNL     1       9.906  29.426  -4.753  1.00  0.00    -0.744 OA
ENDBRANCH  91  92
ENDBRANCH  59  84
ENDBRANCH  33  34
ENDBRANCH  25  28
ENDBRANCH  23  24
ENDBRANCH   1  23
TORSDOF 16
