REMARK SMILES CCOC(=O)c1c(NC(=O)[C@H]2CCCC[C@@H]2C(=O)NCCCCNC(=O)c2ccc(-c3c4nc(c(-c5c(F)cc(S(=O)(=O)[O-])cc5F)c5ccc([nH]5)c(-c5c(F)cc(S(=O)(=O)[O-])cc5F)c5nc(c(-c6c(F)cc(S(=O)(=O)[O-])cc6F)c6ccc3[nH]6)C=C5)C=C4)cc2)sc2c1CC[C@H](C)C2
REMARK SMILES IDX 20 1 19 2 17 3 18 4 16 6 11 7 12 8 13 9 15 10 14 11 9 12
REMARK SMILES IDX 8 13 10 15 7 16 6 17 95 18 93 19 94 20 96 21 100 22 97 23
REMARK SMILES IDX 98 24 99 25 4 26 5 27 3 28 2 29 1 30 21 31 22 32 23 33 24 34
REMARK SMILES IDX 25 35 26 37 27 38 28 39 92 40 29 41 91 42 30 43 31 44 32 45
REMARK SMILES IDX 85 46 33 47 90 48 84 49 86 50 34 51 89 52 83 53 82 54 35 56
REMARK SMILES IDX 69 57 48 58 68 59 49 60 52 61 67 62 87 63 50 64 51 65 66 67
REMARK SMILES IDX 88 68 53 69 36 70 37 71 46 72 38 73 39 74 45 75 47 76 40 77
REMARK SMILES IDX 41 78 42 79 43 80 44 81 70 82 71 83 80 84 72 85 73 86 79 87
REMARK SMILES IDX 81 88 74 89 75 90 76 91 77 92 78 93 54 94 55 95 64 96 56 97
REMARK SMILES IDX 57 98 63 99 65 100 58 101 59 102 60 103 61 104 62 105
REMARK H PARENT 19 5 8 14 24 36 86 55 52 66
REMARK Flexibility Score: inf
ROOT
ATOM      1  C   UNL     1      -0.400   4.831  -4.039  1.00  0.00     0.116 C 
ENDROOT
BRANCH   1   2
ATOM      2  N   UNL     1       0.002   4.043  -5.250  1.00  0.00    -0.356 N 
ATOM      3  C   UNL     1       0.859   3.000  -5.583  1.00  0.00     0.223 C 
ATOM      4  O   UNL     1       0.710   2.544  -6.725  1.00  0.00    -0.275 OA
ATOM      5  H   UNL     1      -0.485   4.359  -6.046  1.00  0.00     0.163 HD
BRANCH   3   6
ATOM      6  C   UNL     1       1.994   2.394  -4.640  1.00  0.00     0.091 C 
ATOM      7  C   UNL     1       2.189   0.821  -4.519  1.00  0.00     0.091 C 
ATOM      8  C   UNL     1       0.909   0.124  -4.787  1.00  0.00     0.014 C 
ATOM      9  C   UNL     1      -0.007   0.664  -3.736  1.00  0.00     0.001 C 
ATOM     10  C   UNL     1       1.632   2.752  -3.261  1.00  0.00     0.014 C 
ATOM     11  C   UNL     1       0.271   2.067  -3.082  1.00  0.00     0.001 C 
BRANCH   7  12
ATOM     12  C   UNL     1       2.735   0.169  -3.144  1.00  0.00     0.228 C 
ATOM     13  N   UNL     1       2.250   0.040  -1.851  1.00  0.00    -0.317 N 
ATOM     14  H   UNL     1       2.914  -0.519  -1.386  1.00  0.00     0.170 HD
ATOM     15  O   UNL     1       3.900  -0.282  -3.238  1.00  0.00    -0.274 OA
BRANCH  13  16
ATOM     16  C   UNL     1       1.254   0.324  -0.865  1.00  0.00     0.110 A 
ATOM     17  C   UNL     1      -0.099   0.663  -0.512  1.00  0.00     0.098 A 
ATOM     18  C   UNL     1      -0.043   1.536   0.687  1.00  0.00    -0.017 A 
ATOM     19  S   UNL     1       2.190   0.340   0.636  1.00  0.00    -0.122 S 
ATOM     20  C   UNL     1       1.141   1.435   1.375  1.00  0.00     0.011 A 
ATOM     21  C   UNL     1      -1.145   2.469   1.155  1.00  0.00     0.038 C 
ATOM     22  C   UNL     1       1.470   2.198   2.628  1.00  0.00     0.050 C 
ATOM     23  C   UNL     1      -0.745   3.363   2.334  1.00  0.00     0.008 C 
ATOM     24  C   UNL     1       0.162   2.627   3.333  1.00  0.00    -0.009 C 
ATOM     25  C   UNL     1       0.429   3.506   4.551  1.00  0.00     0.008 C 
BRANCH  17  26
ATOM     26  C   UNL     1      -1.436   0.673  -1.240  1.00  0.00     0.341 C 
ATOM     27  O   UNL     1      -2.082   1.716  -1.356  1.00  0.00    -0.246 OA
BRANCH  26  28
ATOM     28  O   UNL     1      -1.884  -0.490  -1.805  1.00  0.00    -0.462 OA
BRANCH  28  29
ATOM     29  C   UNL     1      -2.795  -0.288  -2.922  1.00  0.00     0.230 C 
ATOM     30  C   UNL     1      -4.259  -0.114  -2.630  1.00  0.00     0.049 C 
ENDBRANCH  28  29
ENDBRANCH  26  28
ENDBRANCH  17  26
ENDBRANCH  13  16
ENDBRANCH   7  12
ENDBRANCH   3   6
ENDBRANCH   1   2
BRANCH   1  31
ATOM     31  C   UNL     1       0.034   6.290  -4.055  1.00  0.00     0.023 C 
BRANCH  31  32
ATOM     32  C   UNL     1      -1.087   7.245  -4.473  1.00  0.00     0.023 C 
BRANCH  32  33
ATOM     33  C   UNL     1      -2.213   7.397  -3.447  1.00  0.00     0.116 C 
BRANCH  33  34
ATOM     34  N   UNL     1      -1.806   8.092  -2.228  1.00  0.00    -0.352 N 
ATOM     35  C   UNL     1      -2.601   8.403  -1.133  1.00  0.00     0.251 C 
ATOM     36  H   UNL     1      -0.863   8.370  -2.178  1.00  0.00     0.163 HD
ATOM     37  O   UNL     1      -2.294   9.297  -0.371  1.00  0.00    -0.269 OA
BRANCH  35  38
ATOM     38  C   UNL     1      -3.830   7.611  -0.913  1.00  0.00     0.039 A 
ATOM     39  C   UNL     1      -5.041   8.231  -0.592  1.00  0.00     0.014 A 
ATOM     40  C   UNL     1      -3.754   6.227  -1.062  1.00  0.00     0.014 A 
ATOM     41  C   UNL     1      -6.195   7.451  -0.510  1.00  0.00     0.010 A 
ATOM     42  C   UNL     1      -4.908   5.476  -1.089  1.00  0.00     0.010 A 
ATOM     43  C   UNL     1      -6.128   6.074  -0.783  1.00  0.00    -0.014 A 
BRANCH  43  44
ATOM     44  C   UNL     1      -7.357   5.286  -0.911  1.00  0.00     0.031 A 
ATOM     45  C   UNL     1      -8.332   5.835  -1.900  1.00  0.00     0.074 A 
ATOM     46  C   UNL     1      -7.516   4.052  -0.379  1.00  0.00     0.049 A 
ATOM     47  N   UNL     1      -9.504   6.330  -1.674  1.00  0.00    -0.248 NA
ATOM     48  C   UNL     1      -7.888   5.988  -3.297  1.00  0.00     0.031 C 
ATOM     49  C   UNL     1      -6.523   3.244   0.337  1.00  0.00     0.029 A 
ATOM     50  N   UNL     1      -8.580   3.203  -0.461  1.00  0.00    -0.354 N 
ATOM     51  C   UNL     1     -10.044   6.621  -2.926  1.00  0.00     0.074 A 
ATOM     52  C   UNL     1      -8.942   6.593  -3.850  1.00  0.00     0.031 C 
ATOM     53  C   UNL     1      -6.946   1.962   0.409  1.00  0.00     0.029 A 
ATOM     54  C   UNL     1      -8.304   1.884  -0.101  1.00  0.00     0.049 A 
ATOM     55  H   UNL     1      -9.473   3.498  -0.751  1.00  0.00     0.167 HD
ATOM     56  C   UNL     1     -11.390   6.594  -3.138  1.00  0.00     0.037 A 
ATOM     57  C   UNL     1      -9.119   0.802  -0.247  1.00  0.00     0.037 A 
ATOM     58  C   UNL     1     -12.112   6.657  -1.890  1.00  0.00     0.049 A 
ATOM     59  C   UNL     1     -10.500   1.319  -0.395  1.00  0.00     0.074 A 
ATOM     60  C   UNL     1     -12.130   7.536  -0.823  1.00  0.00     0.029 A 
ATOM     61  N   UNL     1     -12.684   5.499  -1.421  1.00  0.00    -0.354 N 
ATOM     62  N   UNL     1     -11.150   1.930   0.556  1.00  0.00    -0.248 NA
ATOM     63  C   UNL     1     -10.984   1.564  -1.744  1.00  0.00     0.031 C 
ATOM     64  C   UNL     1     -12.224   6.707   0.334  1.00  0.00     0.029 A 
ATOM     65  C   UNL     1     -12.346   5.386  -0.097  1.00  0.00     0.049 A 
ATOM     66  H   UNL     1     -13.234   4.868  -1.939  1.00  0.00     0.167 HD
ATOM     67  C   UNL     1     -11.817   2.961  -0.084  1.00  0.00     0.074 A 
ATOM     68  C   UNL     1     -11.749   2.632  -1.508  1.00  0.00     0.031 C 
ATOM     69  C   UNL     1     -12.110   4.124   0.568  1.00  0.00     0.037 A 
BRANCH  56  70
ATOM     70  C   UNL     1     -12.043   6.118  -4.422  1.00  0.00     0.058 A 
ATOM     71  C   UNL     1     -13.443   6.230  -4.568  1.00  0.00     0.135 A 
ATOM     72  C   UNL     1     -11.401   5.305  -5.385  1.00  0.00     0.135 A 
ATOM     73  F   UNL     1     -14.163   6.969  -3.709  1.00  0.00    -0.206 F 
ATOM     74  C   UNL     1     -14.155   5.525  -5.540  1.00  0.00     0.059 A 
ATOM     75  C   UNL     1     -12.086   4.639  -6.395  1.00  0.00     0.059 A 
ATOM     76  F   UNL     1     -10.093   5.032  -5.341  1.00  0.00    -0.206 F 
ATOM     77  C   UNL     1     -13.466   4.720  -6.441  1.00  0.00     0.060 A 
BRANCH  77  78
ATOM     78  S   UNL     1     -14.385   3.736  -7.636  1.00  0.00     0.124 S 
ATOM     79  O   UNL     1     -15.021   2.750  -6.771  1.00  0.00    -0.237 OA
ATOM     80  O   UNL     1     -15.268   4.733  -8.231  1.00  0.00    -0.237 OA
ATOM     81  O   UNL     1     -13.341   3.224  -8.520  1.00  0.00    -0.744 OA
ENDBRANCH  77  78
ENDBRANCH  56  70
BRANCH  57  82
ATOM     82  C   UNL     1      -8.763  -0.597  -0.617  1.00  0.00     0.058 A 
ATOM     83  C   UNL     1      -9.694  -1.650  -0.561  1.00  0.00     0.135 A 
ATOM     84  C   UNL     1      -7.586  -0.866  -1.332  1.00  0.00     0.135 A 
ATOM     85  F   UNL     1     -10.863  -1.480   0.075  1.00  0.00    -0.206 F 
ATOM     86  C   UNL     1      -9.489  -2.871  -1.221  1.00  0.00     0.059 A 
ATOM     87  C   UNL     1      -7.348  -2.075  -1.984  1.00  0.00     0.059 A 
ATOM     88  F   UNL     1      -6.676   0.098  -1.507  1.00  0.00    -0.206 F 
ATOM     89  C   UNL     1      -8.317  -3.067  -1.950  1.00  0.00     0.060 A 
BRANCH  89  90
ATOM     90  S   UNL     1      -8.118  -4.552  -2.965  1.00  0.00     0.124 S 
ATOM     91  O   UNL     1      -7.949  -5.589  -1.954  1.00  0.00    -0.237 OA
ATOM     92  O   UNL     1      -9.369  -4.585  -3.713  1.00  0.00    -0.237 OA
ATOM     93  O   UNL     1      -6.928  -4.259  -3.762  1.00  0.00    -0.744 OA
ENDBRANCH  89  90
ENDBRANCH  57  82
BRANCH  69  94
ATOM     94  C   UNL     1     -11.978   4.162   2.070  1.00  0.00     0.058 A 
ATOM     95  C   UNL     1     -10.775   3.991   2.781  1.00  0.00     0.135 A 
ATOM     96  C   UNL     1     -13.107   4.543   2.811  1.00  0.00     0.135 A 
ATOM     97  F   UNL     1      -9.627   3.723   2.145  1.00  0.00    -0.206 F 
ATOM     98  C   UNL     1     -10.710   4.157   4.167  1.00  0.00     0.059 A 
ATOM     99  C   UNL     1     -13.057   4.746   4.186  1.00  0.00     0.059 A 
ATOM    100  F   UNL     1     -14.273   4.777   2.186  1.00  0.00    -0.206 F 
ATOM    101  C   UNL     1     -11.857   4.539   4.862  1.00  0.00     0.060 A 
BRANCH 101 102
ATOM    102  S   UNL     1     -11.759   4.828   6.642  1.00  0.00     0.124 S 
ATOM    103  O   UNL     1     -11.583   3.477   7.163  1.00  0.00    -0.237 OA
ATOM    104  O   UNL     1     -10.601   5.708   6.758  1.00  0.00    -0.237 OA
ATOM    105  O   UNL     1     -13.041   5.455   6.957  1.00  0.00    -0.744 OA
ENDBRANCH 101 102
ENDBRANCH  69  94
ENDBRANCH  43  44
ENDBRANCH  35  38
ENDBRANCH  33  34
ENDBRANCH  32  33
ENDBRANCH  31  32
ENDBRANCH   1  31
TORSDOF 19
