REMARK SMILES CSc1ncc(Cl)c(C(=O)Nc2ccsc2C(=O)NCCCCNC(=O)c2ccc(-c3c4nc(c(-c5c(F)cc(S(=O)(=O)[O-])cc5F)c5ccc([nH]5)c(-c5c(F)cc(S(=O)(=O)[O-])cc5F)c5nc(c(-c6c(F)cc(S(=O)(=O)[O-])cc6F)c6ccc3[nH]6)C=C5)C=C4)cc2)n1
REMARK SMILES IDX 21 1 20 2 19 3 17 4 18 5 16 7 12 8 13 9 14 10 15 11 11 12
REMARK SMILES IDX 9 13 10 14 8 16 3 17 4 18 93 19 5 20 6 21 7 22 2 23 1 24
REMARK SMILES IDX 22 25 23 26 24 27 25 28 26 30 27 31 28 32 92 33 29 34 91 35
REMARK SMILES IDX 30 36 31 37 32 38 85 39 33 40 90 41 84 42 86 43 34 44 89 45
REMARK SMILES IDX 83 46 82 47 35 49 69 50 48 51 68 52 49 53 52 54 67 55 87 56
REMARK SMILES IDX 50 57 51 58 66 60 88 61 53 62 36 63 37 64 46 65 38 66 39 67
REMARK SMILES IDX 45 68 47 69 40 70 41 71 42 72 43 73 44 74 70 75 71 76 80 77
REMARK SMILES IDX 72 78 73 79 79 80 81 81 74 82 75 83 76 84 77 85 78 86 54 87
REMARK SMILES IDX 55 88 64 89 56 90 57 91 63 92 65 93 58 94 59 95 60 96 61 97
REMARK SMILES IDX 62 98
REMARK H PARENT 19 6 11 15 24 29 86 48 52 59
REMARK Flexibility Score: inf
ROOT
ATOM      1  C   UNL     1       2.241   2.630  -8.579  1.00  0.00     0.023 C 
ENDROOT
BRANCH   1   2
ATOM      2  C   UNL     1       2.904   3.679  -7.698  1.00  0.00     0.116 C 
BRANCH   2   3
ATOM      3  N   UNL     1       2.840   5.057  -8.118  1.00  0.00    -0.351 N 
ATOM      4  C   UNL     1       2.969   6.242  -7.411  1.00  0.00     0.263 C 
ATOM      5  O   UNL     1       2.929   7.246  -8.133  1.00  0.00    -0.268 OA
ATOM      6  H   UNL     1       2.676   5.178  -9.081  1.00  0.00     0.163 HD
BRANCH   4   7
ATOM      7  C   UNL     1       3.084   6.343  -5.940  1.00  0.00     0.115 A 
ATOM      8  C   UNL     1       3.401   5.482  -4.889  1.00  0.00     0.065 A 
ATOM      9  C   UNL     1       3.221   6.068  -3.597  1.00  0.00     0.038 A 
ATOM     10  C   UNL     1       2.795   7.370  -3.668  1.00  0.00     0.068 A 
ATOM     11  S   UNL     1       2.625   7.892  -5.277  1.00  0.00    -0.137 S 
BRANCH   8  12
ATOM     12  N   UNL     1       3.873   4.202  -5.051  1.00  0.00    -0.319 N 
ATOM     13  C   UNL     1       3.397   3.009  -4.544  1.00  0.00     0.276 C 
ATOM     14  O   UNL     1       4.006   1.995  -4.906  1.00  0.00    -0.267 OA
ATOM     15  H   UNL     1       4.675   4.123  -5.617  1.00  0.00     0.170 HD
BRANCH  13  16
ATOM     16  C   UNL     1       2.180   2.839  -3.673  1.00  0.00     0.151 A 
ATOM     17  C   UNL     1       1.281   1.395  -2.105  1.00  0.00     0.188 A 
ATOM     18  N   UNL     1       0.168   2.122  -1.960  1.00  0.00    -0.230 NA
ATOM     19  N   UNL     1       2.322   1.755  -2.859  1.00  0.00    -0.216 NA
ATOM     20  C   UNL     1       0.049   3.178  -2.788  1.00  0.00     0.137 A 
ATOM     21  C   UNL     1       0.985   3.534  -3.738  1.00  0.00     0.090 A 
ATOM     22  Cl  UNL     1       0.438   4.605  -4.960  1.00  0.00    -0.080 Cl
BRANCH  17  23
ATOM     23  S   UNL     1       1.246  -0.276  -1.524  1.00  0.00    -0.090 SA
ATOM     24  C   UNL     1       1.257   0.038   0.244  1.00  0.00     0.094 C 
ENDBRANCH  17  23
ENDBRANCH  13  16
ENDBRANCH   8  12
ENDBRANCH   4   7
ENDBRANCH   2   3
ENDBRANCH   1   2
BRANCH   1  25
ATOM     25  C   UNL     1       2.759   2.480 -10.001  1.00  0.00     0.023 C 
BRANCH  25  26
ATOM     26  C   UNL     1       4.271   2.451 -10.180  1.00  0.00     0.116 C 
BRANCH  26  27
ATOM     27  N   UNL     1       4.938   1.340  -9.514  1.00  0.00    -0.352 N 
ATOM     28  C   UNL     1       5.679   0.302 -10.038  1.00  0.00     0.251 C 
ATOM     29  H   UNL     1       4.846   1.329  -8.534  1.00  0.00     0.163 HD
ATOM     30  O   UNL     1       6.126  -0.565  -9.291  1.00  0.00    -0.269 OA
BRANCH  28  31
ATOM     31  C   UNL     1       5.894   0.190 -11.498  1.00  0.00     0.039 A 
ATOM     32  C   UNL     1       5.683  -1.046 -12.117  1.00  0.00     0.014 A 
ATOM     33  C   UNL     1       6.266   1.295 -12.265  1.00  0.00     0.014 A 
ATOM     34  C   UNL     1       5.732  -1.144 -13.510  1.00  0.00     0.010 A 
ATOM     35  C   UNL     1       6.216   1.219 -13.655  1.00  0.00     0.010 A 
ATOM     36  C   UNL     1       5.939   0.002 -14.295  1.00  0.00    -0.014 A 
BRANCH  36  37
ATOM     37  C   UNL     1       5.851  -0.044 -15.780  1.00  0.00     0.031 A 
ATOM     38  C   UNL     1       7.038   0.342 -16.621  1.00  0.00     0.074 A 
ATOM     39  C   UNL     1       4.677  -0.348 -16.372  1.00  0.00     0.049 A 
ATOM     40  N   UNL     1       7.126   0.464 -17.921  1.00  0.00    -0.248 NA
ATOM     41  C   UNL     1       8.283   0.665 -15.904  1.00  0.00     0.031 C 
ATOM     42  C   UNL     1       3.434  -0.682 -15.672  1.00  0.00     0.029 A 
ATOM     43  N   UNL     1       4.331  -0.412 -17.700  1.00  0.00    -0.354 N 
ATOM     44  C   UNL     1       8.422   0.897 -18.174  1.00  0.00     0.074 A 
ATOM     45  C   UNL     1       9.068   1.070 -16.892  1.00  0.00     0.031 C 
ATOM     46  C   UNL     1       2.473  -0.940 -16.574  1.00  0.00     0.029 A 
ATOM     47  C   UNL     1       3.015  -0.750 -17.915  1.00  0.00     0.049 A 
ATOM     48  H   UNL     1       4.967  -0.233 -18.431  1.00  0.00     0.167 HD
ATOM     49  C   UNL     1       9.029   1.107 -19.367  1.00  0.00     0.037 A 
ATOM     50  C   UNL     1       2.319  -0.884 -19.061  1.00  0.00     0.037 A 
ATOM     51  C   UNL     1       8.395   0.898 -20.642  1.00  0.00     0.049 A 
ATOM     52  C   UNL     1       3.018  -0.659 -20.375  1.00  0.00     0.074 A 
ATOM     53  C   UNL     1       8.945   1.020 -21.907  1.00  0.00     0.029 A 
ATOM     54  N   UNL     1       7.071   0.522 -20.817  1.00  0.00    -0.354 N 
ATOM     55  N   UNL     1       4.264  -0.311 -20.596  1.00  0.00    -0.248 NA
ATOM     56  C   UNL     1       2.222  -0.851 -21.595  1.00  0.00     0.031 C 
ATOM     57  C   UNL     1       7.943   0.756 -22.847  1.00  0.00     0.029 A 
ATOM     58  C   UNL     1       6.781   0.424 -22.168  1.00  0.00     0.049 A 
ATOM     59  H   UNL     1       6.432   0.351 -20.088  1.00  0.00     0.167 HD
ATOM     60  C   UNL     1       4.407  -0.269 -21.979  1.00  0.00     0.074 A 
ATOM     61  C   UNL     1       3.124  -0.638 -22.543  1.00  0.00     0.031 C 
ATOM     62  C   UNL     1       5.502   0.046 -22.714  1.00  0.00     0.037 A 
BRANCH  49  63
ATOM     63  C   UNL     1      10.459   1.576 -19.348  1.00  0.00     0.058 A 
ATOM     64  C   UNL     1      11.505   0.734 -18.937  1.00  0.00     0.135 A 
ATOM     65  C   UNL     1      10.792   2.873 -19.771  1.00  0.00     0.135 A 
ATOM     66  F   UNL     1      11.242  -0.511 -18.507  1.00  0.00    -0.206 F 
ATOM     67  C   UNL     1      12.825   1.170 -18.914  1.00  0.00     0.059 A 
ATOM     68  C   UNL     1      12.110   3.321 -19.785  1.00  0.00     0.059 A 
ATOM     69  F   UNL     1       9.832   3.720 -20.175  1.00  0.00    -0.206 F 
ATOM     70  C   UNL     1      13.118   2.467 -19.338  1.00  0.00     0.060 A 
BRANCH  70  71
ATOM     71  S   UNL     1      14.836   3.018 -19.304  1.00  0.00     0.124 S 
ATOM     72  O   UNL     1      15.052   3.206 -17.873  1.00  0.00    -0.237 OA
ATOM     73  O   UNL     1      15.539   1.889 -19.907  1.00  0.00    -0.237 OA
ATOM     74  O   UNL     1      14.819   4.239 -20.102  1.00  0.00    -0.744 OA
ENDBRANCH  70  71
ENDBRANCH  49  63
BRANCH  50  75
ATOM     75  C   UNL     1       0.884  -1.275 -19.020  1.00  0.00     0.058 A 
ATOM     76  C   UNL     1       0.472  -2.549 -19.442  1.00  0.00     0.135 A 
ATOM     77  C   UNL     1      -0.102  -0.394 -18.551  1.00  0.00     0.135 A 
ATOM     78  F   UNL     1       1.376  -3.425 -19.907  1.00  0.00    -0.206 F 
ATOM     79  C   UNL     1      -0.866  -2.929 -19.417  1.00  0.00     0.059 A 
ATOM     80  C   UNL     1      -1.443  -0.760 -18.492  1.00  0.00     0.059 A 
ATOM     81  F   UNL     1       0.241   0.831 -18.120  1.00  0.00    -0.206 F 
ATOM     82  C   UNL     1      -1.817  -2.027 -18.937  1.00  0.00     0.060 A 
BRANCH  82  83
ATOM     83  S   UNL     1      -3.545  -2.548 -18.863  1.00  0.00     0.124 S 
ATOM     84  O   UNL     1      -3.923  -2.512 -20.271  1.00  0.00    -0.237 OA
ATOM     85  O   UNL     1      -3.440  -3.875 -18.263  1.00  0.00    -0.237 OA
ATOM     86  O   UNL     1      -4.164  -1.533 -18.016  1.00  0.00    -0.744 OA
ENDBRANCH  82  83
ENDBRANCH  50  75
BRANCH  62  87
ATOM     87  C   UNL     1       5.376  -0.029 -24.211  1.00  0.00     0.058 A 
ATOM     88  C   UNL     1       4.660   0.932 -24.941  1.00  0.00     0.135 A 
ATOM     89  C   UNL     1       6.029  -1.046 -24.927  1.00  0.00     0.135 A 
ATOM     90  F   UNL     1       4.013   1.920 -24.303  1.00  0.00    -0.206 F 
ATOM     91  C   UNL     1       4.579   0.876 -26.328  1.00  0.00     0.059 A 
ATOM     92  C   UNL     1       5.983  -1.105 -26.316  1.00  0.00     0.059 A 
ATOM     93  F   UNL     1       6.736  -1.984 -24.277  1.00  0.00    -0.206 F 
ATOM     94  C   UNL     1       5.246  -0.145 -27.008  1.00  0.00     0.060 A 
BRANCH  94  95
ATOM     95  S   UNL     1       5.163  -0.184 -28.811  1.00  0.00     0.124 S 
ATOM     96  O   UNL     1       3.804  -0.666 -29.032  1.00  0.00    -0.237 OA
ATOM     97  O   UNL     1       5.407   1.210 -29.166  1.00  0.00    -0.237 OA
ATOM     98  O   UNL     1       6.227  -1.113 -29.179  1.00  0.00    -0.744 OA
ENDBRANCH  94  95
ENDBRANCH  62  87
ENDBRANCH  36  37
ENDBRANCH  28  31
ENDBRANCH  26  27
ENDBRANCH  25  26
ENDBRANCH   1  25
TORSDOF 17
