REMARK SMILES CCC1(CC)CC[NH+]([C@@H]2CC[C@@]([NH3+])(C(=O)NCCCCNC(=O)c3ccc(-c4c5nc(c(-c6c(F)cc(S(=O)(=O)[O-])cc6F)c6ccc([nH]6)c(-c6c(F)cc(S(=O)(=O)[O-])cc6F)c6nc(c(-c7c(F)cc(S(=O)(=O)[O-])cc7F)c7ccc4[nH]7)C=C6)C=C5)cc3)C2)CC1
REMARK SMILES IDX 19 1 18 2 17 3 16 4 14 5 15 6 12 8 9 9 10 10 90 11 11 12
REMARK SMILES IDX 8 13 3 14 6 15 92 16 7 17 91 18 2 20 1 21 4 22 5 23 13 24
REMARK SMILES IDX 20 28 21 29 22 30 23 32 24 33 25 34 89 35 26 36 88 37 27 38
REMARK SMILES IDX 28 39 29 40 82 41 30 42 87 43 81 44 83 45 31 46 86 47 80 48
REMARK SMILES IDX 79 49 32 51 66 52 45 53 65 54 46 55 49 56 64 57 84 58 47 59
REMARK SMILES IDX 48 60 63 62 85 63 50 64 33 65 34 66 43 67 35 68 36 69 42 70
REMARK SMILES IDX 44 71 37 72 38 73 39 74 40 75 41 76 67 77 68 78 77 79 69 80
REMARK SMILES IDX 70 81 76 82 78 83 71 84 72 85 73 86 74 87 75 88 51 89 52 90
REMARK SMILES IDX 61 91 53 92 54 93 60 94 62 95 55 96 56 97 57 98 58 99 59 100
REMARK H PARENT 16 7 8 19 13 25 13 26 13 27 21 31 83 50 49 61
REMARK Flexibility Score: inf
ROOT
ATOM      1  C   UNL     1      -7.448   8.572  -1.394  1.00  0.00     0.023 C 
ENDROOT
BRANCH   1   2
ATOM      2  C   UNL     1      -7.136   7.079  -1.307  1.00  0.00     0.023 C 
BRANCH   2   3
ATOM      3  C   UNL     1      -6.959   6.387  -2.658  1.00  0.00     0.116 C 
BRANCH   3   4
ATOM      4  N   UNL     1      -5.770   6.860  -3.345  1.00  0.00    -0.351 N 
ATOM      5  C   UNL     1      -4.651   6.172  -3.724  1.00  0.00     0.281 C 
ATOM      6  O   UNL     1      -3.775   6.796  -4.327  1.00  0.00    -0.268 OA
ATOM      7  H   UNL     1      -5.769   7.819  -3.570  1.00  0.00     0.163 HD
BRANCH   5   8
ATOM      8  C   UNL     1      -4.523   4.647  -3.427  1.00  0.00     0.179 C 
ATOM      9  C   UNL     1      -2.180   4.401  -2.828  1.00  0.00     0.191 C 
ATOM     10  C   UNL     1      -2.996   4.405  -1.523  1.00  0.00     0.072 C 
ATOM     11  C   UNL     1      -3.194   4.062  -3.933  1.00  0.00     0.144 C 
ATOM     12  C   UNL     1      -4.469   4.351  -1.923  1.00  0.00     0.085 C 
BRANCH   9  13
ATOM     13  N   UNL     1      -0.946   3.589  -2.819  1.00  0.00    -0.332 N 
ATOM     14  C   UNL     1       1.172   1.786  -1.696  1.00  0.00    -0.020 C 
ATOM     15  C   UNL     1       1.324   3.323  -1.820  1.00  0.00     0.068 C 
ATOM     16  C   UNL     1       0.145   1.352  -2.770  1.00  0.00     0.068 C 
ATOM     17  C   UNL     1      -0.013   4.070  -1.788  1.00  0.00     0.263 C 
ATOM     18  C   UNL     1      -1.167   2.142  -2.722  1.00  0.00     0.263 C 
ATOM     19  H   UNL     1      -0.521   3.722  -3.737  1.00  0.00     0.348 HD
BRANCH  14  20
ATOM     20  C   UNL     1       0.677   1.422  -0.261  1.00  0.00     0.004 C 
ATOM     21  C   UNL     1       0.654  -0.066   0.078  1.00  0.00     0.004 C 
ENDBRANCH  14  20
BRANCH  14  22
ATOM     22  C   UNL     1       2.525   1.095  -2.033  1.00  0.00     0.004 C 
ATOM     23  C   UNL     1       3.690   1.450  -1.117  1.00  0.00     0.004 C 
ENDBRANCH  14  22
ENDBRANCH   9  13
BRANCH   8  24
ATOM     24  N   UNL     1      -5.648   3.948  -4.093  1.00  0.00    -0.345 N 
ATOM     25  H   UNL     1      -6.532   4.333  -3.761  1.00  0.00     0.345 HD
ATOM     26  H   UNL     1      -5.606   2.953  -3.876  1.00  0.00     0.345 HD
ATOM     27  H   UNL     1      -5.579   4.079  -5.103  1.00  0.00     0.345 HD
ENDBRANCH   8  24
ENDBRANCH   5   8
ENDBRANCH   3   4
ENDBRANCH   2   3
ENDBRANCH   1   2
BRANCH   1  28
ATOM     28  C   UNL     1      -8.664   8.929  -2.240  1.00  0.00     0.116 C 
BRANCH  28  29
ATOM     29  N   UNL     1      -9.882   8.275  -1.784  1.00  0.00    -0.352 N 
ATOM     30  C   UNL     1     -11.126   8.820  -1.574  1.00  0.00     0.251 C 
ATOM     31  H   UNL     1      -9.804   7.311  -1.602  1.00  0.00     0.163 HD
ATOM     32  O   UNL     1     -12.012   8.150  -1.051  1.00  0.00    -0.269 OA
BRANCH  30  33
ATOM     33  C   UNL     1     -11.375  10.226  -1.950  1.00  0.00     0.039 A 
ATOM     34  C   UNL     1     -11.978  11.078  -1.022  1.00  0.00     0.014 A 
ATOM     35  C   UNL     1     -10.977  10.709  -3.200  1.00  0.00     0.014 A 
ATOM     36  C   UNL     1     -12.113  12.436  -1.321  1.00  0.00     0.010 A 
ATOM     37  C   UNL     1     -11.048  12.073  -3.466  1.00  0.00     0.010 A 
ATOM     38  C   UNL     1     -11.610  12.951  -2.527  1.00  0.00    -0.014 A 
BRANCH  38  39
ATOM     39  C   UNL     1     -11.645  14.406  -2.820  1.00  0.00     0.031 A 
ATOM     40  C   UNL     1     -12.450  14.922  -3.981  1.00  0.00     0.074 A 
ATOM     41  C   UNL     1     -10.890  15.250  -2.090  1.00  0.00     0.049 A 
ATOM     42  N   UNL     1     -12.532  16.140  -4.451  1.00  0.00    -0.248 NA
ATOM     43  C   UNL     1     -13.247  13.935  -4.728  1.00  0.00     0.031 C 
ATOM     44  C   UNL     1     -10.027  14.862  -0.971  1.00  0.00     0.029 A 
ATOM     45  N   UNL     1     -10.712  16.607  -2.188  1.00  0.00    -0.354 N 
ATOM     46  C   UNL     1     -13.373  16.063  -5.555  1.00  0.00     0.074 A 
ATOM     47  C   UNL     1     -13.738  14.672  -5.713  1.00  0.00     0.031 C 
ATOM     48  C   UNL     1      -9.425  15.956  -0.477  1.00  0.00     0.029 A 
ATOM     49  C   UNL     1      -9.826  17.117  -1.266  1.00  0.00     0.049 A 
ATOM     50  H   UNL     1     -11.174  17.164  -2.855  1.00  0.00     0.167 HD
ATOM     51  C   UNL     1     -13.818  17.065  -6.351  1.00  0.00     0.037 A 
ATOM     52  C   UNL     1      -9.378  18.375  -1.086  1.00  0.00     0.037 A 
ATOM     53  C   UNL     1     -13.472  18.451  -6.171  1.00  0.00     0.049 A 
ATOM     54  C   UNL     1      -9.889  19.470  -1.982  1.00  0.00     0.074 A 
ATOM     55  C   UNL     1     -13.920  19.549  -6.886  1.00  0.00     0.029 A 
ATOM     56  N   UNL     1     -12.594  18.931  -5.211  1.00  0.00    -0.354 N 
ATOM     57  N   UNL     1     -10.734  19.389  -2.982  1.00  0.00    -0.248 NA
ATOM     58  C   UNL     1      -9.389  20.828  -1.724  1.00  0.00     0.031 C 
ATOM     59  C   UNL     1     -13.281  20.688  -6.384  1.00  0.00     0.029 A 
ATOM     60  C   UNL     1     -12.471  20.306  -5.326  1.00  0.00     0.049 A 
ATOM     61  H   UNL     1     -12.127  18.377  -4.545  1.00  0.00     0.167 HD
ATOM     62  C   UNL     1     -10.886  20.688  -3.456  1.00  0.00     0.074 A 
ATOM     63  C   UNL     1     -10.056  21.535  -2.625  1.00  0.00     0.031 C 
ATOM     64  C   UNL     1     -11.645  21.137  -4.487  1.00  0.00     0.037 A 
BRANCH  51  65
ATOM     65  C   UNL     1     -14.734  16.700  -7.486  1.00  0.00     0.058 A 
ATOM     66  C   UNL     1     -16.057  16.286  -7.260  1.00  0.00     0.135 A 
ATOM     67  C   UNL     1     -14.299  16.803  -8.817  1.00  0.00     0.135 A 
ATOM     68  F   UNL     1     -16.519  16.155  -6.007  1.00  0.00    -0.206 F 
ATOM     69  C   UNL     1     -16.907  15.963  -8.312  1.00  0.00     0.059 A 
ATOM     70  C   UNL     1     -15.141  16.510  -9.886  1.00  0.00     0.059 A 
ATOM     71  F   UNL     1     -13.043  17.192  -9.090  1.00  0.00    -0.206 F 
ATOM     72  C   UNL     1     -16.440  16.078  -9.622  1.00  0.00     0.060 A 
BRANCH  72  73
ATOM     73  S   UNL     1     -17.561  15.665 -10.976  1.00  0.00     0.124 S 
ATOM     74  O   UNL     1     -17.602  14.209 -10.885  1.00  0.00    -0.237 OA
ATOM     75  O   UNL     1     -18.787  16.358 -10.589  1.00  0.00    -0.237 OA
ATOM     76  O   UNL     1     -16.886  16.203 -12.153  1.00  0.00    -0.744 OA
ENDBRANCH  72  73
ENDBRANCH  51  65
BRANCH  52  77
ATOM     77  C   UNL     1      -8.403  18.669  -0.002  1.00  0.00     0.058 A 
ATOM     78  C   UNL     1      -8.787  19.396   1.135  1.00  0.00     0.135 A 
ATOM     79  C   UNL     1      -7.074  18.224  -0.076  1.00  0.00     0.135 A 
ATOM     80  F   UNL     1     -10.045  19.848   1.248  1.00  0.00    -0.206 F 
ATOM     81  C   UNL     1      -7.884  19.688   2.152  1.00  0.00     0.059 A 
ATOM     82  C   UNL     1      -6.159  18.481   0.941  1.00  0.00     0.059 A 
ATOM     83  F   UNL     1      -6.662  17.509  -1.134  1.00  0.00    -0.206 F 
ATOM     84  C   UNL     1      -6.572  19.225   2.046  1.00  0.00     0.060 A 
BRANCH  84  85
ATOM     85  S   UNL     1      -5.419  19.570   3.393  1.00  0.00     0.124 S 
ATOM     86  O   UNL     1      -5.139  20.986   3.184  1.00  0.00    -0.237 OA
ATOM     87  O   UNL     1      -6.216  19.243   4.571  1.00  0.00    -0.237 OA
ATOM     88  O   UNL     1      -4.309  18.660   3.126  1.00  0.00    -0.744 OA
ENDBRANCH  84  85
ENDBRANCH  52  77
BRANCH  64  89
ATOM     89  C   UNL     1     -11.638  22.616  -4.756  1.00  0.00     0.058 A 
ATOM     90  C   UNL     1     -10.534  23.253  -5.341  1.00  0.00     0.135 A 
ATOM     91  C   UNL     1     -12.771  23.395  -4.470  1.00  0.00     0.135 A 
ATOM     92  F   UNL     1      -9.424  22.555  -5.628  1.00  0.00    -0.206 F 
ATOM     93  C   UNL     1     -10.543  24.617  -5.614  1.00  0.00     0.059 A 
ATOM     94  C   UNL     1     -12.812  24.755  -4.758  1.00  0.00     0.059 A 
ATOM     95  F   UNL     1     -13.857  22.832  -3.918  1.00  0.00    -0.206 F 
ATOM     96  C   UNL     1     -11.689  25.360  -5.320  1.00  0.00     0.060 A 
BRANCH  96  97
ATOM     97  S   UNL     1     -11.702  27.123  -5.709  1.00  0.00     0.124 S 
ATOM     98  O   UNL     1     -10.856  27.664  -4.650  1.00  0.00    -0.237 OA
ATOM     99  O   UNL     1     -11.133  27.152  -7.053  1.00  0.00    -0.237 OA
ATOM    100  O   UNL     1     -13.116  27.478  -5.627  1.00  0.00    -0.744 OA
ENDBRANCH  96  97
ENDBRANCH  64  89
ENDBRANCH  38  39
ENDBRANCH  30  33
ENDBRANCH  28  29
ENDBRANCH   1  28
TORSDOF 18
