REMARK SMILES CCC(CC)COc1cc2c(cc1Cl)C=C(C(=O)NCCCCNC(=O)c1ccc(-c3c4nc(c(-c5c(F)cc(S(=O)(=O)[O-])cc5F)c5ccc([nH]5)c(-c5c(F)cc(S(=O)(=O)[O-])cc5F)c5nc(c(-c6c(F)cc(S(=O)(=O)[O-])cc6F)c6ccc3[nH]6)C=C5)C=C4)cc1)[C@@H](C(F)(F)F)O2
REMARK SMILES IDX 21 1 20 2 19 3 17 4 18 5 16 7 8 8 9 9 13 10 10 11 12 12
REMARK SMILES IDX 14 13 11 14 98 15 15 16 93 17 7 18 6 19 3 20 2 21 1 22 4 23
REMARK SMILES IDX 5 24 94 25 95 26 96 27 97 28 22 29 23 30 24 31 25 32 26 34
REMARK SMILES IDX 27 35 28 36 92 37 29 38 91 39 30 40 31 41 32 42 85 43 33 44
REMARK SMILES IDX 90 45 84 46 86 47 34 48 89 49 83 50 82 51 35 53 69 54 48 55
REMARK SMILES IDX 68 56 49 57 52 58 67 59 87 60 50 61 51 62 66 64 88 65 53 66
REMARK SMILES IDX 36 67 37 68 46 69 38 70 39 71 45 72 47 73 40 74 41 75 42 76
REMARK SMILES IDX 43 77 44 78 70 79 71 80 80 81 72 82 73 83 79 84 81 85 74 86
REMARK SMILES IDX 75 87 76 88 77 89 78 90 54 91 55 92 64 93 56 94 57 95 63 96
REMARK SMILES IDX 65 97 58 98 59 99 60 100 61 101 62 102
REMARK H PARENT 19 6 24 33 86 52 52 63
REMARK Flexibility Score: inf
ROOT
ATOM      1  C   UNL     1      -4.190   0.990   9.454  1.00  0.00     0.023 C 
ENDROOT
BRANCH   1   2
ATOM      2  C   UNL     1      -2.760   0.455   9.500  1.00  0.00     0.116 C 
BRANCH   2   3
ATOM      3  N   UNL     1      -2.578  -0.679   8.613  1.00  0.00    -0.352 N 
ATOM      4  C   UNL     1      -1.894  -0.923   7.471  1.00  0.00     0.251 C 
ATOM      5  O   UNL     1      -1.950  -2.083   7.051  1.00  0.00    -0.270 OA
ATOM      6  H   UNL     1      -3.078  -1.470   8.919  1.00  0.00     0.163 HD
BRANCH   4   7
ATOM      7  C   UNL     1      -1.125   0.094   6.702  1.00  0.00     0.067 C 
ATOM      8  C   UNL     1       1.268   2.409   2.958  1.00  0.00     0.141 A 
ATOM      9  C   UNL     1       0.258   2.802   3.835  1.00  0.00     0.095 A 
ATOM     10  C   UNL     1       1.901   1.168   3.122  1.00  0.00     0.083 A 
ATOM     11  C   UNL     1      -0.192   1.899   4.790  1.00  0.00     0.131 A 
ATOM     12  C   UNL     1       1.387   0.238   4.027  1.00  0.00     0.036 A 
ATOM     13  Cl  UNL     1       3.264   0.714   2.165  1.00  0.00    -0.080 Cl
ATOM     14  C   UNL     1       0.312   0.593   4.839  1.00  0.00     0.019 A 
ATOM     15  O   UNL     1      -1.160   2.328   5.662  1.00  0.00    -0.475 OA
ATOM     16  C   UNL     1      -0.355  -0.377   5.702  1.00  0.00     0.025 C 
ATOM     17  C   UNL     1      -1.189   1.580   6.918  1.00  0.00     0.314 C 
BRANCH   8  18
ATOM     18  O   UNL     1       1.639   3.242   1.936  1.00  0.00    -0.492 OA
BRANCH  18  19
ATOM     19  C   UNL     1       0.633   3.329   0.902  1.00  0.00     0.233 C 
BRANCH  19  20
ATOM     20  C   UNL     1       0.852   2.253  -0.190  1.00  0.00     0.026 C 
BRANCH  20  21
ATOM     21  C   UNL     1       0.120   0.933   0.151  1.00  0.00     0.003 C 
ATOM     22  C   UNL     1       0.655  -0.258  -0.632  1.00  0.00     0.004 C 
ENDBRANCH  20  21
BRANCH  20  23
ATOM     23  C   UNL     1       0.464   2.780  -1.589  1.00  0.00     0.003 C 
ATOM     24  C   UNL     1      -1.022   3.037  -1.803  1.00  0.00     0.004 C 
ENDBRANCH  20  23
ENDBRANCH  19  20
ENDBRANCH  18  19
ENDBRANCH   8  18
BRANCH  17  25
ATOM     25  C   UNL     1      -0.079   2.073   7.877  1.00  0.00     0.429 C 
ATOM     26  F   UNL     1      -0.377   3.306   8.355  1.00  0.00    -0.167 F 
ATOM     27  F   UNL     1       0.066   1.263   8.954  1.00  0.00    -0.167 F 
ATOM     28  F   UNL     1       1.138   2.152   7.293  1.00  0.00    -0.167 F 
ENDBRANCH  17  25
ENDBRANCH   4   7
ENDBRANCH   2   3
ENDBRANCH   1   2
BRANCH   1  29
ATOM     29  C   UNL     1      -5.165   0.270  10.387  1.00  0.00     0.023 C 
BRANCH  29  30
ATOM     30  C   UNL     1      -4.773   0.263  11.862  1.00  0.00     0.116 C 
BRANCH  30  31
ATOM     31  N   UNL     1      -4.505   1.581  12.422  1.00  0.00    -0.352 N 
ATOM     32  C   UNL     1      -4.545   1.955  13.752  1.00  0.00     0.251 C 
ATOM     33  H   UNL     1      -4.267   2.287  11.779  1.00  0.00     0.163 HD
ATOM     34  O   UNL     1      -4.371   3.115  14.083  1.00  0.00    -0.269 OA
BRANCH  32  35
ATOM     35  C   UNL     1      -4.870   0.917  14.755  1.00  0.00     0.039 A 
ATOM     36  C   UNL     1      -4.160  -0.282  14.771  1.00  0.00     0.014 A 
ATOM     37  C   UNL     1      -5.976   1.101  15.589  1.00  0.00     0.014 A 
ATOM     38  C   UNL     1      -4.676  -1.367  15.467  1.00  0.00     0.010 A 
ATOM     39  C   UNL     1      -6.442   0.030  16.357  1.00  0.00     0.010 A 
ATOM     40  C   UNL     1      -5.839  -1.232  16.245  1.00  0.00    -0.014 A 
BRANCH  40  41
ATOM     41  C   UNL     1      -6.429  -2.445  16.871  1.00  0.00     0.031 A 
ATOM     42  C   UNL     1      -7.774  -2.962  16.424  1.00  0.00     0.074 A 
ATOM     43  C   UNL     1      -5.704  -3.141  17.768  1.00  0.00     0.049 A 
ATOM     44  N   UNL     1      -8.405  -4.046  16.801  1.00  0.00    -0.248 NA
ATOM     45  C   UNL     1      -8.508  -2.163  15.430  1.00  0.00     0.031 C 
ATOM     46  C   UNL     1      -4.384  -2.749  18.267  1.00  0.00     0.029 A 
ATOM     47  N   UNL     1      -5.949  -4.341  18.384  1.00  0.00    -0.354 N 
ATOM     48  C   UNL     1      -9.610  -4.049  16.108  1.00  0.00     0.074 A 
ATOM     49  C   UNL     1      -9.639  -2.844  15.309  1.00  0.00     0.031 C 
ATOM     50  C   UNL     1      -3.905  -3.724  19.054  1.00  0.00     0.029 A 
ATOM     51  C   UNL     1      -4.905  -4.781  19.163  1.00  0.00     0.049 A 
ATOM     52  H   UNL     1      -6.792  -4.839  18.280  1.00  0.00     0.167 HD
ATOM     53  C   UNL     1     -10.595  -4.979  16.121  1.00  0.00     0.037 A 
ATOM     54  C   UNL     1      -4.766  -5.908  19.886  1.00  0.00     0.037 A 
ATOM     55  C   UNL     1     -10.549  -6.196  16.888  1.00  0.00     0.049 A 
ATOM     56  C   UNL     1      -5.888  -6.906  19.913  1.00  0.00     0.074 A 
ATOM     57  C   UNL     1     -11.484  -7.216  16.941  1.00  0.00     0.029 A 
ATOM     58  N   UNL     1      -9.511  -6.561  17.732  1.00  0.00    -0.354 N 
ATOM     59  N   UNL     1      -7.018  -6.889  19.250  1.00  0.00    -0.248 NA
ATOM     60  C   UNL     1      -5.725  -8.063  20.804  1.00  0.00     0.031 C 
ATOM     61  C   UNL     1     -11.027  -8.181  17.844  1.00  0.00     0.029 A 
ATOM     62  C   UNL     1      -9.793  -7.779  18.329  1.00  0.00     0.049 A 
ATOM     63  H   UNL     1      -8.694  -6.034  17.884  1.00  0.00     0.167 HD
ATOM     64  C   UNL     1      -7.708  -8.028  19.649  1.00  0.00     0.074 A 
ATOM     65  C   UNL     1      -6.855  -8.726  20.589  1.00  0.00     0.031 C 
ATOM     66  C   UNL     1      -8.941  -8.450  19.277  1.00  0.00     0.037 A 
BRANCH  53  67
ATOM     67  C   UNL     1     -11.816  -4.719  15.282  1.00  0.00     0.058 A 
ATOM     68  C   UNL     1     -11.791  -4.860  13.886  1.00  0.00     0.135 A 
ATOM     69  C   UNL     1     -13.036  -4.373  15.885  1.00  0.00     0.135 A 
ATOM     70  F   UNL     1     -10.646  -5.173  13.258  1.00  0.00    -0.206 F 
ATOM     71  C   UNL     1     -12.929  -4.646  13.114  1.00  0.00     0.059 A 
ATOM     72  C   UNL     1     -14.191  -4.174  15.134  1.00  0.00     0.059 A 
ATOM     73  F   UNL     1     -13.113  -4.225  17.217  1.00  0.00    -0.206 F 
ATOM     74  C   UNL     1     -14.124  -4.302  13.748  1.00  0.00     0.060 A 
BRANCH  74  75
ATOM     75  S   UNL     1     -15.591  -4.029  12.730  1.00  0.00     0.124 S 
ATOM     76  O   UNL     1     -15.276  -2.747  12.106  1.00  0.00    -0.237 OA
ATOM     77  O   UNL     1     -15.573  -5.186  11.840  1.00  0.00    -0.237 OA
ATOM     78  O   UNL     1     -16.680  -4.004  13.701  1.00  0.00    -0.744 OA
ENDBRANCH  74  75
ENDBRANCH  53  67
BRANCH  54  79
ATOM     79  C   UNL     1      -3.511  -6.142  20.644  1.00  0.00     0.058 A 
ATOM     80  C   UNL     1      -2.589  -7.112  20.227  1.00  0.00     0.135 A 
ATOM     81  C   UNL     1      -3.189  -5.370  21.771  1.00  0.00     0.135 A 
ATOM     82  F   UNL     1      -2.857  -7.878  19.160  1.00  0.00    -0.206 F 
ATOM     83  C   UNL     1      -1.386  -7.306  20.899  1.00  0.00     0.059 A 
ATOM     84  C   UNL     1      -1.984  -5.530  22.445  1.00  0.00     0.059 A 
ATOM     85  F   UNL     1      -4.036  -4.421  22.200  1.00  0.00    -0.206 F 
ATOM     86  C   UNL     1      -1.090  -6.504  22.003  1.00  0.00     0.060 A 
BRANCH  86  87
ATOM     87  S   UNL     1       0.506  -6.712  22.823  1.00  0.00     0.124 S 
ATOM     88  O   UNL     1       0.302  -7.959  23.549  1.00  0.00    -0.237 OA
ATOM     89  O   UNL     1       1.426  -6.774  21.691  1.00  0.00    -0.237 OA
ATOM     90  O   UNL     1       0.618  -5.511  23.645  1.00  0.00    -0.744 OA
ENDBRANCH  86  87
ENDBRANCH  54  79
BRANCH  66  91
ATOM     91  C   UNL     1      -9.458  -9.710  19.907  1.00  0.00     0.058 A 
ATOM     92  C   UNL     1      -9.949  -9.711  21.221  1.00  0.00     0.135 A 
ATOM     93  C   UNL     1      -9.535 -10.903  19.172  1.00  0.00     0.135 A 
ATOM     94  F   UNL     1      -9.887  -8.596  21.966  1.00  0.00    -0.206 F 
ATOM     95  C   UNL     1     -10.498 -10.855  21.789  1.00  0.00     0.059 A 
ATOM     96  C   UNL     1     -10.098 -12.055  19.714  1.00  0.00     0.059 A 
ATOM     97  F   UNL     1      -9.084 -10.950  17.909  1.00  0.00    -0.206 F 
ATOM     98  C   UNL     1     -10.574 -12.021  21.025  1.00  0.00     0.060 A 
BRANCH  98  99
ATOM     99  S   UNL     1     -11.343 -13.482  21.755  1.00  0.00     0.124 S 
ATOM    100  O   UNL     1     -10.317 -13.914  22.699  1.00  0.00    -0.237 OA
ATOM    101  O   UNL     1     -12.558 -12.931  22.348  1.00  0.00    -0.237 OA
ATOM    102  O   UNL     1     -11.555 -14.363  20.611  1.00  0.00    -0.744 OA
ENDBRANCH  98  99
ENDBRANCH  66  91
ENDBRANCH  40  41
ENDBRANCH  32  35
ENDBRANCH  30  31
ENDBRANCH  29  30
ENDBRANCH   1  29
TORSDOF 20
