REMARK SMILES Cc1nn(Cc2ccc(Cl)cc2Cl)c(C)c1NC(=O)c1c(C(=O)NCCCCNC(=O)c2ccc(-c3c4nc(c(-c5c(F)cc(S(=O)(=O)[O-])cc5F)c5ccc([nH]5)c(-c5c(F)cc(S(=O)(=O)[O-])cc5F)c5nc(c(-c6c(F)cc(S(=O)(=O)[O-])cc6F)c6ccc3[nH]6)C=C5)C=C4)cc2)cnn1C
REMARK SMILES IDX 26 1 25 2 24 3 22 4 23 5 21 7 20 8 100 9 98 10 99 11 101 12
REMARK SMILES IDX 18 13 17 14 19 16 16 17 1 18 2 19 3 20 4 21 14 22 15 23 5 24
REMARK SMILES IDX 6 25 7 26 12 27 8 28 11 29 13 30 9 31 10 32 27 33 28 34
REMARK SMILES IDX 29 35 30 36 31 38 32 39 33 40 97 41 34 42 96 43 35 44 36 45
REMARK SMILES IDX 37 46 90 47 38 48 95 49 89 50 91 51 39 52 94 53 88 54 87 55
REMARK SMILES IDX 40 57 74 58 53 59 73 60 54 61 57 62 72 63 92 64 55 65 56 66
REMARK SMILES IDX 71 68 93 69 58 70 41 71 42 72 51 73 43 74 44 75 50 76 52 77
REMARK SMILES IDX 45 78 46 79 47 80 48 81 49 82 75 83 76 84 85 85 77 86 78 87
REMARK SMILES IDX 84 88 86 89 79 90 80 91 81 92 82 93 83 94 59 95 60 96 69 97
REMARK SMILES IDX 61 98 62 99 68 100 70 101 63 102 64 103 65 104 66 105 67 106
REMARK H PARENT 24 6 17 15 29 37 91 56 57 67
REMARK Flexibility Score: inf
ROOT
ATOM      1  C   UNL     1      -2.875   1.669  -6.338  1.00  0.00     0.023 C 
ENDROOT
BRANCH   1   2
ATOM      2  C   UNL     1      -2.937   2.906  -5.427  1.00  0.00     0.116 C 
BRANCH   2   3
ATOM      3  N   UNL     1      -2.654   2.707  -4.013  1.00  0.00    -0.352 N 
ATOM      4  C   UNL     1      -1.875   3.401  -3.101  1.00  0.00     0.255 C 
ATOM      5  O   UNL     1      -1.988   3.072  -1.921  1.00  0.00    -0.269 OA
ATOM      6  H   UNL     1      -3.105   1.921  -3.627  1.00  0.00     0.163 HD
BRANCH   4   7
ATOM      7  C   UNL     1      -0.915   4.414  -3.518  1.00  0.00     0.090 A 
ATOM      8  C   UNL     1       0.289   4.740  -2.874  1.00  0.00     0.138 A 
ATOM      9  N   UNL     1       0.873   5.709  -3.662  1.00  0.00    -0.262 N 
ATOM     10  C   UNL     1      -0.986   5.352  -4.573  1.00  0.00     0.149 A 
ATOM     11  N   UNL     1       0.129   6.063  -4.725  1.00  0.00    -0.180 NA
ATOM     12  C   UNL     1       2.221   6.228  -3.586  1.00  0.00     0.174 C 
BRANCH   8  13
ATOM     13  C   UNL     1       0.886   4.301  -1.629  1.00  0.00     0.274 C 
ATOM     14  N   UNL     1       1.011   2.978  -1.282  1.00  0.00    -0.317 N 
ATOM     15  H   UNL     1       1.205   2.830  -0.328  1.00  0.00     0.170 HD
ATOM     16  O   UNL     1       1.328   5.117  -0.816  1.00  0.00    -0.267 OA
BRANCH  14  17
ATOM     17  C   UNL     1       0.915   1.818  -2.020  1.00  0.00     0.085 A 
ATOM     18  C   UNL     1       0.777   0.069  -0.076  1.00  0.00     0.071 C 
ATOM     19  C   UNL     1       0.747   0.503  -1.495  1.00  0.00     0.083 A 
ATOM     20  N   UNL     1       0.538  -0.395  -2.469  1.00  0.00    -0.175 NA
ATOM     21  N   UNL     1       0.572   0.352  -3.589  1.00  0.00    -0.263 N 
ATOM     22  C   UNL     1       1.063   1.618  -3.374  1.00  0.00     0.060 A 
ATOM     23  C   UNL     1       1.594   2.451  -4.475  1.00  0.00     0.069 C 
BRANCH  21  24
ATOM     24  C   UNL     1      -0.179  -0.074  -4.766  1.00  0.00     0.181 C 
BRANCH  24  25
ATOM     25  C   UNL     1       0.644  -0.813  -5.783  1.00  0.00    -0.008 A 
ATOM     26  C   UNL     1       0.957  -2.157  -5.514  1.00  0.00     0.009 A 
ATOM     27  C   UNL     1       1.104  -0.250  -6.988  1.00  0.00     0.047 A 
ATOM     28  C   UNL     1       1.736  -2.901  -6.399  1.00  0.00     0.021 A 
ATOM     29  C   UNL     1       1.906  -0.988  -7.860  1.00  0.00     0.041 A 
ATOM     30  Cl  UNL     1       0.703   1.344  -7.516  1.00  0.00    -0.084 Cl
ATOM     31  C   UNL     1       2.223  -2.306  -7.558  1.00  0.00     0.042 A 
ATOM     32  Cl  UNL     1       3.222  -3.205  -8.630  1.00  0.00    -0.084 Cl
ENDBRANCH  24  25
ENDBRANCH  21  24
ENDBRANCH  14  17
ENDBRANCH   8  13
ENDBRANCH   4   7
ENDBRANCH   2   3
ENDBRANCH   1   2
BRANCH   1  33
ATOM     33  C   UNL     1      -3.500   0.348  -5.873  1.00  0.00     0.023 C 
BRANCH  33  34
ATOM     34  C   UNL     1      -4.995   0.265  -6.126  1.00  0.00     0.116 C 
BRANCH  34  35
ATOM     35  N   UNL     1      -5.337   0.337  -7.561  1.00  0.00    -0.352 N 
ATOM     36  C   UNL     1      -6.560   0.613  -8.175  1.00  0.00     0.251 C 
ATOM     37  H   UNL     1      -4.590   0.164  -8.178  1.00  0.00     0.163 HD
ATOM     38  O   UNL     1      -6.768   0.328  -9.335  1.00  0.00    -0.269 OA
BRANCH  36  39
ATOM     39  C   UNL     1      -7.580   1.296  -7.360  1.00  0.00     0.039 A 
ATOM     40  C   UNL     1      -8.938   0.963  -7.339  1.00  0.00     0.014 A 
ATOM     41  C   UNL     1      -7.065   2.226  -6.483  1.00  0.00     0.014 A 
ATOM     42  C   UNL     1      -9.738   1.544  -6.351  1.00  0.00     0.010 A 
ATOM     43  C   UNL     1      -7.731   2.416  -5.321  1.00  0.00     0.010 A 
ATOM     44  C   UNL     1      -9.105   2.272  -5.339  1.00  0.00    -0.014 A 
BRANCH  44  45
ATOM     45  C   UNL     1      -9.764   2.930  -4.225  1.00  0.00     0.031 A 
ATOM     46  C   UNL     1     -10.450   2.018  -3.282  1.00  0.00     0.074 A 
ATOM     47  C   UNL     1      -9.430   4.203  -3.901  1.00  0.00     0.049 A 
ATOM     48  N   UNL     1     -11.720   1.871  -3.103  1.00  0.00    -0.248 NA
ATOM     49  C   UNL     1      -9.629   1.029  -2.563  1.00  0.00     0.031 C 
ATOM     50  C   UNL     1      -8.451   5.102  -4.546  1.00  0.00     0.029 A 
ATOM     51  N   UNL     1      -9.815   4.934  -2.826  1.00  0.00    -0.354 N 
ATOM     52  C   UNL     1     -11.841   0.960  -2.059  1.00  0.00     0.074 A 
ATOM     53  C   UNL     1     -10.567   0.301  -1.954  1.00  0.00     0.031 C 
ATOM     54  C   UNL     1      -8.164   6.138  -3.729  1.00  0.00     0.029 A 
ATOM     55  C   UNL     1      -9.071   6.088  -2.601  1.00  0.00     0.049 A 
ATOM     56  H   UNL     1     -10.567   4.668  -2.248  1.00  0.00     0.167 HD
ATOM     57  C   UNL     1     -12.878   1.026  -1.176  1.00  0.00     0.037 A 
ATOM     58  C   UNL     1      -9.196   6.933  -1.548  1.00  0.00     0.037 A 
ATOM     59  C   UNL     1     -13.906   1.923  -1.648  1.00  0.00     0.049 A 
ATOM     60  C   UNL     1     -10.548   6.682  -0.977  1.00  0.00     0.074 A 
ATOM     61  C   UNL     1     -14.706   1.977  -2.774  1.00  0.00     0.029 A 
ATOM     62  N   UNL     1     -13.931   3.191  -1.114  1.00  0.00    -0.354 N 
ATOM     63  N   UNL     1     -11.660   6.903  -1.630  1.00  0.00    -0.248 NA
ATOM     64  C   UNL     1     -10.650   5.726   0.114  1.00  0.00     0.031 C 
ATOM     65  C   UNL     1     -14.759   3.361  -3.122  1.00  0.00     0.029 A 
ATOM     66  C   UNL     1     -14.056   4.081  -2.154  1.00  0.00     0.049 A 
ATOM     67  H   UNL     1     -13.870   3.420  -0.159  1.00  0.00     0.167 HD
ATOM     68  C   UNL     1     -12.489   5.834  -1.311  1.00  0.00     0.074 A 
ATOM     69  C   UNL     1     -11.839   5.185  -0.172  1.00  0.00     0.031 C 
ATOM     70  C   UNL     1     -13.459   5.402  -2.174  1.00  0.00     0.037 A 
BRANCH  57  71
ATOM     71  C   UNL     1     -12.799   0.588   0.267  1.00  0.00     0.058 A 
ATOM     72  C   UNL     1     -13.986   0.461   1.014  1.00  0.00     0.135 A 
ATOM     73  C   UNL     1     -11.601   0.537   1.016  1.00  0.00     0.135 A 
ATOM     74  F   UNL     1     -15.183   0.506   0.405  1.00  0.00    -0.206 F 
ATOM     75  C   UNL     1     -13.986   0.357   2.405  1.00  0.00     0.059 A 
ATOM     76  C   UNL     1     -11.575   0.373   2.395  1.00  0.00     0.059 A 
ATOM     77  F   UNL     1     -10.400   0.747   0.463  1.00  0.00    -0.206 F 
ATOM     78  C   UNL     1     -12.773   0.329   3.087  1.00  0.00     0.060 A 
BRANCH  78  79
ATOM     79  S   UNL     1     -12.767   0.312   4.888  1.00  0.00     0.124 S 
ATOM     80  O   UNL     1     -13.267   1.649   5.190  1.00  0.00    -0.237 OA
ATOM     81  O   UNL     1     -13.674  -0.793   5.183  1.00  0.00    -0.237 OA
ATOM     82  O   UNL     1     -11.366   0.070   5.217  1.00  0.00    -0.744 OA
ENDBRANCH  78  79
ENDBRANCH  57  71
BRANCH  58  83
ATOM     83  C   UNL     1      -8.106   7.624  -0.808  1.00  0.00     0.058 A 
ATOM     84  C   UNL     1      -8.380   8.669   0.091  1.00  0.00     0.135 A 
ATOM     85  C   UNL     1      -6.802   7.087  -0.756  1.00  0.00     0.135 A 
ATOM     86  F   UNL     1      -9.600   9.226   0.122  1.00  0.00    -0.206 F 
ATOM     87  C   UNL     1      -7.434   9.123   1.019  1.00  0.00     0.059 A 
ATOM     88  C   UNL     1      -5.842   7.526   0.156  1.00  0.00     0.059 A 
ATOM     89  F   UNL     1      -6.451   6.053  -1.536  1.00  0.00    -0.206 F 
ATOM     90  C   UNL     1      -6.173   8.529   1.059  1.00  0.00     0.060 A 
BRANCH  90  91
ATOM     91  S   UNL     1      -5.013   8.991   2.371  1.00  0.00     0.124 S 
ATOM     92  O   UNL     1      -4.650  10.350   1.987  1.00  0.00    -0.237 OA
ATOM     93  O   UNL     1      -5.838   8.866   3.568  1.00  0.00    -0.237 OA
ATOM     94  O   UNL     1      -3.948   8.000   2.247  1.00  0.00    -0.744 OA
ENDBRANCH  90  91
ENDBRANCH  58  83
BRANCH  70  95
ATOM     95  C   UNL     1     -13.776   6.265  -3.377  1.00  0.00     0.058 A 
ATOM     96  C   UNL     1     -12.901   6.466  -4.462  1.00  0.00     0.135 A 
ATOM     97  C   UNL     1     -15.078   6.764  -3.521  1.00  0.00     0.135 A 
ATOM     98  F   UNL     1     -11.673   5.939  -4.459  1.00  0.00    -0.206 F 
ATOM     99  C   UNL     1     -13.287   7.151  -5.616  1.00  0.00     0.059 A 
ATOM    100  C   UNL     1     -15.495   7.428  -4.674  1.00  0.00     0.059 A 
ATOM    101  F   UNL     1     -15.985   6.553  -2.553  1.00  0.00    -0.206 F 
ATOM    102  C   UNL     1     -14.591   7.626  -5.716  1.00  0.00     0.060 A 
BRANCH 102 103
ATOM    103  S   UNL     1     -15.117   8.430  -7.246  1.00  0.00     0.124 S 
ATOM    104  O   UNL     1     -14.403   9.701  -7.187  1.00  0.00    -0.237 OA
ATOM    105  O   UNL     1     -14.659   7.495  -8.271  1.00  0.00    -0.237 OA
ATOM    106  O   UNL     1     -16.567   8.521  -7.103  1.00  0.00    -0.744 OA
ENDBRANCH 102 103
ENDBRANCH  70  95
ENDBRANCH  44  45
ENDBRANCH  36  39
ENDBRANCH  34  35
ENDBRANCH  33  34
ENDBRANCH   1  33
TORSDOF 18
