REMARK SMILES Cc1cc2c(cc1C(=O)c1ccccc1C(=O)NCCCCNC(=O)c1ccc(-c3c4nc(c(-c5c(F)cc(S(=O)(=O)[O-])cc5F)c5ccc([nH]5)c(-c5c(F)cc(S(=O)(=O)[O-])cc5F)c5nc(c(-c6c(F)cc(S(=O)(=O)[O-])cc6F)c6ccc3[nH]6)C=C5)C=C4)cc1)CCCC2
REMARK SMILES IDX 21 1 20 2 19 3 18 4 16 5 17 6 15 8 10 9 11 10 12 11 14 12
REMARK SMILES IDX 13 13 8 14 9 15 7 16 1 17 2 18 3 19 4 20 6 21 5 22 95 23
REMARK SMILES IDX 92 24 94 25 93 26 22 27 23 28 24 29 25 31 26 32 27 33 91 34
REMARK SMILES IDX 28 35 90 36 29 37 30 38 31 39 84 40 32 41 89 42 83 43 85 44
REMARK SMILES IDX 33 45 88 46 82 47 81 48 34 50 68 51 47 52 67 53 48 54 51 55
REMARK SMILES IDX 66 56 86 57 49 58 50 59 65 61 87 62 52 63 35 64 36 65 45 66
REMARK SMILES IDX 37 67 38 68 44 69 46 70 39 71 40 72 41 73 42 74 43 75 69 76
REMARK SMILES IDX 70 77 79 78 71 79 72 80 78 81 80 82 73 83 74 84 75 85 76 86
REMARK SMILES IDX 77 87 53 88 54 89 63 90 55 91 56 92 62 93 64 94 57 95 58 96
REMARK SMILES IDX 59 97 60 98 61 99
REMARK H PARENT 18 7 23 30 85 49 51 60
REMARK Flexibility Score: inf
ROOT
ATOM      1  C   UNL     1       2.891   2.525   5.174  1.00  0.00     0.023 C 
ENDROOT
BRANCH   1   2
ATOM      2  C   UNL     1       2.707   1.559   4.009  1.00  0.00     0.023 C 
BRANCH   2   3
ATOM      3  C   UNL     1       2.059   2.111   2.750  1.00  0.00     0.116 C 
BRANCH   3   4
ATOM      4  N   UNL     1       2.712   3.204   2.093  1.00  0.00    -0.352 N 
ATOM      5  C   UNL     1       2.588   3.661   0.805  1.00  0.00     0.252 C 
ATOM      6  O   UNL     1       3.222   4.685   0.531  1.00  0.00    -0.269 OA
ATOM      7  H   UNL     1       3.350   3.704   2.652  1.00  0.00     0.163 HD
BRANCH   5   8
ATOM      8  C   UNL     1       1.841   2.996  -0.315  1.00  0.00     0.050 A 
ATOM      9  C   UNL     1       0.566   2.403  -0.330  1.00  0.00     0.035 A 
ATOM     10  C   UNL     1      -0.064   2.089  -1.554  1.00  0.00     0.013 A 
ATOM     11  C   UNL     1       0.604   2.242  -2.766  1.00  0.00     0.001 A 
ATOM     12  C   UNL     1       2.495   3.127  -1.564  1.00  0.00     0.014 A 
ATOM     13  C   UNL     1       1.898   2.739  -2.768  1.00  0.00     0.001 A 
BRANCH   9  14
ATOM     14  C   UNL     1      -0.267   2.123   0.843  1.00  0.00     0.194 C 
ATOM     15  O   UNL     1      -0.874   3.079   1.318  1.00  0.00    -0.289 OA
BRANCH  14  16
ATOM     16  C   UNL     1      -0.388   0.737   1.457  1.00  0.00     0.026 A 
ATOM     17  C   UNL     1       0.979  -0.617  -0.290  1.00  0.00     0.045 C 
ATOM     18  C   UNL     1       0.209  -0.458   0.992  1.00  0.00    -0.040 A 
ATOM     19  C   UNL     1       0.147  -1.610   1.807  1.00  0.00     0.008 A 
ATOM     20  C   UNL     1      -0.423  -1.593   3.085  1.00  0.00    -0.044 A 
ATOM     21  C   UNL     1      -1.020   0.720   2.722  1.00  0.00     0.016 A 
ATOM     22  C   UNL     1      -1.011  -0.415   3.550  1.00  0.00    -0.044 A 
ATOM     23  C   UNL     1      -0.416  -2.856   3.912  1.00  0.00     0.036 C 
ATOM     24  C   UNL     1      -1.496  -0.298   4.976  1.00  0.00     0.036 C 
ATOM     25  C   UNL     1      -0.594  -2.595   5.406  1.00  0.00     0.005 C 
ATOM     26  C   UNL     1      -1.760  -1.645   5.645  1.00  0.00     0.005 C 
ENDBRANCH  14  16
ENDBRANCH   9  14
ENDBRANCH   5   8
ENDBRANCH   3   4
ENDBRANCH   2   3
ENDBRANCH   1   2
BRANCH   1  27
ATOM     27  C   UNL     1       1.749   3.493   5.467  1.00  0.00     0.116 C 
BRANCH  27  28
ATOM     28  N   UNL     1       0.490   2.865   5.856  1.00  0.00    -0.352 N 
ATOM     29  C   UNL     1      -0.189   2.860   7.058  1.00  0.00     0.251 C 
ATOM     30  H   UNL     1       0.048   2.358   5.138  1.00  0.00     0.163 HD
ATOM     31  O   UNL     1      -1.235   2.226   7.173  1.00  0.00    -0.269 OA
BRANCH  29  32
ATOM     32  C   UNL     1       0.372   3.563   8.232  1.00  0.00     0.039 A 
ATOM     33  C   UNL     1       0.886   4.849   8.107  1.00  0.00     0.014 A 
ATOM     34  C   UNL     1       0.452   2.897   9.459  1.00  0.00     0.014 A 
ATOM     35  C   UNL     1       1.725   5.343   9.097  1.00  0.00     0.010 A 
ATOM     36  C   UNL     1       1.194   3.457  10.506  1.00  0.00     0.010 A 
ATOM     37  C   UNL     1       1.917   4.641  10.299  1.00  0.00    -0.014 A 
BRANCH  37  38
ATOM     38  C   UNL     1       2.930   5.138  11.273  1.00  0.00     0.031 A 
ATOM     39  C   UNL     1       4.134   4.296  11.630  1.00  0.00     0.074 A 
ATOM     40  C   UNL     1       2.832   6.397  11.745  1.00  0.00     0.049 A 
ATOM     41  N   UNL     1       5.145   4.593  12.409  1.00  0.00    -0.248 NA
ATOM     42  C   UNL     1       4.217   2.947  11.045  1.00  0.00     0.031 C 
ATOM     43  C   UNL     1       1.728   7.317  11.461  1.00  0.00     0.029 A 
ATOM     44  N   UNL     1       3.691   7.140  12.515  1.00  0.00    -0.354 N 
ATOM     45  C   UNL     1       5.960   3.466  12.431  1.00  0.00     0.074 A 
ATOM     46  C   UNL     1       5.317   2.466  11.608  1.00  0.00     0.031 C 
ATOM     47  C   UNL     1       2.020   8.524  11.967  1.00  0.00     0.029 A 
ATOM     48  C   UNL     1       3.292   8.446  12.678  1.00  0.00     0.049 A 
ATOM     49  H   UNL     1       4.514   6.773  12.912  1.00  0.00     0.167 HD
ATOM     50  C   UNL     1       7.143   3.283  13.066  1.00  0.00     0.037 A 
ATOM     51  C   UNL     1       3.876   9.469  13.330  1.00  0.00     0.037 A 
ATOM     52  C   UNL     1       7.808   4.295  13.845  1.00  0.00     0.049 A 
ATOM     53  C   UNL     1       5.177   9.236  14.041  1.00  0.00     0.074 A 
ATOM     54  C   UNL     1       9.019   4.210  14.511  1.00  0.00     0.029 A 
ATOM     55  N   UNL     1       7.329   5.579  14.050  1.00  0.00    -0.354 N 
ATOM     56  N   UNL     1       5.914   8.152  14.072  1.00  0.00    -0.248 NA
ATOM     57  C   UNL     1       5.714  10.356  14.825  1.00  0.00     0.031 C 
ATOM     58  C   UNL     1       9.256   5.433  15.146  1.00  0.00     0.029 A 
ATOM     59  C   UNL     1       8.210   6.291  14.847  1.00  0.00     0.049 A 
ATOM     60  H   UNL     1       6.486   5.933  13.684  1.00  0.00     0.167 HD
ATOM     61  C   UNL     1       6.997   8.455  14.887  1.00  0.00     0.074 A 
ATOM     62  C   UNL     1       6.836   9.833  15.304  1.00  0.00     0.031 C 
ATOM     63  C   UNL     1       8.027   7.658  15.264  1.00  0.00     0.037 A 
BRANCH  50  64
ATOM     64  C   UNL     1       7.800   1.934  12.955  1.00  0.00     0.058 A 
ATOM     65  C   UNL     1       8.449   1.523  11.780  1.00  0.00     0.135 A 
ATOM     66  C   UNL     1       7.829   1.063  14.057  1.00  0.00     0.135 A 
ATOM     67  F   UNL     1       8.438   2.309  10.692  1.00  0.00    -0.206 F 
ATOM     68  C   UNL     1       9.087   0.290  11.695  1.00  0.00     0.059 A 
ATOM     69  C   UNL     1       8.480  -0.166  14.001  1.00  0.00     0.059 A 
ATOM     70  F   UNL     1       7.224   1.407  15.205  1.00  0.00    -0.206 F 
ATOM     71  C   UNL     1       9.097  -0.549  12.811  1.00  0.00     0.060 A 
BRANCH  71  72
ATOM     72  S   UNL     1       9.937  -2.143  12.686  1.00  0.00     0.124 S 
ATOM     73  O   UNL     1       9.013  -2.892  11.840  1.00  0.00    -0.237 OA
ATOM     74  O   UNL     1      11.207  -1.780  12.068  1.00  0.00    -0.237 OA
ATOM     75  O   UNL     1      10.023  -2.593  14.072  1.00  0.00    -0.744 OA
ENDBRANCH  71  72
ENDBRANCH  50  64
BRANCH  51  76
ATOM     76  C   UNL     1       3.219  10.801  13.342  1.00  0.00     0.058 A 
ATOM     77  C   UNL     1       3.751  11.875  12.614  1.00  0.00     0.135 A 
ATOM     78  C   UNL     1       2.019  11.011  14.039  1.00  0.00     0.135 A 
ATOM     79  F   UNL     1       4.901  11.724  11.940  1.00  0.00    -0.206 F 
ATOM     80  C   UNL     1       3.113  13.110  12.571  1.00  0.00     0.059 A 
ATOM     81  C   UNL     1       1.350  12.229  13.991  1.00  0.00     0.059 A 
ATOM     82  F   UNL     1       1.464  10.010  14.739  1.00  0.00    -0.206 F 
ATOM     83  C   UNL     1       1.908  13.275  13.257  1.00  0.00     0.060 A 
BRANCH  83  84
ATOM     84  S   UNL     1       1.044  14.856  13.130  1.00  0.00     0.124 S 
ATOM     85  O   UNL     1       1.852  15.701  14.002  1.00  0.00    -0.237 OA
ATOM     86  O   UNL     1       1.133  15.142  11.701  1.00  0.00    -0.237 OA
ATOM     87  O   UNL     1      -0.297  14.544  13.616  1.00  0.00    -0.744 OA
ENDBRANCH  83  84
ENDBRANCH  51  76
BRANCH  63  88
ATOM     88  C   UNL     1       9.052   8.248  16.186  1.00  0.00     0.058 A 
ATOM     89  C   UNL     1       8.788   8.408  17.555  1.00  0.00     0.135 A 
ATOM     90  C   UNL     1      10.328   8.593  15.715  1.00  0.00     0.135 A 
ATOM     91  F   UNL     1       7.580   8.099  18.051  1.00  0.00    -0.206 F 
ATOM     92  C   UNL     1       9.755   8.897  18.427  1.00  0.00     0.059 A 
ATOM     93  C   UNL     1      11.317   9.066  16.573  1.00  0.00     0.059 A 
ATOM     94  F   UNL     1      10.630   8.451  14.415  1.00  0.00    -0.206 F 
ATOM     95  C   UNL     1      11.018   9.219  17.927  1.00  0.00     0.060 A 
BRANCH  95  96
ATOM     96  S   UNL     1      12.278   9.805  19.079  1.00  0.00     0.124 S 
ATOM     97  O   UNL     1      11.816  11.161  19.356  1.00  0.00    -0.237 OA
ATOM     98  O   UNL     1      12.158   8.856  20.182  1.00  0.00    -0.237 OA
ATOM     99  O   UNL     1      13.514   9.707  18.309  1.00  0.00    -0.744 OA
ENDBRANCH  95  96
ENDBRANCH  63  88
ENDBRANCH  37  38
ENDBRANCH  29  32
ENDBRANCH  27  28
ENDBRANCH   1  27
TORSDOF 16
