REMARK SMILES O=C(NCCCCNC(=O)[C@@]1(CC2CCC2)CCOC1)c1ccc(-c2c3nc(c(-c4c(F)cc(S(=O)(=O)[O-])cc4F)c4ccc([nH]4)c(-c4c(F)cc(S(=O)(=O)[O-])cc4F)c4nc(c(-c5c(F)cc(S(=O)(=O)[O-])cc5F)c5ccc2[nH]5)C=C4)C=C3)cc1
REMARK SMILES IDX 5 1 4 2 3 3 1 4 2 5 21 7 22 8 86 9 23 10 85 11 24 12 25 13
REMARK SMILES IDX 26 14 79 15 27 16 84 17 78 18 80 19 28 20 83 21 77 22 76 23
REMARK SMILES IDX 29 25 63 26 42 27 62 28 43 29 46 30 61 31 81 32 44 33 45 34
REMARK SMILES IDX 60 36 82 37 47 38 30 39 31 40 40 41 32 42 33 43 39 44 41 45
REMARK SMILES IDX 34 46 35 47 36 48 37 49 38 50 64 51 65 52 74 53 66 54 67 55
REMARK SMILES IDX 73 56 75 57 68 58 69 59 70 60 71 61 72 62 48 63 49 64 58 65
REMARK SMILES IDX 50 66 51 67 57 68 59 69 52 70 53 71 54 72 55 73 56 74 6 75
REMARK SMILES IDX 7 76 8 77 9 78 10 80 11 81 17 82 20 83 18 84 19 85 12 86
REMARK SMILES IDX 13 87 14 88 16 89 15 90
REMARK H PARENT 3 6 80 24 46 35 8 79
REMARK Flexibility Score: inf
ROOT
ATOM      1  C   UNL     1       8.201  -4.236  -6.318  1.00  0.00     0.023 C 
ENDROOT
BRANCH   1   2
ATOM      2  C   UNL     1       7.079  -3.936  -7.296  1.00  0.00     0.116 C 
BRANCH   2   3
ATOM      3  N   UNL     1       6.691  -2.532  -7.279  1.00  0.00    -0.352 N 
ATOM      4  O   UNL     1       6.444  -0.461  -8.146  1.00  0.00    -0.269 OA
ATOM      5  C   UNL     1       6.622  -1.658  -8.335  1.00  0.00     0.251 C 
ATOM      6  H   UNL     1       6.447  -2.164  -6.399  1.00  0.00     0.163 HD
BRANCH   5   7
ATOM      7  C   UNL     1       6.811  -2.200  -9.692  1.00  0.00     0.039 A 
ATOM      8  C   UNL     1       6.152  -3.374 -10.065  1.00  0.00     0.014 A 
ATOM      9  C   UNL     1       7.730  -1.592 -10.545  1.00  0.00     0.014 A 
ATOM     10  C   UNL     1       6.553  -4.041 -11.209  1.00  0.00     0.010 A 
ATOM     11  C   UNL     1       8.025  -2.197 -11.765  1.00  0.00     0.010 A 
ATOM     12  C   UNL     1       7.466  -3.444 -12.091  1.00  0.00    -0.014 A 
BRANCH  12  13
ATOM     13  C   UNL     1       7.764  -4.113 -13.380  1.00  0.00     0.031 A 
ATOM     14  C   UNL     1       9.161  -4.529 -13.740  1.00  0.00     0.074 A 
ATOM     15  C   UNL     1       6.745  -4.344 -14.231  1.00  0.00     0.049 A 
ATOM     16  N   UNL     1       9.586  -5.117 -14.829  1.00  0.00    -0.248 NA
ATOM     17  C   UNL     1      10.220  -4.240 -12.761  1.00  0.00     0.031 C 
ATOM     18  C   UNL     1       5.345  -3.984 -13.984  1.00  0.00     0.029 A 
ATOM     19  N   UNL     1       6.718  -4.943 -15.463  1.00  0.00    -0.354 N 
ATOM     20  C   UNL     1      10.960  -5.250 -14.680  1.00  0.00     0.074 A 
ATOM     21  C   UNL     1      11.303  -4.641 -13.412  1.00  0.00     0.031 C 
ATOM     22  C   UNL     1       4.592  -4.415 -15.004  1.00  0.00     0.029 A 
ATOM     23  C   UNL     1       5.461  -5.000 -16.016  1.00  0.00     0.049 A 
ATOM     24  H   UNL     1       7.521  -5.297 -15.908  1.00  0.00     0.167 HD
ATOM     25  C   UNL     1      11.849  -5.831 -15.523  1.00  0.00     0.037 A 
ATOM     26  C   UNL     1       5.050  -5.448 -17.216  1.00  0.00     0.037 A 
ATOM     27  C   UNL     1      11.488  -6.412 -16.793  1.00  0.00     0.049 A 
ATOM     28  C   UNL     1       6.066  -6.016 -18.162  1.00  0.00     0.074 A 
ATOM     29  C   UNL     1      12.306  -7.051 -17.707  1.00  0.00     0.029 A 
ATOM     30  N   UNL     1      10.212  -6.401 -17.344  1.00  0.00    -0.354 N 
ATOM     31  N   UNL     1       7.357  -6.170 -17.991  1.00  0.00    -0.248 NA
ATOM     32  C   UNL     1       5.569  -6.474 -19.464  1.00  0.00     0.031 C 
ATOM     33  C   UNL     1      11.551  -7.334 -18.849  1.00  0.00     0.029 A 
ATOM     34  C   UNL     1      10.234  -6.979 -18.605  1.00  0.00     0.049 A 
ATOM     35  H   UNL     1       9.411  -6.036 -16.905  1.00  0.00     0.167 HD
ATOM     36  C   UNL     1       7.821  -6.785 -19.148  1.00  0.00     0.074 A 
ATOM     37  C   UNL     1       6.669  -6.977 -20.005  1.00  0.00     0.031 C 
ATOM     38  C   UNL     1       9.085  -7.167 -19.460  1.00  0.00     0.037 A 
BRANCH  25  39
ATOM     39  C   UNL     1      13.303  -5.812 -15.125  1.00  0.00     0.058 A 
ATOM     40  C   UNL     1      13.782  -6.488 -13.990  1.00  0.00     0.135 A 
ATOM     41  C   UNL     1      14.239  -5.106 -15.901  1.00  0.00     0.135 A 
ATOM     42  F   UNL     1      12.939  -7.178 -13.204  1.00  0.00    -0.206 F 
ATOM     43  C   UNL     1      15.118  -6.414 -13.606  1.00  0.00     0.059 A 
ATOM     44  C   UNL     1      15.588  -5.060 -15.564  1.00  0.00     0.059 A 
ATOM     45  F   UNL     1      13.847  -4.446 -17.002  1.00  0.00    -0.206 F 
ATOM     46  C   UNL     1      16.013  -5.696 -14.400  1.00  0.00     0.060 A 
BRANCH  46  47
ATOM     47  S   UNL     1      17.736  -5.595 -13.876  1.00  0.00     0.124 S 
ATOM     48  O   UNL     1      17.625  -4.793 -12.661  1.00  0.00    -0.237 OA
ATOM     49  O   UNL     1      18.081  -6.999 -13.679  1.00  0.00    -0.237 OA
ATOM     50  O   UNL     1      18.398  -4.939 -14.999  1.00  0.00    -0.744 OA
ENDBRANCH  46  47
ENDBRANCH  25  39
BRANCH  26  51
ATOM     51  C   UNL     1       3.609  -5.383 -17.574  1.00  0.00     0.058 A 
ATOM     52  C   UNL     1       2.853  -6.553 -17.732  1.00  0.00     0.135 A 
ATOM     53  C   UNL     1       2.950  -4.152 -17.732  1.00  0.00     0.135 A 
ATOM     54  F   UNL     1       3.437  -7.753 -17.596  1.00  0.00    -0.206 F 
ATOM     55  C   UNL     1       1.499  -6.507 -18.043  1.00  0.00     0.059 A 
ATOM     56  C   UNL     1       1.589  -4.080 -18.005  1.00  0.00     0.059 A 
ATOM     57  F   UNL     1       3.625  -3.002 -17.575  1.00  0.00    -0.206 F 
ATOM     58  C   UNL     1       0.873  -5.265 -18.163  1.00  0.00     0.060 A 
BRANCH  58  59
ATOM     59  S   UNL     1      -0.903  -5.225 -18.479  1.00  0.00     0.124 S 
ATOM     60  O   UNL     1      -0.978  -5.787 -19.823  1.00  0.00    -0.237 OA
ATOM     61  O   UNL     1      -1.417  -6.067 -17.404  1.00  0.00    -0.237 OA
ATOM     62  O   UNL     1      -1.233  -3.807 -18.370  1.00  0.00    -0.744 OA
ENDBRANCH  58  59
ENDBRANCH  26  51
BRANCH  38  63
ATOM     63  C   UNL     1       9.289  -7.898 -20.763  1.00  0.00     0.058 A 
ATOM     64  C   UNL     1       9.104  -7.285 -22.012  1.00  0.00     0.135 A 
ATOM     65  C   UNL     1       9.720  -9.237 -20.753  1.00  0.00     0.135 A 
ATOM     66  F   UNL     1       8.690  -6.010 -22.087  1.00  0.00    -0.206 F 
ATOM     67  C   UNL     1       9.301  -7.982 -23.201  1.00  0.00     0.059 A 
ATOM     68  C   UNL     1       9.970  -9.936 -21.928  1.00  0.00     0.059 A 
ATOM     69  F   UNL     1       9.923  -9.875 -19.589  1.00  0.00    -0.206 F 
ATOM     70  C   UNL     1       9.743  -9.305 -23.148  1.00  0.00     0.060 A 
BRANCH  70  71
ATOM     71  S   UNL     1      10.031 -10.183 -24.698  1.00  0.00     0.124 S 
ATOM     72  O   UNL     1       8.677 -10.304 -25.226  1.00  0.00    -0.237 OA
ATOM     73  O   UNL     1      10.911  -9.263 -25.412  1.00  0.00    -0.237 OA
ATOM     74  O   UNL     1      10.652 -11.434 -24.272  1.00  0.00    -0.744 OA
ENDBRANCH  70  71
ENDBRANCH  38  63
ENDBRANCH  12  13
ENDBRANCH   5   7
ENDBRANCH   2   3
ENDBRANCH   1   2
BRANCH   1  75
ATOM     75  C   UNL     1       7.873  -3.867  -4.875  1.00  0.00     0.023 C 
BRANCH  75  76
ATOM     76  C   UNL     1       6.484  -4.310  -4.431  1.00  0.00     0.116 C 
BRANCH  76  77
ATOM     77  N   UNL     1       6.320  -5.731  -4.577  1.00  0.00    -0.356 N 
ATOM     78  C   UNL     1       6.245  -6.698  -3.646  1.00  0.00     0.228 C 
ATOM     79  H   UNL     1       6.252  -6.046  -5.507  1.00  0.00     0.163 HD
ATOM     80  O   UNL     1       6.197  -7.857  -4.069  1.00  0.00    -0.274 OA
BRANCH  78  81
ATOM     81  C   UNL     1       6.306  -6.406  -2.169  1.00  0.00     0.075 C 
ATOM     82  C   UNL     1       5.310  -5.179  -1.364  1.00  0.00     0.048 C 
ATOM     83  C   UNL     1       6.392  -7.846  -1.430  1.00  0.00     0.177 C 
ATOM     84  C   UNL     1       5.531  -5.517   0.512  1.00  0.00     0.161 C 
ATOM     85  O   UNL     1       6.346  -7.461   0.277  1.00  0.00    -0.380 OA
BRANCH  81  86
ATOM     86  C   UNL     1       7.630  -5.971  -1.665  1.00  0.00     0.023 C 
BRANCH  86  87
ATOM     87  C   UNL     1       6.963  -6.059  -0.309  1.00  0.00    -0.010 C 
ATOM     88  C   UNL     1       4.857  -6.966  -0.134  1.00  0.00     0.003 C 
ATOM     89  C   UNL     1       7.183  -6.514   1.636  1.00  0.00     0.003 C 
ATOM     90  C   UNL     1       5.347  -7.160   1.837  1.00  0.00     0.001 C 
ENDBRANCH  86  87
ENDBRANCH  81  86
ENDBRANCH  78  81
ENDBRANCH  76  77
ENDBRANCH  75  76
ENDBRANCH   1  75
TORSDOF 16
