REMARK SMILES O=C(NCCCCNC(=O)[C@H]1CC[C@H]2CCCC[C@@H]2[N@H+]1[C@@H]1CCCSC1)c1ccc(-c2c3nc(c(-c4c(F)cc(S(=O)(=O)[O-])cc4F)c4ccc([nH]4)c(-c4c(F)cc(S(=O)(=O)[O-])cc4F)c4nc(c(-c5c(F)cc(S(=O)(=O)[O-])cc5F)c5ccc2[nH]5)C=C4)C=C3)cc1
REMARK SMILES IDX 4 1 3 2 1 3 2 4 27 6 28 7 92 8 29 9 91 10 30 11 31 12 32 13
REMARK SMILES IDX 85 14 33 15 90 16 84 17 86 18 34 19 89 20 83 21 82 22 35 24
REMARK SMILES IDX 69 25 48 26 68 27 49 28 52 29 67 30 87 31 50 32 51 33 66 35
REMARK SMILES IDX 88 36 53 37 36 38 37 39 46 40 38 41 39 42 45 43 47 44 40 45
REMARK SMILES IDX 41 46 42 47 43 48 44 49 70 50 71 51 80 52 72 53 73 54 79 55
REMARK SMILES IDX 81 56 74 57 75 58 76 59 77 60 78 61 54 62 55 63 64 64 56 65
REMARK SMILES IDX 57 66 63 67 65 68 58 69 59 70 60 71 61 72 62 73 5 74 6 75
REMARK SMILES IDX 7 76 8 77 9 78 10 80 11 81 12 82 20 83 13 84 19 85 14 87
REMARK SMILES IDX 18 88 15 89 17 90 16 91 21 92 22 93 26 94 23 95 25 96 24 97
REMARK H PARENT 3 5 86 23 52 34 8 79 20 86
REMARK Flexibility Score: inf
ROOT
ATOM      1  C   UNL     1       4.769  -0.585  -0.373  1.00  0.00     0.116 C 
ENDROOT
BRANCH   1   2
ATOM      2  N   UNL     1       3.311  -0.579  -0.460  1.00  0.00    -0.352 N 
ATOM      3  O   UNL     1       1.211   0.175  -0.055  1.00  0.00    -0.269 OA
ATOM      4  C   UNL     1       2.418   0.321   0.085  1.00  0.00     0.251 C 
ATOM      5  H   UNL     1       2.912  -1.315  -0.977  1.00  0.00     0.163 HD
BRANCH   4   6
ATOM      6  C   UNL     1       2.954   1.432   0.896  1.00  0.00     0.039 A 
ATOM      7  C   UNL     1       4.040   2.166   0.425  1.00  0.00     0.014 A 
ATOM      8  C   UNL     1       2.469   1.629   2.191  1.00  0.00     0.014 A 
ATOM      9  C   UNL     1       4.796   2.897   1.327  1.00  0.00     0.010 A 
ATOM     10  C   UNL     1       3.158   2.482   3.059  1.00  0.00     0.010 A 
ATOM     11  C   UNL     1       4.368   3.066   2.656  1.00  0.00    -0.014 A 
BRANCH  11  12
ATOM     12  C   UNL     1       5.220   3.856   3.584  1.00  0.00     0.031 A 
ATOM     13  C   UNL     1       5.802   3.242   4.832  1.00  0.00     0.074 A 
ATOM     14  C   UNL     1       5.535   5.120   3.241  1.00  0.00     0.049 A 
ATOM     15  N   UNL     1       6.585   3.791   5.727  1.00  0.00    -0.248 NA
ATOM     16  C   UNL     1       5.455   1.842   5.126  1.00  0.00     0.031 C 
ATOM     17  C   UNL     1       5.028   5.822   2.057  1.00  0.00     0.029 A 
ATOM     18  N   UNL     1       6.390   6.022   3.817  1.00  0.00    -0.354 N 
ATOM     19  C   UNL     1       6.776   2.830   6.714  1.00  0.00     0.074 A 
ATOM     20  C   UNL     1       6.031   1.658   6.307  1.00  0.00     0.031 C 
ATOM     21  C   UNL     1       5.654   7.000   1.941  1.00  0.00     0.029 A 
ATOM     22  C   UNL     1       6.539   7.177   3.085  1.00  0.00     0.049 A 
ATOM     23  H   UNL     1       6.853   5.860   4.670  1.00  0.00     0.167 HD
ATOM     24  C   UNL     1       7.503   2.921   7.854  1.00  0.00     0.037 A 
ATOM     25  C   UNL     1       7.297   8.265   3.310  1.00  0.00     0.037 A 
ATOM     26  C   UNL     1       8.290   4.071   8.220  1.00  0.00     0.049 A 
ATOM     27  C   UNL     1       8.139   8.316   4.548  1.00  0.00     0.074 A 
ATOM     28  C   UNL     1       9.081   4.255   9.342  1.00  0.00     0.029 A 
ATOM     29  N   UNL     1       8.402   5.228   7.462  1.00  0.00    -0.354 N 
ATOM     30  N   UNL     1       8.280   7.407   5.482  1.00  0.00    -0.248 NA
ATOM     31  C   UNL     1       8.909   9.545   4.772  1.00  0.00     0.031 C 
ATOM     32  C   UNL     1       9.653   5.530   9.272  1.00  0.00     0.029 A 
ATOM     33  C   UNL     1       9.245   6.129   8.091  1.00  0.00     0.049 A 
ATOM     34  H   UNL     1       7.949   5.385   6.602  1.00  0.00     0.167 HD
ATOM     35  C   UNL     1       9.157   7.954   6.409  1.00  0.00     0.074 A 
ATOM     36  C   UNL     1       9.532   9.262   5.908  1.00  0.00     0.031 C 
ATOM     37  C   UNL     1       9.603   7.425   7.575  1.00  0.00     0.037 A 
BRANCH  24  38
ATOM     38  C   UNL     1       7.460   1.758   8.808  1.00  0.00     0.058 A 
ATOM     39  C   UNL     1       8.157   0.566   8.563  1.00  0.00     0.135 A 
ATOM     40  C   UNL     1       6.738   1.859  10.010  1.00  0.00     0.135 A 
ATOM     41  F   UNL     1       8.850   0.410   7.424  1.00  0.00    -0.206 F 
ATOM     42  C   UNL     1       8.121  -0.496   9.464  1.00  0.00     0.059 A 
ATOM     43  C   UNL     1       6.705   0.818  10.934  1.00  0.00     0.059 A 
ATOM     44  F   UNL     1       6.055   2.978  10.295  1.00  0.00    -0.206 F 
ATOM     45  C   UNL     1       7.388  -0.362  10.645  1.00  0.00     0.060 A 
BRANCH  45  46
ATOM     46  S   UNL     1       7.348  -1.744  11.808  1.00  0.00     0.124 S 
ATOM     47  O   UNL     1       6.387  -2.635  11.165  1.00  0.00    -0.237 OA
ATOM     48  O   UNL     1       8.734  -2.201  11.805  1.00  0.00    -0.237 OA
ATOM     49  O   UNL     1       6.898  -1.127  13.052  1.00  0.00    -0.744 OA
ENDBRANCH  45  46
ENDBRANCH  24  38
BRANCH  25  50
ATOM     50  C   UNL     1       7.283   9.380   2.332  1.00  0.00     0.058 A 
ATOM     51  C   UNL     1       8.383   9.618   1.496  1.00  0.00     0.135 A 
ATOM     52  C   UNL     1       6.146  10.188   2.169  1.00  0.00     0.135 A 
ATOM     53  F   UNL     1       9.491   8.871   1.617  1.00  0.00    -0.206 F 
ATOM     54  C   UNL     1       8.358  10.619   0.531  1.00  0.00     0.059 A 
ATOM     55  C   UNL     1       6.088  11.177   1.195  1.00  0.00     0.059 A 
ATOM     56  F   UNL     1       5.061   9.982   2.931  1.00  0.00    -0.206 F 
ATOM     57  C   UNL     1       7.203  11.390   0.384  1.00  0.00     0.060 A 
BRANCH  57  58
ATOM     58  S   UNL     1       7.140  12.632  -0.924  1.00  0.00     0.124 S 
ATOM     59  O   UNL     1       7.859  13.741  -0.308  1.00  0.00    -0.237 OA
ATOM     60  O   UNL     1       7.823  11.961  -2.026  1.00  0.00    -0.237 OA
ATOM     61  O   UNL     1       5.707  12.835  -1.120  1.00  0.00    -0.744 OA
ENDBRANCH  57  58
ENDBRANCH  25  50
BRANCH  37  62
ATOM     62  C   UNL     1      10.559   8.263   8.369  1.00  0.00     0.058 A 
ATOM     63  C   UNL     1      10.117   9.362   9.121  1.00  0.00     0.135 A 
ATOM     64  C   UNL     1      11.929   7.960   8.382  1.00  0.00     0.135 A 
ATOM     65  F   UNL     1       8.817   9.694   9.131  1.00  0.00    -0.206 F 
ATOM     66  C   UNL     1      11.008  10.154   9.836  1.00  0.00     0.059 A 
ATOM     67  C   UNL     1      12.835   8.727   9.105  1.00  0.00     0.059 A 
ATOM     68  F   UNL     1      12.397   6.914   7.683  1.00  0.00    -0.206 F 
ATOM     69  C   UNL     1      12.367   9.833   9.816  1.00  0.00     0.060 A 
BRANCH  69  70
ATOM     70  S   UNL     1      13.520  10.863  10.747  1.00  0.00     0.124 S 
ATOM     71  O   UNL     1      13.700  11.992   9.841  1.00  0.00    -0.237 OA
ATOM     72  O   UNL     1      12.777  11.145  11.972  1.00  0.00    -0.237 OA
ATOM     73  O   UNL     1      14.683   9.998  10.915  1.00  0.00    -0.744 OA
ENDBRANCH  69  70
ENDBRANCH  37  62
ENDBRANCH  11  12
ENDBRANCH   4   6
ENDBRANCH   1   2
BRANCH   1  74
ATOM     74  C   UNL     1       5.381  -1.946  -0.111  1.00  0.00     0.023 C 
BRANCH  74  75
ATOM     75  C   UNL     1       4.986  -3.014  -1.110  1.00  0.00     0.023 C 
BRANCH  75  76
ATOM     76  C   UNL     1       5.522  -2.852  -2.539  1.00  0.00     0.116 C 
BRANCH  76  77
ATOM     77  N   UNL     1       6.801  -3.517  -2.652  1.00  0.00    -0.351 N 
ATOM     78  C   UNL     1       7.135  -4.793  -2.970  1.00  0.00     0.278 C 
ATOM     79  H   UNL     1       7.573  -2.935  -2.463  1.00  0.00     0.163 HD
ATOM     80  O   UNL     1       8.282  -5.110  -2.612  1.00  0.00    -0.268 OA
BRANCH  78  81
ATOM     81  C   UNL     1       6.324  -5.767  -3.877  1.00  0.00     0.274 C 
ATOM     82  C   UNL     1       6.958  -7.179  -3.771  1.00  0.00     0.076 C 
ATOM     83  N   UNL     1       4.837  -5.785  -3.845  1.00  0.00    -0.319 N 
ATOM     84  C   UNL     1       6.161  -8.283  -4.466  1.00  0.00     0.016 C 
ATOM     85  C   UNL     1       4.263  -6.690  -4.869  1.00  0.00     0.188 C 
ATOM     86  H   UNL     1       4.612  -4.821  -4.091  1.00  0.00     0.349 HD
ATOM     87  C   UNL     1       5.263  -7.669  -5.526  1.00  0.00     0.048 C 
ATOM     88  C   UNL     1       3.577  -5.902  -5.999  1.00  0.00     0.065 C 
ATOM     89  C   UNL     1       4.475  -8.713  -6.322  1.00  0.00     0.010 C 
ATOM     90  C   UNL     1       2.815  -6.862  -6.923  1.00  0.00     0.006 C 
ATOM     91  C   UNL     1       3.668  -8.030  -7.428  1.00  0.00     0.001 C 
BRANCH  83  92
ATOM     92  C   UNL     1       4.165  -5.913  -2.530  1.00  0.00     0.194 C 
ATOM     93  C   UNL     1       4.207  -7.265  -1.798  1.00  0.00     0.067 C 
ATOM     94  C   UNL     1       2.708  -5.380  -2.635  1.00  0.00     0.134 C 
ATOM     95  C   UNL     1       3.660  -7.157  -0.370  1.00  0.00     0.017 C 
ATOM     96  S   UNL     1       1.863  -5.161  -1.038  1.00  0.00    -0.156 SA
ATOM     97  C   UNL     1       2.187  -6.785  -0.311  1.00  0.00     0.070 C 
ENDBRANCH  83  92
ENDBRANCH  78  81
ENDBRANCH  76  77
ENDBRANCH  75  76
ENDBRANCH  74  75
ENDBRANCH   1  74
TORSDOF 15
