REMARK SMILES CC[C@@H](C(=O)NCCCCNC(=O)c1ccc(-c2c3nc(c(-c4c(F)cc(S(=O)(=O)[O-])cc4F)c4ccc([nH]4)c(-c4c(F)cc(S(=O)(=O)[O-])cc4F)c4nc(c(-c5c(F)cc(S(=O)(=O)[O-])cc5F)c5ccc2[nH]5)C=C4)C=C3)cc1)N1CCN(Cc2cccc(C)c2)C(=O)C1=O
REMARK SMILES IDX 8 1 7 2 6 3 4 4 5 5 3 7 2 8 1 9 80 10 81 11 94 12 82 13
REMARK SMILES IDX 92 14 95 15 83 16 93 17 84 18 85 19 86 20 91 21 87 22 89 23
REMARK SMILES IDX 88 24 90 25 9 26 10 27 11 28 12 29 13 31 14 32 15 33 79 34
REMARK SMILES IDX 16 35 78 36 17 37 18 38 19 39 72 40 20 41 77 42 71 43 73 44
REMARK SMILES IDX 21 45 76 46 70 47 69 48 22 50 56 51 35 52 55 53 36 54 39 55
REMARK SMILES IDX 54 56 74 57 37 58 38 59 53 61 75 62 40 63 23 64 24 65 33 66
REMARK SMILES IDX 25 67 26 68 32 69 34 70 27 71 28 72 29 73 30 74 31 75 57 76
REMARK SMILES IDX 58 77 67 78 59 79 60 80 66 81 68 82 61 83 62 84 63 85 64 86
REMARK SMILES IDX 65 87 41 88 42 89 51 90 43 91 44 92 50 93 52 94 45 95 46 96
REMARK SMILES IDX 47 97 48 98 49 99
REMARK H PARENT 6 6 11 30 73 49 39 60
REMARK Flexibility Score: inf
ROOT
ATOM      1  C   UNL     1       1.058  -2.236   0.988  1.00  0.00     0.023 C 
ENDROOT
BRANCH   1   2
ATOM      2  C   UNL     1       1.436  -2.285  -0.495  1.00  0.00     0.116 C 
BRANCH   2   3
ATOM      3  N   UNL     1       0.250  -2.167  -1.327  1.00  0.00    -0.354 N 
ATOM      4  C   UNL     1      -0.190  -1.127  -2.101  1.00  0.00     0.242 C 
ATOM      5  O   UNL     1      -1.330  -1.194  -2.569  1.00  0.00    -0.273 OA
ATOM      6  H   UNL     1      -0.330  -2.963  -1.335  1.00  0.00     0.163 HD
BRANCH   4   7
ATOM      7  C   UNL     1       0.719   0.104  -2.346  1.00  0.00     0.174 C 
BRANCH   7   8
ATOM      8  C   UNL     1       0.441   1.227  -1.321  1.00  0.00     0.032 C 
ATOM      9  C   UNL     1       0.607   0.929   0.151  1.00  0.00     0.006 C 
ENDBRANCH   7   8
BRANCH   7  10
ATOM     10  N   UNL     1       0.518   0.576  -3.750  1.00  0.00    -0.321 N 
ATOM     11  C   UNL     1       0.065   1.925  -4.061  1.00  0.00     0.142 C 
ATOM     12  C   UNL     1       0.886  -0.239  -4.840  1.00  0.00     0.312 C 
ATOM     13  C   UNL     1       1.003   2.489  -5.116  1.00  0.00     0.142 C 
ATOM     14  C   UNL     1       0.664   0.386  -6.286  1.00  0.00     0.312 C 
ATOM     15  O   UNL     1       1.413  -1.337  -4.712  1.00  0.00    -0.263 OA
ATOM     16  N   UNL     1       0.748   1.786  -6.355  1.00  0.00    -0.328 N 
ATOM     17  O   UNL     1       0.448  -0.331  -7.254  1.00  0.00    -0.263 OA
BRANCH  16  18
ATOM     18  C   UNL     1       0.632   2.517  -7.617  1.00  0.00     0.155 C 
BRANCH  18  19
ATOM     19  C   UNL     1      -0.466   3.566  -7.611  1.00  0.00    -0.028 A 
ATOM     20  C   UNL     1      -1.716   3.297  -8.180  1.00  0.00     0.005 A 
ATOM     21  C   UNL     1      -0.274   4.815  -6.991  1.00  0.00     0.009 A 
ATOM     22  C   UNL     1      -2.746   4.239  -8.107  1.00  0.00     0.001 A 
ATOM     23  C   UNL     1      -1.330   5.717  -6.816  1.00  0.00    -0.051 A 
ATOM     24  C   UNL     1      -2.561   5.435  -7.412  1.00  0.00     0.003 A 
ATOM     25  C   UNL     1      -1.143   6.961  -5.999  1.00  0.00     0.044 C 
ENDBRANCH  18  19
ENDBRANCH  16  18
ENDBRANCH   7  10
ENDBRANCH   4   7
ENDBRANCH   2   3
ENDBRANCH   1   2
BRANCH   1  26
ATOM     26  C   UNL     1       0.608  -3.568   1.572  1.00  0.00     0.023 C 
BRANCH  26  27
ATOM     27  C   UNL     1       1.737  -4.562   1.788  1.00  0.00     0.116 C 
BRANCH  27  28
ATOM     28  N   UNL     1       2.723  -4.098   2.757  1.00  0.00    -0.352 N 
ATOM     29  C   UNL     1       3.250  -4.761   3.840  1.00  0.00     0.251 C 
ATOM     30  H   UNL     1       3.058  -3.183   2.616  1.00  0.00     0.163 HD
ATOM     31  O   UNL     1       3.980  -4.172   4.630  1.00  0.00    -0.269 OA
BRANCH  29  32
ATOM     32  C   UNL     1       2.894  -6.178   4.058  1.00  0.00     0.039 A 
ATOM     33  C   UNL     1       2.478  -6.587   5.327  1.00  0.00     0.014 A 
ATOM     34  C   UNL     1       2.918  -7.082   2.994  1.00  0.00     0.014 A 
ATOM     35  C   UNL     1       2.005  -7.888   5.507  1.00  0.00     0.010 A 
ATOM     36  C   UNL     1       2.365  -8.346   3.155  1.00  0.00     0.010 A 
ATOM     37  C   UNL     1       1.906  -8.763   4.413  1.00  0.00    -0.014 A 
BRANCH  37  38
ATOM     38  C   UNL     1       1.341 -10.127   4.555  1.00  0.00     0.031 A 
ATOM     39  C   UNL     1       2.207 -11.322   4.263  1.00  0.00     0.074 A 
ATOM     40  C   UNL     1       0.038 -10.287   4.857  1.00  0.00     0.049 A 
ATOM     41  N   UNL     1       1.879 -12.586   4.208  1.00  0.00    -0.248 NA
ATOM     42  C   UNL     1       3.621 -11.055   3.952  1.00  0.00     0.031 C 
ATOM     43  C   UNL     1      -0.918  -9.203   5.101  1.00  0.00     0.029 A 
ATOM     44  N   UNL     1      -0.713 -11.426   4.997  1.00  0.00    -0.354 N 
ATOM     45  C   UNL     1       3.034 -13.258   3.826  1.00  0.00     0.074 A 
ATOM     46  C   UNL     1       4.057 -12.259   3.616  1.00  0.00     0.031 C 
ATOM     47  C   UNL     1      -2.120  -9.731   5.383  1.00  0.00     0.029 A 
ATOM     48  C   UNL     1      -2.030 -11.186   5.310  1.00  0.00     0.049 A 
ATOM     49  H   UNL     1      -0.344 -12.332   4.884  1.00  0.00     0.167 HD
ATOM     50  C   UNL     1       3.231 -14.591   3.687  1.00  0.00     0.037 A 
ATOM     51  C   UNL     1      -3.049 -12.043   5.512  1.00  0.00     0.037 A 
ATOM     52  C   UNL     1       2.224 -15.583   3.951  1.00  0.00     0.049 A 
ATOM     53  C   UNL     1      -2.792 -13.521   5.405  1.00  0.00     0.074 A 
ATOM     54  C   UNL     1       2.340 -16.961   3.908  1.00  0.00     0.029 A 
ATOM     55  N   UNL     1       0.918 -15.301   4.322  1.00  0.00    -0.354 N 
ATOM     56  N   UNL     1      -1.681 -14.143   5.092  1.00  0.00    -0.248 NA
ATOM     57  C   UNL     1      -3.925 -14.415   5.684  1.00  0.00     0.031 C 
ATOM     58  C   UNL     1       1.096 -17.513   4.237  1.00  0.00     0.029 A 
ATOM     59  C   UNL     1       0.215 -16.478   4.511  1.00  0.00     0.049 A 
ATOM     60  H   UNL     1       0.545 -14.396   4.435  1.00  0.00     0.167 HD
ATOM     61  C   UNL     1      -1.973 -15.500   5.158  1.00  0.00     0.074 A 
ATOM     62  C   UNL     1      -3.364 -15.609   5.550  1.00  0.00     0.031 C 
ATOM     63  C   UNL     1      -1.165 -16.561   4.914  1.00  0.00     0.037 A 
BRANCH  50  64
ATOM     64  C   UNL     1       4.594 -15.043   3.247  1.00  0.00     0.058 A 
ATOM     65  C   UNL     1       5.703 -14.969   4.104  1.00  0.00     0.135 A 
ATOM     66  C   UNL     1       4.795 -15.560   1.957  1.00  0.00     0.135 A 
ATOM     67  F   UNL     1       5.568 -14.464   5.341  1.00  0.00    -0.206 F 
ATOM     68  C   UNL     1       6.971 -15.358   3.688  1.00  0.00     0.059 A 
ATOM     69  C   UNL     1       6.051 -15.979   1.528  1.00  0.00     0.059 A 
ATOM     70  F   UNL     1       3.768 -15.651   1.097  1.00  0.00    -0.206 F 
ATOM     71  C   UNL     1       7.136 -15.856   2.395  1.00  0.00     0.060 A 
BRANCH  71  72
ATOM     72  S   UNL     1       8.789 -16.349   1.863  1.00  0.00     0.124 S 
ATOM     73  O   UNL     1       9.401 -15.053   1.583  1.00  0.00    -0.237 OA
ATOM     74  O   UNL     1       9.303 -17.051   3.034  1.00  0.00    -0.237 OA
ATOM     75  O   UNL     1       8.533 -17.188   0.696  1.00  0.00    -0.744 OA
ENDBRANCH  71  72
ENDBRANCH  50  64
BRANCH  51  76
ATOM     76  C   UNL     1      -4.394 -11.528   5.876  1.00  0.00     0.058 A 
ATOM     77  C   UNL     1      -4.876 -11.650   7.187  1.00  0.00     0.135 A 
ATOM     78  C   UNL     1      -5.214 -10.891   4.933  1.00  0.00     0.135 A 
ATOM     79  F   UNL     1      -4.127 -12.255   8.122  1.00  0.00    -0.206 F 
ATOM     80  C   UNL     1      -6.131 -11.173   7.550  1.00  0.00     0.059 A 
ATOM     81  C   UNL     1      -6.466 -10.389   5.276  1.00  0.00     0.059 A 
ATOM     82  F   UNL     1      -4.789 -10.735   3.669  1.00  0.00    -0.206 F 
ATOM     83  C   UNL     1      -6.920 -10.543   6.586  1.00  0.00     0.060 A 
BRANCH  83  84
ATOM     84  S   UNL     1      -8.527  -9.880   7.076  1.00  0.00     0.124 S 
ATOM     85  O   UNL     1      -9.338 -11.091   7.134  1.00  0.00    -0.237 OA
ATOM     86  O   UNL     1      -8.224  -9.253   8.359  1.00  0.00    -0.237 OA
ATOM     87  O   UNL     1      -8.848  -8.953   5.996  1.00  0.00    -0.744 OA
ENDBRANCH  83  84
ENDBRANCH  51  76
BRANCH  63  88
ATOM     88  C   UNL     1      -1.754 -17.929   5.095  1.00  0.00     0.058 A 
ATOM     89  C   UNL     1      -2.617 -18.486   4.140  1.00  0.00     0.135 A 
ATOM     90  C   UNL     1      -1.405 -18.711   6.207  1.00  0.00     0.135 A 
ATOM     91  F   UNL     1      -2.984 -17.774   3.063  1.00  0.00    -0.206 F 
ATOM     92  C   UNL     1      -3.129 -19.771   4.290  1.00  0.00     0.059 A 
ATOM     93  C   UNL     1      -1.889 -20.005   6.367  1.00  0.00     0.059 A 
ATOM     94  F   UNL     1      -0.576 -18.223   7.143  1.00  0.00    -0.206 F 
ATOM     95  C   UNL     1      -2.759 -20.522   5.407  1.00  0.00     0.060 A 
BRANCH  95  96
ATOM     96  S   UNL     1      -3.394 -22.204   5.573  1.00  0.00     0.124 S 
ATOM     97  O   UNL     1      -4.750 -21.959   6.051  1.00  0.00    -0.237 OA
ATOM     98  O   UNL     1      -3.286 -22.719   4.211  1.00  0.00    -0.237 OA
ATOM     99  O   UNL     1      -2.486 -22.814   6.539  1.00  0.00    -0.744 OA
ENDBRANCH  95  96
ENDBRANCH  63  88
ENDBRANCH  37  38
ENDBRANCH  29  32
ENDBRANCH  27  28
ENDBRANCH  26  27
ENDBRANCH   1  26
TORSDOF 18
