REMARK SMILES CCCCCCNC(=O)Oc1cccc(-c2ccc([C@@H](C)C(=O)NCCCCNC(=O)c3ccc(-c4c5nc(c(-c6c(F)cc(S(=O)(=O)[O-])cc6F)c6ccc([nH]6)c(-c6c(F)cc(S(=O)(=O)[O-])cc6F)c6nc(c(-c7c(F)cc(S(=O)(=O)[O-])cc7F)c7ccc4[nH]7)C=C6)C=C5)cc3)cc2C)c1
REMARK SMILES IDX 20 1 21 2 19 3 16 4 17 5 99 6 18 7 98 8 100 9 15 10 11 11
REMARK SMILES IDX 12 12 101 13 13 14 14 15 10 16 8 17 7 18 9 20 6 21 5 22 4 23
REMARK SMILES IDX 3 24 2 25 1 26 22 27 23 28 24 29 25 31 26 32 27 33 28 34
REMARK SMILES IDX 29 35 30 36 31 38 32 39 33 40 97 41 34 42 96 43 35 44 36 45
REMARK SMILES IDX 37 46 90 47 38 48 95 49 89 50 91 51 39 52 94 53 88 54 87 55
REMARK SMILES IDX 40 57 74 58 53 59 73 60 54 61 57 62 72 63 92 64 55 65 56 66
REMARK SMILES IDX 71 68 93 69 58 70 41 71 42 72 51 73 43 74 44 75 50 76 52 77
REMARK SMILES IDX 45 78 46 79 47 80 48 81 49 82 75 83 76 84 85 85 77 86 78 87
REMARK SMILES IDX 84 88 86 89 79 90 80 91 81 92 82 93 83 94 59 95 60 96 69 97
REMARK SMILES IDX 61 98 62 99 68 100 70 101 63 102 64 103 65 104 66 105 67 106
REMARK H PARENT 7 19 24 30 29 37 91 56 57 67
REMARK Flexibility Score: inf
ROOT
ATOM      1  C   UNL     1      -5.169   1.461  13.400  1.00  0.00     0.105 C 
ATOM      2  C   UNL     1      -6.452   1.575  14.222  1.00  0.00     0.023 C 
ENDROOT
BRANCH   1   3
ATOM      3  C   UNL     1      -5.306   0.709  12.086  1.00  0.00    -0.036 A 
ATOM      4  C   UNL     1      -5.358  -0.733   9.606  1.00  0.00    -0.015 A 
ATOM      5  C   UNL     1      -5.890  -1.261  10.797  1.00  0.00     0.009 A 
ATOM      6  C   UNL     1      -4.867   0.590   9.659  1.00  0.00    -0.043 A 
ATOM      7  C   UNL     1      -5.923  -0.533  11.989  1.00  0.00     0.005 A 
ATOM      8  C   UNL     1      -4.794   1.263  10.903  1.00  0.00     0.008 A 
ATOM      9  C   UNL     1      -4.446   1.389   8.452  1.00  0.00     0.045 C 
BRANCH   4  10
ATOM     10  C   UNL     1      -5.371  -1.589   8.393  1.00  0.00    -0.014 A 
ATOM     11  C   UNL     1      -4.333  -2.478   6.383  1.00  0.00     0.133 A 
ATOM     12  C   UNL     1      -5.461  -3.240   6.092  1.00  0.00     0.047 A 
ATOM     13  C   UNL     1      -4.267  -1.682   7.529  1.00  0.00     0.056 A 
ATOM     14  C   UNL     1      -6.545  -3.201   6.959  1.00  0.00     0.004 A 
ATOM     15  C   UNL     1      -6.505  -2.370   8.082  1.00  0.00     0.009 A 
BRANCH  11  16
ATOM     16  O   UNL     1      -3.354  -2.418   5.375  1.00  0.00    -0.410 OA
BRANCH  16  17
ATOM     17  C   UNL     1      -2.007  -2.495   5.692  1.00  0.00     0.412 C 
ATOM     18  N   UNL     1      -1.200  -2.226   4.620  1.00  0.00    -0.321 N 
ATOM     19  H   UNL     1      -0.230  -2.313   4.764  1.00  0.00     0.167 HD
ATOM     20  O   UNL     1      -1.541  -2.773   6.787  1.00  0.00    -0.224 OA
BRANCH  18  21
ATOM     21  C   UNL     1      -1.627  -1.825   3.294  1.00  0.00     0.119 C 
BRANCH  21  22
ATOM     22  C   UNL     1      -1.044  -0.470   2.891  1.00  0.00     0.021 C 
BRANCH  22  23
ATOM     23  C   UNL     1       0.484  -0.440   2.768  1.00  0.00     0.002 C 
BRANCH  23  24
ATOM     24  C   UNL     1       1.083  -1.438   1.771  1.00  0.00    -0.000 C 
BRANCH  24  25
ATOM     25  C   UNL     1       0.593  -1.297   0.328  1.00  0.00    -0.003 C 
ATOM     26  C   UNL     1       0.958   0.038  -0.303  1.00  0.00     0.004 C 
ENDBRANCH  24  25
ENDBRANCH  23  24
ENDBRANCH  22  23
ENDBRANCH  21  22
ENDBRANCH  18  21
ENDBRANCH  16  17
ENDBRANCH  11  16
ENDBRANCH   4  10
ENDBRANCH   1   3
BRANCH   1  27
ATOM     27  C   UNL     1      -3.928   1.083  14.225  1.00  0.00     0.227 C 
ATOM     28  O   UNL     1      -2.981   1.877  14.300  1.00  0.00    -0.274 OA
ATOM     29  N   UNL     1      -3.799  -0.077  14.925  1.00  0.00    -0.356 N 
ATOM     30  H   UNL     1      -2.980  -0.130  15.468  1.00  0.00     0.163 HD
BRANCH  29  31
ATOM     31  C   UNL     1      -4.646  -1.247  15.016  1.00  0.00     0.116 C 
BRANCH  31  32
ATOM     32  C   UNL     1      -4.223  -2.339  14.031  1.00  0.00     0.023 C 
BRANCH  32  33
ATOM     33  C   UNL     1      -3.186  -3.324  14.563  1.00  0.00     0.023 C 
BRANCH  33  34
ATOM     34  C   UNL     1      -3.629  -4.136  15.773  1.00  0.00     0.116 C 
BRANCH  34  35
ATOM     35  N   UNL     1      -4.853  -4.898  15.564  1.00  0.00    -0.352 N 
ATOM     36  C   UNL     1      -5.199  -6.112  16.112  1.00  0.00     0.251 C 
ATOM     37  H   UNL     1      -5.514  -4.494  14.956  1.00  0.00     0.163 HD
ATOM     38  O   UNL     1      -6.237  -6.673  15.777  1.00  0.00    -0.269 OA
BRANCH  36  39
ATOM     39  C   UNL     1      -4.273  -6.750  17.071  1.00  0.00     0.039 A 
ATOM     40  C   UNL     1      -3.879  -8.072  16.854  1.00  0.00     0.014 A 
ATOM     41  C   UNL     1      -3.735  -6.015  18.130  1.00  0.00     0.014 A 
ATOM     42  C   UNL     1      -2.882  -8.630  17.656  1.00  0.00     0.010 A 
ATOM     43  C   UNL     1      -2.682  -6.542  18.868  1.00  0.00     0.010 A 
ATOM     44  C   UNL     1      -2.244  -7.855  18.640  1.00  0.00    -0.014 A 
BRANCH  44  45
ATOM     45  C   UNL     1      -1.112  -8.399  19.433  1.00  0.00     0.031 A 
ATOM     46  C   UNL     1      -1.234  -8.535  20.926  1.00  0.00     0.074 A 
ATOM     47  C   UNL     1       0.045  -8.709  18.815  1.00  0.00     0.049 A 
ATOM     48  N   UNL     1      -0.345  -8.948  21.792  1.00  0.00    -0.248 NA
ATOM     49  C   UNL     1      -2.511  -8.121  21.530  1.00  0.00     0.031 C 
ATOM     50  C   UNL     1       0.309  -8.555  17.381  1.00  0.00     0.029 A 
ATOM     51  N   UNL     1       1.221  -9.213  19.313  1.00  0.00    -0.354 N 
ATOM     52  C   UNL     1      -0.949  -8.834  23.038  1.00  0.00     0.074 A 
ATOM     53  C   UNL     1      -2.255  -8.252  22.823  1.00  0.00     0.031 C 
ATOM     54  C   UNL     1       1.552  -8.986  17.112  1.00  0.00     0.029 A 
ATOM     55  C   UNL     1       2.187  -9.415  18.354  1.00  0.00     0.049 A 
ATOM     56  H   UNL     1       1.359  -9.412  20.267  1.00  0.00     0.167 HD
ATOM     57  C   UNL     1      -0.471  -9.207  24.250  1.00  0.00     0.037 A 
ATOM     58  C   UNL     1       3.441  -9.893  18.464  1.00  0.00     0.037 A 
ATOM     59  C   UNL     1       0.819  -9.812  24.452  1.00  0.00     0.049 A 
ATOM     60  C   UNL     1       3.944 -10.318  19.818  1.00  0.00     0.074 A 
ATOM     61  C   UNL     1       1.372 -10.286  25.628  1.00  0.00     0.029 A 
ATOM     62  N   UNL     1       1.759 -10.024  23.454  1.00  0.00    -0.354 N 
ATOM     63  N   UNL     1       3.330 -10.273  20.977  1.00  0.00    -0.248 NA
ATOM     64  C   UNL     1       5.305 -10.867  19.878  1.00  0.00     0.031 C 
ATOM     65  C   UNL     1       2.664 -10.747  25.349  1.00  0.00     0.029 A 
ATOM     66  C   UNL     1       2.897 -10.605  23.990  1.00  0.00     0.049 A 
ATOM     67  H   UNL     1       1.636  -9.796  22.504  1.00  0.00     0.167 HD
ATOM     68  C   UNL     1       4.220 -10.810  21.900  1.00  0.00     0.074 A 
ATOM     69  C   UNL     1       5.408 -11.188  21.160  1.00  0.00     0.031 C 
ATOM     70  C   UNL     1       4.070 -10.975  23.238  1.00  0.00     0.037 A 
BRANCH  57  71
ATOM     71  C   UNL     1      -1.356  -8.981  25.446  1.00  0.00     0.058 A 
ATOM     72  C   UNL     1      -2.533  -9.722  25.642  1.00  0.00     0.135 A 
ATOM     73  C   UNL     1      -1.013  -8.030  26.420  1.00  0.00     0.135 A 
ATOM     74  F   UNL     1      -2.919 -10.632  24.733  1.00  0.00    -0.206 F 
ATOM     75  C   UNL     1      -3.356  -9.505  26.742  1.00  0.00     0.059 A 
ATOM     76  C   UNL     1      -1.806  -7.817  27.545  1.00  0.00     0.059 A 
ATOM     77  F   UNL     1       0.100  -7.292  26.284  1.00  0.00    -0.206 F 
ATOM     78  C   UNL     1      -2.984  -8.549  27.688  1.00  0.00     0.060 A 
BRANCH  78  79
ATOM     79  S   UNL     1      -4.062  -8.282  29.111  1.00  0.00     0.124 S 
ATOM     80  O   UNL     1      -5.181  -7.572  28.499  1.00  0.00    -0.237 OA
ATOM     81  O   UNL     1      -4.341  -9.645  29.552  1.00  0.00    -0.237 OA
ATOM     82  O   UNL     1      -3.237  -7.490  30.019  1.00  0.00    -0.744 OA
ENDBRANCH  78  79
ENDBRANCH  57  71
BRANCH  58  83
ATOM     83  C   UNL     1       4.296 -10.028  17.254  1.00  0.00     0.058 A 
ATOM     84  C   UNL     1       4.613 -11.291  16.733  1.00  0.00     0.135 A 
ATOM     85  C   UNL     1       4.800  -8.901  16.586  1.00  0.00     0.135 A 
ATOM     86  F   UNL     1       4.160 -12.399  17.338  1.00  0.00    -0.206 F 
ATOM     87  C   UNL     1       5.413 -11.435  15.604  1.00  0.00     0.059 A 
ATOM     88  C   UNL     1       5.580  -9.018  15.440  1.00  0.00     0.059 A 
ATOM     89  F   UNL     1       4.511  -7.669  17.034  1.00  0.00    -0.206 F 
ATOM     90  C   UNL     1       5.891 -10.291  14.962  1.00  0.00     0.060 A 
BRANCH  90  91
ATOM     91  S   UNL     1       6.889 -10.488  13.470  1.00  0.00     0.124 S 
ATOM     92  O   UNL     1       8.150 -10.969  14.021  1.00  0.00    -0.237 OA
ATOM     93  O   UNL     1       6.112 -11.462  12.708  1.00  0.00    -0.237 OA
ATOM     94  O   UNL     1       6.918  -9.142  12.906  1.00  0.00    -0.744 OA
ENDBRANCH  90  91
ENDBRANCH  58  83
BRANCH  70  95
ATOM     95  C   UNL     1       5.208 -11.616  23.984  1.00  0.00     0.058 A 
ATOM     96  C   UNL     1       6.415 -10.937  24.214  1.00  0.00     0.135 A 
ATOM     97  C   UNL     1       5.075 -12.913  24.506  1.00  0.00     0.135 A 
ATOM     98  F   UNL     1       6.595  -9.697  23.733  1.00  0.00    -0.206 F 
ATOM     99  C   UNL     1       7.462 -11.533  24.909  1.00  0.00     0.059 A 
ATOM    100  C   UNL     1       6.098 -13.517  25.229  1.00  0.00     0.059 A 
ATOM    101  F   UNL     1       3.937 -13.601  24.325  1.00  0.00    -0.206 F 
ATOM    102  C   UNL     1       7.294 -12.825  25.411  1.00  0.00     0.060 A 
BRANCH 102 103
ATOM    103  S   UNL     1       8.654 -13.581  26.326  1.00  0.00     0.124 S 
ATOM    104  O   UNL     1       9.582 -13.914  25.250  1.00  0.00    -0.237 OA
ATOM    105  O   UNL     1       9.074 -12.501  27.214  1.00  0.00    -0.237 OA
ATOM    106  O   UNL     1       8.026 -14.720  26.988  1.00  0.00    -0.744 OA
ENDBRANCH 102 103
ENDBRANCH  70  95
ENDBRANCH  44  45
ENDBRANCH  36  39
ENDBRANCH  34  35
ENDBRANCH  33  34
ENDBRANCH  32  33
ENDBRANCH  31  32
ENDBRANCH  29  31
ENDBRANCH   1  27
TORSDOF 23
