REMARK SMILES C[N@H+]1[C@H]2CC[C@@H]1C[N@@H+]([C@H](C(=O)NCCCCNC(=O)c1ccc(-c3c4nc(c(-c5c(F)cc(S(=O)(=O)[O-])cc5F)c5ccc([nH]5)c(-c5c(F)cc(S(=O)(=O)[O-])cc5F)c5nc(c(-c6c(F)cc(S(=O)(=O)[O-])cc6F)c6ccc3[nH]6)C=C5)C=C4)cc1)c1ccccc1)CC2
REMARK SMILES IDX 14 1 13 2 12 3 10 4 11 5 9 7 8 8 7 10 6 11 1 12 2 13 3 14
REMARK SMILES IDX 4 16 5 17 93 18 92 20 86 22 87 23 91 24 88 25 90 26 89 27
REMARK SMILES IDX 15 28 16 29 17 30 18 31 19 33 20 34 21 35 85 36 22 37 84 38
REMARK SMILES IDX 23 39 24 40 25 41 78 42 26 43 83 44 77 45 79 46 27 47 82 48
REMARK SMILES IDX 76 49 75 50 28 52 62 53 41 54 61 55 42 56 45 57 60 58 80 59
REMARK SMILES IDX 43 60 44 61 59 63 81 64 46 65 29 66 30 67 39 68 31 69 32 70
REMARK SMILES IDX 38 71 40 72 33 73 34 74 35 75 36 76 37 77 63 78 64 79 73 80
REMARK SMILES IDX 65 81 66 82 72 83 74 84 67 85 68 86 69 87 70 88 71 89 47 90
REMARK SMILES IDX 48 91 57 92 49 93 50 94 56 95 58 96 51 97 52 98 53 99 54 100
REMARK SMILES IDX 55 101
REMARK H PARENT 12 6 8 9 2 15 17 32 79 51 45 62
REMARK Flexibility Score: 90.00
ROOT
ATOM      1  C   UNL     1      -0.572   3.376   2.420  1.00  0.00     0.023 C 
ENDROOT
BRANCH   1   2
ATOM      2  C   UNL     1      -0.127   2.787   3.755  1.00  0.00     0.116 C 
BRANCH   2   3
ATOM      3  N   UNL     1      -0.631   1.448   3.998  1.00  0.00    -0.351 N 
ATOM      4  C   UNL     1       0.034   0.312   4.387  1.00  0.00     0.283 C 
ATOM      5  O   UNL     1      -0.663  -0.691   4.590  1.00  0.00    -0.268 OA
ATOM      6  H   UNL     1      -1.599   1.337   3.862  1.00  0.00     0.163 HD
BRANCH   4   7
ATOM      7  C   UNL     1       1.595   0.245   4.547  1.00  0.00     0.305 C 
BRANCH   7   8
ATOM      8  N   UNL     1       2.226  -0.232   3.276  1.00  0.00    -0.316 N 
ATOM      9  H   UNL     1       1.691  -1.070   3.048  1.00  0.00     0.349 HD
BRANCH   8  10
ATOM     10  C   UNL     1       3.629  -0.659   3.452  1.00  0.00     0.328 C 
BRANCH  10  11
ATOM     11  C   UNL     1       4.314  -1.457   2.296  1.00  0.00     0.240 C 
ATOM     12  C   UNL     1       5.291  -1.125   0.078  1.00  0.00     0.333 C 
ATOM     13  N   UNL     1       4.205  -0.774   0.987  1.00  0.00    -0.328 N 
ATOM     14  C   UNL     1       2.895  -1.195   0.454  1.00  0.00     0.190 C 
ATOM     15  H   UNL     1       4.276   0.239   1.089  1.00  0.00     0.348 HD
ATOM     16  C   UNL     1       2.551  -2.548   1.090  1.00  0.00     0.071 C 
ATOM     17  C   UNL     1       3.665  -2.818   2.080  1.00  0.00     0.077 C 
BRANCH  14  18
ATOM     18  C   UNL     1       1.851  -0.126   0.771  1.00  0.00     0.126 CG0
ATOM     19  G   UNL     1       2.022   0.615   2.104  1.00  0.00     0.000 G0
ENDBRANCH  14  18
ENDBRANCH  10  11
ENDBRANCH   8  10
BRANCH   8  20
ATOM     20  C   UNL     1       2.022   0.615   2.104  1.00  0.00     0.269 CG0
ATOM     21  G   UNL     1       1.851  -0.126   0.771  1.00  0.00     0.000 G0
ENDBRANCH   8  20
ENDBRANCH   7   8
BRANCH   7  22
ATOM     22  C   UNL     1       2.179   1.419   5.347  1.00  0.00     0.019 A 
ATOM     23  C   UNL     1       3.139   2.321   4.864  1.00  0.00     0.010 A 
ATOM     24  C   UNL     1       1.659   1.657   6.638  1.00  0.00     0.010 A 
ATOM     25  C   UNL     1       3.531   3.435   5.614  1.00  0.00     0.001 A 
ATOM     26  C   UNL     1       2.047   2.772   7.386  1.00  0.00     0.001 A 
ATOM     27  C   UNL     1       2.978   3.665   6.869  1.00  0.00     0.000 A 
ENDBRANCH   7  22
ENDBRANCH   4   7
ENDBRANCH   2   3
ENDBRANCH   1   2
BRANCH   1  28
ATOM     28  C   UNL     1      -2.060   3.663   2.299  1.00  0.00     0.023 C 
BRANCH  28  29
ATOM     29  C   UNL     1      -2.647   4.478   3.442  1.00  0.00     0.116 C 
BRANCH  29  30
ATOM     30  N   UNL     1      -1.941   5.732   3.680  1.00  0.00    -0.352 N 
ATOM     31  C   UNL     1      -2.439   7.011   3.735  1.00  0.00     0.251 C 
ATOM     32  H   UNL     1      -0.970   5.650   3.822  1.00  0.00     0.163 HD
ATOM     33  O   UNL     1      -1.682   7.971   3.840  1.00  0.00    -0.269 OA
BRANCH  31  34
ATOM     34  C   UNL     1      -3.896   7.213   3.622  1.00  0.00     0.039 A 
ATOM     35  C   UNL     1      -4.385   8.112   2.672  1.00  0.00     0.014 A 
ATOM     36  C   UNL     1      -4.771   6.447   4.396  1.00  0.00     0.014 A 
ATOM     37  C   UNL     1      -5.758   8.171   2.431  1.00  0.00     0.010 A 
ATOM     38  C   UNL     1      -6.126   6.443   4.091  1.00  0.00     0.010 A 
ATOM     39  C   UNL     1      -6.632   7.299   3.101  1.00  0.00    -0.014 A 
BRANCH  39  40
ATOM     40  C   UNL     1      -8.080   7.254   2.784  1.00  0.00     0.031 A 
ATOM     41  C   UNL     1      -9.087   7.600   3.845  1.00  0.00     0.074 A 
ATOM     42  C   UNL     1      -8.487   6.821   1.574  1.00  0.00     0.049 A 
ATOM     43  N   UNL     1     -10.391   7.518   3.805  1.00  0.00    -0.248 NA
ATOM     44  C   UNL     1      -8.552   8.069   5.134  1.00  0.00     0.031 C 
ATOM     45  C   UNL     1      -7.606   6.408   0.479  1.00  0.00     0.029 A 
ATOM     46  N   UNL     1      -9.749   6.645   1.066  1.00  0.00    -0.354 N 
ATOM     47  C   UNL     1     -10.831   7.903   5.065  1.00  0.00     0.074 A 
ATOM     48  C   UNL     1      -9.653   8.164   5.864  1.00  0.00     0.031 C 
ATOM     49  C   UNL     1      -8.354   6.057  -0.580  1.00  0.00     0.029 A 
ATOM     50  C   UNL     1      -9.765   6.181  -0.228  1.00  0.00     0.049 A 
ATOM     51  H   UNL     1     -10.568   6.833   1.580  1.00  0.00     0.167 HD
ATOM     52  C   UNL     1     -12.101   8.051   5.510  1.00  0.00     0.037 A 
ATOM     53  C   UNL     1     -10.801   5.887  -1.038  1.00  0.00     0.037 A 
ATOM     54  C   UNL     1     -13.268   7.822   4.701  1.00  0.00     0.049 A 
ATOM     55  C   UNL     1     -12.203   6.064  -0.525  1.00  0.00     0.074 A 
ATOM     56  C   UNL     1     -14.598   7.993   5.038  1.00  0.00     0.029 A 
ATOM     57  N   UNL     1     -13.241   7.375   3.387  1.00  0.00    -0.354 N 
ATOM     58  N   UNL     1     -12.603   6.474   0.656  1.00  0.00    -0.248 NA
ATOM     59  C   UNL     1     -13.296   5.740  -1.452  1.00  0.00     0.031 C 
ATOM     60  C   UNL     1     -15.378   7.623   3.937  1.00  0.00     0.029 A 
ATOM     61  C   UNL     1     -14.532   7.254   2.902  1.00  0.00     0.049 A 
ATOM     62  H   UNL     1     -12.425   7.172   2.876  1.00  0.00     0.167 HD
ATOM     63  C   UNL     1     -13.992   6.481   0.605  1.00  0.00     0.074 A 
ATOM     64  C   UNL     1     -14.363   6.041  -0.725  1.00  0.00     0.031 C 
ATOM     65  C   UNL     1     -14.879   6.822   1.571  1.00  0.00     0.037 A 
BRANCH  52  66
ATOM     66  C   UNL     1     -12.280   8.492   6.935  1.00  0.00     0.058 A 
ATOM     67  C   UNL     1     -11.958   9.797   7.345  1.00  0.00     0.135 A 
ATOM     68  C   UNL     1     -12.768   7.603   7.905  1.00  0.00     0.135 A 
ATOM     69  F   UNL     1     -11.471  10.682   6.460  1.00  0.00    -0.206 F 
ATOM     70  C   UNL     1     -12.070  10.191   8.673  1.00  0.00     0.059 A 
ATOM     71  C   UNL     1     -12.914   7.984   9.236  1.00  0.00     0.059 A 
ATOM     72  F   UNL     1     -13.091   6.344   7.568  1.00  0.00    -0.206 F 
ATOM     73  C   UNL     1     -12.542   9.274   9.614  1.00  0.00     0.060 A 
BRANCH  73  74
ATOM     74  S   UNL     1     -12.657   9.789  11.340  1.00  0.00     0.124 S 
ATOM     75  O   UNL     1     -11.259   9.724  11.755  1.00  0.00    -0.237 OA
ATOM     76  O   UNL     1     -13.224  11.129  11.232  1.00  0.00    -0.237 OA
ATOM     77  O   UNL     1     -13.536   8.786  11.934  1.00  0.00    -0.744 OA
ENDBRANCH  73  74
ENDBRANCH  52  66
BRANCH  53  78
ATOM     78  C   UNL     1     -10.548   5.434  -2.430  1.00  0.00     0.058 A 
ATOM     79  C   UNL     1     -10.792   6.291  -3.514  1.00  0.00     0.135 A 
ATOM     80  C   UNL     1     -10.039   4.156  -2.707  1.00  0.00     0.135 A 
ATOM     81  F   UNL     1     -11.284   7.520  -3.298  1.00  0.00    -0.206 F 
ATOM     82  C   UNL     1     -10.548   5.895  -4.825  1.00  0.00     0.059 A 
ATOM     83  C   UNL     1      -9.769   3.744  -4.009  1.00  0.00     0.059 A 
ATOM     84  F   UNL     1      -9.775   3.306  -1.703  1.00  0.00    -0.206 F 
ATOM     85  C   UNL     1     -10.034   4.620  -5.062  1.00  0.00     0.060 A 
BRANCH  85  86
ATOM     86  S   UNL     1      -9.665   4.138  -6.763  1.00  0.00     0.124 S 
ATOM     87  O   UNL     1     -10.999   3.886  -7.293  1.00  0.00    -0.237 OA
ATOM     88  O   UNL     1      -8.985   5.323  -7.279  1.00  0.00    -0.237 OA
ATOM     89  O   UNL     1      -8.816   2.961  -6.601  1.00  0.00    -0.744 OA
ENDBRANCH  85  86
ENDBRANCH  53  78
BRANCH  65  90
ATOM     90  C   UNL     1     -16.338   6.764   1.218  1.00  0.00     0.058 A 
ATOM     91  C   UNL     1     -17.023   5.544   1.128  1.00  0.00     0.135 A 
ATOM     92  C   UNL     1     -17.069   7.947   1.026  1.00  0.00     0.135 A 
ATOM     93  F   UNL     1     -16.366   4.386   1.296  1.00  0.00    -0.206 F 
ATOM     94  C   UNL     1     -18.384   5.497   0.844  1.00  0.00     0.059 A 
ATOM     95  C   UNL     1     -18.434   7.925   0.762  1.00  0.00     0.059 A 
ATOM     96  F   UNL     1     -16.459   9.140   1.110  1.00  0.00    -0.206 F 
ATOM     97  C   UNL     1     -19.081   6.694   0.665  1.00  0.00     0.060 A 
BRANCH  97  98
ATOM     98  S   UNL     1     -20.856   6.623   0.342  1.00  0.00     0.124 S 
ATOM     99  O   UNL     1     -20.883   6.227  -1.062  1.00  0.00    -0.237 OA
ATOM    100  O   UNL     1     -21.310   5.614   1.294  1.00  0.00    -0.237 OA
ATOM    101  O   UNL     1     -21.305   7.984   0.620  1.00  0.00    -0.744 OA
ENDBRANCH  97  98
ENDBRANCH  65  90
ENDBRANCH  39  40
ENDBRANCH  31  34
ENDBRANCH  29  30
ENDBRANCH  28  29
ENDBRANCH   1  28
TORSDOF 16
