REMARK SMILES [NH3+][C@H](CS[C@@H]1CC(=O)N(c2ccc3ccccc3c2)C1=O)C(=O)NCCCCNC(=O)c1ccc(-c2c3nc(c(-c4c(F)cc(S(=O)(=O)[O-])cc4F)c4ccc([nH]4)c(-c4c(F)cc(S(=O)(=O)[O-])cc4F)c4nc(c(-c5c(F)cc(S(=O)(=O)[O-])cc5F)c5ccc2[nH]5)C=C4)C=C3)cc1
REMARK SMILES IDX 26 1 25 2 24 3 22 4 23 5 2 7 1 8 3 12 4 13 5 14 6 15 20 16
REMARK SMILES IDX 7 17 9 18 21 19 8 20 10 21 11 22 19 23 12 24 18 25 13 26
REMARK SMILES IDX 17 27 14 28 16 29 15 30 27 31 28 32 29 33 30 34 31 36 32 37
REMARK SMILES IDX 33 38 97 39 34 40 96 41 35 42 36 43 37 44 90 45 38 46 95 47
REMARK SMILES IDX 89 48 91 49 39 50 94 51 88 52 87 53 40 55 74 56 53 57 73 58
REMARK SMILES IDX 54 59 57 60 72 61 92 62 55 63 56 64 71 66 93 67 58 68 41 69
REMARK SMILES IDX 42 70 51 71 43 72 44 73 50 74 52 75 45 76 46 77 47 78 48 79
REMARK SMILES IDX 49 80 75 81 76 82 85 83 77 84 78 85 84 86 86 87 79 88 80 89
REMARK SMILES IDX 81 90 82 91 83 92 59 93 60 94 69 95 61 96 62 97 68 98 70 99
REMARK SMILES IDX 63 100 64 101 65 102 66 103 67 104
REMARK H PARENT 24 6 1 9 1 10 1 11 29 35 91 54 57 65
REMARK Flexibility Score: inf
ROOT
ATOM      1  C   UNL     1      -0.671   3.134  -1.884  1.00  0.00     0.023 C 
ENDROOT
BRANCH   1   2
ATOM      2  C   UNL     1      -0.059   3.176  -0.485  1.00  0.00     0.116 C 
BRANCH   2   3
ATOM      3  N   UNL     1      -0.656   2.304   0.511  1.00  0.00    -0.351 N 
ATOM      4  C   UNL     1       0.062   1.525   1.378  1.00  0.00     0.279 C 
ATOM      5  O   UNL     1      -0.046   1.786   2.581  1.00  0.00    -0.268 OA
ATOM      6  H   UNL     1      -1.638   2.270   0.566  1.00  0.00     0.163 HD
BRANCH   4   7
ATOM      7  C   UNL     1       1.055   0.439   0.906  1.00  0.00     0.280 C 
BRANCH   7   8
ATOM      8  N   UNL     1       2.369   1.059   0.598  1.00  0.00    -0.347 N 
ATOM      9  H   UNL     1       2.595   1.751   1.312  1.00  0.00     0.345 HD
ATOM     10  H   UNL     1       2.325   1.514  -0.314  1.00  0.00     0.345 HD
ATOM     11  H   UNL     1       3.090   0.338   0.583  1.00  0.00     0.345 HD
ENDBRANCH   7   8
BRANCH   7  12
ATOM     12  C   UNL     1       0.626  -0.630  -0.131  1.00  0.00     0.145 C 
BRANCH  12  13
ATOM     13  S   UNL     1      -0.695  -0.300  -1.349  1.00  0.00    -0.141 SA
BRANCH  13  14
ATOM     14  C   UNL     1      -2.182  -1.027  -0.567  1.00  0.00     0.146 C 
ATOM     15  C   UNL     1      -3.449  -0.582  -1.283  1.00  0.00     0.125 C 
ATOM     16  C   UNL     1      -2.401  -0.598   0.861  1.00  0.00     0.247 C 
ATOM     17  C   UNL     1      -4.194   0.233  -0.267  1.00  0.00     0.235 C 
ATOM     18  N   UNL     1      -3.574   0.118   0.948  1.00  0.00    -0.250 N 
ATOM     19  O   UNL     1      -1.647  -0.929   1.769  1.00  0.00    -0.273 OA
ATOM     20  O   UNL     1      -5.174   0.911  -0.551  1.00  0.00    -0.274 OA
BRANCH  18  21
ATOM     21  C   UNL     1      -4.095   0.633   2.165  1.00  0.00     0.052 A 
ATOM     22  C   UNL     1      -5.466   0.622   2.439  1.00  0.00     0.027 A 
ATOM     23  C   UNL     1      -3.235   1.117   3.156  1.00  0.00     0.035 A 
ATOM     24  C   UNL     1      -5.941   0.991   3.708  1.00  0.00     0.011 A 
ATOM     25  C   UNL     1      -3.694   1.552   4.405  1.00  0.00    -0.016 A 
ATOM     26  C   UNL     1      -5.063   1.442   4.709  1.00  0.00    -0.018 A 
ATOM     27  C   UNL     1      -2.802   2.069   5.358  1.00  0.00     0.009 A 
ATOM     28  C   UNL     1      -5.495   1.782   6.003  1.00  0.00     0.009 A 
ATOM     29  C   UNL     1      -3.249   2.421   6.629  1.00  0.00     0.001 A 
ATOM     30  C   UNL     1      -4.591   2.256   6.959  1.00  0.00     0.001 A 
ENDBRANCH  18  21
ENDBRANCH  13  14
ENDBRANCH  12  13
ENDBRANCH   7  12
ENDBRANCH   4   7
ENDBRANCH   2   3
ENDBRANCH   1   2
BRANCH   1  31
ATOM     31  C   UNL     1      -2.197   3.144  -1.962  1.00  0.00     0.023 C 
BRANCH  31  32
ATOM     32  C   UNL     1      -2.875   4.353  -1.331  1.00  0.00     0.116 C 
BRANCH  32  33
ATOM     33  N   UNL     1      -2.548   5.580  -2.036  1.00  0.00    -0.352 N 
ATOM     34  C   UNL     1      -3.322   6.366  -2.855  1.00  0.00     0.251 C 
ATOM     35  H   UNL     1      -1.626   5.900  -1.906  1.00  0.00     0.163 HD
ATOM     36  O   UNL     1      -2.769   7.207  -3.561  1.00  0.00    -0.269 OA
BRANCH  34  37
ATOM     37  C   UNL     1      -4.798   6.220  -2.901  1.00  0.00     0.039 A 
ATOM     38  C   UNL     1      -5.455   6.408  -4.122  1.00  0.00     0.014 A 
ATOM     39  C   UNL     1      -5.548   5.990  -1.745  1.00  0.00     0.014 A 
ATOM     40  C   UNL     1      -6.851   6.338  -4.187  1.00  0.00     0.010 A 
ATOM     41  C   UNL     1      -6.933   5.841  -1.825  1.00  0.00     0.010 A 
ATOM     42  C   UNL     1      -7.604   6.040  -3.040  1.00  0.00    -0.014 A 
BRANCH  42  43
ATOM     43  C   UNL     1      -9.091   5.989  -3.079  1.00  0.00     0.031 A 
ATOM     44  C   UNL     1      -9.899   6.982  -2.280  1.00  0.00     0.074 A 
ATOM     45  C   UNL     1      -9.718   5.029  -3.786  1.00  0.00     0.049 A 
ATOM     46  N   UNL     1     -11.196   7.058  -2.122  1.00  0.00    -0.248 NA
ATOM     47  C   UNL     1      -9.147   8.008  -1.540  1.00  0.00     0.031 C 
ATOM     48  C   UNL     1      -9.054   3.985  -4.569  1.00  0.00     0.029 A 
ATOM     49  N   UNL     1     -11.056   4.767  -3.953  1.00  0.00    -0.354 N 
ATOM     50  C   UNL     1     -11.411   8.117  -1.246  1.00  0.00     0.074 A 
ATOM     51  C   UNL     1     -10.110   8.626  -0.872  1.00  0.00     0.031 C 
ATOM     52  C   UNL     1      -9.986   3.211  -5.149  1.00  0.00     0.029 A 
ATOM     53  C   UNL     1     -11.311   3.678  -4.752  1.00  0.00     0.049 A 
ATOM     54  H   UNL     1     -11.765   5.309  -3.539  1.00  0.00     0.167 HD
ATOM     55  C   UNL     1     -12.585   8.634  -0.809  1.00  0.00     0.037 A 
ATOM     56  C   UNL     1     -12.479   3.115  -5.119  1.00  0.00     0.037 A 
ATOM     57  C   UNL     1     -13.880   8.154  -1.218  1.00  0.00     0.049 A 
ATOM     58  C   UNL     1     -13.771   3.716  -4.634  1.00  0.00     0.074 A 
ATOM     59  C   UNL     1     -15.127   8.656  -0.888  1.00  0.00     0.029 A 
ATOM     60  N   UNL     1     -14.094   7.064  -2.049  1.00  0.00    -0.354 N 
ATOM     61  N   UNL     1     -13.956   4.753  -3.852  1.00  0.00    -0.248 NA
ATOM     62  C   UNL     1     -15.014   3.074  -5.084  1.00  0.00     0.031 C 
ATOM     63  C   UNL     1     -16.097   7.846  -1.489  1.00  0.00     0.029 A 
ATOM     64  C   UNL     1     -15.453   6.867  -2.228  1.00  0.00     0.049 A 
ATOM     65  H   UNL     1     -13.385   6.513  -2.451  1.00  0.00     0.167 HD
ATOM     66  C   UNL     1     -15.334   4.904  -3.740  1.00  0.00     0.074 A 
ATOM     67  C   UNL     1     -15.935   3.858  -4.541  1.00  0.00     0.031 C 
ATOM     68  C   UNL     1     -16.037   5.827  -3.038  1.00  0.00     0.037 A 
BRANCH  55  69
ATOM     69  C   UNL     1     -12.525   9.784   0.161  1.00  0.00     0.058 A 
ATOM     70  C   UNL     1     -12.102  11.063  -0.235  1.00  0.00     0.135 A 
ATOM     71  C   UNL     1     -12.927   9.613   1.496  1.00  0.00     0.135 A 
ATOM     72  F   UNL     1     -11.694  11.280  -1.496  1.00  0.00    -0.206 F 
ATOM     73  C   UNL     1     -12.047  12.123   0.665  1.00  0.00     0.059 A 
ATOM     74  C   UNL     1     -12.907  10.666   2.406  1.00  0.00     0.059 A 
ATOM     75  F   UNL     1     -13.343   8.412   1.929  1.00  0.00    -0.206 F 
ATOM     76  C   UNL     1     -12.450  11.914   1.985  1.00  0.00     0.060 A 
BRANCH  76  77
ATOM     77  S   UNL     1     -12.375  13.299   3.140  1.00  0.00     0.124 S 
ATOM     78  O   UNL     1     -10.939  13.399   3.381  1.00  0.00    -0.237 OA
ATOM     79  O   UNL     1     -12.963  14.386   2.364  1.00  0.00    -0.237 OA
ATOM     80  O   UNL     1     -13.171  12.840   4.274  1.00  0.00    -0.744 OA
ENDBRANCH  76  77
ENDBRANCH  55  69
BRANCH  56  81
ATOM     81  C   UNL     1     -12.483   1.930  -6.018  1.00  0.00     0.058 A 
ATOM     82  C   UNL     1     -12.911   2.038  -7.349  1.00  0.00     0.135 A 
ATOM     83  C   UNL     1     -12.048   0.672  -5.572  1.00  0.00     0.135 A 
ATOM     84  F   UNL     1     -13.345   3.218  -7.819  1.00  0.00    -0.206 F 
ATOM     85  C   UNL     1     -12.922   0.941  -8.204  1.00  0.00     0.059 A 
ATOM     86  C   UNL     1     -12.026  -0.435  -6.415  1.00  0.00     0.059 A 
ATOM     87  F   UNL     1     -11.615   0.518  -4.311  1.00  0.00    -0.206 F 
ATOM     88  C   UNL     1     -12.475  -0.292  -7.728  1.00  0.00     0.060 A 
BRANCH  88  89
ATOM     89  S   UNL     1     -12.442  -1.699  -8.860  1.00  0.00     0.124 S 
ATOM     90  O   UNL     1     -13.858  -2.035  -8.952  1.00  0.00    -0.237 OA
ATOM     91  O   UNL     1     -11.844  -1.117 -10.057  1.00  0.00    -0.237 OA
ATOM     92  O   UNL     1     -11.606  -2.671  -8.162  1.00  0.00    -0.744 OA
ENDBRANCH  88  89
ENDBRANCH  56  81
BRANCH  68  93
ATOM     93  C   UNL     1     -17.537   5.772  -3.129  1.00  0.00     0.058 A 
ATOM     94  C   UNL     1     -18.281   4.779  -2.474  1.00  0.00     0.135 A 
ATOM     95  C   UNL     1     -18.241   6.760  -3.838  1.00  0.00     0.135 A 
ATOM     96  F   UNL     1     -17.656   3.808  -1.789  1.00  0.00    -0.206 F 
ATOM     97  C   UNL     1     -19.670   4.754  -2.535  1.00  0.00     0.059 A 
ATOM     98  C   UNL     1     -19.631   6.769  -3.891  1.00  0.00     0.059 A 
ATOM     99  F   UNL     1     -17.577   7.739  -4.473  1.00  0.00    -0.206 F 
ATOM    100  C   UNL     1     -20.337   5.755  -3.245  1.00  0.00     0.060 A 
BRANCH 100 101
ATOM    101  S   UNL     1     -22.142   5.733  -3.287  1.00  0.00     0.124 S 
ATOM    102  O   UNL     1     -22.400   4.649  -4.229  1.00  0.00    -0.237 OA
ATOM    103  O   UNL     1     -22.485   5.458  -1.895  1.00  0.00    -0.237 OA
ATOM    104  O   UNL     1     -22.487   7.071  -3.758  1.00  0.00    -0.744 OA
ENDBRANCH 100 101
ENDBRANCH  68  93
ENDBRANCH  42  43
ENDBRANCH  34  37
ENDBRANCH  32  33
ENDBRANCH  31  32
ENDBRANCH   1  31
TORSDOF 19
