REMARK SMILES CCc1n[nH]c(C(=O)N[C@@]2(C(=O)NCCCCNC(=O)c3ccc(-c4c5nc(c(-c6c(F)cc(S(=O)(=O)[O-])cc6F)c6ccc([nH]6)c(-c6c(F)cc(S(=O)(=O)[O-])cc6F)c6nc(c(-c7c(F)cc(S(=O)(=O)[O-])cc7F)c7ccc4[nH]7)C=C6)C=C5)cc3)CCCC[C@H]2C)n1
REMARK SMILES IDX 15 1 14 2 13 3 11 4 12 5 10 7 87 8 91 9 88 10 90 11 92 12
REMARK SMILES IDX 89 13 9 14 7 15 8 16 6 18 3 19 4 20 93 21 5 22 2 24 1 25
REMARK SMILES IDX 16 26 17 27 18 28 19 29 20 31 21 32 22 33 86 34 23 35 85 36
REMARK SMILES IDX 24 37 25 38 26 39 79 40 27 41 84 42 78 43 80 44 28 45 83 46
REMARK SMILES IDX 77 47 76 48 29 50 63 51 42 52 62 53 43 54 46 55 61 56 81 57
REMARK SMILES IDX 44 58 45 59 60 61 82 62 47 63 30 64 31 65 40 66 32 67 33 68
REMARK SMILES IDX 39 69 41 70 34 71 35 72 36 73 37 74 38 75 64 76 65 77 74 78
REMARK SMILES IDX 66 79 67 80 73 81 75 82 68 83 69 84 70 85 71 86 72 87 48 88
REMARK SMILES IDX 49 89 58 90 50 91 51 92 57 93 59 94 52 95 53 96 54 97 55 98
REMARK SMILES IDX 56 99
REMARK H PARENT 13 6 9 17 5 23 18 30 80 49 46 60
REMARK Flexibility Score: inf
ROOT
ATOM      1  C   UNL     1      -2.836   2.736   4.614  1.00  0.00     0.023 C 
ENDROOT
BRANCH   1   2
ATOM      2  C   UNL     1      -3.224   4.185   4.277  1.00  0.00     0.116 C 
BRANCH   2   3
ATOM      3  N   UNL     1      -2.160   5.179   4.421  1.00  0.00    -0.354 N 
ATOM      4  C   UNL     1      -1.278   5.763   3.543  1.00  0.00     0.246 C 
ATOM      5  O   UNL     1      -0.664   6.753   3.966  1.00  0.00    -0.272 OA
ATOM      6  H   UNL     1      -2.052   5.498   5.346  1.00  0.00     0.163 HD
BRANCH   4   7
ATOM      7  C   UNL     1      -1.073   5.296   2.042  1.00  0.00     0.122 C 
ATOM      8  C   UNL     1      -2.273   5.887   1.256  1.00  0.00     0.039 C 
ATOM      9  C   UNL     1      -1.049   3.766   1.972  1.00  0.00     0.021 C 
ATOM     10  C   UNL     1      -2.440   5.310  -0.143  1.00  0.00     0.003 C 
ATOM     11  C   UNL     1      -1.239   3.205   0.548  1.00  0.00     0.006 C 
ATOM     12  C   UNL     1       0.036   3.194   2.910  1.00  0.00     0.011 C 
ATOM     13  C   UNL     1      -2.490   3.787  -0.116  1.00  0.00     0.000 C 
BRANCH   7  14
ATOM     14  N   UNL     1       0.189   5.992   1.552  1.00  0.00    -0.335 N 
ATOM     15  C   UNL     1       1.219   5.799   0.645  1.00  0.00     0.289 C 
ATOM     16  O   UNL     1       1.739   6.823   0.190  1.00  0.00    -0.266 OA
ATOM     17  H   UNL     1       0.312   6.846   2.027  1.00  0.00     0.165 HD
BRANCH  15  18
ATOM     18  C   UNL     1       1.717   4.499   0.238  1.00  0.00     0.214 A 
ATOM     19  C   UNL     1       2.093   2.401   0.085  1.00  0.00     0.151 A 
ATOM     20  N   UNL     1       2.569   2.867  -1.075  1.00  0.00    -0.158 NA
ATOM     21  N   UNL     1       1.672   3.384   0.927  1.00  0.00    -0.207 NA
ATOM     22  N   UNL     1       2.392   4.208  -0.916  1.00  0.00    -0.255 N 
ATOM     23  H   UNL     1       2.711   4.886  -1.555  1.00  0.00     0.192 HD
BRANCH  19  24
ATOM     24  C   UNL     1       1.851   0.983   0.480  1.00  0.00     0.076 C 
ATOM     25  C   UNL     1       1.835  -0.044  -0.630  1.00  0.00     0.012 C 
ENDBRANCH  19  24
ENDBRANCH  15  18
ENDBRANCH   7  14
ENDBRANCH   4   7
ENDBRANCH   2   3
ENDBRANCH   1   2
BRANCH   1  26
ATOM     26  C   UNL     1      -2.679   2.419   6.095  1.00  0.00     0.023 C 
BRANCH  26  27
ATOM     27  C   UNL     1      -4.013   2.274   6.798  1.00  0.00     0.116 C 
BRANCH  27  28
ATOM     28  N   UNL     1      -4.844   1.229   6.212  1.00  0.00    -0.352 N 
ATOM     29  C   UNL     1      -5.800   0.451   6.817  1.00  0.00     0.251 C 
ATOM     30  H   UNL     1      -4.701   1.058   5.253  1.00  0.00     0.163 HD
ATOM     31  O   UNL     1      -6.339  -0.455   6.205  1.00  0.00    -0.269 OA
BRANCH  29  32
ATOM     32  C   UNL     1      -6.112   0.707   8.235  1.00  0.00     0.039 A 
ATOM     33  C   UNL     1      -6.136  -0.373   9.116  1.00  0.00     0.014 A 
ATOM     34  C   UNL     1      -6.306   2.013   8.692  1.00  0.00     0.014 A 
ATOM     35  C   UNL     1      -6.304  -0.133  10.477  1.00  0.00     0.010 A 
ATOM     36  C   UNL     1      -6.371   2.257  10.055  1.00  0.00     0.010 A 
ATOM     37  C   UNL     1      -6.389   1.185  10.957  1.00  0.00    -0.014 A 
BRANCH  37  38
ATOM     38  C   UNL     1      -6.528   1.460  12.405  1.00  0.00     0.031 A 
ATOM     39  C   UNL     1      -7.770   2.132  12.918  1.00  0.00     0.074 A 
ATOM     40  C   UNL     1      -5.516   1.148  13.237  1.00  0.00     0.049 A 
ATOM     41  N   UNL     1      -8.072   2.481  14.141  1.00  0.00    -0.248 NA
ATOM     42  C   UNL     1      -8.796   2.491  11.923  1.00  0.00     0.031 C 
ATOM     43  C   UNL     1      -4.238   0.555  12.834  1.00  0.00     0.029 A 
ATOM     44  N   UNL     1      -5.403   1.287  14.595  1.00  0.00    -0.354 N 
ATOM     45  C   UNL     1      -9.309   3.107  14.060  1.00  0.00     0.074 A 
ATOM     46  C   UNL     1      -9.673   3.153  12.662  1.00  0.00     0.031 C 
ATOM     47  C   UNL     1      -3.485   0.349  13.926  1.00  0.00     0.029 A 
ATOM     48  C   UNL     1      -4.212   0.823  15.100  1.00  0.00     0.049 A 
ATOM     49  H   UNL     1      -6.108   1.682  15.157  1.00  0.00     0.167 HD
ATOM     50  C   UNL     1     -10.088   3.570  15.065  1.00  0.00     0.037 A 
ATOM     51  C   UNL     1      -3.762   0.781  16.368  1.00  0.00     0.037 A 
ATOM     52  C   UNL     1      -9.729   3.489  16.455  1.00  0.00     0.049 A 
ATOM     53  C   UNL     1      -4.656   1.281  17.470  1.00  0.00     0.074 A 
ATOM     54  C   UNL     1     -10.468   3.872  17.559  1.00  0.00     0.029 A 
ATOM     55  N   UNL     1      -8.526   2.985  16.931  1.00  0.00    -0.354 N 
ATOM     56  N   UNL     1      -5.856   1.804  17.384  1.00  0.00    -0.248 NA
ATOM     57  C   UNL     1      -4.141   1.174  18.841  1.00  0.00     0.031 C 
ATOM     58  C   UNL     1      -9.695   3.638  18.702  1.00  0.00     0.029 A 
ATOM     59  C   UNL     1      -8.495   3.062  18.313  1.00  0.00     0.049 A 
ATOM     60  H   UNL     1      -7.802   2.626  16.369  1.00  0.00     0.167 HD
ATOM     61  C   UNL     1      -6.252   2.064  18.691  1.00  0.00     0.074 A 
ATOM     62  C   UNL     1      -5.167   1.627  19.547  1.00  0.00     0.031 C 
ATOM     63  C   UNL     1      -7.406   2.615  19.144  1.00  0.00     0.037 A 
BRANCH  50  64
ATOM     64  C   UNL     1     -11.406   4.191  14.693  1.00  0.00     0.058 A 
ATOM     65  C   UNL     1     -12.464   3.423  14.179  1.00  0.00     0.135 A 
ATOM     66  C   UNL     1     -11.624   5.567  14.870  1.00  0.00     0.135 A 
ATOM     67  F   UNL     1     -12.305   2.106  13.969  1.00  0.00    -0.206 F 
ATOM     68  C   UNL     1     -13.679   4.000  13.826  1.00  0.00     0.059 A 
ATOM     69  C   UNL     1     -12.842   6.161  14.552  1.00  0.00     0.059 A 
ATOM     70  F   UNL     1     -10.646   6.350  15.352  1.00  0.00    -0.206 F 
ATOM     71  C   UNL     1     -13.859   5.370  14.016  1.00  0.00     0.060 A 
BRANCH  71  72
ATOM     72  S   UNL     1     -15.444   6.102  13.559  1.00  0.00     0.124 S 
ATOM     73  O   UNL     1     -15.362   6.086  12.102  1.00  0.00    -0.237 OA
ATOM     74  O   UNL     1     -16.400   5.171  14.149  1.00  0.00    -0.237 OA
ATOM     75  O   UNL     1     -15.399   7.425  14.175  1.00  0.00    -0.744 OA
ENDBRANCH  71  72
ENDBRANCH  50  64
BRANCH  51  76
ATOM     76  C   UNL     1      -2.422   0.209  16.663  1.00  0.00     0.058 A 
ATOM     77  C   UNL     1      -2.292  -1.023  17.320  1.00  0.00     0.135 A 
ATOM     78  C   UNL     1      -1.246   0.873  16.282  1.00  0.00     0.135 A 
ATOM     79  F   UNL     1      -3.388  -1.696  17.706  1.00  0.00    -0.206 F 
ATOM     80  C   UNL     1      -1.046  -1.569  17.608  1.00  0.00     0.059 A 
ATOM     81  C   UNL     1       0.012   0.336  16.535  1.00  0.00     0.059 A 
ATOM     82  F   UNL     1      -1.316   2.045  15.631  1.00  0.00    -0.206 F 
ATOM     83  C   UNL     1       0.102  -0.881  17.210  1.00  0.00     0.060 A 
BRANCH  83  84
ATOM     84  S   UNL     1       1.715  -1.619  17.550  1.00  0.00     0.124 S 
ATOM     85  O   UNL     1       1.834  -1.412  18.989  1.00  0.00    -0.237 OA
ATOM     86  O   UNL     1       1.519  -2.999  17.117  1.00  0.00    -0.237 OA
ATOM     87  O   UNL     1       2.624  -0.833  16.721  1.00  0.00    -0.744 OA
ENDBRANCH  83  84
ENDBRANCH  51  76
BRANCH  63  88
ATOM     88  C   UNL     1      -7.568   2.742  20.633  1.00  0.00     0.058 A 
ATOM     89  C   UNL     1      -6.846   3.688  21.375  1.00  0.00     0.135 A 
ATOM     90  C   UNL     1      -8.489   1.932  21.316  1.00  0.00     0.135 A 
ATOM     91  F   UNL     1      -5.950   4.483  20.769  1.00  0.00    -0.206 F 
ATOM     92  C   UNL     1      -7.009   3.807  22.751  1.00  0.00     0.059 A 
ATOM     93  C   UNL     1      -8.690   2.054  22.687  1.00  0.00     0.059 A 
ATOM     94  F   UNL     1      -9.215   1.020  20.650  1.00  0.00    -0.206 F 
ATOM     95  C   UNL     1      -7.933   2.984  23.398  1.00  0.00     0.060 A 
BRANCH  95  96
ATOM     96  S   UNL     1      -8.150   3.161  25.181  1.00  0.00     0.124 S 
ATOM     97  O   UNL     1      -6.942   2.520  25.689  1.00  0.00    -0.237 OA
ATOM     98  O   UNL     1      -8.217   4.610  25.346  1.00  0.00    -0.237 OA
ATOM     99  O   UNL     1      -9.397   2.449  25.444  1.00  0.00    -0.744 OA
ENDBRANCH  95  96
ENDBRANCH  63  88
ENDBRANCH  37  38
ENDBRANCH  29  32
ENDBRANCH  27  28
ENDBRANCH  26  27
ENDBRANCH   1  26
TORSDOF 17
