REMARK SMILES C/C(=N/[NH+]=C1\NC(=O)[C@H](CC(=O)NCCCCNC(=O)c2ccc(-c3c4nc(c(-c5c(F)cc(S(=O)(=O)[O-])cc5F)c5ccc([nH]5)c(-c5c(F)cc(S(=O)(=O)[O-])cc5F)c5nc(c(-c6c(F)cc(S(=O)(=O)[O-])cc6F)c6ccc3[nH]6)C=C5)C=C4)cc2)S1)c1ccc(OC(C)C)cc1
REMARK SMILES IDX 14 1 13 2 11 3 12 4 10 6 9 7 4 8 5 9 6 11 87 12 7 13 8 15
REMARK SMILES IDX 3 16 1 17 2 18 88 19 89 20 97 21 90 22 96 23 91 24 92 25
REMARK SMILES IDX 93 26 94 27 95 28 15 29 16 30 17 31 18 32 19 33 20 35 21 36
REMARK SMILES IDX 22 37 86 38 23 39 85 40 24 41 25 42 26 43 79 44 27 45 84 46
REMARK SMILES IDX 78 47 80 48 28 49 83 50 77 51 76 52 29 54 63 55 42 56 62 57
REMARK SMILES IDX 43 58 46 59 61 60 81 61 44 62 45 63 60 65 82 66 47 67 30 68
REMARK SMILES IDX 31 69 40 70 32 71 33 72 39 73 41 74 34 75 35 76 36 77 37 78
REMARK SMILES IDX 38 79 64 80 65 81 74 82 66 83 67 84 73 85 75 86 68 87 69 88
REMARK SMILES IDX 70 89 71 90 72 91 48 92 49 93 58 94 50 95 51 96 57 97 59 98
REMARK SMILES IDX 52 99 53 100 54 101 55 102 56 103
REMARK H PARENT 13 5 4 10 6 14 18 34 80 53 46 64
REMARK Flexibility Score: inf
ROOT
ATOM      1  C   UNL     1       3.857   4.305  -2.018  1.00  0.00     0.116 C 
ENDROOT
BRANCH   1   2
ATOM      2  N   UNL     1       4.033   5.424  -2.920  1.00  0.00    -0.356 N 
ATOM      3  C   UNL     1       3.082   6.230  -3.476  1.00  0.00     0.221 C 
ATOM      4  O   UNL     1       3.426   7.167  -4.195  1.00  0.00    -0.275 OA
ATOM      5  H   UNL     1       4.963   5.631  -3.166  1.00  0.00     0.163 HD
BRANCH   3   6
ATOM      6  C   UNL     1       1.622   5.961  -3.201  1.00  0.00     0.127 C 
BRANCH   6   7
ATOM      7  C   UNL     1       0.996   5.071  -4.272  1.00  0.00     0.183 C 
ATOM      8  N   UNL     1      -0.911   2.459  -2.269  1.00  0.00    -0.142 N 
ATOM      9  C   UNL     1      -0.214   3.121  -3.125  1.00  0.00     0.337 C 
ATOM     10  H   UNL     1      -1.799   2.765  -1.974  1.00  0.00     0.343 HD
ATOM     11  N   UNL     1       0.988   2.770  -3.627  1.00  0.00    -0.202 N 
ATOM     12  S   UNL     1      -0.717   4.671  -3.739  1.00  0.00    -0.020 SA
ATOM     13  C   UNL     1       1.644   3.698  -4.382  1.00  0.00     0.322 C 
ATOM     14  H   UNL     1       1.376   1.882  -3.455  1.00  0.00     0.316 HD
ATOM     15  O   UNL     1       2.653   3.450  -5.026  1.00  0.00    -0.246 OA
BRANCH   8  16
ATOM     16  N   UNL     1      -0.340   1.280  -1.780  1.00  0.00    -0.090 NA
ATOM     17  C   UNL     1       0.780   0.053  -0.044  1.00  0.00     0.071 C 
ATOM     18  C   UNL     1       0.297   1.360  -0.640  1.00  0.00     0.088 C 
BRANCH  18  19
ATOM     19  C   UNL     1       0.676   2.617   0.085  1.00  0.00    -0.000 A 
ATOM     20  C   UNL     1      -0.189   3.706   0.159  1.00  0.00     0.014 A 
ATOM     21  C   UNL     1       1.977   2.757   0.589  1.00  0.00     0.014 A 
ATOM     22  C   UNL     1       0.282   4.944   0.602  1.00  0.00     0.047 A 
ATOM     23  C   UNL     1       2.439   4.003   1.052  1.00  0.00     0.047 A 
ATOM     24  C   UNL     1       1.607   5.115   1.019  1.00  0.00     0.119 A 
BRANCH  24  25
ATOM     25  O   UNL     1       1.908   6.402   1.327  1.00  0.00    -0.491 OA
BRANCH  25  26
ATOM     26  C   UNL     1       3.177   6.893   1.765  1.00  0.00     0.167 C 
ATOM     27  C   UNL     1       3.668   6.292   3.075  1.00  0.00     0.052 C 
ATOM     28  C   UNL     1       4.239   6.932   0.674  1.00  0.00     0.052 C 
ENDBRANCH  25  26
ENDBRANCH  24  25
ENDBRANCH  18  19
ENDBRANCH   8  16
ENDBRANCH   6   7
ENDBRANCH   3   6
ENDBRANCH   1   2
BRANCH   1  29
ATOM     29  C   UNL     1       4.668   3.075  -2.407  1.00  0.00     0.023 C 
BRANCH  29  30
ATOM     30  C   UNL     1       6.157   3.173  -2.092  1.00  0.00     0.023 C 
BRANCH  30  31
ATOM     31  C   UNL     1       6.506   3.355  -0.619  1.00  0.00     0.116 C 
BRANCH  31  32
ATOM     32  N   UNL     1       5.989   2.295   0.234  1.00  0.00    -0.352 N 
ATOM     33  C   UNL     1       6.651   1.514   1.156  1.00  0.00     0.251 C 
ATOM     34  H   UNL     1       5.027   2.109   0.138  1.00  0.00     0.163 HD
ATOM     35  O   UNL     1       6.069   0.592   1.702  1.00  0.00    -0.269 OA
BRANCH  33  36
ATOM     36  C   UNL     1       8.078   1.789   1.440  1.00  0.00     0.039 A 
ATOM     37  C   UNL     1       8.992   0.734   1.395  1.00  0.00     0.014 A 
ATOM     38  C   UNL     1       8.512   3.091   1.696  1.00  0.00     0.014 A 
ATOM     39  C   UNL     1      10.357   1.001   1.531  1.00  0.00     0.010 A 
ATOM     40  C   UNL     1       9.875   3.364   1.747  1.00  0.00     0.010 A 
ATOM     41  C   UNL     1      10.813   2.322   1.668  1.00  0.00    -0.014 A 
BRANCH  41  42
ATOM     42  C   UNL     1      12.263   2.638   1.744  1.00  0.00     0.031 A 
ATOM     43  C   UNL     1      12.826   3.277   2.985  1.00  0.00     0.074 A 
ATOM     44  C   UNL     1      13.059   2.414   0.679  1.00  0.00     0.049 A 
ATOM     45  N   UNL     1      14.042   3.699   3.219  1.00  0.00    -0.248 NA
ATOM     46  C   UNL     1      11.890   3.502   4.099  1.00  0.00     0.031 C 
ATOM     47  C   UNL     1      12.623   1.852  -0.603  1.00  0.00     0.029 A 
ATOM     48  N   UNL     1      14.401   2.641   0.499  1.00  0.00    -0.354 N 
ATOM     49  C   UNL     1      14.011   4.254   4.493  1.00  0.00     0.074 A 
ATOM     50  C   UNL     1      12.645   4.169   4.958  1.00  0.00     0.031 C 
ATOM     51  C   UNL     1      13.681   1.756  -1.425  1.00  0.00     0.029 A 
ATOM     52  C   UNL     1      14.863   2.279  -0.745  1.00  0.00     0.049 A 
ATOM     53  H   UNL     1      14.979   3.027   1.196  1.00  0.00     0.167 HD
ATOM     54  C   UNL     1      15.034   4.762   5.222  1.00  0.00     0.037 A 
ATOM     55  C   UNL     1      16.098   2.361  -1.278  1.00  0.00     0.037 A 
ATOM     56  C   UNL     1      16.399   4.808   4.770  1.00  0.00     0.049 A 
ATOM     57  C   UNL     1      17.222   2.910  -0.442  1.00  0.00     0.074 A 
ATOM     58  C   UNL     1      17.518   5.246   5.457  1.00  0.00     0.029 A 
ATOM     59  N   UNL     1      16.832   4.398   3.518  1.00  0.00    -0.354 N 
ATOM     60  N   UNL     1      17.186   3.373   0.786  1.00  0.00    -0.248 NA
ATOM     61  C   UNL     1      18.556   2.942  -1.058  1.00  0.00     0.031 C 
ATOM     62  C   UNL     1      18.623   5.133   4.606  1.00  0.00     0.029 A 
ATOM     63  C   UNL     1      18.200   4.584   3.406  1.00  0.00     0.049 A 
ATOM     64  H   UNL     1      16.253   4.029   2.813  1.00  0.00     0.167 HD
ATOM     65  C   UNL     1      18.495   3.723   1.098  1.00  0.00     0.074 A 
ATOM     66  C   UNL     1      19.300   3.410  -0.065  1.00  0.00     0.031 C 
ATOM     67  C   UNL     1      18.987   4.254   2.245  1.00  0.00     0.037 A 
BRANCH  54  68
ATOM     68  C   UNL     1      14.712   5.296   6.591  1.00  0.00     0.058 A 
ATOM     69  C   UNL     1      14.350   4.443   7.646  1.00  0.00     0.135 A 
ATOM     70  C   UNL     1      14.785   6.672   6.858  1.00  0.00     0.135 A 
ATOM     71  F   UNL     1      14.248   3.120   7.442  1.00  0.00    -0.206 F 
ATOM     72  C   UNL     1      14.038   4.938   8.908  1.00  0.00     0.059 A 
ATOM     73  C   UNL     1      14.506   7.188   8.120  1.00  0.00     0.059 A 
ATOM     74  F   UNL     1      15.125   7.533   5.885  1.00  0.00    -0.206 F 
ATOM     75  C   UNL     1      14.116   6.313   9.134  1.00  0.00     0.060 A 
BRANCH  75  76
ATOM     76  S   UNL     1      13.703   6.940  10.775  1.00  0.00     0.124 S 
ATOM     77  O   UNL     1      12.248   6.812  10.776  1.00  0.00    -0.237 OA
ATOM     78  O   UNL     1      14.419   6.020  11.652  1.00  0.00    -0.237 OA
ATOM     79  O   UNL     1      14.212   8.308  10.755  1.00  0.00    -0.744 OA
ENDBRANCH  75  76
ENDBRANCH  54  68
BRANCH  55  80
ATOM     80  C   UNL     1      16.345   1.881  -2.665  1.00  0.00     0.058 A 
ATOM     81  C   UNL     1      17.078   0.709  -2.901  1.00  0.00     0.135 A 
ATOM     82  C   UNL     1      15.849   2.577  -3.778  1.00  0.00     0.135 A 
ATOM     83  F   UNL     1      17.578   0.012  -1.869  1.00  0.00    -0.206 F 
ATOM     84  C   UNL     1      17.328   0.251  -4.190  1.00  0.00     0.059 A 
ATOM     85  C   UNL     1      16.065   2.126  -5.077  1.00  0.00     0.059 A 
ATOM     86  F   UNL     1      15.127   3.694  -3.606  1.00  0.00    -0.206 F 
ATOM     87  C   UNL     1      16.816   0.967  -5.273  1.00  0.00     0.060 A 
BRANCH  87  88
ATOM     88  S   UNL     1      17.107   0.340  -6.942  1.00  0.00     0.124 S 
ATOM     89  O   UNL     1      18.515   0.666  -7.137  1.00  0.00    -0.237 OA
ATOM     90  O   UNL     1      16.794  -1.078  -6.795  1.00  0.00    -0.237 OA
ATOM     91  O   UNL     1      16.163   1.101  -7.755  1.00  0.00    -0.744 OA
ENDBRANCH  87  88
ENDBRANCH  55  80
BRANCH  67  92
ATOM     92  C   UNL     1      20.468   4.497   2.317  1.00  0.00     0.058 A 
ATOM     93  C   UNL     1      21.078   5.553   1.622  1.00  0.00     0.135 A 
ATOM     94  C   UNL     1      21.278   3.698   3.140  1.00  0.00     0.135 A 
ATOM     95  F   UNL     1      20.349   6.342   0.817  1.00  0.00    -0.206 F 
ATOM     96  C   UNL     1      22.444   5.795   1.724  1.00  0.00     0.059 A 
ATOM     97  C   UNL     1      22.641   3.938   3.277  1.00  0.00     0.059 A 
ATOM     98  F   UNL     1      20.742   2.682   3.835  1.00  0.00    -0.206 F 
ATOM     99  C   UNL     1      23.217   4.984   2.556  1.00  0.00     0.060 A 
BRANCH  99 100
ATOM    100  S   UNL     1      24.982   5.332   2.711  1.00  0.00     0.124 S 
ATOM    101  O   UNL     1      25.493   4.826   1.442  1.00  0.00    -0.237 OA
ATOM    102  O   UNL     1      25.001   6.784   2.869  1.00  0.00    -0.237 OA
ATOM    103  O   UNL     1      25.375   4.574   3.895  1.00  0.00    -0.744 OA
ENDBRANCH  99 100
ENDBRANCH  67  92
ENDBRANCH  41  42
ENDBRANCH  33  36
ENDBRANCH  31  32
ENDBRANCH  30  31
ENDBRANCH  29  30
ENDBRANCH   1  29
TORSDOF 19
