REMARK SMILES CC(C)CCN(C(=O)N[C@H](C(=O)NCCCCNC(=O)c1ccc(-c2c3nc(c(-c4c(F)cc(S(=O)(=O)[O-])cc4F)c4ccc([nH]4)c(-c4c(F)cc(S(=O)(=O)[O-])cc4F)c4nc(c(-c5c(F)cc(S(=O)(=O)[O-])cc5F)c5ccc2[nH]5)C=C4)C=C3)cc1)[C@H](C)O)C1CCCC1
REMARK SMILES IDX 14 1 13 2 11 3 12 4 10 6 9 7 7 8 8 9 6 11 5 12 4 13 2 14
REMARK SMILES IDX 1 15 3 16 90 17 91 18 94 19 92 20 93 21 87 22 88 23 89 24
REMARK SMILES IDX 15 26 16 27 17 28 18 29 19 30 20 32 21 33 22 34 86 35 23 36
REMARK SMILES IDX 85 37 24 38 25 39 26 40 79 41 27 42 84 43 78 44 80 45 28 46
REMARK SMILES IDX 83 47 77 48 76 49 29 51 63 52 42 53 62 54 43 55 46 56 61 57
REMARK SMILES IDX 81 58 44 59 45 60 60 62 82 63 47 64 30 65 31 66 40 67 32 68
REMARK SMILES IDX 33 69 39 70 41 71 34 72 35 73 36 74 37 75 38 76 64 77 65 78
REMARK SMILES IDX 74 79 66 80 67 81 73 82 75 83 68 84 69 85 70 86 71 87 72 88
REMARK SMILES IDX 48 89 49 90 58 91 50 92 51 93 57 94 59 95 52 96 53 97 54 98
REMARK SMILES IDX 55 99 56 100
REMARK H PARENT 13 5 9 10 89 25 18 31 80 50 46 61
REMARK Flexibility Score: inf
ROOT
ATOM      1  C   UNL     1      -1.538  -5.116   2.507  1.00  0.00     0.116 C 
ENDROOT
BRANCH   1   2
ATOM      2  N   UNL     1      -2.116  -5.105   1.184  1.00  0.00    -0.354 N 
ATOM      3  C   UNL     1      -3.198  -4.441   0.696  1.00  0.00     0.245 C 
ATOM      4  O   UNL     1      -3.632  -4.848  -0.388  1.00  0.00    -0.273 OA
ATOM      5  H   UNL     1      -1.650  -5.671   0.527  1.00  0.00     0.163 HD
BRANCH   3   6
ATOM      6  C   UNL     1      -3.957  -3.344   1.502  1.00  0.00     0.201 C 
BRANCH   6   7
ATOM      7  N   UNL     1      -3.107  -2.427   2.284  1.00  0.00    -0.324 N 
ATOM      8  C   UNL     1      -2.912  -1.989   3.534  1.00  0.00     0.318 C 
ATOM      9  O   UNL     1      -1.901  -1.281   3.597  1.00  0.00    -0.249 OA
ATOM     10  H   UNL     1      -2.464  -1.988   1.682  1.00  0.00     0.166 HD
BRANCH   8  11
ATOM     11  N   UNL     1      -3.692  -2.279   4.626  1.00  0.00    -0.322 N 
BRANCH  11  12
ATOM     12  C   UNL     1      -4.978  -3.013   4.608  1.00  0.00     0.122 C 
BRANCH  12  13
ATOM     13  C   UNL     1      -4.847  -4.521   4.896  1.00  0.00     0.024 C 
BRANCH  13  14
ATOM     14  C   UNL     1      -4.782  -4.979   6.373  1.00  0.00    -0.016 C 
ATOM     15  C   UNL     1      -6.152  -4.926   7.047  1.00  0.00     0.007 C 
ATOM     16  C   UNL     1      -4.221  -6.402   6.498  1.00  0.00     0.007 C 
ENDBRANCH  13  14
ENDBRANCH  12  13
ENDBRANCH  11  12
BRANCH  11  17
ATOM     17  C   UNL     1      -3.142  -1.996   5.985  1.00  0.00     0.087 C 
ATOM     18  C   UNL     1      -2.078  -0.901   6.174  1.00  0.00     0.025 C 
ATOM     19  C   UNL     1      -4.184  -1.518   7.014  1.00  0.00     0.025 C 
ATOM     20  C   UNL     1      -1.991  -0.720   7.686  1.00  0.00     0.002 C 
ATOM     21  C   UNL     1      -3.381  -1.037   8.217  1.00  0.00     0.002 C 
ENDBRANCH  11  17
ENDBRANCH   8  11
ENDBRANCH   6   7
BRANCH   6  22
ATOM     22  C   UNL     1      -4.780  -2.502   0.481  1.00  0.00     0.143 C 
ATOM     23  C   UNL     1      -3.925  -1.812  -0.597  1.00  0.00     0.041 C 
BRANCH  22  24
ATOM     24  O   UNL     1      -5.525  -1.487   1.171  1.00  0.00    -0.391 OA
ATOM     25  H   UNL     1      -4.911  -0.874   1.606  1.00  0.00     0.211 HD
ENDBRANCH  22  24
ENDBRANCH   6  22
ENDBRANCH   3   6
ENDBRANCH   1   2
BRANCH   1  26
ATOM     26  C   UNL     1      -2.168  -6.209   3.359  1.00  0.00     0.023 C 
BRANCH  26  27
ATOM     27  C   UNL     1      -1.476  -7.557   3.299  1.00  0.00     0.023 C 
BRANCH  27  28
ATOM     28  C   UNL     1      -0.066  -7.549   3.869  1.00  0.00     0.116 C 
BRANCH  28  29
ATOM     29  N   UNL     1       0.018  -7.078   5.252  1.00  0.00    -0.352 N 
ATOM     30  C   UNL     1       0.709  -7.631   6.308  1.00  0.00     0.251 C 
ATOM     31  H   UNL     1      -0.486  -6.257   5.454  1.00  0.00     0.163 HD
ATOM     32  O   UNL     1       0.613  -7.162   7.437  1.00  0.00    -0.269 OA
BRANCH  30  33
ATOM     33  C   UNL     1       1.524  -8.833   6.053  1.00  0.00     0.039 A 
ATOM     34  C   UNL     1       1.298  -9.983   6.810  1.00  0.00     0.014 A 
ATOM     35  C   UNL     1       2.385  -8.857   4.955  1.00  0.00     0.014 A 
ATOM     36  C   UNL     1       1.842 -11.195   6.383  1.00  0.00     0.010 A 
ATOM     37  C   UNL     1       2.823 -10.079   4.470  1.00  0.00     0.010 A 
ATOM     38  C   UNL     1       2.544 -11.264   5.168  1.00  0.00    -0.014 A 
BRANCH  38  39
ATOM     39  C   UNL     1       2.978 -12.557   4.579  1.00  0.00     0.031 A 
ATOM     40  C   UNL     1       4.431 -12.772   4.255  1.00  0.00     0.074 A 
ATOM     41  C   UNL     1       2.059 -13.479   4.225  1.00  0.00     0.049 A 
ATOM     42  N   UNL     1       4.992 -13.740   3.578  1.00  0.00    -0.248 NA
ATOM     43  C   UNL     1       5.370 -11.732   4.706  1.00  0.00     0.031 C 
ATOM     44  C   UNL     1       0.610 -13.358   4.417  1.00  0.00     0.029 A 
ATOM     45  N   UNL     1       2.205 -14.697   3.610  1.00  0.00    -0.354 N 
ATOM     46  C   UNL     1       6.337 -13.402   3.487  1.00  0.00     0.074 A 
ATOM     47  C   UNL     1       6.497 -12.116   4.127  1.00  0.00     0.031 C 
ATOM     48  C   UNL     1       0.009 -14.470   3.962  1.00  0.00     0.029 A 
ATOM     49  C   UNL     1       1.018 -15.362   3.405  1.00  0.00     0.049 A 
ATOM     50  H   UNL     1       3.079 -15.062   3.341  1.00  0.00     0.167 HD
ATOM     51  C   UNL     1       7.353 -14.114   2.945  1.00  0.00     0.037 A 
ATOM     52  C   UNL     1       0.772 -16.553   2.826  1.00  0.00     0.037 A 
ATOM     53  C   UNL     1       7.198 -15.424   2.373  1.00  0.00     0.049 A 
ATOM     54  C   UNL     1       1.924 -17.352   2.281  1.00  0.00     0.074 A 
ATOM     55  C   UNL     1       8.174 -16.267   1.875  1.00  0.00     0.029 A 
ATOM     56  N   UNL     1       5.987 -16.087   2.239  1.00  0.00    -0.354 N 
ATOM     57  N   UNL     1       3.198 -17.041   2.250  1.00  0.00    -0.248 NA
ATOM     58  C   UNL     1       1.607 -18.661   1.692  1.00  0.00     0.031 C 
ATOM     59  C   UNL     1       7.551 -17.434   1.420  1.00  0.00     0.029 A 
ATOM     60  C   UNL     1       6.190 -17.328   1.662  1.00  0.00     0.049 A 
ATOM     61  H   UNL     1       5.112 -15.729   2.515  1.00  0.00     0.167 HD
ATOM     62  C   UNL     1       3.838 -18.123   1.656  1.00  0.00     0.074 A 
ATOM     63  C   UNL     1       2.812 -19.101   1.355  1.00  0.00     0.031 C 
ATOM     64  C   UNL     1       5.154 -18.290   1.383  1.00  0.00     0.037 A 
BRANCH  51  65
ATOM     65  C   UNL     1       8.721 -13.495   2.972  1.00  0.00     0.058 A 
ATOM     66  C   UNL     1       9.437 -13.348   4.172  1.00  0.00     0.135 A 
ATOM     67  C   UNL     1       9.328 -13.047   1.788  1.00  0.00     0.135 A 
ATOM     68  F   UNL     1       8.894 -13.742   5.335  1.00  0.00    -0.206 F 
ATOM     69  C   UNL     1      10.688 -12.744   4.203  1.00  0.00     0.059 A 
ATOM     70  C   UNL     1      10.593 -12.465   1.792  1.00  0.00     0.059 A 
ATOM     71  F   UNL     1       8.688 -13.161   0.614  1.00  0.00    -0.206 F 
ATOM     72  C   UNL     1      11.256 -12.301   3.008  1.00  0.00     0.060 A 
BRANCH  72  73
ATOM     73  S   UNL     1      12.878 -11.511   3.064  1.00  0.00     0.124 S 
ATOM     74  O   UNL     1      12.537 -10.186   3.573  1.00  0.00    -0.237 OA
ATOM     75  O   UNL     1      13.615 -12.371   3.984  1.00  0.00    -0.237 OA
ATOM     76  O   UNL     1      13.324 -11.555   1.675  1.00  0.00    -0.744 OA
ENDBRANCH  72  73
ENDBRANCH  51  65
BRANCH  52  77
ATOM     77  C   UNL     1      -0.618 -17.079   2.763  1.00  0.00     0.058 A 
ATOM     78  C   UNL     1      -1.019 -18.138   3.590  1.00  0.00     0.135 A 
ATOM     79  C   UNL     1      -1.573 -16.529   1.895  1.00  0.00     0.135 A 
ATOM     80  F   UNL     1      -0.139 -18.700   4.433  1.00  0.00    -0.206 F 
ATOM     81  C   UNL     1      -2.313 -18.645   3.551  1.00  0.00     0.059 A 
ATOM     82  C   UNL     1      -2.880 -17.005   1.852  1.00  0.00     0.059 A 
ATOM     83  F   UNL     1      -1.244 -15.502   1.096  1.00  0.00    -0.206 F 
ATOM     84  C   UNL     1      -3.239 -18.070   2.678  1.00  0.00     0.060 A 
BRANCH  84  85
ATOM     85  S   UNL     1      -4.932 -18.699   2.673  1.00  0.00     0.124 S 
ATOM     86  O   UNL     1      -4.778 -19.948   1.936  1.00  0.00    -0.237 OA
ATOM     87  O   UNL     1      -5.218 -18.829   4.098  1.00  0.00    -0.237 OA
ATOM     88  O   UNL     1      -5.676 -17.647   1.987  1.00  0.00    -0.744 OA
ENDBRANCH  84  85
ENDBRANCH  52  77
BRANCH  64  89
ATOM     89  C   UNL     1       5.568 -19.586   0.750  1.00  0.00     0.058 A 
ATOM     90  C   UNL     1       5.346 -19.838  -0.612  1.00  0.00     0.135 A 
ATOM     91  C   UNL     1       6.256 -20.555   1.498  1.00  0.00     0.135 A 
ATOM     92  F   UNL     1       4.686 -18.945  -1.366  1.00  0.00    -0.206 F 
ATOM     93  C   UNL     1       5.785 -21.014  -1.211  1.00  0.00     0.059 A 
ATOM     94  C   UNL     1       6.722 -21.728   0.914  1.00  0.00     0.059 A 
ATOM     95  F   UNL     1       6.499 -20.354   2.803  1.00  0.00    -0.206 F 
ATOM     96  C   UNL     1       6.475 -21.951  -0.440  1.00  0.00     0.060 A 
BRANCH  96  97
ATOM     97  S   UNL     1       7.087 -23.449  -1.240  1.00  0.00     0.124 S 
ATOM     98  O   UNL     1       5.864 -24.236  -1.364  1.00  0.00    -0.237 OA
ATOM     99  O   UNL     1       7.640 -22.935  -2.489  1.00  0.00    -0.237 OA
ATOM    100  O   UNL     1       8.071 -23.962  -0.291  1.00  0.00    -0.744 OA
ENDBRANCH  96  97
ENDBRANCH  64  89
ENDBRANCH  38  39
ENDBRANCH  30  33
ENDBRANCH  28  29
ENDBRANCH  27  28
ENDBRANCH  26  27
ENDBRANCH   1  26
TORSDOF 22
