REMARK SMILES CCN1C(=O)c2cccc3cc(S(=O)(=O)NCC(=O)NCCCCNC(=O)c4ccc(-c5c6nc(c(-c7c(F)cc(S(=O)(=O)[O-])cc7F)c7ccc([nH]7)c(-c7c(F)cc(S(=O)(=O)[O-])cc7F)c7nc(c(-c8c(F)cc(S(=O)(=O)[O-])cc8F)c8ccc5[nH]8)C=C7)C=C6)cc4)cc(c23)C1=O
REMARK SMILES IDX 22 1 21 2 20 3 18 4 19 5 17 7 16 8 13 10 14 11 15 12 12 13
REMARK SMILES IDX 3 14 4 15 97 16 5 17 6 18 95 19 98 20 7 21 96 22 94 23 8 24
REMARK SMILES IDX 10 25 9 26 11 27 2 28 1 29 23 30 24 31 25 32 26 33 27 35
REMARK SMILES IDX 28 36 29 37 93 38 30 39 92 40 31 41 32 42 33 43 86 44 34 45
REMARK SMILES IDX 91 46 85 47 87 48 35 49 90 50 84 51 83 52 36 54 70 55 49 56
REMARK SMILES IDX 69 57 50 58 53 59 68 60 88 61 51 62 52 63 67 65 89 66 54 67
REMARK SMILES IDX 37 68 38 69 47 70 39 71 40 72 46 73 48 74 41 75 42 76 43 77
REMARK SMILES IDX 44 78 45 79 71 80 72 81 81 82 73 83 74 84 80 85 82 86 75 87
REMARK SMILES IDX 76 88 77 89 78 90 79 91 55 92 56 93 65 94 57 95 58 96 64 97
REMARK SMILES IDX 66 98 59 99 60 100 61 101 62 102 63 103
REMARK H PARENT 20 6 16 9 25 34 87 53 53 64
REMARK Flexibility Score: inf
ROOT
ATOM      1  C   UNL     1       0.754  -2.323   8.398  1.00  0.00     0.023 C 
ENDROOT
BRANCH   1   2
ATOM      2  C   UNL     1      -0.080  -1.055   8.567  1.00  0.00     0.116 C 
BRANCH   2   3
ATOM      3  N   UNL     1      -0.172  -0.700   9.970  1.00  0.00    -0.355 N 
ATOM      4  C   UNL     1       0.517   0.267  10.642  1.00  0.00     0.235 C 
ATOM      5  O   UNL     1       0.557   0.232  11.874  1.00  0.00    -0.274 OA
ATOM      6  H   UNL     1      -0.813  -1.222  10.505  1.00  0.00     0.163 HD
BRANCH   4   7
ATOM      7  C   UNL     1       1.169   1.402   9.881  1.00  0.00     0.198 C 
BRANCH   7   8
ATOM      8  N   UNL     1       2.642   1.429   9.883  1.00  0.00    -0.202 NA
ATOM      9  H   UNL     1       2.916   2.409   9.813  1.00  0.00     0.141 HD
BRANCH   8  10
ATOM     10  S   UNL     1       3.520   0.600   8.710  1.00  0.00     0.241 S 
ATOM     11  O   UNL     1       3.183  -0.797   8.841  1.00  0.00    -0.207 OA
ATOM     12  O   UNL     1       4.884   1.056   8.805  1.00  0.00    -0.207 OA
BRANCH  10  13
ATOM     13  C   UNL     1       2.878   1.186   7.162  1.00  0.00     0.083 A 
ATOM     14  N   UNL     1       1.081   0.339   2.698  1.00  0.00    -0.275 N 
ATOM     15  C   UNL     1       0.731   1.681   2.539  1.00  0.00     0.261 C 
ATOM     16  C   UNL     1       1.623  -0.191   3.873  1.00  0.00     0.261 C 
ATOM     17  O   UNL     1       0.143   2.134   1.560  1.00  0.00    -0.269 OA
ATOM     18  C   UNL     1       1.071   2.605   3.644  1.00  0.00     0.049 A 
ATOM     19  C   UNL     1       1.987   0.761   4.950  1.00  0.00     0.050 A 
ATOM     20  O   UNL     1       1.778  -1.387   4.101  1.00  0.00    -0.269 OA
ATOM     21  C   UNL     1       0.756   3.966   3.525  1.00  0.00     0.014 A 
ATOM     22  C   UNL     1       1.683   2.117   4.801  1.00  0.00     0.007 A 
ATOM     23  C   UNL     1       2.587   0.290   6.130  1.00  0.00     0.036 A 
ATOM     24  C   UNL     1       1.040   4.844   4.567  1.00  0.00     0.001 A 
ATOM     25  C   UNL     1       1.984   3.017   5.854  1.00  0.00    -0.015 A 
ATOM     26  C   UNL     1       1.651   4.371   5.726  1.00  0.00     0.009 A 
ATOM     27  C   UNL     1       2.593   2.544   7.022  1.00  0.00     0.030 A 
BRANCH  14  28
ATOM     28  C   UNL     1       0.689  -0.595   1.634  1.00  0.00     0.126 C 
ATOM     29  C   UNL     1       1.346  -0.312   0.285  1.00  0.00     0.028 C 
ENDBRANCH  14  28
ENDBRANCH  10  13
ENDBRANCH   8  10
ENDBRANCH   7   8
ENDBRANCH   4   7
ENDBRANCH   2   3
ENDBRANCH   1   2
BRANCH   1  30
ATOM     30  C   UNL     1      -0.062  -3.600   8.329  1.00  0.00     0.023 C 
BRANCH  30  31
ATOM     31  C   UNL     1      -0.948  -3.700   7.099  1.00  0.00     0.116 C 
BRANCH  31  32
ATOM     32  N   UNL     1      -0.230  -3.696   5.829  1.00  0.00    -0.352 N 
ATOM     33  C   UNL     1      -0.467  -4.496   4.731  1.00  0.00     0.251 C 
ATOM     34  H   UNL     1       0.507  -3.048   5.746  1.00  0.00     0.163 HD
ATOM     35  O   UNL     1       0.242  -4.450   3.733  1.00  0.00    -0.269 OA
BRANCH  33  36
ATOM     36  C   UNL     1      -1.582  -5.458   4.803  1.00  0.00     0.039 A 
ATOM     37  C   UNL     1      -1.323  -6.810   4.573  1.00  0.00     0.014 A 
ATOM     38  C   UNL     1      -2.843  -5.031   5.224  1.00  0.00     0.014 A 
ATOM     39  C   UNL     1      -2.315  -7.749   4.849  1.00  0.00     0.010 A 
ATOM     40  C   UNL     1      -3.787  -5.974   5.602  1.00  0.00     0.010 A 
ATOM     41  C   UNL     1      -3.536  -7.342   5.412  1.00  0.00    -0.014 A 
BRANCH  41  42
ATOM     42  C   UNL     1      -4.587  -8.323   5.781  1.00  0.00     0.031 A 
ATOM     43  C   UNL     1      -5.937  -8.233   5.122  1.00  0.00     0.074 A 
ATOM     44  C   UNL     1      -4.352  -9.235   6.746  1.00  0.00     0.049 A 
ATOM     45  N   UNL     1      -7.029  -8.904   5.380  1.00  0.00    -0.248 NA
ATOM     46  C   UNL     1      -6.093  -7.222   4.062  1.00  0.00     0.031 C 
ATOM     47  C   UNL     1      -3.102  -9.380   7.497  1.00  0.00     0.029 A 
ATOM     48  N   UNL     1      -5.162 -10.213   7.266  1.00  0.00    -0.354 N 
ATOM     49  C   UNL     1      -8.000  -8.379   4.536  1.00  0.00     0.074 A 
ATOM     50  C   UNL     1      -7.390  -7.289   3.809  1.00  0.00     0.031 C 
ATOM     51  C   UNL     1      -3.217 -10.409   8.353  1.00  0.00     0.029 A 
ATOM     52  C   UNL     1      -4.558 -10.973   8.240  1.00  0.00     0.049 A 
ATOM     53  H   UNL     1      -6.089 -10.357   6.969  1.00  0.00     0.167 HD
ATOM     54  C   UNL     1      -9.275  -8.792   4.354  1.00  0.00     0.037 A 
ATOM     55  C   UNL     1      -5.035 -12.009   8.957  1.00  0.00     0.037 A 
ATOM     56  C   UNL     1      -9.855  -9.916   5.037  1.00  0.00     0.049 A 
ATOM     57  C   UNL     1      -6.446 -12.474   8.708  1.00  0.00     0.074 A 
ATOM     58  C   UNL     1     -11.122 -10.451   4.894  1.00  0.00     0.029 A 
ATOM     59  N   UNL     1      -9.193 -10.692   5.977  1.00  0.00    -0.354 N 
ATOM     60  N   UNL     1      -7.340 -11.988   7.878  1.00  0.00    -0.248 NA
ATOM     61  C   UNL     1      -6.913 -13.630   9.486  1.00  0.00     0.031 C 
ATOM     62  C   UNL     1     -11.233 -11.542   5.763  1.00  0.00     0.029 A 
ATOM     63  C   UNL     1     -10.024 -11.705   6.421  1.00  0.00     0.049 A 
ATOM     64  H   UNL     1      -8.269 -10.544   6.283  1.00  0.00     0.167 HD
ATOM     65  C   UNL     1      -8.461 -12.799   8.011  1.00  0.00     0.074 A 
ATOM     66  C   UNL     1      -8.131 -13.811   8.994  1.00  0.00     0.031 C 
ATOM     67  C   UNL     1      -9.658 -12.715   7.381  1.00  0.00     0.037 A 
BRANCH  54  68
ATOM     68  C   UNL     1     -10.111  -8.044   3.355  1.00  0.00     0.058 A 
ATOM     69  C   UNL     1      -9.862  -8.139   1.976  1.00  0.00     0.135 A 
ATOM     70  C   UNL     1     -11.183  -7.239   3.773  1.00  0.00     0.135 A 
ATOM     71  F   UNL     1      -8.835  -8.876   1.524  1.00  0.00    -0.206 F 
ATOM     72  C   UNL     1     -10.627  -7.441   1.048  1.00  0.00     0.059 A 
ATOM     73  C   UNL     1     -11.980  -6.554   2.860  1.00  0.00     0.059 A 
ATOM     74  F   UNL     1     -11.461  -7.109   5.080  1.00  0.00    -0.206 F 
ATOM     75  C   UNL     1     -11.684  -6.651   1.501  1.00  0.00     0.060 A 
BRANCH  75  76
ATOM     76  S   UNL     1     -12.676  -5.760   0.283  1.00  0.00     0.124 S 
ATOM     77  O   UNL     1     -11.772  -4.676  -0.089  1.00  0.00    -0.237 OA
ATOM     78  O   UNL     1     -12.901  -6.776  -0.740  1.00  0.00    -0.237 OA
ATOM     79  O   UNL     1     -13.860  -5.360   1.037  1.00  0.00    -0.744 OA
ENDBRANCH  75  76
ENDBRANCH  54  68
BRANCH  55  80
ATOM     80  C   UNL     1      -4.172 -12.704   9.949  1.00  0.00     0.058 A 
ATOM     81  C   UNL     1      -3.707 -14.006   9.708  1.00  0.00     0.135 A 
ATOM     82  C   UNL     1      -3.809 -12.095  11.160  1.00  0.00     0.135 A 
ATOM     83  F   UNL     1      -4.029 -14.632   8.566  1.00  0.00    -0.206 F 
ATOM     84  C   UNL     1      -2.942 -14.693  10.645  1.00  0.00     0.059 A 
ATOM     85  C   UNL     1      -3.024 -12.753  12.102  1.00  0.00     0.059 A 
ATOM     86  F   UNL     1      -4.210 -10.843  11.430  1.00  0.00    -0.206 F 
ATOM     87  C   UNL     1      -2.610 -14.059  11.843  1.00  0.00     0.060 A 
BRANCH  87  88
ATOM     88  S   UNL     1      -1.604 -14.953  13.048  1.00  0.00     0.124 S 
ATOM     89  O   UNL     1      -2.582 -15.873  13.619  1.00  0.00    -0.237 OA
ATOM     90  O   UNL     1      -0.575 -15.556  12.207  1.00  0.00    -0.237 OA
ATOM     91  O   UNL     1      -1.135 -13.897  13.940  1.00  0.00    -0.744 OA
ENDBRANCH  87  88
ENDBRANCH  55  80
BRANCH  67  92
ATOM     92  C   UNL     1     -10.678 -13.770   7.696  1.00  0.00     0.058 A 
ATOM     93  C   UNL     1     -11.393 -13.764   8.902  1.00  0.00     0.135 A 
ATOM     94  C   UNL     1     -10.986 -14.761   6.750  1.00  0.00     0.135 A 
ATOM     95  F   UNL     1     -11.130 -12.839   9.839  1.00  0.00    -0.206 F 
ATOM     96  C   UNL     1     -12.367 -14.719   9.170  1.00  0.00     0.059 A 
ATOM     97  C   UNL     1     -11.972 -15.711   6.986  1.00  0.00     0.059 A 
ATOM     98  F   UNL     1     -10.336 -14.799   5.575  1.00  0.00    -0.206 F 
ATOM     99  C   UNL     1     -12.651 -15.688   8.204  1.00  0.00     0.060 A 
BRANCH  99 100
ATOM    100  S   UNL     1     -13.947 -16.897   8.545  1.00  0.00     0.124 S 
ATOM    101  O   UNL     1     -13.270 -17.800   9.470  1.00  0.00    -0.237 OA
ATOM    102  O   UNL     1     -15.002 -16.071   9.124  1.00  0.00    -0.237 OA
ATOM    103  O   UNL     1     -14.246 -17.452   7.229  1.00  0.00    -0.744 OA
ENDBRANCH  99 100
ENDBRANCH  67  92
ENDBRANCH  41  42
ENDBRANCH  33  36
ENDBRANCH  31  32
ENDBRANCH  30  31
ENDBRANCH   1  30
TORSDOF 18
