REMARK SMILES C[C@H]1[C@@H](C(=O)NCCCCNC(=O)c2ccc(-c3c4nc(c(-c5c(F)cc(S(=O)(=O)[O-])cc5F)c5ccc([nH]5)c(-c5c(F)cc(S(=O)(=O)[O-])cc5F)c5nc(c(-c6c(F)cc(S(=O)(=O)[O-])cc6F)c6ccc3[nH]6)C=C5)C=C4)cc2)CC[N@@H+]1CC1(O)CCCC1
REMARK SMILES IDX 8 1 7 2 6 3 4 4 5 5 3 7 1 8 2 9 82 10 80 11 81 12 83 14
REMARK SMILES IDX 84 15 86 16 89 17 87 18 88 19 85 20 9 22 10 23 11 24 12 25
REMARK SMILES IDX 13 27 14 28 15 29 79 30 16 31 78 32 17 33 18 34 19 35 72 36
REMARK SMILES IDX 20 37 77 38 71 39 73 40 21 41 76 42 70 43 69 44 22 46 56 47
REMARK SMILES IDX 35 48 55 49 36 50 39 51 54 52 74 53 37 54 38 55 53 57 75 58
REMARK SMILES IDX 40 59 23 60 24 61 33 62 25 63 26 64 32 65 34 66 27 67 28 68
REMARK SMILES IDX 29 69 30 70 31 71 57 72 58 73 67 74 59 75 60 76 66 77 68 78
REMARK SMILES IDX 61 79 62 80 63 81 64 82 65 83 41 84 42 85 51 86 43 87 44 88
REMARK SMILES IDX 50 89 52 90 45 91 46 92 47 93 48 94 49 95
REMARK H PARENT 6 6 82 13 85 21 11 26 73 45 39 56
REMARK Flexibility Score: inf
ROOT
ATOM      1  C   UNL     1       3.580   0.257  -1.904  1.00  0.00     0.023 C 
ENDROOT
BRANCH   1   2
ATOM      2  C   UNL     1       2.865   1.424  -1.217  1.00  0.00     0.116 C 
BRANCH   2   3
ATOM      3  N   UNL     1       1.649   1.711  -1.940  1.00  0.00    -0.356 N 
ATOM      4  C   UNL     1       0.393   1.230  -1.723  1.00  0.00     0.229 C 
ATOM      5  O   UNL     1      -0.382   1.257  -2.681  1.00  0.00    -0.275 OA
ATOM      6  H   UNL     1       1.739   2.340  -2.693  1.00  0.00     0.163 HD
BRANCH   4   7
ATOM      7  C   UNL     1      -0.057   0.848  -0.311  1.00  0.00     0.142 C 
ATOM      8  C   UNL     1       1.302  -1.432  -0.386  1.00  0.00     0.076 C 
ATOM      9  C   UNL     1       0.395  -0.469   0.361  1.00  0.00     0.193 C 
ATOM     10  N   UNL     1      -0.821  -1.233   0.646  1.00  0.00    -0.330 N 
ATOM     11  C   UNL     1      -1.594   0.786  -0.249  1.00  0.00     0.081 C 
ATOM     12  C   UNL     1      -1.911  -0.688  -0.139  1.00  0.00     0.263 C 
ATOM     13  H   UNL     1      -0.680  -2.192   0.327  1.00  0.00     0.348 HD
BRANCH  10  14
ATOM     14  C   UNL     1      -1.075  -1.595   2.040  1.00  0.00     0.297 C 
BRANCH  14  15
ATOM     15  C   UNL     1      -1.598  -0.551   3.057  1.00  0.00     0.113 C 
ATOM     16  C   UNL     1      -0.693   0.657   3.317  1.00  0.00     0.041 C 
ATOM     17  C   UNL     1      -1.683  -1.158   4.464  1.00  0.00     0.041 C 
ATOM     18  C   UNL     1      -1.175   1.217   4.655  1.00  0.00     0.003 C 
ATOM     19  C   UNL     1      -1.853   0.054   5.378  1.00  0.00     0.003 C 
BRANCH  15  20
ATOM     20  O   UNL     1      -2.928  -0.142   2.716  1.00  0.00    -0.384 OA
ATOM     21  H   UNL     1      -2.929   0.251   1.829  1.00  0.00     0.211 HD
ENDBRANCH  15  20
ENDBRANCH  14  15
ENDBRANCH  10  14
ENDBRANCH   4   7
ENDBRANCH   2   3
ENDBRANCH   1   2
BRANCH   1  22
ATOM     22  C   UNL     1       4.359   0.629  -3.155  1.00  0.00     0.023 C 
BRANCH  22  23
ATOM     23  C   UNL     1       5.576   1.490  -2.886  1.00  0.00     0.116 C 
BRANCH  23  24
ATOM     24  N   UNL     1       6.511   0.888  -1.941  1.00  0.00    -0.352 N 
ATOM     25  C   UNL     1       7.880   0.803  -2.036  1.00  0.00     0.251 C 
ATOM     26  H   UNL     1       6.111   0.493  -1.132  1.00  0.00     0.163 HD
ATOM     27  O   UNL     1       8.532   0.173  -1.211  1.00  0.00    -0.269 OA
BRANCH  25  28
ATOM     28  C   UNL     1       8.532   1.457  -3.184  1.00  0.00     0.039 A 
ATOM     29  C   UNL     1       9.364   0.706  -4.013  1.00  0.00     0.014 A 
ATOM     30  C   UNL     1       8.194   2.774  -3.505  1.00  0.00     0.014 A 
ATOM     31  C   UNL     1       9.792   1.255  -5.221  1.00  0.00     0.010 A 
ATOM     32  C   UNL     1       8.528   3.273  -4.753  1.00  0.00     0.010 A 
ATOM     33  C   UNL     1       9.337   2.523  -5.621  1.00  0.00    -0.014 A 
BRANCH  33  34
ATOM     34  C   UNL     1       9.707   3.106  -6.932  1.00  0.00     0.031 A 
ATOM     35  C   UNL     1      10.461   4.407  -6.970  1.00  0.00     0.074 A 
ATOM     36  C   UNL     1       9.290   2.522  -8.073  1.00  0.00     0.049 A 
ATOM     37  N   UNL     1      10.778   5.149  -7.998  1.00  0.00    -0.248 NA
ATOM     38  C   UNL     1      10.870   4.974  -5.673  1.00  0.00     0.031 C 
ATOM     39  C   UNL     1       8.487   1.299  -8.160  1.00  0.00     0.029 A 
ATOM     40  N   UNL     1       9.477   2.886  -9.382  1.00  0.00    -0.354 N 
ATOM     41  C   UNL     1      11.387   6.281  -7.470  1.00  0.00     0.074 A 
ATOM     42  C   UNL     1      11.340   6.159  -6.031  1.00  0.00     0.031 C 
ATOM     43  C   UNL     1       8.279   0.999  -9.453  1.00  0.00     0.029 A 
ATOM     44  C   UNL     1       8.904   2.021 -10.285  1.00  0.00     0.049 A 
ATOM     45  H   UNL     1       9.975   3.692  -9.650  1.00  0.00     0.167 HD
ATOM     46  C   UNL     1      11.965   7.314  -8.125  1.00  0.00     0.037 A 
ATOM     47  C   UNL     1       8.891   2.052 -11.631  1.00  0.00     0.037 A 
ATOM     48  C   UNL     1      12.068   7.393  -9.556  1.00  0.00     0.049 A 
ATOM     49  C   UNL     1       9.599   3.174 -12.339  1.00  0.00     0.074 A 
ATOM     50  C   UNL     1      12.703   8.352 -10.323  1.00  0.00     0.029 A 
ATOM     51  N   UNL     1      11.532   6.463 -10.436  1.00  0.00    -0.354 N 
ATOM     52  N   UNL     1      10.225   4.207 -11.825  1.00  0.00    -0.248 NA
ATOM     53  C   UNL     1       9.609   3.133 -13.808  1.00  0.00     0.031 C 
ATOM     54  C   UNL     1      12.535   8.012 -11.670  1.00  0.00     0.029 A 
ATOM     55  C   UNL     1      11.821   6.825 -11.739  1.00  0.00     0.049 A 
ATOM     56  H   UNL     1      11.023   5.663 -10.171  1.00  0.00     0.167 HD
ATOM     57  C   UNL     1      10.722   4.926 -12.905  1.00  0.00     0.074 A 
ATOM     58  C   UNL     1      10.334   4.205 -14.101  1.00  0.00     0.031 C 
ATOM     59  C   UNL     1      11.433   6.080 -12.910  1.00  0.00     0.037 A 
BRANCH  46  60
ATOM     60  C   UNL     1      12.548   8.420  -7.292  1.00  0.00     0.058 A 
ATOM     61  C   UNL     1      13.707   8.227  -6.523  1.00  0.00     0.135 A 
ATOM     62  C   UNL     1      11.942   9.686  -7.259  1.00  0.00     0.135 A 
ATOM     63  F   UNL     1      14.313   7.029  -6.503  1.00  0.00    -0.206 F 
ATOM     64  C   UNL     1      14.223   9.237  -5.720  1.00  0.00     0.059 A 
ATOM     65  C   UNL     1      12.458  10.720  -6.483  1.00  0.00     0.059 A 
ATOM     66  F   UNL     1      10.830   9.923  -7.972  1.00  0.00    -0.206 F 
ATOM     67  C   UNL     1      13.588  10.480  -5.703  1.00  0.00     0.060 A 
BRANCH  67  68
ATOM     68  S   UNL     1      14.263  11.780  -4.648  1.00  0.00     0.124 S 
ATOM     69  O   UNL     1      13.799  11.354  -3.331  1.00  0.00    -0.237 OA
ATOM     70  O   UNL     1      15.699  11.661  -4.881  1.00  0.00    -0.237 OA
ATOM     71  O   UNL     1      13.645  12.994  -5.170  1.00  0.00    -0.744 OA
ENDBRANCH  67  68
ENDBRANCH  46  60
BRANCH  47  72
ATOM     72  C   UNL     1       8.226   0.964 -12.395  1.00  0.00     0.058 A 
ATOM     73  C   UNL     1       8.985   0.001 -13.076  1.00  0.00     0.135 A 
ATOM     74  C   UNL     1       6.829   0.853 -12.447  1.00  0.00     0.135 A 
ATOM     75  F   UNL     1      10.325   0.068 -13.058  1.00  0.00    -0.206 F 
ATOM     76  C   UNL     1       8.384  -1.025 -13.798  1.00  0.00     0.059 A 
ATOM     77  C   UNL     1       6.204  -0.177 -13.146  1.00  0.00     0.059 A 
ATOM     78  F   UNL     1       6.059   1.738 -11.796  1.00  0.00    -0.206 F 
ATOM     79  C   UNL     1       6.991  -1.106 -13.826  1.00  0.00     0.060 A 
BRANCH  79  80
ATOM     80  S   UNL     1       6.220  -2.470 -14.725  1.00  0.00     0.124 S 
ATOM     81  O   UNL     1       6.380  -2.038 -16.108  1.00  0.00    -0.237 OA
ATOM     82  O   UNL     1       7.034  -3.610 -14.313  1.00  0.00    -0.237 OA
ATOM     83  O   UNL     1       4.851  -2.473 -14.216  1.00  0.00    -0.744 OA
ENDBRANCH  79  80
ENDBRANCH  47  72
BRANCH  59  84
ATOM     84  C   UNL     1      11.864   6.617 -14.243  1.00  0.00     0.058 A 
ATOM     85  C   UNL     1      10.960   7.263 -15.099  1.00  0.00     0.135 A 
ATOM     86  C   UNL     1      13.209   6.537 -14.639  1.00  0.00     0.135 A 
ATOM     87  F   UNL     1       9.663   7.358 -14.765  1.00  0.00    -0.206 F 
ATOM     88  C   UNL     1      11.372   7.800 -16.314  1.00  0.00     0.059 A 
ATOM     89  C   UNL     1      13.646   7.087 -15.839  1.00  0.00     0.059 A 
ATOM     90  F   UNL     1      14.112   5.938 -13.848  1.00  0.00    -0.206 F 
ATOM     91  C   UNL     1      12.718   7.708 -16.674  1.00  0.00     0.060 A 
BRANCH  91  92
ATOM     92  S   UNL     1      13.251   8.445 -18.233  1.00  0.00     0.124 S 
ATOM     93  O   UNL     1      12.787   7.455 -19.199  1.00  0.00    -0.237 OA
ATOM     94  O   UNL     1      12.537   9.719 -18.239  1.00  0.00    -0.237 OA
ATOM     95  O   UNL     1      14.699   8.547 -18.082  1.00  0.00    -0.744 OA
ENDBRANCH  91  92
ENDBRANCH  59  84
ENDBRANCH  33  34
ENDBRANCH  25  28
ENDBRANCH  23  24
ENDBRANCH  22  23
ENDBRANCH   1  22
TORSDOF 17
