REMARK SMILES CCN(C(=O)c1ccccc1C(=O)NCCCCNC(=O)c1ccc(-c2c3nc(c(-c4c(F)cc(S(=O)(=O)[O-])cc4F)c4ccc([nH]4)c(-c4c(F)cc(S(=O)(=O)[O-])cc4F)c4nc(c(-c5c(F)cc(S(=O)(=O)[O-])cc5F)c5ccc2[nH]5)C=C4)C=C3)cc1)[C@H](CCO)c1ccccc1
REMARK SMILES IDX 15 1 14 2 12 3 13 4 11 6 6 7 7 8 8 9 10 10 9 11 4 12 5 13
REMARK SMILES IDX 3 14 2 15 1 16 88 17 92 18 93 19 97 20 94 21 96 22 95 23
REMARK SMILES IDX 89 24 90 25 91 26 16 28 17 29 18 30 19 31 20 32 21 34 22 35
REMARK SMILES IDX 23 36 87 37 24 38 86 39 25 40 26 41 27 42 80 43 28 44 85 45
REMARK SMILES IDX 79 46 81 47 29 48 84 49 78 50 77 51 30 53 64 54 43 55 63 56
REMARK SMILES IDX 44 57 47 58 62 59 82 60 45 61 46 62 61 64 83 65 48 66 31 67
REMARK SMILES IDX 32 68 41 69 33 70 34 71 40 72 42 73 35 74 36 75 37 76 38 77
REMARK SMILES IDX 39 78 65 79 66 80 75 81 67 82 68 83 74 84 76 85 69 86 70 87
REMARK SMILES IDX 71 88 72 89 73 90 49 91 50 92 59 93 51 94 52 95 58 96 60 97
REMARK SMILES IDX 53 98 54 99 55 100 56 101 57 102
REMARK H PARENT 14 5 91 27 19 33 81 52 47 63
REMARK Flexibility Score: inf
ROOT
ATOM      1  C   UNL     1       1.732   0.022  -4.750  1.00  0.00     0.116 C 
ENDROOT
BRANCH   1   2
ATOM      2  N   UNL     1       2.817   0.386  -5.626  1.00  0.00    -0.352 N 
ATOM      3  C   UNL     1       3.617   1.502  -5.658  1.00  0.00     0.252 C 
ATOM      4  O   UNL     1       4.603   1.444  -6.401  1.00  0.00    -0.269 OA
ATOM      5  H   UNL     1       3.020  -0.280  -6.322  1.00  0.00     0.163 HD
BRANCH   3   6
ATOM      6  C   UNL     1       3.390   2.795  -4.941  1.00  0.00     0.052 A 
ATOM      7  C   UNL     1       3.004   3.036  -3.614  1.00  0.00     0.052 A 
ATOM      8  C   UNL     1       2.893   4.371  -3.144  1.00  0.00     0.014 A 
ATOM      9  C   UNL     1       3.183   5.463  -3.957  1.00  0.00     0.001 A 
ATOM     10  C   UNL     1       3.707   3.929  -5.736  1.00  0.00     0.014 A 
ATOM     11  C   UNL     1       3.599   5.240  -5.259  1.00  0.00     0.001 A 
BRANCH   7  12
ATOM     12  C   UNL     1       2.482   2.057  -2.644  1.00  0.00     0.255 C 
ATOM     13  O   UNL     1       1.293   2.265  -2.400  1.00  0.00    -0.269 OA
BRANCH  12  14
ATOM     14  N   UNL     1       3.264   1.035  -2.057  1.00  0.00    -0.332 N 
BRANCH  14  15
ATOM     15  C   UNL     1       4.637   0.816  -2.566  1.00  0.00     0.117 C 
ATOM     16  C   UNL     1       5.709   0.299  -1.627  1.00  0.00     0.027 C 
ENDBRANCH  14  15
BRANCH  14  17
ATOM     17  C   UNL     1       2.563  -0.071  -1.274  1.00  0.00     0.118 C 
BRANCH  17  18
ATOM     18  C   UNL     1       3.286  -0.547  -0.029  1.00  0.00    -0.025 A 
ATOM     19  C   UNL     1       3.523  -1.929   0.129  1.00  0.00     0.006 A 
ATOM     20  C   UNL     1       3.622   0.321   1.014  1.00  0.00     0.006 A 
ATOM     21  C   UNL     1       4.069  -2.432   1.304  1.00  0.00     0.000 A 
ATOM     22  C   UNL     1       4.180  -0.186   2.188  1.00  0.00     0.000 A 
ATOM     23  C   UNL     1       4.397  -1.558   2.335  1.00  0.00     0.000 A 
ENDBRANCH  17  18
BRANCH  17  24
ATOM     24  C   UNL     1       1.046   0.147  -0.957  1.00  0.00     0.058 C 
BRANCH  24  25
ATOM     25  C   UNL     1       0.350  -0.820   0.001  1.00  0.00     0.158 C 
BRANCH  25  26
ATOM     26  O   UNL     1       0.363  -0.300   1.328  1.00  0.00    -0.396 OA
ATOM     27  H   UNL     1       1.280  -0.181   1.620  1.00  0.00     0.210 HD
ENDBRANCH  25  26
ENDBRANCH  24  25
ENDBRANCH  17  24
ENDBRANCH  14  17
ENDBRANCH  12  14
ENDBRANCH   7  12
ENDBRANCH   3   6
ENDBRANCH   1   2
BRANCH   1  28
ATOM     28  C   UNL     1       0.764  -1.036  -5.263  1.00  0.00     0.023 C 
BRANCH  28  29
ATOM     29  C   UNL     1       1.264  -2.486  -5.332  1.00  0.00     0.023 C 
BRANCH  29  30
ATOM     30  C   UNL     1       1.878  -3.118  -4.078  1.00  0.00     0.116 C 
BRANCH  30  31
ATOM     31  N   UNL     1       1.029  -3.097  -2.895  1.00  0.00    -0.352 N 
ATOM     32  C   UNL     1       0.849  -4.049  -1.913  1.00  0.00     0.251 C 
ATOM     33  H   UNL     1       0.501  -2.275  -2.777  1.00  0.00     0.163 HD
ATOM     34  O   UNL     1       0.041  -3.834  -1.011  1.00  0.00    -0.269 OA
BRANCH  32  35
ATOM     35  C   UNL     1       1.541  -5.357  -1.958  1.00  0.00     0.039 A 
ATOM     36  C   UNL     1       0.782  -6.495  -1.657  1.00  0.00     0.014 A 
ATOM     37  C   UNL     1       2.873  -5.495  -2.355  1.00  0.00     0.014 A 
ATOM     38  C   UNL     1       1.296  -7.764  -1.917  1.00  0.00     0.010 A 
ATOM     39  C   UNL     1       3.365  -6.759  -2.677  1.00  0.00     0.010 A 
ATOM     40  C   UNL     1       2.556  -7.894  -2.517  1.00  0.00    -0.014 A 
BRANCH  40  41
ATOM     41  C   UNL     1       2.971  -9.186  -3.114  1.00  0.00     0.031 A 
ATOM     42  C   UNL     1       4.131  -9.953  -2.558  1.00  0.00     0.074 A 
ATOM     43  C   UNL     1       2.330  -9.609  -4.223  1.00  0.00     0.049 A 
ATOM     44  N   UNL     1       4.658 -11.070  -2.985  1.00  0.00    -0.248 NA
ATOM     45  C   UNL     1       4.804  -9.376  -1.385  1.00  0.00     0.031 C 
ATOM     46  C   UNL     1       1.228  -8.899  -4.882  1.00  0.00     0.029 A 
ATOM     47  N   UNL     1       2.509 -10.724  -5.000  1.00  0.00    -0.354 N 
ATOM     48  C   UNL     1       5.727 -11.332  -2.138  1.00  0.00     0.074 A 
ATOM     49  C   UNL     1       5.802 -10.230  -1.202  1.00  0.00     0.031 C 
ATOM     50  C   UNL     1       0.817  -9.605  -5.946  1.00  0.00     0.029 A 
ATOM     51  C   UNL     1       1.644 -10.799  -6.068  1.00  0.00     0.049 A 
ATOM     52  H   UNL     1       3.193 -11.408  -4.812  1.00  0.00     0.167 HD
ATOM     53  C   UNL     1       6.555 -12.404  -2.135  1.00  0.00     0.037 A 
ATOM     54  C   UNL     1       1.531 -11.726  -7.038  1.00  0.00     0.037 A 
ATOM     55  C   UNL     1       6.459 -13.491  -3.076  1.00  0.00     0.049 A 
ATOM     56  C   UNL     1       2.452 -12.913  -7.004  1.00  0.00     0.074 A 
ATOM     57  C   UNL     1       7.214 -14.648  -3.140  1.00  0.00     0.029 A 
ATOM     58  N   UNL     1       5.549 -13.550  -4.125  1.00  0.00    -0.354 N 
ATOM     59  N   UNL     1       3.414 -13.181  -6.152  1.00  0.00    -0.248 NA
ATOM     60  C   UNL     1       2.272 -13.926  -8.051  1.00  0.00     0.031 C 
ATOM     61  C   UNL     1       6.787 -15.388  -4.249  1.00  0.00     0.029 A 
ATOM     62  C   UNL     1       5.735 -14.714  -4.851  1.00  0.00     0.049 A 
ATOM     63  H   UNL     1       4.872 -12.864  -4.323  1.00  0.00     0.167 HD
ATOM     64  C   UNL     1       3.941 -14.404  -6.547  1.00  0.00     0.074 A 
ATOM     65  C   UNL     1       3.180 -14.829  -7.706  1.00  0.00     0.031 C 
ATOM     66  C   UNL     1       4.961 -15.112  -6.002  1.00  0.00     0.037 A 
BRANCH  53  67
ATOM     67  C   UNL     1       7.633 -12.444  -1.086  1.00  0.00     0.058 A 
ATOM     68  C   UNL     1       7.330 -12.633   0.273  1.00  0.00     0.135 A 
ATOM     69  C   UNL     1       8.985 -12.299  -1.438  1.00  0.00     0.135 A 
ATOM     70  F   UNL     1       6.054 -12.763   0.669  1.00  0.00    -0.206 F 
ATOM     71  C   UNL     1       8.322 -12.634   1.248  1.00  0.00     0.059 A 
ATOM     72  C   UNL     1       9.997 -12.325  -0.482  1.00  0.00     0.059 A 
ATOM     73  F   UNL     1       9.333 -12.116  -2.722  1.00  0.00    -0.206 F 
ATOM     74  C   UNL     1       9.653 -12.473   0.861  1.00  0.00     0.060 A 
BRANCH  74  75
ATOM     75  S   UNL     1      10.927 -12.456   2.140  1.00  0.00     0.124 S 
ATOM     76  O   UNL     1      10.720 -11.140   2.737  1.00  0.00    -0.237 OA
ATOM     77  O   UNL     1      10.552 -13.595   2.972  1.00  0.00    -0.237 OA
ATOM     78  O   UNL     1      12.167 -12.614   1.387  1.00  0.00    -0.744 OA
ENDBRANCH  74  75
ENDBRANCH  53  67
BRANCH  54  79
ATOM     79  C   UNL     1       0.490 -11.580  -8.091  1.00  0.00     0.058 A 
ATOM     80  C   UNL     1      -0.637 -12.416  -8.111  1.00  0.00     0.135 A 
ATOM     81  C   UNL     1       0.578 -10.581  -9.073  1.00  0.00     0.135 A 
ATOM     82  F   UNL     1      -0.767 -13.388  -7.195  1.00  0.00    -0.206 F 
ATOM     83  C   UNL     1      -1.633 -12.275  -9.072  1.00  0.00     0.059 A 
ATOM     84  C   UNL     1      -0.417 -10.406 -10.031  1.00  0.00     0.059 A 
ATOM     85  F   UNL     1       1.625  -9.741  -9.086  1.00  0.00    -0.206 F 
ATOM     86  C   UNL     1      -1.516 -11.264 -10.027  1.00  0.00     0.060 A 
BRANCH  86  87
ATOM     87  S   UNL     1      -2.845 -11.051 -11.232  1.00  0.00     0.124 S 
ATOM     88  O   UNL     1      -2.627 -12.191 -12.114  1.00  0.00    -0.237 OA
ATOM     89  O   UNL     1      -4.036 -11.112 -10.391  1.00  0.00    -0.237 OA
ATOM     90  O   UNL     1      -2.564  -9.741 -11.812  1.00  0.00    -0.744 OA
ENDBRANCH  86  87
ENDBRANCH  54  79
BRANCH  66  91
ATOM     91  C   UNL     1       5.295 -16.430  -6.642  1.00  0.00     0.058 A 
ATOM     92  C   UNL     1       5.962 -16.499  -7.874  1.00  0.00     0.135 A 
ATOM     93  C   UNL     1       4.988 -17.634  -5.989  1.00  0.00     0.135 A 
ATOM     94  F   UNL     1       6.269 -15.376  -8.542  1.00  0.00    -0.206 F 
ATOM     95  C   UNL     1       6.296 -17.721  -8.449  1.00  0.00     0.059 A 
ATOM     96  C   UNL     1       5.335 -18.865  -6.532  1.00  0.00     0.059 A 
ATOM     97  F   UNL     1       4.358 -17.619  -4.803  1.00  0.00    -0.206 F 
ATOM     98  C   UNL     1       5.980 -18.899  -7.768  1.00  0.00     0.060 A 
BRANCH  98  99
ATOM     99  S   UNL     1       6.453 -20.477  -8.505  1.00  0.00     0.124 S 
ATOM    100  O   UNL     1       5.458 -20.616  -9.564  1.00  0.00    -0.237 OA
ATOM    101  O   UNL     1       7.819 -20.218  -8.949  1.00  0.00    -0.237 OA
ATOM    102  O   UNL     1       6.328 -21.419  -7.398  1.00  0.00    -0.744 OA
ENDBRANCH  98  99
ENDBRANCH  66  91
ENDBRANCH  40  41
ENDBRANCH  32  35
ENDBRANCH  30  31
ENDBRANCH  29  30
ENDBRANCH  28  29
ENDBRANCH   1  28
TORSDOF 22
