REMARK SMILES O=C(NCCCCNC(=O)[C@@]1([NH2+]C2CC2)CCC[C@@H]([NH+]2CCS(=O)(=O)CC2)C1)c1ccc(-c2c3nc(c(-c4c(F)cc(S(=O)(=O)[O-])cc4F)c4ccc([nH]4)c(-c4c(F)cc(S(=O)(=O)[O-])cc4F)c4nc(c(-c5c(F)cc(S(=O)(=O)[O-])cc5F)c5ccc2[nH]5)C=C4)C=C3)cc1
REMARK SMILES IDX 5 1 4 2 3 3 1 4 2 5 29 7 30 8 94 9 31 10 93 11 32 12 33 13
REMARK SMILES IDX 34 14 87 15 35 16 92 17 86 18 88 19 36 20 91 21 85 22 84 23
REMARK SMILES IDX 37 25 71 26 50 27 70 28 51 29 54 30 69 31 89 32 52 33 53 34
REMARK SMILES IDX 68 36 90 37 55 38 38 39 39 40 48 41 40 42 41 43 47 44 49 45
REMARK SMILES IDX 42 46 43 47 44 48 45 49 46 50 72 51 73 52 82 53 74 54 75 55
REMARK SMILES IDX 81 56 83 57 76 58 77 59 78 60 79 61 80 62 56 63 57 64 66 65
REMARK SMILES IDX 58 66 59 67 65 68 67 69 60 70 61 71 62 72 63 73 64 74 6 75
REMARK SMILES IDX 7 76 8 77 9 78 10 80 11 81 16 82 28 83 17 84 19 85 18 86
REMARK SMILES IDX 12 87 13 90 14 91 15 92 20 93 21 94 27 95 22 97 26 98 23 99
REMARK SMILES IDX 24 100 25 101
REMARK H PARENT 3 6 88 24 54 35 8 79 12 88 12 89 20 96
REMARK Flexibility Score: inf
ROOT
ATOM      1  C   UNL     1       4.510   0.601  -2.736  1.00  0.00     0.023 C 
ENDROOT
BRANCH   1   2
ATOM      2  C   UNL     1       4.264   0.286  -1.268  1.00  0.00     0.116 C 
BRANCH   2   3
ATOM      3  N   UNL     1       2.872   0.448  -0.869  1.00  0.00    -0.352 N 
ATOM      4  O   UNL     1       0.994  -0.085   0.273  1.00  0.00    -0.269 OA
ATOM      5  C   UNL     1       2.194  -0.241   0.110  1.00  0.00     0.251 C 
ATOM      6  H   UNL     1       2.357   1.130  -1.357  1.00  0.00     0.163 HD
BRANCH   5   7
ATOM      7  C   UNL     1       2.960  -1.197   0.932  1.00  0.00     0.039 A 
ATOM      8  C   UNL     1       4.149  -0.783   1.533  1.00  0.00     0.014 A 
ATOM      9  C   UNL     1       2.532  -2.523   1.023  1.00  0.00     0.014 A 
ATOM     10  C   UNL     1       4.986  -1.728   2.102  1.00  0.00     0.010 A 
ATOM     11  C   UNL     1       3.334  -3.457   1.683  1.00  0.00     0.010 A 
ATOM     12  C   UNL     1       4.578  -3.070   2.203  1.00  0.00    -0.014 A 
BRANCH  12  13
ATOM     13  C   UNL     1       5.453  -4.013   2.940  1.00  0.00     0.031 A 
ATOM     14  C   UNL     1       6.127  -5.165   2.252  1.00  0.00     0.074 A 
ATOM     15  C   UNL     1       5.683  -3.757   4.243  1.00  0.00     0.049 A 
ATOM     16  N   UNL     1       6.964  -6.038   2.751  1.00  0.00    -0.248 NA
ATOM     17  C   UNL     1       5.821  -5.375   0.828  1.00  0.00     0.031 C 
ATOM     18  C   UNL     1       5.055  -2.673   5.008  1.00  0.00     0.029 A 
ATOM     19  N   UNL     1       6.527  -4.350   5.143  1.00  0.00    -0.354 N 
ATOM     20  C   UNL     1       7.275  -6.909   1.713  1.00  0.00     0.074 A 
ATOM     21  C   UNL     1       6.519  -6.471   0.558  1.00  0.00     0.031 C 
ATOM     22  C   UNL     1       5.586  -2.636   6.237  1.00  0.00     0.029 A 
ATOM     23  C   UNL     1       6.538  -3.731   6.370  1.00  0.00     0.049 A 
ATOM     24  H   UNL     1       7.072  -5.142   4.931  1.00  0.00     0.167 HD
ATOM     25  C   UNL     1       8.117  -7.970   1.730  1.00  0.00     0.037 A 
ATOM     26  C   UNL     1       7.229  -4.020   7.487  1.00  0.00     0.037 A 
ATOM     27  C   UNL     1       8.872  -8.382   2.888  1.00  0.00     0.049 A 
ATOM     28  C   UNL     1       8.172  -5.184   7.465  1.00  0.00     0.074 A 
ATOM     29  C   UNL     1       9.750  -9.445   3.012  1.00  0.00     0.029 A 
ATOM     30  N   UNL     1       8.846  -7.742   4.120  1.00  0.00    -0.354 N 
ATOM     31  N   UNL     1       8.443  -6.002   6.475  1.00  0.00    -0.248 NA
ATOM     32  C   UNL     1       8.897  -5.472   8.707  1.00  0.00     0.031 C 
ATOM     33  C   UNL     1      10.233  -9.464   4.326  1.00  0.00     0.029 A 
ATOM     34  C   UNL     1       9.687  -8.391   5.010  1.00  0.00     0.049 A 
ATOM     35  H   UNL     1       8.309  -6.944   4.330  1.00  0.00     0.167 HD
ATOM     36  C   UNL     1       9.363  -6.911   6.979  1.00  0.00     0.074 A 
ATOM     37  C   UNL     1       9.632  -6.514   8.348  1.00  0.00     0.031 C 
ATOM     38  C   UNL     1       9.922  -7.986   6.372  1.00  0.00     0.037 A 
BRANCH  25  39
ATOM     39  C   UNL     1       8.267  -8.771   0.465  1.00  0.00     0.058 A 
ATOM     40  C   UNL     1       9.001  -8.287  -0.629  1.00  0.00     0.135 A 
ATOM     41  C   UNL     1       7.727 -10.064   0.370  1.00  0.00     0.135 A 
ATOM     42  F   UNL     1       9.523  -7.051  -0.600  1.00  0.00    -0.206 F 
ATOM     43  C   UNL     1       9.186  -9.053  -1.777  1.00  0.00     0.059 A 
ATOM     44  C   UNL     1       7.917 -10.856  -0.760  1.00  0.00     0.059 A 
ATOM     45  F   UNL     1       7.014 -10.575   1.386  1.00  0.00    -0.206 F 
ATOM     46  C   UNL     1       8.642 -10.338  -1.833  1.00  0.00     0.060 A 
BRANCH  46  47
ATOM     47  S   UNL     1       8.913 -11.329  -3.318  1.00  0.00     0.124 S 
ATOM     48  O   UNL     1       8.014 -10.681  -4.268  1.00  0.00    -0.237 OA
ATOM     49  O   UNL     1      10.339 -11.139  -3.566  1.00  0.00    -0.237 OA
ATOM     50  O   UNL     1       8.526 -12.674  -2.905  1.00  0.00    -0.744 OA
ENDBRANCH  46  47
ENDBRANCH  25  39
BRANCH  26  51
ATOM     51  C   UNL     1       7.025  -3.204   8.710  1.00  0.00     0.058 A 
ATOM     52  C   UNL     1       8.024  -2.347   9.190  1.00  0.00     0.135 A 
ATOM     53  C   UNL     1       5.804  -3.243   9.404  1.00  0.00     0.135 A 
ATOM     54  F   UNL     1       9.206  -2.275   8.560  1.00  0.00    -0.206 F 
ATOM     55  C   UNL     1       7.828  -1.566  10.325  1.00  0.00     0.059 A 
ATOM     56  C   UNL     1       5.574  -2.452  10.523  1.00  0.00     0.059 A 
ATOM     57  F   UNL     1       4.808  -4.031   8.969  1.00  0.00    -0.206 F 
ATOM     58  C   UNL     1       6.598  -1.626  10.984  1.00  0.00     0.060 A 
BRANCH  58  59
ATOM     59  S   UNL     1       6.324  -0.576  12.427  1.00  0.00     0.124 S 
ATOM     60  O   UNL     1       7.001  -1.335  13.471  1.00  0.00    -0.237 OA
ATOM     61  O   UNL     1       6.964   0.675  12.028  1.00  0.00    -0.237 OA
ATOM     62  O   UNL     1       4.869  -0.521  12.525  1.00  0.00    -0.744 OA
ENDBRANCH  58  59
ENDBRANCH  26  51
BRANCH  38  63
ATOM     63  C   UNL     1      10.871  -8.800   7.201  1.00  0.00     0.058 A 
ATOM     64  C   UNL     1      10.406  -9.645   8.222  1.00  0.00     0.135 A 
ATOM     65  C   UNL     1      12.255  -8.730   6.981  1.00  0.00     0.135 A 
ATOM     66  F   UNL     1       9.091  -9.739   8.474  1.00  0.00    -0.206 F 
ATOM     67  C   UNL     1      11.285 -10.364   9.024  1.00  0.00     0.059 A 
ATOM     68  C   UNL     1      13.151  -9.458   7.756  1.00  0.00     0.059 A 
ATOM     69  F   UNL     1      12.747  -7.943   6.012  1.00  0.00    -0.206 F 
ATOM     70  C   UNL     1      12.657 -10.257   8.788  1.00  0.00     0.060 A 
BRANCH  70  71
ATOM     71  S   UNL     1      13.792 -11.185   9.840  1.00  0.00     0.124 S 
ATOM     72  O   UNL     1      13.814 -10.361  11.044  1.00  0.00    -0.237 OA
ATOM     73  O   UNL     1      13.122 -12.476   9.967  1.00  0.00    -0.237 OA
ATOM     74  O   UNL     1      15.030 -11.203   9.066  1.00  0.00    -0.744 OA
ENDBRANCH  70  71
ENDBRANCH  38  63
ENDBRANCH  12  13
ENDBRANCH   5   7
ENDBRANCH   2   3
ENDBRANCH   1   2
BRANCH   1  75
ATOM     75  C   UNL     1       4.022   1.984  -3.170  1.00  0.00     0.023 C 
BRANCH  75  76
ATOM     76  C   UNL     1       4.663   3.126  -2.391  1.00  0.00     0.116 C 
BRANCH  76  77
ATOM     77  N   UNL     1       6.042   3.319  -2.781  1.00  0.00    -0.351 N 
ATOM     78  C   UNL     1       6.650   3.966  -3.806  1.00  0.00     0.281 C 
ATOM     79  H   UNL     1       6.679   2.886  -2.167  1.00  0.00     0.163 HD
ATOM     80  O   UNL     1       7.869   3.746  -3.886  1.00  0.00    -0.268 OA
BRANCH  78  81
ATOM     81  C   UNL     1       5.973   5.029  -4.745  1.00  0.00     0.181 C 
ATOM     82  C   UNL     1       4.455   5.249  -4.701  1.00  0.00     0.079 C 
ATOM     83  C   UNL     1       6.612   6.333  -4.170  1.00  0.00     0.144 C 
ATOM     84  C   UNL     1       3.993   6.479  -5.483  1.00  0.00     0.013 C 
ATOM     85  C   UNL     1       6.090   7.690  -4.656  1.00  0.00     0.190 C 
ATOM     86  C   UNL     1       4.557   7.737  -4.828  1.00  0.00     0.065 C 
BRANCH  81  87
ATOM     87  N   UNL     1       6.456   4.855  -6.136  1.00  0.00    -0.331 N 
ATOM     88  H   UNL     1       7.447   5.095  -6.112  1.00  0.00     0.347 HD
ATOM     89  H   UNL     1       5.778   5.427  -6.640  1.00  0.00     0.347 HD
BRANCH  87  90
ATOM     90  C   UNL     1       6.374   3.608  -6.904  1.00  0.00     0.183 C 
ATOM     91  C   UNL     1       6.373   2.215  -6.352  1.00  0.00     0.071 C 
ATOM     92  C   UNL     1       5.142   2.759  -7.019  1.00  0.00     0.071 C 
ENDBRANCH  87  90
ENDBRANCH  81  87
BRANCH  85  93
ATOM     93  N   UNL     1       6.540   8.835  -3.830  1.00  0.00    -0.331 N 
ATOM     94  C   UNL     1       7.885   9.348  -4.106  1.00  0.00     0.278 C 
ATOM     95  C   UNL     1       6.179   8.886  -2.406  1.00  0.00     0.278 C 
ATOM     96  H   UNL     1       5.891   9.518  -4.223  1.00  0.00     0.348 HD
ATOM     97  C   UNL     1       9.023   8.667  -3.370  1.00  0.00     0.198 C 
ATOM     98  C   UNL     1       7.117   8.234  -1.400  1.00  0.00     0.198 C 
ATOM     99  S   UNL     1       8.786   8.770  -1.618  1.00  0.00     0.161 S 
ATOM    100  O   UNL     1       9.652   7.787  -0.994  1.00  0.00    -0.228 OA
ATOM    101  O   UNL     1       8.866  10.167  -1.230  1.00  0.00    -0.228 OA
ENDBRANCH  85  93
ENDBRANCH  78  81
ENDBRANCH  76  77
ENDBRANCH  75  76
ENDBRANCH   1  75
TORSDOF 17
