REMARK SMILES COc1cc(/C=C2/SC(=O)N(c3ccc(C)c(C)c3)C2=O)ccc1OCCC(=O)NCCCCNC(=O)c1ccc(-c2c3nc(c(-c4c(F)cc(S(=O)(=O)[O-])cc4F)c4ccc([nH]4)c(-c4c(F)cc(S(=O)(=O)[O-])cc4F)c4nc(c(-c5c(F)cc(S(=O)(=O)[O-])cc5F)c5ccc2[nH]5)C=C4)C=C3)cc1
REMARK SMILES IDX 31 1 30 2 28 3 29 4 27 6 26 7 25 8 24 9 3 10 4 11 5 12 23 13
REMARK SMILES IDX 22 14 2 15 1 16 6 17 7 18 8 19 20 20 9 21 11 22 21 23 10 24
REMARK SMILES IDX 12 25 13 26 19 27 14 28 17 29 15 30 18 31 16 32 32 33 33 34
REMARK SMILES IDX 34 35 35 36 36 37 37 39 38 40 39 41 103 42 40 43 102 44
REMARK SMILES IDX 41 45 42 46 43 47 96 48 44 49 101 50 95 51 97 52 45 53
REMARK SMILES IDX 100 54 94 55 93 56 46 58 80 59 59 60 79 61 60 62 63 63 78 64
REMARK SMILES IDX 98 65 61 66 62 67 77 69 99 70 64 71 47 72 48 73 57 74 49 75
REMARK SMILES IDX 50 76 56 77 58 78 51 79 52 80 53 81 54 82 55 83 81 84 82 85
REMARK SMILES IDX 91 86 83 87 84 88 90 89 92 90 85 91 86 92 87 93 88 94 89 95
REMARK SMILES IDX 65 96 66 97 75 98 67 99 68 100 74 101 76 102 69 103 70 104
REMARK SMILES IDX 71 105 72 106 73 107
REMARK H PARENT 30 5 35 38 97 57 63 68
REMARK Flexibility Score: inf
ROOT
ATOM      1  C   UNL     1       1.833  -2.630   3.243  1.00  0.00     0.116 C 
ENDROOT
BRANCH   1   2
ATOM      2  N   UNL     1       0.852  -2.088   2.322  1.00  0.00    -0.356 N 
ATOM      3  C   UNL     1       1.028  -1.642   1.045  1.00  0.00     0.223 C 
ATOM      4  O   UNL     1       0.042  -1.535   0.313  1.00  0.00    -0.275 OA
ATOM      5  H   UNL     1      -0.069  -2.034   2.667  1.00  0.00     0.163 HD
BRANCH   3   6
ATOM      6  C   UNL     1       2.418  -1.353   0.531  1.00  0.00     0.141 C 
BRANCH   6   7
ATOM      7  C   UNL     1       2.622   0.110   0.148  1.00  0.00     0.239 C 
BRANCH   7   8
ATOM      8  O   UNL     1       2.950   0.980   1.231  1.00  0.00    -0.489 OA
BRANCH   8   9
ATOM      9  C   UNL     1       2.004   1.614   1.985  1.00  0.00     0.161 A 
ATOM     10  C   UNL     1       0.620   1.694   1.803  1.00  0.00     0.161 A 
ATOM     11  C   UNL     1      -0.217   2.190   2.820  1.00  0.00     0.058 A 
ATOM     12  C   UNL     1       0.325   2.693   4.000  1.00  0.00    -0.020 A 
ATOM     13  C   UNL     1       2.545   2.222   3.124  1.00  0.00     0.051 A 
ATOM     14  C   UNL     1       1.720   2.747   4.125  1.00  0.00     0.012 A 
BRANCH  10  15
ATOM     15  O   UNL     1      -0.013   1.236   0.685  1.00  0.00    -0.493 OA
ATOM     16  C   UNL     1       0.024   2.205  -0.363  1.00  0.00     0.278 C 
ENDBRANCH  10  15
BRANCH  12  17
ATOM     17  C   UNL     1      -0.527   3.070   5.141  1.00  0.00     0.029 C 
ATOM     18  C   UNL     1      -0.486   4.282   5.710  1.00  0.00     0.083 C 
ATOM     19  S   UNL     1      -0.906   4.628   7.328  1.00  0.00    -0.022 SA
ATOM     20  C   UNL     1       0.306   5.412   5.185  1.00  0.00     0.272 C 
ATOM     21  C   UNL     1       0.516   5.689   7.476  1.00  0.00     0.298 C 
ATOM     22  N   UNL     1       1.062   5.928   6.223  1.00  0.00    -0.236 N 
ATOM     23  O   UNL     1       0.232   5.749   4.011  1.00  0.00    -0.268 OA
ATOM     24  O   UNL     1       0.894   6.047   8.578  1.00  0.00    -0.260 OA
BRANCH  22  25
ATOM     25  C   UNL     1       2.328   6.566   5.987  1.00  0.00     0.053 A 
ATOM     26  C   UNL     1       2.760   6.867   4.687  1.00  0.00     0.027 A 
ATOM     27  C   UNL     1       3.251   6.799   7.020  1.00  0.00     0.030 A 
ATOM     28  C   UNL     1       4.040   7.356   4.424  1.00  0.00     0.006 A 
ATOM     29  C   UNL     1       4.561   7.271   6.772  1.00  0.00    -0.046 A 
ATOM     30  C   UNL     1       4.955   7.564   5.457  1.00  0.00    -0.048 A 
ATOM     31  C   UNL     1       5.503   7.437   7.933  1.00  0.00     0.044 C 
ATOM     32  C   UNL     1       6.322   8.062   5.084  1.00  0.00     0.044 C 
ENDBRANCH  22  25
ENDBRANCH  12  17
ENDBRANCH   8   9
ENDBRANCH   7   8
ENDBRANCH   6   7
ENDBRANCH   3   6
ENDBRANCH   1   2
BRANCH   1  33
ATOM     33  C   UNL     1       2.688  -1.585   3.956  1.00  0.00     0.023 C 
BRANCH  33  34
ATOM     34  C   UNL     1       1.887  -0.593   4.792  1.00  0.00     0.023 C 
BRANCH  34  35
ATOM     35  C   UNL     1       1.396  -1.104   6.134  1.00  0.00     0.116 C 
BRANCH  35  36
ATOM     36  N   UNL     1       2.490  -1.190   7.085  1.00  0.00    -0.352 N 
ATOM     37  C   UNL     1       2.636  -0.654   8.340  1.00  0.00     0.251 C 
ATOM     38  H   UNL     1       3.257  -1.724   6.778  1.00  0.00     0.163 HD
ATOM     39  O   UNL     1       3.764  -0.648   8.832  1.00  0.00    -0.269 OA
BRANCH  37  40
ATOM     40  C   UNL     1       1.495  -0.094   9.113  1.00  0.00     0.039 A 
ATOM     41  C   UNL     1       1.777   0.833  10.126  1.00  0.00     0.014 A 
ATOM     42  C   UNL     1       0.176  -0.523   8.941  1.00  0.00     0.014 A 
ATOM     43  C   UNL     1       0.758   1.316  10.953  1.00  0.00     0.010 A 
ATOM     44  C   UNL     1      -0.854   0.031   9.702  1.00  0.00     0.010 A 
ATOM     45  C   UNL     1      -0.572   0.926  10.744  1.00  0.00    -0.014 A 
BRANCH  45  46
ATOM     46  C   UNL     1      -1.673   1.385  11.633  1.00  0.00     0.031 A 
ATOM     47  C   UNL     1      -2.469   0.380  12.428  1.00  0.00     0.074 A 
ATOM     48  C   UNL     1      -2.006   2.690  11.680  1.00  0.00     0.049 A 
ATOM     49  N   UNL     1      -3.534   0.561  13.165  1.00  0.00    -0.248 NA
ATOM     50  C   UNL     1      -2.019  -1.021  12.362  1.00  0.00     0.031 C 
ATOM     51  C   UNL     1      -1.333   3.760  10.946  1.00  0.00     0.029 A 
ATOM     52  N   UNL     1      -3.014   3.333  12.354  1.00  0.00    -0.354 N 
ATOM     53  C   UNL     1      -3.889  -0.698  13.638  1.00  0.00     0.074 A 
ATOM     54  C   UNL     1      -2.964  -1.643  13.052  1.00  0.00     0.031 C 
ATOM     55  C   UNL     1      -1.960   4.922  11.185  1.00  0.00     0.029 A 
ATOM     56  C   UNL     1      -3.090   4.677  12.075  1.00  0.00     0.049 A 
ATOM     57  H   UNL     1      -3.625   2.876  12.976  1.00  0.00     0.167 HD
ATOM     58  C   UNL     1      -4.874  -1.035  14.505  1.00  0.00     0.037 A 
ATOM     59  C   UNL     1      -3.975   5.608  12.478  1.00  0.00     0.037 A 
ATOM     60  C   UNL     1      -5.770  -0.087  15.114  1.00  0.00     0.049 A 
ATOM     61  C   UNL     1      -5.061   5.218  13.441  1.00  0.00     0.074 A 
ATOM     62  C   UNL     1      -6.756  -0.314  16.058  1.00  0.00     0.029 A 
ATOM     63  N   UNL     1      -5.786   1.274  14.840  1.00  0.00    -0.354 N 
ATOM     64  N   UNL     1      -5.344   4.032  13.925  1.00  0.00    -0.248 NA
ATOM     65  C   UNL     1      -5.931   6.294  13.932  1.00  0.00     0.031 C 
ATOM     66  C   UNL     1      -7.391   0.903  16.329  1.00  0.00     0.029 A 
ATOM     67  C   UNL     1      -6.774   1.896  15.585  1.00  0.00     0.049 A 
ATOM     68  H   UNL     1      -5.183   1.730  14.210  1.00  0.00     0.167 HD
ATOM     69  C   UNL     1      -6.407   4.223  14.800  1.00  0.00     0.074 A 
ATOM     70  C   UNL     1      -6.712   5.640  14.783  1.00  0.00     0.031 C 
ATOM     71  C   UNL     1      -7.066   3.308  15.555  1.00  0.00     0.037 A 
BRANCH  58  72
ATOM     72  C   UNL     1      -5.021  -2.493  14.852  1.00  0.00     0.058 A 
ATOM     73  C   UNL     1      -4.061  -3.165  15.628  1.00  0.00     0.135 A 
ATOM     74  C   UNL     1      -6.130  -3.229  14.407  1.00  0.00     0.135 A 
ATOM     75  F   UNL     1      -2.973  -2.514  16.070  1.00  0.00    -0.206 F 
ATOM     76  C   UNL     1      -4.171  -4.523  15.908  1.00  0.00     0.059 A 
ATOM     77  C   UNL     1      -6.276  -4.582  14.700  1.00  0.00     0.059 A 
ATOM     78  F   UNL     1      -7.081  -2.638  13.666  1.00  0.00    -0.206 F 
ATOM     79  C   UNL     1      -5.279  -5.226  15.432  1.00  0.00     0.060 A 
BRANCH  79  80
ATOM     80  S   UNL     1      -5.394  -6.994  15.777  1.00  0.00     0.124 S 
ATOM     81  O   UNL     1      -4.427  -7.538  14.829  1.00  0.00    -0.237 OA
ATOM     82  O   UNL     1      -5.011  -7.067  17.184  1.00  0.00    -0.237 OA
ATOM     83  O   UNL     1      -6.792  -7.304  15.496  1.00  0.00    -0.744 OA
ENDBRANCH  79  80
ENDBRANCH  58  72
BRANCH  59  84
ATOM     84  C   UNL     1      -3.845   7.002  11.982  1.00  0.00     0.058 A 
ATOM     85  C   UNL     1      -3.357   8.023  12.809  1.00  0.00     0.135 A 
ATOM     86  C   UNL     1      -4.162   7.329  10.654  1.00  0.00     0.135 A 
ATOM     87  F   UNL     1      -3.046   7.759  14.086  1.00  0.00    -0.206 F 
ATOM     88  C   UNL     1      -3.195   9.323  12.341  1.00  0.00     0.059 A 
ATOM     89  C   UNL     1      -3.990   8.617  10.157  1.00  0.00     0.059 A 
ATOM     90  F   UNL     1      -4.617   6.382   9.818  1.00  0.00    -0.206 F 
ATOM     91  C   UNL     1      -3.511   9.610  11.011  1.00  0.00     0.060 A 
BRANCH  91  92
ATOM     92  S   UNL     1      -3.241  11.287  10.398  1.00  0.00     0.124 S 
ATOM     93  O   UNL     1      -4.348  12.008  11.016  1.00  0.00    -0.237 OA
ATOM     94  O   UNL     1      -1.912  11.596  10.916  1.00  0.00    -0.237 OA
ATOM     95  O   UNL     1      -3.320  11.131   8.949  1.00  0.00    -0.744 OA
ENDBRANCH  91  92
ENDBRANCH  59  84
BRANCH  71  96
ATOM     96  C   UNL     1      -8.164   3.817  16.447  1.00  0.00     0.058 A 
ATOM     97  C   UNL     1      -9.406   4.215  15.931  1.00  0.00     0.135 A 
ATOM     98  C   UNL     1      -7.982   3.868  17.838  1.00  0.00     0.135 A 
ATOM     99  F   UNL     1      -9.627   4.191  14.607  1.00  0.00    -0.206 F 
ATOM    100  C   UNL     1     -10.424   4.672  16.762  1.00  0.00     0.059 A 
ATOM    101  C   UNL     1      -8.994   4.298  18.690  1.00  0.00     0.059 A 
ATOM    102  F   UNL     1      -6.816   3.488  18.383  1.00  0.00    -0.206 F 
ATOM    103  C   UNL     1     -10.208   4.711  18.141  1.00  0.00     0.060 A 
BRANCH 103 104
ATOM    104  S   UNL     1     -11.544   5.280  19.213  1.00  0.00     0.124 S 
ATOM    105  O   UNL     1     -11.488   6.724  19.010  1.00  0.00    -0.237 OA
ATOM    106  O   UNL     1     -12.709   4.606  18.649  1.00  0.00    -0.237 OA
ATOM    107  O   UNL     1     -11.139   4.815  20.536  1.00  0.00    -0.744 OA
ENDBRANCH 103 104
ENDBRANCH  71  96
ENDBRANCH  45  46
ENDBRANCH  37  40
ENDBRANCH  35  36
ENDBRANCH  34  35
ENDBRANCH  33  34
ENDBRANCH   1  33
TORSDOF 20
