REMARK SMILES O=C(NCCCCNC(=O)[C@@H](c1cccc(O)c1)[NH+]1CC[NH+](C2CCCC2)CC1)c1ccc(-c2c3nc(c(-c4c(F)cc(S(=O)(=O)[O-])cc4F)c4ccc([nH]4)c(-c4c(F)cc(S(=O)(=O)[O-])cc4F)c4nc(c(-c5c(F)cc(S(=O)(=O)[O-])cc5F)c5ccc2[nH]5)C=C4)C=C3)cc1
REMARK SMILES IDX 5 1 4 2 3 3 1 4 2 5 30 7 31 8 95 9 32 10 94 11 33 12 34 13
REMARK SMILES IDX 35 14 88 15 36 16 93 17 87 18 89 19 37 20 92 21 86 22 85 23
REMARK SMILES IDX 38 25 72 26 51 27 71 28 52 29 55 30 70 31 90 32 53 33 54 34
REMARK SMILES IDX 69 36 91 37 56 38 39 39 40 40 49 41 41 42 42 43 48 44 50 45
REMARK SMILES IDX 43 46 44 47 45 48 46 49 47 50 73 51 74 52 83 53 75 54 76 55
REMARK SMILES IDX 82 56 84 57 77 58 78 59 79 60 80 61 81 62 57 63 58 64 67 65
REMARK SMILES IDX 59 66 60 67 66 68 68 69 61 70 62 71 63 72 64 73 65 74 6 75
REMARK SMILES IDX 7 76 8 77 9 78 10 80 11 81 12 82 13 83 18 84 14 85 16 86
REMARK SMILES IDX 15 87 17 88 19 90 20 91 29 92 21 94 28 95 22 96 23 98 24 99
REMARK SMILES IDX 27 100 25 101 26 102
REMARK H PARENT 3 6 89 24 55 35 8 79 17 89 19 93 22 97
REMARK Flexibility Score: inf
ROOT
ATOM      1  C   UNL     1       5.207  -2.422   0.442  1.00  0.00     0.023 C 
ENDROOT
BRANCH   1   2
ATOM      2  C   UNL     1       4.713  -1.040   0.038  1.00  0.00     0.116 C 
BRANCH   2   3
ATOM      3  N   UNL     1       3.286  -0.966  -0.265  1.00  0.00    -0.352 N 
ATOM      4  O   UNL     1       1.199  -0.073  -0.154  1.00  0.00    -0.269 OA
ATOM      5  C   UNL     1       2.383   0.001   0.134  1.00  0.00     0.251 C 
ATOM      6  H   UNL     1       2.924  -1.693  -0.822  1.00  0.00     0.163 HD
BRANCH   5   7
ATOM      7  C   UNL     1       2.896   1.109   0.967  1.00  0.00     0.039 A 
ATOM      8  C   UNL     1       4.006   1.829   0.527  1.00  0.00     0.014 A 
ATOM      9  C   UNL     1       2.393   1.285   2.258  1.00  0.00     0.014 A 
ATOM     10  C   UNL     1       4.750   2.545   1.453  1.00  0.00     0.010 A 
ATOM     11  C   UNL     1       3.086   2.102   3.156  1.00  0.00     0.010 A 
ATOM     12  C   UNL     1       4.311   2.679   2.784  1.00  0.00    -0.014 A 
BRANCH  12  13
ATOM     13  C   UNL     1       5.170   3.408   3.757  1.00  0.00     0.031 A 
ATOM     14  C   UNL     1       5.733   2.721   4.978  1.00  0.00     0.074 A 
ATOM     15  C   UNL     1       5.506   4.686   3.491  1.00  0.00     0.049 A 
ATOM     16  N   UNL     1       6.515   3.209   5.909  1.00  0.00    -0.248 NA
ATOM     17  C   UNL     1       5.365   1.312   5.193  1.00  0.00     0.031 C 
ATOM     18  C   UNL     1       5.026   5.459   2.343  1.00  0.00     0.029 A 
ATOM     19  N   UNL     1       6.355   5.546   4.137  1.00  0.00    -0.354 N 
ATOM     20  C   UNL     1       6.692   2.190   6.840  1.00  0.00     0.074 A 
ATOM     21  C   UNL     1       5.933   1.054   6.364  1.00  0.00     0.031 C 
ATOM     22  C   UNL     1       5.646   6.646   2.321  1.00  0.00     0.029 A 
ATOM     23  C   UNL     1       6.507   6.750   3.494  1.00  0.00     0.049 A 
ATOM     24  H   UNL     1       6.811   5.322   4.980  1.00  0.00     0.167 HD
ATOM     25  C   UNL     1       7.421   2.202   7.983  1.00  0.00     0.037 A 
ATOM     26  C   UNL     1       7.246   7.828   3.812  1.00  0.00     0.037 A 
ATOM     27  C   UNL     1       8.219   3.318   8.424  1.00  0.00     0.049 A 
ATOM     28  C   UNL     1       8.073   7.802   5.062  1.00  0.00     0.074 A 
ATOM     29  C   UNL     1       9.019   3.416   9.550  1.00  0.00     0.029 A 
ATOM     30  N   UNL     1       8.331   4.527   7.753  1.00  0.00    -0.354 N 
ATOM     31  N   UNL     1       8.214   6.832   5.934  1.00  0.00    -0.248 NA
ATOM     32  C   UNL     1       8.832   9.018   5.378  1.00  0.00     0.031 C 
ATOM     33  C   UNL     1       9.591   4.693   9.575  1.00  0.00     0.029 A 
ATOM     34  C   UNL     1       9.178   5.378   8.444  1.00  0.00     0.049 A 
ATOM     35  H   UNL     1       7.875   4.749   6.909  1.00  0.00     0.167 HD
ATOM     36  C   UNL     1       9.085   7.318   6.900  1.00  0.00     0.074 A 
ATOM     37  C   UNL     1       9.454   8.660   6.493  1.00  0.00     0.031 C 
ATOM     38  C   UNL     1       9.534   6.710   8.025  1.00  0.00     0.037 A 
BRANCH  25  39
ATOM     39  C   UNL     1       7.373   0.980   8.861  1.00  0.00     0.058 A 
ATOM     40  C   UNL     1       8.045  -0.206   8.526  1.00  0.00     0.135 A 
ATOM     41  C   UNL     1       6.680   1.014  10.083  1.00  0.00     0.135 A 
ATOM     42  F   UNL     1       8.711  -0.300   7.365  1.00  0.00    -0.206 F 
ATOM     43  C   UNL     1       8.011  -1.322   9.359  1.00  0.00     0.059 A 
ATOM     44  C   UNL     1       6.651  -0.081  10.942  1.00  0.00     0.059 A 
ATOM     45  F   UNL     1       6.023   2.124  10.455  1.00  0.00    -0.206 F 
ATOM     46  C   UNL     1       7.308  -1.251  10.564  1.00  0.00     0.060 A 
BRANCH  46  47
ATOM     47  S   UNL     1       7.270  -2.704  11.636  1.00  0.00     0.124 S 
ATOM     48  O   UNL     1       6.307  -3.552  10.940  1.00  0.00    -0.237 OA
ATOM     49  O   UNL     1       8.656  -3.160  11.599  1.00  0.00    -0.237 OA
ATOM     50  O   UNL     1       6.824  -2.169  12.918  1.00  0.00    -0.744 OA
ENDBRANCH  46  47
ENDBRANCH  25  39
BRANCH  26  51
ATOM     51  C   UNL     1       7.229   9.016   2.921  1.00  0.00     0.058 A 
ATOM     52  C   UNL     1       8.341   9.342   2.133  1.00  0.00     0.135 A 
ATOM     53  C   UNL     1       6.082   9.815   2.802  1.00  0.00     0.135 A 
ATOM     54  F   UNL     1       9.461   8.607   2.215  1.00  0.00    -0.206 F 
ATOM     55  C   UNL     1       8.319  10.422   1.258  1.00  0.00     0.059 A 
ATOM     56  C   UNL     1       6.027  10.884   1.916  1.00  0.00     0.059 A 
ATOM     57  F   UNL     1       4.985   9.529   3.522  1.00  0.00    -0.206 F 
ATOM     58  C   UNL     1       7.154  11.185   1.154  1.00  0.00     0.060 A 
BRANCH  58  59
ATOM     59  S   UNL     1       7.104  12.541  -0.037  1.00  0.00     0.124 S 
ATOM     60  O   UNL     1       7.833  13.583   0.676  1.00  0.00    -0.237 OA
ATOM     61  O   UNL     1       7.780  11.964  -1.195  1.00  0.00    -0.237 OA
ATOM     62  O   UNL     1       5.673  12.776  -0.212  1.00  0.00    -0.744 OA
ENDBRANCH  58  59
ENDBRANCH  26  51
BRANCH  38  63
ATOM     63  C   UNL     1      10.495   7.487   8.877  1.00  0.00     0.058 A 
ATOM     64  C   UNL     1      10.065   8.550   9.686  1.00  0.00     0.135 A 
ATOM     65  C   UNL     1      11.860   7.159   8.888  1.00  0.00     0.135 A 
ATOM     66  F   UNL     1       8.771   8.906   9.702  1.00  0.00    -0.206 F 
ATOM     67  C   UNL     1      10.962   9.284  10.454  1.00  0.00     0.059 A 
ATOM     68  C   UNL     1      12.771   7.866   9.666  1.00  0.00     0.059 A 
ATOM     69  F   UNL     1      12.318   6.145   8.137  1.00  0.00    -0.206 F 
ATOM     70  C   UNL     1      12.315   8.938  10.432  1.00  0.00     0.060 A 
BRANCH  70  71
ATOM     71  S   UNL     1      13.474   9.893  11.435  1.00  0.00     0.124 S 
ATOM     72  O   UNL     1      13.658  11.084  10.613  1.00  0.00    -0.237 OA
ATOM     73  O   UNL     1      12.732  10.088  12.677  1.00  0.00    -0.237 OA
ATOM     74  O   UNL     1      14.634   9.013  11.538  1.00  0.00    -0.744 OA
ENDBRANCH  70  71
ENDBRANCH  38  63
ENDBRANCH  12  13
ENDBRANCH   5   7
ENDBRANCH   2   3
ENDBRANCH   1   2
BRANCH   1  75
ATOM     75  C   UNL     1       4.919  -3.531  -0.557  1.00  0.00     0.023 C 
BRANCH  75  76
ATOM     76  C   UNL     1       5.486  -3.303  -1.956  1.00  0.00     0.116 C 
BRANCH  76  77
ATOM     77  N   UNL     1       6.840  -3.796  -2.099  1.00  0.00    -0.351 N 
ATOM     78  C   UNL     1       7.352  -4.766  -2.919  1.00  0.00     0.283 C 
ATOM     79  H   UNL     1       7.500  -3.363  -1.511  1.00  0.00     0.163 HD
ATOM     80  O   UNL     1       8.585  -4.894  -2.895  1.00  0.00    -0.268 OA
BRANCH  78  81
ATOM     81  C   UNL     1       6.496  -5.673  -3.866  1.00  0.00     0.306 C 
BRANCH  81  82
ATOM     82  C   UNL     1       5.813  -6.828  -3.119  1.00  0.00     0.023 A 
ATOM     83  C   UNL     1       4.793  -6.642  -2.172  1.00  0.00     0.011 A 
ATOM     84  C   UNL     1       6.151  -8.152  -3.439  1.00  0.00     0.056 A 
ATOM     85  C   UNL     1       4.170  -7.715  -1.530  1.00  0.00     0.004 A 
ATOM     86  C   UNL     1       5.509  -9.222  -2.817  1.00  0.00     0.116 A 
ATOM     87  C   UNL     1       4.530  -9.015  -1.852  1.00  0.00     0.046 A 
BRANCH  86  88
ATOM     88  O   UNL     1       5.863 -10.484  -3.196  1.00  0.00    -0.508 OA
ATOM     89  H   UNL     1       5.452 -11.226  -2.798  1.00  0.00     0.293 HD
ENDBRANCH  86  88
ENDBRANCH  81  82
BRANCH  81  90
ATOM     90  N   UNL     1       5.621  -4.924  -4.760  1.00  0.00    -0.312 N 
ATOM     91  C   UNL     1       4.439  -5.488  -5.368  1.00  0.00     0.325 C 
ATOM     92  C   UNL     1       5.960  -3.633  -5.316  1.00  0.00     0.325 C 
ATOM     93  H   UNL     1       5.535  -4.860  -3.745  1.00  0.00     0.349 HD
ATOM     94  C   UNL     1       3.233  -4.663  -4.891  1.00  0.00     0.324 C 
ATOM     95  C   UNL     1       4.733  -2.673  -5.250  1.00  0.00     0.324 C 
ATOM     96  N   UNL     1       3.461  -3.212  -4.717  1.00  0.00    -0.323 N 
ATOM     97  H   UNL     1       3.629  -3.092  -3.718  1.00  0.00     0.348 HD
BRANCH  96  98
ATOM     98  C   UNL     1       2.265  -2.432  -5.017  1.00  0.00     0.184 C 
ATOM     99  C   UNL     1       2.300  -0.969  -4.550  1.00  0.00     0.065 C 
ATOM    100  C   UNL     1       1.891  -2.388  -6.514  1.00  0.00     0.065 C 
ATOM    101  C   UNL     1       1.352  -0.271  -5.513  1.00  0.00     0.006 C 
ATOM    102  C   UNL     1       1.693  -0.915  -6.846  1.00  0.00     0.006 C 
ENDBRANCH  96  98
ENDBRANCH  81  90
ENDBRANCH  78  81
ENDBRANCH  76  77
ENDBRANCH  75  76
ENDBRANCH   1  75
TORSDOF 18
