REMARK SMILES Cc1ccc(N)cc1S(=O)(=O)Nc1cccc(C(=O)NCCCCNC(=O)c2ccc(-c3c4nc(c(-c5c(F)cc(S(=O)(=O)[O-])cc5F)c5ccc([nH]5)c(-c5c(F)cc(S(=O)(=O)[O-])cc5F)c5nc(c(-c6c(F)cc(S(=O)(=O)[O-])cc6F)c6ccc3[nH]6)C=C5)C=C4)cc2)c1
REMARK SMILES IDX 22 1 21 2 20 3 18 4 19 5 17 7 13 8 14 9 94 10 15 11 16 12
REMARK SMILES IDX 12 13 9 15 10 16 11 17 8 18 1 19 2 20 3 21 4 22 7 23 5 24
REMARK SMILES IDX 6 25 23 28 24 29 25 30 26 31 27 33 28 34 29 35 93 36 30 37
REMARK SMILES IDX 92 38 31 39 32 40 33 41 86 42 34 43 91 44 85 45 87 46 35 47
REMARK SMILES IDX 90 48 84 49 83 50 36 52 70 53 49 54 69 55 50 56 53 57 68 58
REMARK SMILES IDX 88 59 51 60 52 61 67 63 89 64 54 65 37 66 38 67 47 68 39 69
REMARK SMILES IDX 40 70 46 71 48 72 41 73 42 74 43 75 44 76 45 77 71 78 72 79
REMARK SMILES IDX 81 80 73 81 74 82 80 83 82 84 75 85 76 86 77 87 78 88 79 89
REMARK SMILES IDX 55 90 56 91 65 92 57 93 58 94 64 95 66 96 59 97 60 98 61 99
REMARK SMILES IDX 62 100 63 101
REMARK H PARENT 20 6 12 14 6 26 6 27 25 32 87 51 53 62
REMARK Flexibility Score: inf
ROOT
ATOM      1  C   UNL     1      -1.659   0.282   3.961  1.00  0.00     0.023 C 
ENDROOT
BRANCH   1   2
ATOM      2  C   UNL     1      -1.669  -0.831   2.912  1.00  0.00     0.116 C 
BRANCH   2   3
ATOM      3  N   UNL     1      -2.842  -1.670   3.075  1.00  0.00    -0.352 N 
ATOM      4  C   UNL     1      -4.110  -1.614   2.553  1.00  0.00     0.251 C 
ATOM      5  O   UNL     1      -4.908  -2.479   2.918  1.00  0.00    -0.269 OA
ATOM      6  H   UNL     1      -2.700  -2.432   3.681  1.00  0.00     0.163 HD
BRANCH   4   7
ATOM      7  C   UNL     1      -4.549  -0.630   1.518  1.00  0.00     0.041 A 
ATOM      8  C   UNL     1      -4.226   1.294   0.084  1.00  0.00     0.050 A 
ATOM      9  C   UNL     1      -5.358   0.943  -0.658  1.00  0.00     0.027 A 
ATOM     10  C   UNL     1      -3.904   0.577   1.234  1.00  0.00     0.040 A 
ATOM     11  C   UNL     1      -6.084  -0.196  -0.325  1.00  0.00     0.003 A 
ATOM     12  C   UNL     1      -5.657  -0.996   0.735  1.00  0.00     0.014 A 
BRANCH   8  13
ATOM     13  N   UNL     1      -3.384   2.289  -0.479  1.00  0.00    -0.280 N 
ATOM     14  H   UNL     1      -3.788   2.869  -1.164  1.00  0.00     0.180 HD
BRANCH  13  15
ATOM     15  S   UNL     1      -1.786   2.583  -0.105  1.00  0.00     0.262 S 
ATOM     16  O   UNL     1      -1.716   2.861   1.315  1.00  0.00    -0.201 OA
ATOM     17  O   UNL     1      -1.360   3.574  -1.073  1.00  0.00    -0.201 OA
BRANCH  15  18
ATOM     18  C   UNL     1      -0.758   1.144  -0.393  1.00  0.00     0.092 A 
ATOM     19  C   UNL     1      -2.361  -0.325  -1.811  1.00  0.00     0.046 C 
ATOM     20  C   UNL     1      -1.106  -0.049  -1.045  1.00  0.00    -0.030 A 
ATOM     21  C   UNL     1      -0.195  -1.125  -0.976  1.00  0.00     0.007 A 
ATOM     22  C   UNL     1       1.067  -0.983  -0.398  1.00  0.00     0.026 A 
ATOM     23  C   UNL     1       0.537   1.274   0.163  1.00  0.00     0.048 A 
ATOM     24  C   UNL     1       1.472   0.241   0.114  1.00  0.00     0.033 A 
BRANCH  24  25
ATOM     25  N   UNL     1       2.722   0.386   0.686  1.00  0.00    -0.399 N 
ATOM     26  H   UNL     1       3.372  -0.353   0.643  1.00  0.00     0.156 HD
ATOM     27  H   UNL     1       2.963   1.227   1.137  1.00  0.00     0.156 HD
ENDBRANCH  24  25
ENDBRANCH  15  18
ENDBRANCH  13  15
ENDBRANCH   8  13
ENDBRANCH   4   7
ENDBRANCH   2   3
ENDBRANCH   1   2
BRANCH   1  28
ATOM     28  C   UNL     1      -1.054  -0.149   5.299  1.00  0.00     0.023 C 
BRANCH  28  29
ATOM     29  C   UNL     1       0.443  -0.441   5.251  1.00  0.00     0.116 C 
BRANCH  29  30
ATOM     30  N   UNL     1       1.235   0.699   4.817  1.00  0.00    -0.352 N 
ATOM     31  C   UNL     1       2.499   1.068   5.207  1.00  0.00     0.251 C 
ATOM     32  H   UNL     1       0.806   1.287   4.154  1.00  0.00     0.163 HD
ATOM     33  O   UNL     1       2.985   2.120   4.802  1.00  0.00    -0.269 OA
BRANCH  31  34
ATOM     34  C   UNL     1       3.257   0.212   6.144  1.00  0.00     0.039 A 
ATOM     35  C   UNL     1       3.883   0.812   7.238  1.00  0.00     0.014 A 
ATOM     36  C   UNL     1       3.345  -1.170   5.952  1.00  0.00     0.014 A 
ATOM     37  C   UNL     1       4.550   0.018   8.172  1.00  0.00     0.010 A 
ATOM     38  C   UNL     1       3.955  -1.967   6.918  1.00  0.00     0.010 A 
ATOM     39  C   UNL     1       4.566  -1.381   8.036  1.00  0.00    -0.014 A 
BRANCH  39  40
ATOM     40  C   UNL     1       5.209  -2.231   9.069  1.00  0.00     0.031 A 
ATOM     41  C   UNL     1       6.440  -3.031   8.744  1.00  0.00     0.074 A 
ATOM     42  C   UNL     1       4.658  -2.304  10.297  1.00  0.00     0.049 A 
ATOM     43  N   UNL     1       7.147  -3.808   9.523  1.00  0.00    -0.248 NA
ATOM     44  C   UNL     1       6.928  -2.969   7.357  1.00  0.00     0.031 C 
ATOM     45  C   UNL     1       3.425  -1.631  10.713  1.00  0.00     0.029 A 
ATOM     46  N   UNL     1       5.064  -2.974  11.422  1.00  0.00    -0.354 N 
ATOM     47  C   UNL     1       8.157  -4.331   8.724  1.00  0.00     0.074 A 
ATOM     48  C   UNL     1       7.940  -3.825   7.386  1.00  0.00     0.031 C 
ATOM     49  C   UNL     1       3.195  -1.895  12.009  1.00  0.00     0.029 A 
ATOM     50  C   UNL     1       4.250  -2.770  12.511  1.00  0.00     0.049 A 
ATOM     51  H   UNL     1       5.864  -3.548  11.448  1.00  0.00     0.167 HD
ATOM     52  C   UNL     1       9.186  -5.137   9.078  1.00  0.00     0.037 A 
ATOM     53  C   UNL     1       4.351  -3.224  13.774  1.00  0.00     0.037 A 
ATOM     54  C   UNL     1       9.414  -5.617  10.417  1.00  0.00     0.049 A 
ATOM     55  C   UNL     1       5.526  -4.082  14.152  1.00  0.00     0.074 A 
ATOM     56  C   UNL     1      10.458  -6.393  10.889  1.00  0.00     0.029 A 
ATOM     57  N   UNL     1       8.585  -5.362  11.499  1.00  0.00    -0.354 N 
ATOM     58  N   UNL     1       6.510  -4.510  13.398  1.00  0.00    -0.248 NA
ATOM     59  C   UNL     1       5.613  -4.506  15.556  1.00  0.00     0.031 C 
ATOM     60  C   UNL     1      10.246  -6.630  12.253  1.00  0.00     0.029 A 
ATOM     61  C   UNL     1       9.089  -5.973  12.636  1.00  0.00     0.049 A 
ATOM     62  H   UNL     1       7.760  -4.826  11.465  1.00  0.00     0.167 HD
ATOM     63  C   UNL     1       7.343  -5.238  14.239  1.00  0.00     0.074 A 
ATOM     64  C   UNL     1       6.757  -5.175  15.563  1.00  0.00     0.031 C 
ATOM     65  C   UNL     1       8.489  -5.901  13.944  1.00  0.00     0.037 A 
BRANCH  52  66
ATOM     66  C   UNL     1      10.157  -5.535   8.002  1.00  0.00     0.058 A 
ATOM     67  C   UNL     1      11.071  -4.615   7.464  1.00  0.00     0.135 A 
ATOM     68  C   UNL     1      10.197  -6.854   7.523  1.00  0.00     0.135 A 
ATOM     69  F   UNL     1      11.064  -3.337   7.874  1.00  0.00    -0.206 F 
ATOM     70  C   UNL     1      11.974  -4.981   6.471  1.00  0.00     0.059 A 
ATOM     71  C   UNL     1      11.108  -7.249   6.546  1.00  0.00     0.059 A 
ATOM     72  F   UNL     1       9.345  -7.774   8.001  1.00  0.00    -0.206 F 
ATOM     73  C   UNL     1      11.983  -6.301   6.017  1.00  0.00     0.060 A 
BRANCH  73  74
ATOM     74  S   UNL     1      13.163  -6.763   4.731  1.00  0.00     0.124 S 
ATOM     75  O   UNL     1      12.544  -6.177   3.546  1.00  0.00    -0.237 OA
ATOM     76  O   UNL     1      14.392  -6.121   5.186  1.00  0.00    -0.237 OA
ATOM     77  O   UNL     1      13.166  -8.221   4.782  1.00  0.00    -0.744 OA
ENDBRANCH  73  74
ENDBRANCH  52  66
BRANCH  53  78
ATOM     78  C   UNL     1       3.334  -2.839  14.787  1.00  0.00     0.058 A 
ATOM     79  C   UNL     1       3.642  -1.921  15.802  1.00  0.00     0.135 A 
ATOM     80  C   UNL     1       2.037  -3.373  14.757  1.00  0.00     0.135 A 
ATOM     81  F   UNL     1       4.871  -1.387  15.871  1.00  0.00    -0.206 F 
ATOM     82  C   UNL     1       2.708  -1.561  16.767  1.00  0.00     0.059 A 
ATOM     83  C   UNL     1       1.079  -3.012  15.698  1.00  0.00     0.059 A 
ATOM     84  F   UNL     1       1.689  -4.240  13.794  1.00  0.00    -0.206 F 
ATOM     85  C   UNL     1       1.428  -2.114  16.707  1.00  0.00     0.060 A 
BRANCH  85  86
ATOM     86  S   UNL     1       0.206  -1.613  17.939  1.00  0.00     0.124 S 
ATOM     87  O   UNL     1       0.624  -2.392  19.099  1.00  0.00    -0.237 OA
ATOM     88  O   UNL     1       0.425  -0.172  18.025  1.00  0.00    -0.237 OA
ATOM     89  O   UNL     1      -1.061  -2.010  17.332  1.00  0.00    -0.744 OA
ENDBRANCH  85  86
ENDBRANCH  53  78
BRANCH  65  90
ATOM     90  C   UNL     1       9.186  -6.592  15.082  1.00  0.00     0.058 A 
ATOM     91  C   UNL     1       8.681  -7.775  15.642  1.00  0.00     0.135 A 
ATOM     92  C   UNL     1      10.376  -6.068  15.612  1.00  0.00     0.135 A 
ATOM     93  F   UNL     1       7.543  -8.313  15.174  1.00  0.00    -0.206 F 
ATOM     94  C   UNL     1       9.310  -8.396  16.716  1.00  0.00     0.059 A 
ATOM     95  C   UNL     1      11.035  -6.686  16.670  1.00  0.00     0.059 A 
ATOM     96  F   UNL     1      10.907  -4.945  15.103  1.00  0.00    -0.206 F 
ATOM     97  C   UNL     1      10.483  -7.839  17.228  1.00  0.00     0.060 A 
BRANCH  97  98
ATOM     98  S   UNL     1      11.294  -8.648  18.623  1.00  0.00     0.124 S 
ATOM     99  O   UNL     1      10.473  -8.195  19.741  1.00  0.00    -0.237 OA
ATOM    100  O   UNL     1      11.175 -10.062  18.282  1.00  0.00    -0.237 OA
ATOM    101  O   UNL     1      12.652  -8.112  18.581  1.00  0.00    -0.744 OA
ENDBRANCH  97  98
ENDBRANCH  65  90
ENDBRANCH  39  40
ENDBRANCH  31  34
ENDBRANCH  29  30
ENDBRANCH  28  29
ENDBRANCH   1  28
TORSDOF 18
