REMARK SMILES CC[C@](C)([NH3+])C(=O)N1CC[NH+]([C@H](C)C(=O)NCCCCNC(=O)c2ccc(-c3c4nc(c(-c5c(F)cc(S(=O)(=O)[O-])cc5F)c5ccc([nH]5)c(-c5c(F)cc(S(=O)(=O)[O-])cc5F)c5nc(c(-c6c(F)cc(S(=O)(=O)[O-])cc6F)c6ccc3[nH]6)C=C5)C=C4)cc2)CC1
REMARK SMILES IDX 18 1 17 2 16 3 14 4 15 5 12 7 13 8 11 9 6 10 7 11 8 12 9 13
REMARK SMILES IDX 91 14 10 15 90 16 3 18 4 19 2 20 1 21 5 22 19 26 20 27 21 28
REMARK SMILES IDX 22 29 23 31 24 32 25 33 89 34 26 35 88 36 27 37 28 38 29 39
REMARK SMILES IDX 82 40 30 41 87 42 81 43 83 44 31 45 86 46 80 47 79 48 32 50
REMARK SMILES IDX 66 51 45 52 65 53 46 54 49 55 64 56 84 57 47 58 48 59 63 61
REMARK SMILES IDX 85 62 50 63 33 64 34 65 43 66 35 67 36 68 42 69 44 70 37 71
REMARK SMILES IDX 38 72 39 73 40 74 41 75 67 76 68 77 77 78 69 79 70 80 76 81
REMARK SMILES IDX 78 82 71 83 72 84 73 85 74 86 75 87 51 88 52 89 61 90 53 91
REMARK SMILES IDX 54 92 60 93 62 94 55 95 56 96 57 97 58 98 59 99
REMARK H PARENT 16 6 11 17 5 23 5 24 5 25 21 30 83 49 49 60
REMARK Flexibility Score: inf
ROOT
ATOM      1  C   UNL     1       5.553   5.383   0.354  1.00  0.00     0.023 C 
ENDROOT
BRANCH   1   2
ATOM      2  C   UNL     1       5.738   4.555   1.617  1.00  0.00     0.116 C 
BRANCH   2   3
ATOM      3  N   UNL     1       6.386   5.263   2.703  1.00  0.00    -0.351 N 
ATOM      4  C   UNL     1       6.225   5.146   4.056  1.00  0.00     0.278 C 
ATOM      5  O   UNL     1       7.077   5.695   4.764  1.00  0.00    -0.268 OA
ATOM      6  H   UNL     1       7.048   5.935   2.421  1.00  0.00     0.163 HD
BRANCH   4   7
ATOM      7  C   UNL     1       5.028   4.403   4.703  1.00  0.00     0.271 C 
ATOM      8  C   UNL     1       3.670   4.885   4.176  1.00  0.00     0.086 C 
BRANCH   7   9
ATOM      9  N   UNL     1       5.234   2.937   4.885  1.00  0.00    -0.322 N 
ATOM     10  C   UNL     1       3.933  -0.571   3.389  1.00  0.00     0.283 C 
ATOM     11  O   UNL     1       4.549  -1.047   2.422  1.00  0.00    -0.268 OA
ATOM     12  N   UNL     1       4.640   0.157   4.337  1.00  0.00    -0.326 N 
ATOM     13  C   UNL     1       5.949   0.687   3.959  1.00  0.00     0.181 C 
ATOM     14  C   UNL     1       4.204   0.740   5.603  1.00  0.00     0.181 C 
ATOM     15  C   UNL     1       5.794   2.207   3.731  1.00  0.00     0.284 C 
ATOM     16  C   UNL     1       4.040   2.265   5.449  1.00  0.00     0.284 C 
ATOM     17  H   UNL     1       5.981   2.890   5.579  1.00  0.00     0.348 HD
BRANCH  10  18
ATOM     18  C   UNL     1       2.359  -0.651   3.360  1.00  0.00     0.171 C 
ATOM     19  C   UNL     1       1.953  -1.937   2.612  1.00  0.00     0.090 C 
BRANCH  18  20
ATOM     20  C   UNL     1       1.812   0.634   2.673  1.00  0.00     0.075 C 
ATOM     21  C   UNL     1       1.724   0.593   1.150  1.00  0.00     0.011 C 
ENDBRANCH  18  20
BRANCH  18  22
ATOM     22  N   UNL     1       1.752  -0.756   4.709  1.00  0.00    -0.345 N 
ATOM     23  H   UNL     1       2.101  -1.594   5.174  1.00  0.00     0.345 HD
ATOM     24  H   UNL     1       0.737  -0.813   4.621  1.00  0.00     0.345 HD
ATOM     25  H   UNL     1       2.000   0.066   5.259  1.00  0.00     0.345 HD
ENDBRANCH  18  22
ENDBRANCH  10  18
ENDBRANCH   7   9
ENDBRANCH   4   7
ENDBRANCH   2   3
ENDBRANCH   1   2
BRANCH   1  26
ATOM     26  C   UNL     1       6.841   5.782  -0.361  1.00  0.00     0.023 C 
BRANCH  26  27
ATOM     27  C   UNL     1       7.847   4.661  -0.605  1.00  0.00     0.116 C 
BRANCH  27  28
ATOM     28  N   UNL     1       7.298   3.530  -1.342  1.00  0.00    -0.352 N 
ATOM     29  C   UNL     1       7.773   2.919  -2.481  1.00  0.00     0.251 C 
ATOM     30  H   UNL     1       6.469   3.148  -0.973  1.00  0.00     0.163 HD
ATOM     31  O   UNL     1       7.126   2.030  -3.020  1.00  0.00    -0.269 OA
BRANCH  29  32
ATOM     32  C   UNL     1       9.046   3.381  -3.073  1.00  0.00     0.039 A 
ATOM     33  C   UNL     1       9.076   3.719  -4.428  1.00  0.00     0.014 A 
ATOM     34  C   UNL     1      10.183   3.542  -2.278  1.00  0.00     0.014 A 
ATOM     35  C   UNL     1      10.220   4.314  -4.963  1.00  0.00     0.010 A 
ATOM     36  C   UNL     1      11.292   4.205  -2.794  1.00  0.00     0.010 A 
ATOM     37  C   UNL     1      11.317   4.610  -4.138  1.00  0.00    -0.014 A 
BRANCH  37  38
ATOM     38  C   UNL     1      12.495   5.357  -4.649  1.00  0.00     0.031 A 
ATOM     39  C   UNL     1      13.850   4.707  -4.655  1.00  0.00     0.074 A 
ATOM     40  C   UNL     1      12.360   6.646  -5.020  1.00  0.00     0.049 A 
ATOM     41  N   UNL     1      15.014   5.227  -4.946  1.00  0.00    -0.248 NA
ATOM     42  C   UNL     1      13.907   3.293  -4.249  1.00  0.00     0.031 C 
ATOM     43  C   UNL     1      11.107   7.407  -5.009  1.00  0.00     0.029 A 
ATOM     44  N   UNL     1      13.290   7.552  -5.465  1.00  0.00    -0.354 N 
ATOM     45  C   UNL     1      15.943   4.215  -4.735  1.00  0.00     0.074 A 
ATOM     46  C   UNL     1      15.212   3.066  -4.246  1.00  0.00     0.031 C 
ATOM     47  C   UNL     1      11.345   8.655  -5.447  1.00  0.00     0.029 A 
ATOM     48  C   UNL     1      12.769   8.796  -5.734  1.00  0.00     0.049 A 
ATOM     49  H   UNL     1      14.243   7.332  -5.581  1.00  0.00     0.167 HD
ATOM     50  C   UNL     1      17.280   4.234  -4.949  1.00  0.00     0.037 A 
ATOM     51  C   UNL     1      13.370   9.925  -6.157  1.00  0.00     0.037 A 
ATOM     52  C   UNL     1      17.997   5.367  -5.472  1.00  0.00     0.049 A 
ATOM     53  C   UNL     1      14.853   9.915  -6.411  1.00  0.00     0.074 A 
ATOM     54  C   UNL     1      19.342   5.468  -5.779  1.00  0.00     0.029 A 
ATOM     55  N   UNL     1      17.424   6.594  -5.773  1.00  0.00    -0.354 N 
ATOM     56  N   UNL     1      15.709   8.933  -6.253  1.00  0.00    -0.248 NA
ATOM     57  C   UNL     1      15.452  11.162  -6.906  1.00  0.00     0.031 C 
ATOM     58  C   UNL     1      19.589   6.765  -6.241  1.00  0.00     0.029 A 
ATOM     59  C   UNL     1      18.390   7.461  -6.256  1.00  0.00     0.049 A 
ATOM     60  H   UNL     1      16.472   6.816  -5.660  1.00  0.00     0.167 HD
ATOM     61  C   UNL     1      16.941   9.435  -6.654  1.00  0.00     0.074 A 
ATOM     62  C   UNL     1      16.719  10.806  -7.069  1.00  0.00     0.031 C 
ATOM     63  C   UNL     1      18.147   8.817  -6.679  1.00  0.00     0.037 A 
BRANCH  50  64
ATOM     64  C   UNL     1      18.049   2.984  -4.625  1.00  0.00     0.058 A 
ATOM     65  C   UNL     1      17.934   1.827  -5.412  1.00  0.00     0.135 A 
ATOM     66  C   UNL     1      18.921   2.945  -3.525  1.00  0.00     0.135 A 
ATOM     67  F   UNL     1      17.101   1.806  -6.465  1.00  0.00    -0.206 F 
ATOM     68  C   UNL     1      18.628   0.664  -5.100  1.00  0.00     0.059 A 
ATOM     69  C   UNL     1      19.647   1.800  -3.210  1.00  0.00     0.059 A 
ATOM     70  F   UNL     1      19.069   4.024  -2.740  1.00  0.00    -0.206 F 
ATOM     71  C   UNL     1      19.479   0.658  -3.994  1.00  0.00     0.060 A 
BRANCH  71  72
ATOM     72  S   UNL     1      20.369  -0.861  -3.597  1.00  0.00     0.124 S 
ATOM     73  O   UNL     1      19.312  -1.666  -2.993  1.00  0.00    -0.237 OA
ATOM     74  O   UNL     1      20.833  -1.306  -4.907  1.00  0.00    -0.237 OA
ATOM     75  O   UNL     1      21.416  -0.412  -2.685  1.00  0.00    -0.744 OA
ENDBRANCH  71  72
ENDBRANCH  50  64
BRANCH  51  76
ATOM     76  C   UNL     1      12.566  11.151  -6.397  1.00  0.00     0.058 A 
ATOM     77  C   UNL     1      12.306  11.594  -7.703  1.00  0.00     0.135 A 
ATOM     78  C   UNL     1      12.030  11.896  -5.335  1.00  0.00     0.135 A 
ATOM     79  F   UNL     1      12.802  10.917  -8.750  1.00  0.00    -0.206 F 
ATOM     80  C   UNL     1      11.556  12.739  -7.949  1.00  0.00     0.059 A 
ATOM     81  C   UNL     1      11.259  13.033  -5.557  1.00  0.00     0.059 A 
ATOM     82  F   UNL     1      12.236  11.504  -4.068  1.00  0.00    -0.206 F 
ATOM     83  C   UNL     1      11.035  13.452  -6.869  1.00  0.00     0.060 A 
BRANCH  83  84
ATOM     84  S   UNL     1      10.019  14.908  -7.199  1.00  0.00     0.124 S 
ATOM     85  O   UNL     1      11.029  15.893  -7.568  1.00  0.00    -0.237 OA
ATOM     86  O   UNL     1       9.155  14.443  -8.280  1.00  0.00    -0.237 OA
ATOM     87  O   UNL     1       9.344  15.140  -5.925  1.00  0.00    -0.744 OA
ENDBRANCH  83  84
ENDBRANCH  51  76
BRANCH  63  88
ATOM     88  C   UNL     1      19.315   9.599  -7.208  1.00  0.00     0.058 A 
ATOM     89  C   UNL     1      19.934  10.602  -6.448  1.00  0.00     0.135 A 
ATOM     90  C   UNL     1      19.858   9.296  -8.468  1.00  0.00     0.135 A 
ATOM     91  F   UNL     1      19.448  10.932  -5.241  1.00  0.00    -0.206 F 
ATOM     92  C   UNL     1      21.046  11.290  -6.924  1.00  0.00     0.059 A 
ATOM     93  C   UNL     1      20.981   9.956  -8.954  1.00  0.00     0.059 A 
ATOM     94  F   UNL     1      19.305   8.339  -9.229  1.00  0.00    -0.206 F 
ATOM     95  C   UNL     1      21.563  10.958  -8.178  1.00  0.00     0.060 A 
BRANCH  95  96
ATOM     96  S   UNL     1      23.033  11.825  -8.768  1.00  0.00     0.124 S 
ATOM     97  O   UNL     1      22.472  13.108  -9.178  1.00  0.00    -0.237 OA
ATOM     98  O   UNL     1      23.879  11.855  -7.579  1.00  0.00    -0.237 OA
ATOM     99  O   UNL     1      23.516  10.974  -9.851  1.00  0.00    -0.744 OA
ENDBRANCH  95  96
ENDBRANCH  63  88
ENDBRANCH  37  38
ENDBRANCH  29  32
ENDBRANCH  27  28
ENDBRANCH  26  27
ENDBRANCH   1  26
TORSDOF 18
