REMARK SMILES O=C(NCCCCNC(=O)c1ccc(-c2ccsc2)cc1O)c1ccc(-c2c3nc(c(-c4c(F)cc(S(=O)(=O)[O-])cc4F)c4ccc([nH]4)c(-c4c(F)cc(S(=O)(=O)[O-])cc4F)c4nc(c(-c5c(F)cc(S(=O)(=O)[O-])cc5F)c5ccc2[nH]5)C=C4)C=C3)cc1
REMARK SMILES IDX 4 1 3 2 1 3 2 4 23 6 24 7 88 8 25 9 87 10 26 11 27 12 28 13
REMARK SMILES IDX 81 14 29 15 86 16 80 17 82 18 30 19 85 20 79 21 78 22 31 24
REMARK SMILES IDX 65 25 44 26 64 27 45 28 48 29 63 30 83 31 46 32 47 33 62 35
REMARK SMILES IDX 84 36 49 37 32 38 33 39 42 40 34 41 35 42 41 43 43 44 36 45
REMARK SMILES IDX 37 46 38 47 39 48 40 49 66 50 67 51 76 52 68 53 69 54 75 55
REMARK SMILES IDX 77 56 70 57 71 58 72 59 73 60 74 61 50 62 51 63 60 64 52 65
REMARK SMILES IDX 53 66 59 67 61 68 54 69 55 70 56 71 57 72 58 73 5 74 6 75
REMARK SMILES IDX 7 76 8 77 9 78 10 80 11 81 12 82 21 83 13 84 20 85 14 86
REMARK SMILES IDX 22 87 15 89 16 90 19 91 17 92 18 93
REMARK H PARENT 3 5 82 23 48 34 8 79 22 88
REMARK Flexibility Score: inf
ROOT
ATOM      1  C   UNL     1       4.578  -1.250  -0.665  1.00  0.00     0.116 C 
ENDROOT
BRANCH   1   2
ATOM      2  N   UNL     1       3.162  -0.927  -0.776  1.00  0.00    -0.352 N 
ATOM      3  O   UNL     1       1.197   0.035  -0.228  1.00  0.00    -0.269 OA
ATOM      4  C   UNL     1       2.412  -0.021  -0.061  1.00  0.00     0.251 C 
ATOM      5  H   UNL     1       2.669  -1.431  -1.463  1.00  0.00     0.163 HD
BRANCH   4   6
ATOM      6  C   UNL     1       3.067   0.856   0.935  1.00  0.00     0.039 A 
ATOM      7  C   UNL     1       4.254   1.523   0.629  1.00  0.00     0.014 A 
ATOM      8  C   UNL     1       2.499   0.986   2.206  1.00  0.00     0.014 A 
ATOM      9  C   UNL     1       4.963   2.165   1.639  1.00  0.00     0.010 A 
ATOM     10  C   UNL     1       3.172   1.706   3.199  1.00  0.00     0.010 A 
ATOM     11  C   UNL     1       4.436   2.255   2.939  1.00  0.00    -0.014 A 
BRANCH  11  12
ATOM     12  C   UNL     1       5.235   2.928   3.997  1.00  0.00     0.031 A 
ATOM     13  C   UNL     1       5.770   2.157   5.176  1.00  0.00     0.074 A 
ATOM     14  C   UNL     1       5.534   4.234   3.858  1.00  0.00     0.049 A 
ATOM     15  N   UNL     1       6.544   2.571   6.147  1.00  0.00    -0.248 NA
ATOM     16  C   UNL     1       5.380   0.742   5.287  1.00  0.00     0.031 C 
ATOM     17  C   UNL     1       5.060   5.094   2.770  1.00  0.00     0.029 A 
ATOM     18  N   UNL     1       6.331   5.059   4.609  1.00  0.00    -0.354 N 
ATOM     19  C   UNL     1       6.709   1.483   6.998  1.00  0.00     0.074 A 
ATOM     20  C   UNL     1       5.941   0.392   6.437  1.00  0.00     0.031 C 
ATOM     21  C   UNL     1       5.626   6.305   2.889  1.00  0.00     0.029 A 
ATOM     22  C   UNL     1       6.465   6.321   4.082  1.00  0.00     0.049 A 
ATOM     23  H   UNL     1       6.765   4.774   5.446  1.00  0.00     0.167 HD
ATOM     24  C   UNL     1       7.437   1.399   8.138  1.00  0.00     0.037 A 
ATOM     25  C   UNL     1       7.188   7.374   4.506  1.00  0.00     0.037 A 
ATOM     26  C   UNL     1       8.235   2.473   8.674  1.00  0.00     0.049 A 
ATOM     27  C   UNL     1       8.023   7.242   5.746  1.00  0.00     0.074 A 
ATOM     28  C   UNL     1       9.038   2.470   9.802  1.00  0.00     0.029 A 
ATOM     29  N   UNL     1       8.337   3.738   8.115  1.00  0.00    -0.354 N 
ATOM     30  N   UNL     1       8.179   6.198   6.524  1.00  0.00    -0.248 NA
ATOM     31  C   UNL     1       8.777   8.430   6.167  1.00  0.00     0.031 C 
ATOM     32  C   UNL     1       9.609   3.742   9.937  1.00  0.00     0.029 A 
ATOM     33  C   UNL     1       9.183   4.526   8.878  1.00  0.00     0.049 A 
ATOM     34  H   UNL     1       7.877   4.032   7.296  1.00  0.00     0.167 HD
ATOM     35  C   UNL     1       9.057   6.600   7.522  1.00  0.00     0.074 A 
ATOM     36  C   UNL     1       9.411   7.977   7.239  1.00  0.00     0.031 C 
ATOM     37  C   UNL     1       9.524   5.894   8.581  1.00  0.00     0.037 A 
BRANCH  24  38
ATOM     38  C   UNL     1       7.396   0.102   8.895  1.00  0.00     0.058 A 
ATOM     39  C   UNL     1       8.097  -1.032   8.458  1.00  0.00     0.135 A 
ATOM     40  C   UNL     1       6.669   0.002  10.093  1.00  0.00     0.135 A 
ATOM     41  F   UNL     1       8.795  -0.994   7.312  1.00  0.00    -0.206 F 
ATOM     42  C   UNL     1       8.060  -2.228   9.168  1.00  0.00     0.059 A 
ATOM     43  C   UNL     1       6.633  -1.179  10.829  1.00  0.00     0.059 A 
ATOM     44  F   UNL     1       5.981   1.057  10.555  1.00  0.00    -0.206 F 
ATOM     45  C   UNL     1       7.320  -2.294  10.350  1.00  0.00     0.060 A 
BRANCH  45  46
ATOM     46  S   UNL     1       7.272  -3.852  11.263  1.00  0.00     0.124 S 
ATOM     47  O   UNL     1       6.304  -4.615  10.481  1.00  0.00    -0.237 OA
ATOM     48  O   UNL     1       8.655  -4.310  11.180  1.00  0.00    -0.237 OA
ATOM     49  O   UNL     1       6.828  -3.450  12.594  1.00  0.00    -0.744 OA
ENDBRANCH  45  46
ENDBRANCH  24  38
BRANCH  25  50
ATOM     50  C   UNL     1       7.169   8.637   3.726  1.00  0.00     0.058 A 
ATOM     51  C   UNL     1       8.271   9.018   2.948  1.00  0.00     0.135 A 
ATOM     52  C   UNL     1       6.035   9.462   3.709  1.00  0.00     0.135 A 
ATOM     53  F   UNL     1       9.378   8.259   2.936  1.00  0.00    -0.206 F 
ATOM     54  C   UNL     1       8.254  10.178   2.182  1.00  0.00     0.059 A 
ATOM     55  C   UNL     1       5.986  10.616   2.936  1.00  0.00     0.059 A 
ATOM     56  F   UNL     1       4.950   9.128   4.425  1.00  0.00    -0.206 F 
ATOM     57  C   UNL     1       7.104  10.970   2.180  1.00  0.00     0.060 A 
BRANCH  57  58
ATOM     58  S   UNL     1       7.054  12.437   1.129  1.00  0.00     0.124 S 
ATOM     59  O   UNL     1       7.780  13.404   1.943  1.00  0.00    -0.237 OA
ATOM     60  O   UNL     1       7.734  11.979  -0.079  1.00  0.00    -0.237 OA
ATOM     61  O   UNL     1       5.624  12.685   0.974  1.00  0.00    -0.744 OA
ENDBRANCH  57  58
ENDBRANCH  25  50
BRANCH  37  62
ATOM     62  C   UNL     1      10.482   6.598   9.497  1.00  0.00     0.058 A 
ATOM     63  C   UNL     1      10.037   7.546  10.430  1.00  0.00     0.135 A 
ATOM     64  C   UNL     1      11.854   6.309   9.453  1.00  0.00     0.135 A 
ATOM     65  F   UNL     1       8.734   7.861  10.505  1.00  0.00    -0.206 F 
ATOM     66  C   UNL     1      10.925   8.206  11.273  1.00  0.00     0.059 A 
ATOM     67  C   UNL     1      12.758   6.944  10.298  1.00  0.00     0.059 A 
ATOM     68  F   UNL     1      12.327   5.403   8.582  1.00  0.00    -0.206 F 
ATOM     69  C   UNL     1      12.286   7.902  11.194  1.00  0.00     0.060 A 
BRANCH  69  70
ATOM     70  S   UNL     1      13.435   8.753  12.297  1.00  0.00     0.124 S 
ATOM     71  O   UNL     1      13.620  10.023  11.602  1.00  0.00    -0.237 OA
ATOM     72  O   UNL     1      12.686   8.819  13.548  1.00  0.00    -0.237 OA
ATOM     73  O   UNL     1      14.597   7.870  12.316  1.00  0.00    -0.744 OA
ENDBRANCH  69  70
ENDBRANCH  37  62
ENDBRANCH  11  12
ENDBRANCH   4   6
ENDBRANCH   1   2
BRANCH   1  74
ATOM     74  C   UNL     1       4.845  -2.736  -0.460  1.00  0.00     0.023 C 
BRANCH  74  75
ATOM     75  C   UNL     1       4.352  -3.654  -1.575  1.00  0.00     0.023 C 
BRANCH  75  76
ATOM     76  C   UNL     1       4.777  -3.260  -2.986  1.00  0.00     0.116 C 
BRANCH  76  77
ATOM     77  N   UNL     1       6.220  -3.235  -3.159  1.00  0.00    -0.352 N 
ATOM     78  C   UNL     1       6.961  -3.814  -4.160  1.00  0.00     0.255 C 
ATOM     79  H   UNL     1       6.728  -2.742  -2.475  1.00  0.00     0.163 HD
ATOM     80  O   UNL     1       8.186  -3.732  -4.173  1.00  0.00    -0.269 OA
BRANCH  78  81
ATOM     81  C   UNL     1       6.276  -4.630  -5.178  1.00  0.00     0.081 A 
ATOM     82  C   UNL     1       6.521  -6.006  -5.166  1.00  0.00     0.018 A 
ATOM     83  C   UNL     1       5.374  -4.082  -6.095  1.00  0.00     0.128 A 
ATOM     84  C   UNL     1       5.807  -6.843  -6.024  1.00  0.00     0.010 A 
ATOM     85  C   UNL     1       4.659  -4.918  -6.953  1.00  0.00     0.055 A 
ATOM     86  C   UNL     1       4.853  -6.308  -6.901  1.00  0.00    -0.014 A 
BRANCH  83  87
ATOM     87  O   UNL     1       5.158  -2.732  -6.125  1.00  0.00    -0.507 OA
ATOM     88  H   UNL     1       5.636  -2.169  -5.550  1.00  0.00     0.293 HD
ENDBRANCH  83  87
BRANCH  86  89
ATOM     89  C   UNL     1       4.038  -7.182  -7.736  1.00  0.00    -0.008 A 
ATOM     90  C   UNL     1       3.736  -7.021  -9.126  1.00  0.00     0.020 A 
ATOM     91  C   UNL     1       3.393  -8.286  -7.212  1.00  0.00     0.073 A 
ATOM     92  C   UNL     1       2.899  -8.006  -9.600  1.00  0.00     0.065 A 
ATOM     93  S   UNL     1       2.464  -9.122  -8.381  1.00  0.00    -0.152 S 
ENDBRANCH  86  89
ENDBRANCH  78  81
ENDBRANCH  76  77
ENDBRANCH  75  76
ENDBRANCH  74  75
ENDBRANCH   1  74
TORSDOF 16
