REMARK SMILES C[NH+]1CCC(C(=O)N2C[C@@H](C(=O)NCCCCNC(=O)c3ccc(-c4c5nc(c(-c6c(F)cc(S(=O)(=O)[O-])cc6F)c6ccc([nH]6)c(-c6c(F)cc(S(=O)(=O)[O-])cc6F)c6nc(c(-c7c(F)cc(S(=O)(=O)[O-])cc7F)c7ccc4[nH]7)C=C6)C=C5)cc3)[C@H](c3ccc4c(c3)OCO4)C2)CC1
REMARK SMILES IDX 16 1 15 2 14 3 13 4 11 5 12 6 10 8 8 9 9 10 97 11 87 12 6 13
REMARK SMILES IDX 7 14 5 15 1 16 2 17 3 18 99 19 4 21 98 22 88 23 89 24 93 25
REMARK SMILES IDX 90 26 92 27 91 28 94 29 96 30 95 31 17 32 18 33 19 34 20 36
REMARK SMILES IDX 21 37 22 38 86 39 23 40 85 41 24 42 25 43 26 44 79 45 27 46
REMARK SMILES IDX 84 47 78 48 80 49 28 50 83 51 77 52 76 53 29 55 63 56 42 57
REMARK SMILES IDX 62 58 43 59 46 60 61 61 81 62 44 63 45 64 60 66 82 67 47 68
REMARK SMILES IDX 30 69 31 70 40 71 32 72 33 73 39 74 41 75 34 76 35 77 36 78
REMARK SMILES IDX 37 79 38 80 64 81 65 82 74 83 66 84 67 85 73 86 75 87 68 88
REMARK SMILES IDX 69 89 70 90 71 91 72 92 48 93 49 94 58 95 50 96 51 97 57 98
REMARK SMILES IDX 59 99 52 100 53 101 54 102 55 103 56 104
REMARK H PARENT 13 7 2 20 18 35 80 54 46 65
REMARK Flexibility Score: inf
ROOT
ATOM      1  C   UNL     1      -0.023   0.156   8.238  1.00  0.00     0.023 C 
ENDROOT
BRANCH   1   2
ATOM      2  C   UNL     1       0.153   0.744   6.836  1.00  0.00     0.023 C 
BRANCH   2   3
ATOM      3  C   UNL     1       1.589   0.809   6.328  1.00  0.00     0.116 C 
BRANCH   3   4
ATOM      4  N   UNL     1       2.191  -0.497   6.117  1.00  0.00    -0.356 N 
ATOM      5  C   UNL     1       2.946  -0.949   5.072  1.00  0.00     0.225 C 
ATOM      6  O   UNL     1       3.488  -2.050   5.172  1.00  0.00    -0.275 OA
ATOM      7  H   UNL     1       2.031  -1.153   6.833  1.00  0.00     0.163 HD
BRANCH   5   8
ATOM      8  C   UNL     1       3.095  -0.102   3.827  1.00  0.00     0.107 C 
ATOM      9  N   UNL     1       3.617  -0.058   1.579  1.00  0.00    -0.341 N 
ATOM     10  C   UNL     1       3.141  -0.977   2.591  1.00  0.00     0.133 C 
ATOM     11  C   UNL     1       4.620   0.822   2.179  1.00  0.00     0.128 C 
ATOM     12  C   UNL     1       4.440   0.656   3.711  1.00  0.00     0.053 C 
BRANCH   9  13
ATOM     13  C   UNL     1       3.283   0.064   0.255  1.00  0.00     0.226 C 
ATOM     14  O   UNL     1       4.103   0.536  -0.543  1.00  0.00    -0.275 OA
BRANCH  13  15
ATOM     15  C   UNL     1       1.826  -0.080  -0.209  1.00  0.00     0.090 C 
ATOM     16  C   UNL     1      -2.473   0.020  -0.273  1.00  0.00     0.332 C 
ATOM     17  N   UNL     1      -1.067  -0.040   0.115  1.00  0.00    -0.337 N 
ATOM     18  C   UNL     1      -0.366   1.189  -0.271  1.00  0.00     0.262 C 
ATOM     19  C   UNL     1      -0.408  -1.223  -0.457  1.00  0.00     0.262 C 
ATOM     20  H   UNL     1      -1.026  -0.121   1.131  1.00  0.00     0.347 HD
ATOM     21  C   UNL     1       1.067   1.173   0.254  1.00  0.00     0.075 C 
ATOM     22  C   UNL     1       1.016  -1.336   0.099  1.00  0.00     0.075 C 
ENDBRANCH  13  15
ENDBRANCH   9  13
BRANCH  12  23
ATOM     23  C   UNL     1       4.419   1.900   4.579  1.00  0.00    -0.038 A 
ATOM     24  C   UNL     1       3.821   3.112   4.163  1.00  0.00     0.008 A 
ATOM     25  C   UNL     1       4.843   1.771   5.917  1.00  0.00     0.054 A 
ATOM     26  C   UNL     1       3.602   4.158   5.069  1.00  0.00     0.051 A 
ATOM     27  C   UNL     1       4.571   2.798   6.795  1.00  0.00     0.166 A 
ATOM     28  C   UNL     1       3.957   3.955   6.384  1.00  0.00     0.165 A 
ATOM     29  O   UNL     1       4.760   2.760   8.141  1.00  0.00    -0.454 OA
ATOM     30  O   UNL     1       3.696   4.796   7.420  1.00  0.00    -0.454 OA
ATOM     31  C   UNL     1       4.067   3.963   8.540  1.00  0.00     0.468 C 
ENDBRANCH  12  23
ENDBRANCH   5   8
ENDBRANCH   3   4
ENDBRANCH   2   3
ENDBRANCH   1   2
BRANCH   1  32
ATOM     32  C   UNL     1       0.837   0.765   9.345  1.00  0.00     0.116 C 
BRANCH  32  33
ATOM     33  N   UNL     1       0.682   2.204   9.493  1.00  0.00    -0.352 N 
ATOM     34  C   UNL     1       0.699   2.963  10.640  1.00  0.00     0.251 C 
ATOM     35  H   UNL     1       0.545   2.703   8.656  1.00  0.00     0.163 HD
ATOM     36  O   UNL     1       0.540   4.180  10.567  1.00  0.00    -0.269 OA
BRANCH  34  37
ATOM     37  C   UNL     1       0.867   2.319  11.962  1.00  0.00     0.039 A 
ATOM     38  C   UNL     1      -0.037   2.642  12.979  1.00  0.00     0.014 A 
ATOM     39  C   UNL     1       1.881   1.387  12.197  1.00  0.00     0.014 A 
ATOM     40  C   UNL     1       0.018   1.964  14.199  1.00  0.00     0.010 A 
ATOM     41  C   UNL     1       1.900   0.672  13.395  1.00  0.00     0.010 A 
ATOM     42  C   UNL     1       0.957   0.939  14.399  1.00  0.00    -0.014 A 
BRANCH  42  43
ATOM     43  C   UNL     1       0.919   0.097  15.624  1.00  0.00     0.031 A 
ATOM     44  C   UNL     1       2.050   0.125  16.613  1.00  0.00     0.074 A 
ATOM     45  C   UNL     1      -0.108  -0.758  15.801  1.00  0.00     0.049 A 
ATOM     46  N   UNL     1       2.207  -0.580  17.704  1.00  0.00    -0.248 NA
ATOM     47  C   UNL     1       3.159   1.046  16.326  1.00  0.00     0.031 C 
ATOM     48  C   UNL     1      -1.234  -0.927  14.878  1.00  0.00     0.029 A 
ATOM     49  N   UNL     1      -0.364  -1.661  16.803  1.00  0.00    -0.354 N 
ATOM     50  C   UNL     1       3.438  -0.202  18.227  1.00  0.00     0.074 A 
ATOM     51  C   UNL     1       4.002   0.767  17.310  1.00  0.00     0.031 C 
ATOM     52  C   UNL     1      -2.060  -1.869  15.359  1.00  0.00     0.029 A 
ATOM     53  C   UNL     1      -1.512  -2.393  16.607  1.00  0.00     0.049 A 
ATOM     54  H   UNL     1       0.219  -1.773  17.588  1.00  0.00     0.167 HD
ATOM     55  C   UNL     1       4.035  -0.613  19.372  1.00  0.00     0.037 A 
ATOM     56  C   UNL     1      -2.059  -3.382  17.340  1.00  0.00     0.037 A 
ATOM     57  C   UNL     1       3.460  -1.563  20.289  1.00  0.00     0.049 A 
ATOM     58  C   UNL     1      -1.394  -3.802  18.621  1.00  0.00     0.074 A 
ATOM     59  C   UNL     1       3.950  -1.982  21.514  1.00  0.00     0.029 A 
ATOM     60  N   UNL     1       2.274  -2.252  20.078  1.00  0.00    -0.354 N 
ATOM     61  N   UNL     1      -0.275  -3.366  19.147  1.00  0.00    -0.248 NA
ATOM     62  C   UNL     1      -2.070  -4.838  19.414  1.00  0.00     0.031 C 
ATOM     63  C   UNL     1       3.082  -2.955  22.024  1.00  0.00     0.029 A 
ATOM     64  C   UNL     1       2.028  -3.110  21.139  1.00  0.00     0.049 A 
ATOM     65  H   UNL     1       1.692  -2.147  19.291  1.00  0.00     0.167 HD
ATOM     66  C   UNL     1      -0.120  -4.061  20.342  1.00  0.00     0.074 A 
ATOM     67  C   UNL     1      -1.268  -4.936  20.467  1.00  0.00     0.031 C 
ATOM     68  C   UNL     1       0.882  -3.979  21.252  1.00  0.00     0.037 A 
BRANCH  55  69
ATOM     69  C   UNL     1       5.387  -0.038  19.693  1.00  0.00     0.058 A 
ATOM     70  C   UNL     1       5.546   1.302  20.081  1.00  0.00     0.135 A 
ATOM     71  C   UNL     1       6.537  -0.842  19.630  1.00  0.00     0.135 A 
ATOM     72  F   UNL     1       4.482   2.118  20.146  1.00  0.00    -0.206 F 
ATOM     73  C   UNL     1       6.801   1.836  20.356  1.00  0.00     0.059 A 
ATOM     74  C   UNL     1       7.800  -0.336  19.928  1.00  0.00     0.059 A 
ATOM     75  F   UNL     1       6.443  -2.131  19.269  1.00  0.00    -0.206 F 
ATOM     76  C   UNL     1       7.923   1.010  20.270  1.00  0.00     0.060 A 
BRANCH  76  77
ATOM     77  S   UNL     1       9.547   1.721  20.611  1.00  0.00     0.124 S 
ATOM     78  O   UNL     1       9.788   2.489  19.393  1.00  0.00    -0.237 OA
ATOM     79  O   UNL     1       9.300   2.507  21.816  1.00  0.00    -0.237 OA
ATOM     80  O   UNL     1      10.399   0.550  20.794  1.00  0.00    -0.744 OA
ENDBRANCH  76  77
ENDBRANCH  55  69
BRANCH  56  81
ATOM     81  C   UNL     1      -3.317  -4.026  16.879  1.00  0.00     0.058 A 
ATOM     82  C   UNL     1      -4.538  -3.766  17.517  1.00  0.00     0.135 A 
ATOM     83  C   UNL     1      -3.328  -4.877  15.763  1.00  0.00     0.135 A 
ATOM     84  F   UNL     1      -4.576  -2.963  18.592  1.00  0.00    -0.206 F 
ATOM     85  C   UNL     1      -5.728  -4.330  17.068  1.00  0.00     0.059 A 
ATOM     86  C   UNL     1      -4.508  -5.435  15.282  1.00  0.00     0.059 A 
ATOM     87  F   UNL     1      -2.187  -5.142  15.108  1.00  0.00    -0.206 F 
ATOM     88  C   UNL     1      -5.704  -5.159  15.945  1.00  0.00     0.060 A 
BRANCH  88  89
ATOM     89  S   UNL     1      -7.264  -5.822  15.322  1.00  0.00     0.124 S 
ATOM     90  O   UNL     1      -7.553  -6.863  16.301  1.00  0.00    -0.237 OA
ATOM     91  O   UNL     1      -8.133  -4.649  15.360  1.00  0.00    -0.237 OA
ATOM     92  O   UNL     1      -6.917  -6.290  13.983  1.00  0.00    -0.744 OA
ENDBRANCH  88  89
ENDBRANCH  56  81
BRANCH  68  93
ATOM     93  C   UNL     1       0.776  -4.843  22.477  1.00  0.00     0.058 A 
ATOM     94  C   UNL     1       1.002  -6.228  22.424  1.00  0.00     0.135 A 
ATOM     95  C   UNL     1       0.496  -4.272  23.729  1.00  0.00     0.135 A 
ATOM     96  F   UNL     1       1.266  -6.824  21.250  1.00  0.00    -0.206 F 
ATOM     97  C   UNL     1       0.936  -7.019  23.566  1.00  0.00     0.059 A 
ATOM     98  C   UNL     1       0.449  -5.040  24.888  1.00  0.00     0.059 A 
ATOM     99  F   UNL     1       0.280  -2.951  23.836  1.00  0.00    -0.206 F 
ATOM    100  C   UNL     1       0.660  -6.415  24.795  1.00  0.00     0.060 A 
BRANCH 100 101
ATOM    101  S   UNL     1       0.613  -7.446  26.277  1.00  0.00     0.124 S 
ATOM    102  O   UNL     1      -0.675  -8.116  26.128  1.00  0.00    -0.237 OA
ATOM    103  O   UNL     1       1.791  -8.292  26.109  1.00  0.00    -0.237 OA
ATOM    104  O   UNL     1       0.695  -6.477  27.366  1.00  0.00    -0.744 OA
ENDBRANCH 100 101
ENDBRANCH  68  93
ENDBRANCH  42  43
ENDBRANCH  34  37
ENDBRANCH  32  33
ENDBRANCH   1  32
TORSDOF 17
