REMARK SMILES O=C(NCCCCNC(=O)c1cn2ccccc2n1)c1ccc(-c2c3nc(c(-c4c(F)cc(S(=O)(=O)[O-])cc4F)c4ccc([nH]4)c(-c4c(F)cc(S(=O)(=O)[O-])cc4F)c4nc(c(-c5c(F)cc(S(=O)(=O)[O-])cc5F)c5ccc2[nH]5)C=C4)C=C3)cc1
REMARK SMILES IDX 4 1 3 2 1 3 2 4 20 6 21 7 85 8 22 9 84 10 23 11 24 12 25 13
REMARK SMILES IDX 78 14 26 15 83 16 77 17 79 18 27 19 82 20 76 21 75 22 28 24
REMARK SMILES IDX 62 25 41 26 61 27 42 28 45 29 60 30 80 31 43 32 44 33 59 35
REMARK SMILES IDX 81 36 46 37 29 38 30 39 39 40 31 41 32 42 38 43 40 44 33 45
REMARK SMILES IDX 34 46 35 47 36 48 37 49 63 50 64 51 73 52 65 53 66 54 72 55
REMARK SMILES IDX 74 56 67 57 68 58 69 59 70 60 71 61 47 62 48 63 57 64 49 65
REMARK SMILES IDX 50 66 56 67 58 68 51 69 52 70 53 71 54 72 55 73 5 74 6 75
REMARK SMILES IDX 7 76 8 77 9 78 10 80 11 81 12 82 19 83 13 84 18 85 14 86
REMARK SMILES IDX 17 87 15 88 16 89
REMARK H PARENT 3 5 79 23 45 34 8 79
REMARK Flexibility Score: inf
ROOT
ATOM      1  C   UNL     1       4.657  -1.229   0.453  1.00  0.00     0.116 C 
ENDROOT
BRANCH   1   2
ATOM      2  N   UNL     1       3.220  -1.122   0.247  1.00  0.00    -0.352 N 
ATOM      3  O   UNL     1       1.232  -0.079   0.016  1.00  0.00    -0.269 OA
ATOM      4  C   UNL     1       2.456   0.003   0.034  1.00  0.00     0.251 C 
ATOM      5  H   UNL     1       2.725  -1.973   0.263  1.00  0.00     0.163 HD
BRANCH   4   6
ATOM      6  C   UNL     1       3.123   1.311  -0.143  1.00  0.00     0.039 A 
ATOM      7  C   UNL     1       4.236   1.427  -0.979  1.00  0.00     0.014 A 
ATOM      8  C   UNL     1       2.651   2.424   0.556  1.00  0.00     0.014 A 
ATOM      9  C   UNL     1       4.973   2.604  -0.984  1.00  0.00     0.010 A 
ATOM     10  C   UNL     1       3.336   3.640   0.467  1.00  0.00     0.010 A 
ATOM     11  C   UNL     1       4.523   3.731  -0.277  1.00  0.00    -0.014 A 
BRANCH  11  12
ATOM     12  C   UNL     1       5.273   5.008  -0.396  1.00  0.00     0.031 A 
ATOM     13  C   UNL     1       5.921   5.652   0.799  1.00  0.00     0.074 A 
ATOM     14  C   UNL     1       5.385   5.573  -1.615  1.00  0.00     0.049 A 
ATOM     15  N   UNL     1       6.611   6.763   0.860  1.00  0.00    -0.248 NA
ATOM     16  C   UNL     1       5.771   4.970   2.094  1.00  0.00     0.031 C 
ATOM     17  C   UNL     1       4.791   5.041  -2.845  1.00  0.00     0.029 A 
ATOM     18  N   UNL     1       6.042   6.702  -2.029  1.00  0.00    -0.354 N 
ATOM     19  C   UNL     1       6.964   6.924   2.195  1.00  0.00     0.074 A 
ATOM     20  C   UNL     1       6.386   5.810   2.917  1.00  0.00     0.031 C 
ATOM     21  C   UNL     1       5.145   5.817  -3.878  1.00  0.00     0.029 A 
ATOM     22  C   UNL     1       5.927   6.941  -3.378  1.00  0.00     0.049 A 
ATOM     23  H   UNL     1       6.547   7.287  -1.419  1.00  0.00     0.167 HD
ATOM     24  C   UNL     1       7.706   7.908   2.761  1.00  0.00     0.037 A 
ATOM     25  C   UNL     1       6.374   7.963  -4.130  1.00  0.00     0.037 A 
ATOM     26  C   UNL     1       8.281   9.009   2.027  1.00  0.00     0.049 A 
ATOM     27  C   UNL     1       7.160   9.058  -3.470  1.00  0.00     0.074 A 
ATOM     28  C   UNL     1       9.076  10.038   2.502  1.00  0.00     0.029 A 
ATOM     29  N   UNL     1       8.116   9.232   0.666  1.00  0.00    -0.354 N 
ATOM     30  N   UNL     1       7.513   9.175  -2.212  1.00  0.00    -0.248 NA
ATOM     31  C   UNL     1       7.609  10.161  -4.329  1.00  0.00     0.031 C 
ATOM     32  C   UNL     1       9.343  10.912   1.444  1.00  0.00     0.029 A 
ATOM     33  C   UNL     1       8.770  10.396   0.293  1.00  0.00     0.049 A 
ATOM     34  H   UNL     1       7.610   8.648   0.056  1.00  0.00     0.167 HD
ATOM     35  C   UNL     1       8.243  10.355  -2.132  1.00  0.00     0.074 A 
ATOM     36  C   UNL     1       8.297  10.903  -3.473  1.00  0.00     0.031 C 
ATOM     37  C   UNL     1       8.816  10.931  -1.047  1.00  0.00     0.037 A 
BRANCH  24  38
ATOM     38  C   UNL     1       7.927   7.858   4.251  1.00  0.00     0.058 A 
ATOM     39  C   UNL     1       8.750   6.891   4.849  1.00  0.00     0.135 A 
ATOM     40  C   UNL     1       7.348   8.827   5.089  1.00  0.00     0.135 A 
ATOM     41  F   UNL     1       9.321   5.932   4.101  1.00  0.00    -0.206 F 
ATOM     42  C   UNL     1       8.971   6.869   6.224  1.00  0.00     0.059 A 
ATOM     43  C   UNL     1       7.578   8.843   6.462  1.00  0.00     0.059 A 
ATOM     44  F   UNL     1       6.554   9.779   4.573  1.00  0.00    -0.206 F 
ATOM     45  C   UNL     1       8.380   7.850   7.022  1.00  0.00     0.060 A 
BRANCH  45  46
ATOM     46  S   UNL     1       8.680   7.809   8.803  1.00  0.00     0.124 S 
ATOM     47  O   UNL     1       7.909   6.635   9.200  1.00  0.00    -0.237 OA
ATOM     48  O   UNL     1      10.130   7.667   8.871  1.00  0.00    -0.237 OA
ATOM     49  O   UNL     1       8.155   9.089   9.267  1.00  0.00    -0.744 OA
ENDBRANCH  45  46
ENDBRANCH  24  38
BRANCH  25  50
ATOM     50  C   UNL     1       6.070   7.996  -5.585  1.00  0.00     0.058 A 
ATOM     51  C   UNL     1       7.083   7.837  -6.541  1.00  0.00     0.135 A 
ATOM     52  C   UNL     1       4.754   8.159  -6.046  1.00  0.00     0.135 A 
ATOM     53  F   UNL     1       8.357   7.680  -6.150  1.00  0.00    -0.206 F 
ATOM     54  C   UNL     1       6.805   7.855  -7.904  1.00  0.00     0.059 A 
ATOM     55  C   UNL     1       4.447   8.148  -7.402  1.00  0.00     0.059 A 
ATOM     56  F   UNL     1       3.745   8.295  -5.171  1.00  0.00    -0.206 F 
ATOM     57  C   UNL     1       5.482   8.007  -8.324  1.00  0.00     0.060 A 
BRANCH  57  58
ATOM     58  S   UNL     1       5.127   7.982 -10.094  1.00  0.00     0.124 S 
ATOM     59  O   UNL     1       5.665   9.270 -10.518  1.00  0.00    -0.237 OA
ATOM     60  O   UNL     1       5.865   6.804 -10.537  1.00  0.00    -0.237 OA
ATOM     61  O   UNL     1       3.674   7.857 -10.143  1.00  0.00    -0.744 OA
ENDBRANCH  57  58
ENDBRANCH  25  50
BRANCH  37  62
ATOM     62  C   UNL     1       9.583  12.206  -1.270  1.00  0.00     0.058 A 
ATOM     63  C   UNL     1       8.938  13.416  -1.570  1.00  0.00     0.135 A 
ATOM     64  C   UNL     1      10.982  12.224  -1.142  1.00  0.00     0.135 A 
ATOM     65  F   UNL     1       7.603  13.453  -1.713  1.00  0.00    -0.206 F 
ATOM     66  C   UNL     1       9.653  14.593  -1.763  1.00  0.00     0.059 A 
ATOM     67  C   UNL     1      11.715  13.396  -1.299  1.00  0.00     0.059 A 
ATOM     68  F   UNL     1      11.649  11.097  -0.849  1.00  0.00    -0.206 F 
ATOM     69  C   UNL     1      11.043  14.573  -1.622  1.00  0.00     0.060 A 
BRANCH  69  70
ATOM     70  S   UNL     1      11.956  16.114  -1.843  1.00  0.00     0.124 S 
ATOM     71  O   UNL     1      11.868  16.303  -3.288  1.00  0.00    -0.237 OA
ATOM     72  O   UNL     1      11.185  17.052  -1.033  1.00  0.00    -0.237 OA
ATOM     73  O   UNL     1      13.286  15.799  -1.331  1.00  0.00    -0.744 OA
ENDBRANCH  69  70
ENDBRANCH  37  62
ENDBRANCH  11  12
ENDBRANCH   4   6
ENDBRANCH   1   2
BRANCH   1  74
ATOM     74  C   UNL     1       5.024  -1.945   1.744  1.00  0.00     0.023 C 
BRANCH  74  75
ATOM     75  C   UNL     1       4.552  -3.393   1.837  1.00  0.00     0.023 C 
BRANCH  75  76
ATOM     76  C   UNL     1       4.957  -4.280   0.663  1.00  0.00     0.116 C 
BRANCH  76  77
ATOM     77  N   UNL     1       6.398  -4.408   0.530  1.00  0.00    -0.351 N 
ATOM     78  C   UNL     1       7.181  -5.535   0.635  1.00  0.00     0.271 C 
ATOM     79  H   UNL     1       6.882  -3.572   0.339  1.00  0.00     0.163 HD
ATOM     80  O   UNL     1       8.407  -5.406   0.654  1.00  0.00    -0.267 OA
BRANCH  78  81
ATOM     81  C   UNL     1       6.524  -6.837   0.715  1.00  0.00     0.147 A 
ATOM     82  C   UNL     1       5.519  -7.311  -0.112  1.00  0.00     0.127 A 
ATOM     83  N   UNL     1       6.841  -7.791   1.667  1.00  0.00    -0.223 NA
ATOM     84  N   UNL     1       5.138  -8.514   0.415  1.00  0.00    -0.306 N 
ATOM     85  C   UNL     1       5.993  -8.778   1.478  1.00  0.00     0.137 A 
ATOM     86  C   UNL     1       4.093  -9.351   0.037  1.00  0.00     0.093 A 
ATOM     87  C   UNL     1       5.797 -10.001   2.177  1.00  0.00     0.048 A 
ATOM     88  C   UNL     1       3.891 -10.492   0.720  1.00  0.00     0.018 A 
ATOM     89  C   UNL     1       4.789 -10.821   1.819  1.00  0.00     0.005 A 
ENDBRANCH  78  81
ENDBRANCH  76  77
ENDBRANCH  75  76
ENDBRANCH  74  75
ENDBRANCH   1  74
TORSDOF 14
