REMARK SMILES Cc1nnc(SCC(=O)Nc2cccc(C(=O)NCCCCNC(=O)c3ccc(-c4c5nc(c(-c6c(F)cc(S(=O)(=O)[O-])cc6F)c6ccc([nH]6)c(-c6c(F)cc(S(=O)(=O)[O-])cc6F)c6nc(c(-c7c(F)cc(S(=O)(=O)[O-])cc7F)c7ccc4[nH]7)C=C6)C=C5)cc3)c2)n1-c1ccccc1
REMARK SMILES IDX 19 1 18 2 16 3 17 4 15 6 11 7 12 8 92 9 13 10 14 11 10 12
REMARK SMILES IDX 8 13 9 14 7 16 6 17 5 18 1 19 2 20 3 21 93 22 4 23 94 24
REMARK SMILES IDX 95 25 99 26 96 27 98 28 97 29 20 30 21 31 22 32 23 33 24 34
REMARK SMILES IDX 25 36 26 37 27 38 91 39 28 40 90 41 29 42 30 43 31 44 84 45
REMARK SMILES IDX 32 46 89 47 83 48 85 49 33 50 88 51 82 52 81 53 34 55 68 56
REMARK SMILES IDX 47 57 67 58 48 59 51 60 66 61 86 62 49 63 50 64 65 66 87 67
REMARK SMILES IDX 52 68 35 69 36 70 45 71 37 72 38 73 44 74 46 75 39 76 40 77
REMARK SMILES IDX 41 78 42 79 43 80 69 81 70 82 79 83 71 84 72 85 78 86 80 87
REMARK SMILES IDX 73 88 74 89 75 90 76 91 77 92 53 93 54 94 63 95 55 96 56 97
REMARK SMILES IDX 62 98 64 99 57 100 58 101 59 102 60 103 61 104
REMARK H PARENT 18 5 10 15 23 35 85 54 51 65
REMARK Flexibility Score: inf
ROOT
ATOM      1  C   UNL     1      -1.506  -1.700  -5.435  1.00  0.00     0.116 C 
ENDROOT
BRANCH   1   2
ATOM      2  N   UNL     1      -1.989  -1.824  -6.804  1.00  0.00    -0.352 N 
ATOM      3  C   UNL     1      -2.924  -1.106  -7.527  1.00  0.00     0.251 C 
ATOM      4  O   UNL     1      -3.136  -1.455  -8.690  1.00  0.00    -0.269 OA
ATOM      5  H   UNL     1      -1.570  -2.558  -7.309  1.00  0.00     0.163 HD
BRANCH   3   6
ATOM      6  C   UNL     1      -3.742   0.024  -6.980  1.00  0.00     0.041 A 
ATOM      7  C   UNL     1      -4.211   1.766  -5.358  1.00  0.00     0.041 A 
ATOM      8  C   UNL     1      -5.492   1.929  -5.888  1.00  0.00     0.026 A 
ATOM      9  C   UNL     1      -3.334   0.847  -5.931  1.00  0.00     0.040 A 
ATOM     10  C   UNL     1      -5.861   1.232  -7.032  1.00  0.00     0.003 A 
ATOM     11  C   UNL     1      -4.992   0.279  -7.569  1.00  0.00     0.014 A 
BRANCH   7  12
ATOM     12  N   UNL     1      -3.917   2.493  -4.206  1.00  0.00    -0.325 N 
ATOM     13  C   UNL     1      -2.764   2.992  -3.692  1.00  0.00     0.234 C 
ATOM     14  O   UNL     1      -2.903   3.566  -2.605  1.00  0.00    -0.274 OA
ATOM     15  H   UNL     1      -4.707   2.683  -3.651  1.00  0.00     0.169 HD
BRANCH  13  16
ATOM     16  C   UNL     1      -1.478   3.102  -4.481  1.00  0.00     0.178 C 
BRANCH  16  17
ATOM     17  S   UNL     1      -0.236   1.809  -4.420  1.00  0.00    -0.076 SA
BRANCH  17  18
ATOM     18  C   UNL     1      -0.360   0.904  -2.952  1.00  0.00     0.196 A 
ATOM     19  C   UNL     1       0.989  -0.027   0.286  1.00  0.00     0.090 C 
ATOM     20  C   UNL     1       0.338   0.094  -1.037  1.00  0.00     0.135 A 
ATOM     21  N   UNL     1      -0.231  -0.885  -1.715  1.00  0.00    -0.134 NA
ATOM     22  N   UNL     1       0.233   1.263  -1.761  1.00  0.00    -0.274 N 
ATOM     23  N   UNL     1      -0.658  -0.375  -2.915  1.00  0.00    -0.123 NA
BRANCH  22  24
ATOM     24  C   UNL     1       0.481   2.573  -1.335  1.00  0.00     0.049 A 
ATOM     25  C   UNL     1      -0.627   3.348  -0.993  1.00  0.00     0.027 A 
ATOM     26  C   UNL     1       1.724   3.149  -1.576  1.00  0.00     0.027 A 
ATOM     27  C   UNL     1      -0.526   4.734  -1.016  1.00  0.00     0.002 A 
ATOM     28  C   UNL     1       1.826   4.540  -1.555  1.00  0.00     0.002 A 
ATOM     29  C   UNL     1       0.696   5.330  -1.315  1.00  0.00     0.000 A 
ENDBRANCH  22  24
ENDBRANCH  17  18
ENDBRANCH  16  17
ENDBRANCH  13  16
ENDBRANCH   7  12
ENDBRANCH   3   6
ENDBRANCH   1   2
BRANCH   1  30
ATOM     30  C   UNL     1      -1.370  -3.004  -4.637  1.00  0.00     0.023 C 
BRANCH  30  31
ATOM     31  C   UNL     1      -0.085  -3.839  -4.735  1.00  0.00     0.023 C 
BRANCH  31  32
ATOM     32  C   UNL     1       1.249  -3.104  -4.702  1.00  0.00     0.116 C 
BRANCH  32  33
ATOM     33  N   UNL     1       1.697  -2.623  -3.395  1.00  0.00    -0.352 N 
ATOM     34  C   UNL     1       2.985  -2.210  -3.051  1.00  0.00     0.251 C 
ATOM     35  H   UNL     1       1.018  -2.586  -2.683  1.00  0.00     0.163 HD
ATOM     36  O   UNL     1       3.336  -2.049  -1.898  1.00  0.00    -0.269 OA
BRANCH  34  37
ATOM     37  C   UNL     1       3.919  -1.905  -4.162  1.00  0.00     0.039 A 
ATOM     38  C   UNL     1       5.241  -2.358  -4.191  1.00  0.00     0.014 A 
ATOM     39  C   UNL     1       3.400  -1.167  -5.223  1.00  0.00     0.014 A 
ATOM     40  C   UNL     1       5.996  -2.153  -5.350  1.00  0.00     0.010 A 
ATOM     41  C   UNL     1       4.083  -1.104  -6.410  1.00  0.00     0.010 A 
ATOM     42  C   UNL     1       5.397  -1.552  -6.470  1.00  0.00    -0.014 A 
BRANCH  42  43
ATOM     43  C   UNL     1       6.066  -1.523  -7.770  1.00  0.00     0.031 A 
ATOM     44  C   UNL     1       6.464  -2.869  -8.279  1.00  0.00     0.074 A 
ATOM     45  C   UNL     1       6.067  -0.427  -8.563  1.00  0.00     0.049 A 
ATOM     46  N   UNL     1       7.659  -3.330  -8.455  1.00  0.00    -0.248 NA
ATOM     47  C   UNL     1       5.412  -3.887  -8.458  1.00  0.00     0.031 C 
ATOM     48  C   UNL     1       5.410   0.865  -8.330  1.00  0.00     0.029 A 
ATOM     49  N   UNL     1       6.561  -0.273  -9.822  1.00  0.00    -0.354 N 
ATOM     50  C   UNL     1       7.502  -4.603  -9.004  1.00  0.00     0.074 A 
ATOM     51  C   UNL     1       6.130  -4.967  -8.773  1.00  0.00     0.031 C 
ATOM     52  C   UNL     1       5.332   1.554  -9.490  1.00  0.00     0.029 A 
ATOM     53  C   UNL     1       6.076   0.838 -10.508  1.00  0.00     0.049 A 
ATOM     54  H   UNL     1       7.211  -0.899 -10.216  1.00  0.00     0.167 HD
ATOM     55  C   UNL     1       8.447  -5.139  -9.829  1.00  0.00     0.037 A 
ATOM     56  C   UNL     1       6.246   1.119 -11.828  1.00  0.00     0.037 A 
ATOM     57  C   UNL     1       9.684  -4.402  -9.737  1.00  0.00     0.049 A 
ATOM     58  C   UNL     1       7.410   0.312 -12.289  1.00  0.00     0.074 A 
ATOM     59  C   UNL     1      10.546  -4.084  -8.704  1.00  0.00     0.029 A 
ATOM     60  N   UNL     1       9.975  -3.516 -10.749  1.00  0.00    -0.354 N 
ATOM     61  N   UNL     1       8.631   0.496 -11.862  1.00  0.00    -0.248 NA
ATOM     62  C   UNL     1       7.132  -1.012 -12.827  1.00  0.00     0.031 C 
ATOM     63  C   UNL     1      10.922  -2.731  -8.948  1.00  0.00     0.029 A 
ATOM     64  C   UNL     1      10.353  -2.337 -10.160  1.00  0.00     0.049 A 
ATOM     65  H   UNL     1       9.921  -3.696 -11.715  1.00  0.00     0.167 HD
ATOM     66  C   UNL     1       9.137  -0.782 -11.670  1.00  0.00     0.074 A 
ATOM     67  C   UNL     1       8.190  -1.670 -12.344  1.00  0.00     0.031 C 
ATOM     68  C   UNL     1      10.104  -1.033 -10.737  1.00  0.00     0.037 A 
BRANCH  55  69
ATOM     69  C   UNL     1       8.161  -6.073 -10.989  1.00  0.00     0.058 A 
ATOM     70  C   UNL     1       9.244  -6.639 -11.697  1.00  0.00     0.135 A 
ATOM     71  C   UNL     1       6.900  -6.212 -11.608  1.00  0.00     0.135 A 
ATOM     72  F   UNL     1      10.493  -6.573 -11.207  1.00  0.00    -0.206 F 
ATOM     73  C   UNL     1       9.097  -7.217 -12.959  1.00  0.00     0.059 A 
ATOM     74  C   UNL     1       6.723  -6.832 -12.841  1.00  0.00     0.059 A 
ATOM     75  F   UNL     1       5.786  -5.671 -11.103  1.00  0.00    -0.206 F 
ATOM     76  C   UNL     1       7.831  -7.293 -13.530  1.00  0.00     0.060 A 
BRANCH  76  77
ATOM     77  S   UNL     1       7.649  -7.945 -15.198  1.00  0.00     0.124 S 
ATOM     78  O   UNL     1       8.300  -6.907 -15.989  1.00  0.00    -0.237 OA
ATOM     79  O   UNL     1       8.358  -9.217 -15.102  1.00  0.00    -0.237 OA
ATOM     80  O   UNL     1       6.202  -8.051 -15.360  1.00  0.00    -0.744 OA
ENDBRANCH  76  77
ENDBRANCH  55  69
BRANCH  56  81
ATOM     81  C   UNL     1       5.268   1.733 -12.773  1.00  0.00     0.058 A 
ATOM     82  C   UNL     1       5.652   2.160 -14.058  1.00  0.00     0.135 A 
ATOM     83  C   UNL     1       3.878   1.656 -12.543  1.00  0.00     0.135 A 
ATOM     84  F   UNL     1       6.952   2.247 -14.377  1.00  0.00    -0.206 F 
ATOM     85  C   UNL     1       4.719   2.445 -15.066  1.00  0.00     0.059 A 
ATOM     86  C   UNL     1       2.931   1.942 -13.527  1.00  0.00     0.059 A 
ATOM     87  F   UNL     1       3.395   1.210 -11.374  1.00  0.00    -0.206 F 
ATOM     88  C   UNL     1       3.358   2.311 -14.796  1.00  0.00     0.060 A 
BRANCH  88  89
ATOM     89  S   UNL     1       2.154   2.504 -16.136  1.00  0.00     0.124 S 
ATOM     90  O   UNL     1       2.229   3.936 -16.407  1.00  0.00    -0.237 OA
ATOM     91  O   UNL     1       2.698   1.630 -17.169  1.00  0.00    -0.237 OA
ATOM     92  O   UNL     1       0.903   2.049 -15.535  1.00  0.00    -0.744 OA
ENDBRANCH  88  89
ENDBRANCH  56  81
BRANCH  68  93
ATOM     93  C   UNL     1      10.827   0.129 -10.103  1.00  0.00     0.058 A 
ATOM     94  C   UNL     1      10.222   1.120  -9.307  1.00  0.00     0.135 A 
ATOM     95  C   UNL     1      12.229   0.137 -10.169  1.00  0.00     0.135 A 
ATOM     96  F   UNL     1       8.898   1.127  -9.100  1.00  0.00    -0.206 F 
ATOM     97  C   UNL     1      10.973   2.094  -8.645  1.00  0.00     0.059 A 
ATOM     98  C   UNL     1      12.999   1.076  -9.490  1.00  0.00     0.059 A 
ATOM     99  F   UNL     1      12.873  -0.818 -10.859  1.00  0.00    -0.206 F 
ATOM    100  C   UNL     1      12.364   2.063  -8.742  1.00  0.00     0.060 A 
BRANCH 100 101
ATOM    101  S   UNL     1      13.343   3.284  -7.841  1.00  0.00     0.124 S 
ATOM    102  O   UNL     1      13.050   4.512  -8.574  1.00  0.00    -0.237 OA
ATOM    103  O   UNL     1      12.790   3.204  -6.492  1.00  0.00    -0.237 OA
ATOM    104  O   UNL     1      14.712   2.791  -7.974  1.00  0.00    -0.744 OA
ENDBRANCH 100 101
ENDBRANCH  68  93
ENDBRANCH  42  43
ENDBRANCH  34  37
ENDBRANCH  32  33
ENDBRANCH  31  32
ENDBRANCH  30  31
ENDBRANCH   1  30
TORSDOF 19
