REMARK SMILES CC(C)(C(=O)N1C[C@@H]2c3ccccc3OC[C@]2(C(=O)NCCCCNC(=O)c2ccc(-c3c4nc(c(-c5c(F)cc(S(=O)(=O)[O-])cc5F)c5ccc([nH]5)c(-c5c(F)cc(S(=O)(=O)[O-])cc5F)c5nc(c(-c6c(F)cc(S(=O)(=O)[O-])cc6F)c6ccc3[nH]6)C=C5)C=C4)cc2)C1)[NH+]1CCOCC1
REMARK SMILES IDX 22 1 21 2 20 3 18 4 19 5 17 7 6 8 7 9 94 10 8 11 9 12 16 13
REMARK SMILES IDX 10 14 14 15 15 16 11 17 13 18 12 19 4 20 5 21 2 22 1 23 3 24
REMARK SMILES IDX 95 25 96 26 100 27 97 29 99 30 98 31 23 32 24 33 25 34 26 35
REMARK SMILES IDX 27 37 28 38 29 39 93 40 30 41 92 42 31 43 32 44 33 45 86 46
REMARK SMILES IDX 34 47 91 48 85 49 87 50 35 51 90 52 84 53 83 54 36 56 70 57
REMARK SMILES IDX 49 58 69 59 50 60 53 61 68 62 88 63 51 64 52 65 67 67 89 68
REMARK SMILES IDX 54 69 37 70 38 71 47 72 39 73 40 74 46 75 48 76 41 77 42 78
REMARK SMILES IDX 43 79 44 80 45 81 71 82 72 83 81 84 73 85 74 86 80 87 82 88
REMARK SMILES IDX 75 89 76 90 77 91 78 92 79 93 55 94 56 95 65 96 57 97 58 98
REMARK SMILES IDX 64 99 66 100 59 101 60 102 61 103 62 104 63 105
REMARK H PARENT 20 6 95 28 25 36 87 55 53 66
REMARK Flexibility Score: inf
ROOT
ATOM      1  C   UNL     1      -1.747   2.589  -2.076  1.00  0.00     0.023 C 
ENDROOT
BRANCH   1   2
ATOM      2  C   UNL     1      -1.554   2.045  -0.671  1.00  0.00     0.116 C 
BRANCH   2   3
ATOM      3  N   UNL     1      -1.707   2.991   0.421  1.00  0.00    -0.355 N 
ATOM      4  C   UNL     1      -1.981   2.627   1.726  1.00  0.00     0.232 C 
ATOM      5  O   UNL     1      -1.540   3.317   2.648  1.00  0.00    -0.274 OA
ATOM      6  H   UNL     1      -1.609   3.949   0.219  1.00  0.00     0.163 HD
BRANCH   4   7
ATOM      7  C   UNL     1      -2.886   1.373   1.909  1.00  0.00     0.109 C 
ATOM      8  N   UNL     1      -1.581  -0.720   1.948  1.00  0.00    -0.335 N 
ATOM      9  C   UNL     1      -2.931  -1.059   2.308  1.00  0.00     0.129 C 
ATOM     10  C   UNL     1      -1.431   0.698   2.252  1.00  0.00     0.141 C 
ATOM     11  C   UNL     1      -3.503   0.248   2.873  1.00  0.00     0.063 C 
ATOM     12  C   UNL     1      -5.008   0.113   2.989  1.00  0.00     0.000 A 
ATOM     13  C   UNL     1      -3.967   2.467   2.363  1.00  0.00     0.249 C 
ATOM     14  C   UNL     1      -5.620  -0.928   3.703  1.00  0.00     0.008 A 
ATOM     15  C   UNL     1      -5.816   1.090   2.425  1.00  0.00     0.122 A 
ATOM     16  O   UNL     1      -5.258   2.155   1.792  1.00  0.00    -0.492 OA
ATOM     17  C   UNL     1      -7.013  -0.993   3.806  1.00  0.00     0.001 A 
ATOM     18  C   UNL     1      -7.205   1.024   2.501  1.00  0.00     0.047 A 
ATOM     19  C   UNL     1      -7.806  -0.020   3.201  1.00  0.00     0.004 A 
BRANCH   8  20
ATOM     20  C   UNL     1      -1.034  -1.269   0.782  1.00  0.00     0.283 C 
ATOM     21  O   UNL     1      -1.801  -1.504  -0.155  1.00  0.00    -0.268 OA
BRANCH  20  22
ATOM     22  C   UNL     1       0.545  -1.503   0.711  1.00  0.00     0.171 C 
ATOM     23  C   UNL     1       1.219  -0.287   0.046  1.00  0.00     0.090 C 
ATOM     24  C   UNL     1       1.096  -1.613   2.151  1.00  0.00     0.090 C 
BRANCH  22  25
ATOM     25  N   UNL     1       0.979  -2.625  -0.196  1.00  0.00    -0.319 N 
ATOM     26  C   UNL     1       0.021  -3.265  -1.113  1.00  0.00     0.291 C 
ATOM     27  C   UNL     1       1.878  -3.670   0.314  1.00  0.00     0.291 C 
ATOM     28  H   UNL     1       1.525  -1.957  -0.740  1.00  0.00     0.349 HD
ATOM     29  C   UNL     1      -0.749  -4.405  -0.426  1.00  0.00     0.221 C 
ATOM     30  C   UNL     1       1.126  -4.848   0.952  1.00  0.00     0.221 C 
ATOM     31  O   UNL     1       0.159  -5.414   0.055  1.00  0.00    -0.370 OA
ENDBRANCH  22  25
ENDBRANCH  20  22
ENDBRANCH   8  20
ENDBRANCH   4   7
ENDBRANCH   2   3
ENDBRANCH   1   2
BRANCH   1  32
ATOM     32  C   UNL     1      -0.997   3.870  -2.426  1.00  0.00     0.023 C 
BRANCH  32  33
ATOM     33  C   UNL     1       0.438   3.996  -1.927  1.00  0.00     0.116 C 
BRANCH  33  34
ATOM     34  N   UNL     1       1.384   3.071  -2.532  1.00  0.00    -0.352 N 
ATOM     35  C   UNL     1       2.469   3.329  -3.343  1.00  0.00     0.251 C 
ATOM     36  H   UNL     1       1.226   2.120  -2.332  1.00  0.00     0.163 HD
ATOM     37  O   UNL     1       3.153   2.404  -3.771  1.00  0.00    -0.269 OA
BRANCH  35  38
ATOM     38  C   UNL     1       2.762   4.719  -3.752  1.00  0.00     0.039 A 
ATOM     39  C   UNL     1       2.840   5.742  -2.807  1.00  0.00     0.014 A 
ATOM     40  C   UNL     1       2.866   5.011  -5.114  1.00  0.00     0.014 A 
ATOM     41  C   UNL     1       2.782   7.066  -3.230  1.00  0.00     0.010 A 
ATOM     42  C   UNL     1       2.914   6.344  -5.534  1.00  0.00     0.010 A 
ATOM     43  C   UNL     1       2.796   7.383  -4.599  1.00  0.00    -0.014 A 
BRANCH  43  44
ATOM     44  C   UNL     1       2.647   8.799  -5.031  1.00  0.00     0.031 A 
ATOM     45  C   UNL     1       1.453   9.234  -5.845  1.00  0.00     0.074 A 
ATOM     46  C   UNL     1       3.555   9.711  -4.633  1.00  0.00     0.049 A 
ATOM     47  N   UNL     1       1.173  10.417  -6.333  1.00  0.00    -0.248 NA
ATOM     48  C   UNL     1       0.441   8.210  -6.154  1.00  0.00     0.031 C 
ATOM     49  C   UNL     1       4.737   9.423  -3.818  1.00  0.00     0.029 A 
ATOM     50  N   UNL     1       3.613  11.067  -4.834  1.00  0.00    -0.354 N 
ATOM     51  C   UNL     1      -0.024  10.274  -7.026  1.00  0.00     0.074 A 
ATOM     52  C   UNL     1      -0.412   8.885  -6.913  1.00  0.00     0.031 C 
ATOM     53  C   UNL     1       5.369  10.572  -3.538  1.00  0.00     0.029 A 
ATOM     54  C   UNL     1       4.681  11.668  -4.213  1.00  0.00     0.049 A 
ATOM     55  H   UNL     1       2.953  11.561  -5.372  1.00  0.00     0.167 HD
ATOM     56  C   UNL     1      -0.738  11.216  -7.689  1.00  0.00     0.037 A 
ATOM     57  C   UNL     1       5.077  12.955  -4.199  1.00  0.00     0.037 A 
ATOM     58  C   UNL     1      -0.364  12.605  -7.775  1.00  0.00     0.049 A 
ATOM     59  C   UNL     1       4.288  13.973  -4.966  1.00  0.00     0.074 A 
ATOM     60  C   UNL     1      -1.019  13.635  -8.429  1.00  0.00     0.029 A 
ATOM     61  N   UNL     1       0.757  13.162  -7.178  1.00  0.00    -0.354 N 
ATOM     62  N   UNL     1       3.187  13.807  -5.659  1.00  0.00    -0.248 NA
ATOM     63  C   UNL     1       4.803  15.348  -4.967  1.00  0.00     0.031 C 
ATOM     64  C   UNL     1      -0.280  14.810  -8.249  1.00  0.00     0.029 A 
ATOM     65  C   UNL     1       0.816  14.519  -7.454  1.00  0.00     0.049 A 
ATOM     66  H   UNL     1       1.413  12.667  -6.637  1.00  0.00     0.167 HD
ATOM     67  C   UNL     1       2.874  15.058  -6.177  1.00  0.00     0.074 A 
ATOM     68  C   UNL     1       3.891  15.974  -5.700  1.00  0.00     0.031 C 
ATOM     69  C   UNL     1       1.841  15.414  -6.979  1.00  0.00     0.037 A 
BRANCH  56  70
ATOM     70  C   UNL     1      -1.995  10.778  -8.391  1.00  0.00     0.058 A 
ATOM     71  C   UNL     1      -3.171  10.485  -7.684  1.00  0.00     0.135 A 
ATOM     72  C   UNL     1      -2.038  10.701  -9.793  1.00  0.00     0.135 A 
ATOM     73  F   UNL     1      -3.180  10.527  -6.342  1.00  0.00    -0.206 F 
ATOM     74  C   UNL     1      -4.341  10.114  -8.340  1.00  0.00     0.059 A 
ATOM     75  C   UNL     1      -3.203  10.352 -10.471  1.00  0.00     0.059 A 
ATOM     76  F   UNL     1      -0.941  10.970 -10.518  1.00  0.00    -0.206 F 
ATOM     77  C   UNL     1      -4.347  10.050  -9.734  1.00  0.00     0.060 A 
BRANCH  77  78
ATOM     78  S   UNL     1      -5.876   9.576 -10.571  1.00  0.00     0.124 S 
ATOM     79  O   UNL     1      -5.935   8.147 -10.281  1.00  0.00    -0.237 OA
ATOM     80  O   UNL     1      -6.872  10.401  -9.894  1.00  0.00    -0.237 OA
ATOM     81  O   UNL     1      -5.623   9.923 -11.966  1.00  0.00    -0.744 OA
ENDBRANCH  77  78
ENDBRANCH  56  70
BRANCH  57  82
ATOM     82  C   UNL     1       6.288  13.336  -3.429  1.00  0.00     0.058 A 
ATOM     83  C   UNL     1       6.181  14.054  -2.230  1.00  0.00     0.135 A 
ATOM     84  C   UNL     1       7.568  12.937  -3.845  1.00  0.00     0.135 A 
ATOM     85  F   UNL     1       4.979  14.462  -1.798  1.00  0.00    -0.206 F 
ATOM     86  C   UNL     1       7.301  14.357  -1.464  1.00  0.00     0.059 A 
ATOM     87  C   UNL     1       8.700  13.208  -3.085  1.00  0.00     0.059 A 
ATOM     88  F   UNL     1       7.718  12.236  -4.980  1.00  0.00    -0.206 F 
ATOM     89  C   UNL     1       8.556  13.921  -1.895  1.00  0.00     0.060 A 
BRANCH  89  90
ATOM     90  S   UNL     1       9.992  14.240  -0.848  1.00  0.00     0.124 S 
ATOM     91  O   UNL     1      10.220  15.660  -1.086  1.00  0.00    -0.237 OA
ATOM     92  O   UNL     1       9.491  13.886   0.476  1.00  0.00    -0.237 OA
ATOM     93  O   UNL     1      11.005  13.337  -1.387  1.00  0.00    -0.744 OA
ENDBRANCH  89  90
ENDBRANCH  57  82
BRANCH  69  94
ATOM     94  C   UNL     1       1.758  16.857  -7.385  1.00  0.00     0.058 A 
ATOM     95  C   UNL     1       2.610  17.391  -8.363  1.00  0.00     0.135 A 
ATOM     96  C   UNL     1       0.796  17.704  -6.814  1.00  0.00     0.135 A 
ATOM     97  F   UNL     1       3.551  16.622  -8.932  1.00  0.00    -0.206 F 
ATOM     98  C   UNL     1       2.527  18.725  -8.746  1.00  0.00     0.059 A 
ATOM     99  C   UNL     1       0.681  19.036  -7.196  1.00  0.00     0.059 A 
ATOM    100  F   UNL     1      -0.047  17.237  -5.879  1.00  0.00    -0.206 F 
ATOM    101  C   UNL     1       1.560  19.541  -8.155  1.00  0.00     0.060 A 
BRANCH 101 102
ATOM    102  S   UNL     1       1.449  21.267  -8.673  1.00  0.00     0.124 S 
ATOM    103  O   UNL     1       2.604  21.850  -7.998  1.00  0.00    -0.237 OA
ATOM    104  O   UNL     1       1.548  21.166 -10.125  1.00  0.00    -0.237 OA
ATOM    105  O   UNL     1       0.146  21.689  -8.167  1.00  0.00    -0.744 OA
ENDBRANCH 101 102
ENDBRANCH  69  94
ENDBRANCH  43  44
ENDBRANCH  35  38
ENDBRANCH  33  34
ENDBRANCH  32  33
ENDBRANCH   1  32
TORSDOF 17
