REMARK SMILES CCC[N@H+](CC(=O)NCCCCNC(=O)c1ccc(-c2c3nc(c(-c4c(F)cc(S(=O)(=O)[O-])cc4F)c4ccc([nH]4)c(-c4c(F)cc(S(=O)(=O)[O-])cc4F)c4nc(c(-c5c(F)cc(S(=O)(=O)[O-])cc5F)c5ccc2[nH]5)C=C4)C=C3)cc1)[C@H]1CCOC2(CCCCC2)C1
REMARK SMILES IDX 10 1 9 2 8 3 6 4 7 5 5 7 4 8 3 10 2 11 1 12 82 13 83 14
REMARK SMILES IDX 92 15 84 16 86 17 85 18 87 19 91 20 88 21 90 22 89 23 11 24
REMARK SMILES IDX 12 25 13 26 14 27 15 29 16 30 17 31 81 32 18 33 80 34 19 35
REMARK SMILES IDX 20 36 21 37 74 38 22 39 79 40 73 41 75 42 23 43 78 44 72 45
REMARK SMILES IDX 71 46 24 48 58 49 37 50 57 51 38 52 41 53 56 54 76 55 39 56
REMARK SMILES IDX 40 57 55 59 77 60 42 61 25 62 26 63 35 64 27 65 28 66 34 67
REMARK SMILES IDX 36 68 29 69 30 70 31 71 32 72 33 73 59 74 60 75 69 76 61 77
REMARK SMILES IDX 62 78 68 79 70 80 63 81 64 82 65 83 66 84 67 85 43 86 44 87
REMARK SMILES IDX 53 88 45 89 46 90 52 91 54 92 47 93 48 94 49 95 50 96 51 97
REMARK H PARENT 8 6 4 9 13 28 75 47 41 58
REMARK Flexibility Score: inf
ROOT
ATOM      1  C   UNL     1       1.903  -3.035   0.775  1.00  0.00     0.023 C 
ENDROOT
BRANCH   1   2
ATOM      2  C   UNL     1       1.647  -3.473  -0.669  1.00  0.00     0.116 C 
BRANCH   2   3
ATOM      3  N   UNL     1       0.232  -3.457  -0.982  1.00  0.00    -0.351 N 
ATOM      4  C   UNL     1      -0.475  -2.551  -1.725  1.00  0.00     0.275 C 
ATOM      5  O   UNL     1      -1.703  -2.650  -1.750  1.00  0.00    -0.269 OA
ATOM      6  H   UNL     1      -0.294  -4.201  -0.607  1.00  0.00     0.163 HD
BRANCH   4   7
ATOM      7  C   UNL     1       0.269  -1.474  -2.530  1.00  0.00     0.363 C 
BRANCH   7   8
ATOM      8  N   UNL     1       0.313  -0.134  -1.877  1.00  0.00    -0.325 N 
ATOM      9  H   UNL     1      -0.653   0.172  -1.761  1.00  0.00     0.348 HD
BRANCH   8  10
ATOM     10  C   UNL     1       0.880  -0.215  -0.527  1.00  0.00     0.262 C 
BRANCH  10  11
ATOM     11  C   UNL     1       0.884   1.013   0.393  1.00  0.00     0.058 C 
ATOM     12  C   UNL     1      -0.401   1.143   1.195  1.00  0.00     0.010 C 
ENDBRANCH  10  11
ENDBRANCH   8  10
BRANCH   8  13
ATOM     13  C   UNL     1       0.910   0.927  -2.728  1.00  0.00     0.189 C 
ATOM     14  C   UNL     1       2.423   1.179  -2.579  1.00  0.00     0.093 C 
ATOM     15  C   UNL     1       0.642   0.736  -4.237  1.00  0.00     0.100 C 
ATOM     16  C   UNL     1       2.815   2.394  -3.411  1.00  0.00     0.167 C 
ATOM     17  C   UNL     1       1.144   1.908  -5.095  1.00  0.00     0.074 C 
ATOM     18  O   UNL     1       2.513   2.212  -4.788  1.00  0.00    -0.375 OA
ATOM     19  C   UNL     1       0.225   3.136  -4.921  1.00  0.00     0.036 C 
ATOM     20  C   UNL     1       1.140   1.459  -6.575  1.00  0.00     0.036 C 
ATOM     21  C   UNL     1       0.551   4.264  -5.895  1.00  0.00     0.003 C 
ATOM     22  C   UNL     1       1.475   2.598  -7.536  1.00  0.00     0.003 C 
ATOM     23  C   UNL     1       0.532   3.777  -7.339  1.00  0.00     0.000 C 
ENDBRANCH   8  13
ENDBRANCH   7   8
ENDBRANCH   4   7
ENDBRANCH   2   3
ENDBRANCH   1   2
BRANCH   1  24
ATOM     24  C   UNL     1       1.688  -4.125   1.808  1.00  0.00     0.023 C 
BRANCH  24  25
ATOM     25  C   UNL     1       2.683  -5.260   1.698  1.00  0.00     0.116 C 
BRANCH  25  26
ATOM     26  N   UNL     1       4.070  -4.814   1.796  1.00  0.00    -0.352 N 
ATOM     27  C   UNL     1       5.084  -5.371   2.539  1.00  0.00     0.251 C 
ATOM     28  H   UNL     1       4.307  -4.020   1.265  1.00  0.00     0.163 HD
ATOM     29  O   UNL     1       6.171  -4.824   2.637  1.00  0.00    -0.269 OA
BRANCH  27  30
ATOM     30  C   UNL     1       4.793  -6.633   3.243  1.00  0.00     0.039 A 
ATOM     31  C   UNL     1       4.994  -6.708   4.620  1.00  0.00     0.014 A 
ATOM     32  C   UNL     1       4.175  -7.672   2.543  1.00  0.00     0.014 A 
ATOM     33  C   UNL     1       4.503  -7.812   5.314  1.00  0.00     0.010 A 
ATOM     34  C   UNL     1       3.586  -8.705   3.251  1.00  0.00     0.010 A 
ATOM     35  C   UNL     1       3.758  -8.795   4.640  1.00  0.00    -0.014 A 
BRANCH  35  36
ATOM     36  C   UNL     1       3.182  -9.959   5.352  1.00  0.00     0.031 A 
ATOM     37  C   UNL     1       3.616 -11.344   4.956  1.00  0.00     0.074 A 
ATOM     38  C   UNL     1       2.224  -9.777   6.282  1.00  0.00     0.049 A 
ATOM     39  N   UNL     1       3.163 -12.500   5.362  1.00  0.00    -0.248 NA
ATOM     40  C   UNL     1       4.668 -11.441   3.928  1.00  0.00     0.031 C 
ATOM     41  C   UNL     1       1.672  -8.484   6.694  1.00  0.00     0.029 A 
ATOM     42  N   UNL     1       1.536 -10.687   7.042  1.00  0.00    -0.354 N 
ATOM     43  C   UNL     1       3.852 -13.453   4.621  1.00  0.00     0.074 A 
ATOM     44  C   UNL     1       4.698 -12.742   3.691  1.00  0.00     0.031 C 
ATOM     45  C   UNL     1       0.753  -8.683   7.654  1.00  0.00     0.029 A 
ATOM     46  C   UNL     1       0.627 -10.116   7.902  1.00  0.00     0.049 A 
ATOM     47  H   UNL     1       1.678 -11.659   6.979  1.00  0.00     0.167 HD
ATOM     48  C   UNL     1       3.815 -14.800   4.734  1.00  0.00     0.037 A 
ATOM     49  C   UNL     1      -0.209 -10.688   8.789  1.00  0.00     0.037 A 
ATOM     50  C   UNL     1       3.013 -15.495   5.703  1.00  0.00     0.049 A 
ATOM     51  C   UNL     1      -0.197 -12.185   8.934  1.00  0.00     0.074 A 
ATOM     52  C   UNL     1       2.943 -16.853   5.949  1.00  0.00     0.029 A 
ATOM     53  N   UNL     1       2.150 -14.877   6.598  1.00  0.00    -0.354 N 
ATOM     54  N   UNL     1       0.502 -13.071   8.265  1.00  0.00    -0.248 NA
ATOM     55  C   UNL     1      -1.077 -12.761   9.960  1.00  0.00     0.031 C 
ATOM     56  C   UNL     1       2.019 -17.060   6.979  1.00  0.00     0.029 A 
ATOM     57  C   UNL     1       1.541 -15.827   7.397  1.00  0.00     0.049 A 
ATOM     58  H   UNL     1       1.995 -13.907   6.654  1.00  0.00     0.167 HD
ATOM     59  C   UNL     1       0.163 -14.308   8.802  1.00  0.00     0.074 A 
ATOM     60  C   UNL     1      -0.793 -14.053   9.861  1.00  0.00     0.031 C 
ATOM     61  C   UNL     1       0.601 -15.543   8.452  1.00  0.00     0.037 A 
BRANCH  48  62
ATOM     62  C   UNL     1       4.687 -15.595   3.804  1.00  0.00     0.058 A 
ATOM     63  C   UNL     1       6.087 -15.584   3.923  1.00  0.00     0.135 A 
ATOM     64  C   UNL     1       4.123 -16.374   2.781  1.00  0.00     0.135 A 
ATOM     65  F   UNL     1       6.680 -14.837   4.868  1.00  0.00    -0.206 F 
ATOM     66  C   UNL     1       6.898 -16.287   3.039  1.00  0.00     0.059 A 
ATOM     67  C   UNL     1       4.915 -17.109   1.904  1.00  0.00     0.059 A 
ATOM     68  F   UNL     1       2.792 -16.416   2.619  1.00  0.00    -0.206 F 
ATOM     69  C   UNL     1       6.302 -17.045   2.030  1.00  0.00     0.060 A 
BRANCH  69  70
ATOM     70  S   UNL     1       7.369 -17.949   0.889  1.00  0.00     0.124 S 
ATOM     71  O   UNL     1       7.862 -16.871   0.038  1.00  0.00    -0.237 OA
ATOM     72  O   UNL     1       8.351 -18.548   1.786  1.00  0.00    -0.237 OA
ATOM     73  O   UNL     1       6.456 -18.889   0.246  1.00  0.00    -0.744 OA
ENDBRANCH  69  70
ENDBRANCH  48  62
BRANCH  49  74
ATOM     74  C   UNL     1      -1.090  -9.839   9.635  1.00  0.00     0.058 A 
ATOM     75  C   UNL     1      -0.825  -9.668  11.002  1.00  0.00     0.135 A 
ATOM     76  C   UNL     1      -2.195  -9.165   9.093  1.00  0.00     0.135 A 
ATOM     77  F   UNL     1       0.218 -10.294  11.566  1.00  0.00    -0.206 F 
ATOM     78  C   UNL     1      -1.632  -8.870  11.806  1.00  0.00     0.059 A 
ATOM     79  C   UNL     1      -3.004  -8.344   9.873  1.00  0.00     0.059 A 
ATOM     80  F   UNL     1      -2.478  -9.281   7.787  1.00  0.00    -0.206 F 
ATOM     81  C   UNL     1      -2.720  -8.210  11.232  1.00  0.00     0.060 A 
BRANCH  81  82
ATOM     82  S   UNL     1      -3.728  -7.132  12.273  1.00  0.00     0.124 S 
ATOM     83  O   UNL     1      -4.495  -8.103  13.044  1.00  0.00    -0.237 OA
ATOM     84  O   UNL     1      -2.716  -6.384  13.013  1.00  0.00    -0.237 OA
ATOM     85  O   UNL     1      -4.490  -6.349  11.304  1.00  0.00    -0.744 OA
ENDBRANCH  81  82
ENDBRANCH  49  74
BRANCH  61  86
ATOM     86  C   UNL     1       0.075 -16.708   9.239  1.00  0.00     0.058 A 
ATOM     87  C   UNL     1      -1.229 -17.189   9.054  1.00  0.00     0.135 A 
ATOM     88  C   UNL     1       0.909 -17.389  10.139  1.00  0.00     0.135 A 
ATOM     89  F   UNL     1      -2.065 -16.567   8.207  1.00  0.00    -0.206 F 
ATOM     90  C   UNL     1      -1.697 -18.297   9.750  1.00  0.00     0.059 A 
ATOM     91  C   UNL     1       0.471 -18.514  10.828  1.00  0.00     0.059 A 
ATOM     92  F   UNL     1       2.170 -16.973  10.341  1.00  0.00    -0.206 F 
ATOM     93  C   UNL     1      -0.838 -18.954  10.634  1.00  0.00     0.060 A 
BRANCH  93  94
ATOM     94  S   UNL     1      -1.443 -20.416  11.502  1.00  0.00     0.124 S 
ATOM     95  O   UNL     1      -2.297 -19.819  12.523  1.00  0.00    -0.237 OA
ATOM     96  O   UNL     1      -2.135 -21.146  10.444  1.00  0.00    -0.237 OA
ATOM     97  O   UNL     1      -0.222 -21.047  11.994  1.00  0.00    -0.744 OA
ENDBRANCH  93  94
ENDBRANCH  61  86
ENDBRANCH  35  36
ENDBRANCH  27  30
ENDBRANCH  25  26
ENDBRANCH  24  25
ENDBRANCH   1  24
TORSDOF 18
