REMARK SMILES Cc1ccc(S(=O)(=O)n2cc(C(=O)C(=O)NCC(=O)N[C@H](Cc3c[nH]c4ccccc34)C(=O)NCCCCNC(=O)c3ccc(-c4c5nc(c(-c6c(F)cc(S(=O)(=O)[O-])cc6F)c6ccc([nH]6)c(-c6c(F)cc(S(=O)(=O)[O-])cc6F)c6nc(c(-c7c(F)cc(S(=O)(=O)[O-])cc7F)c7ccc4[nH]7)C=C6)C=C5)cc3)c3ccccc32)cc1
REMARK SMILES IDX 32 1 33 2 34 3 21 5 20 6 18 7 19 8 17 10 16 11 14 12 15 13
REMARK SMILES IDX 12 15 13 16 11 17 9 18 10 19 113 20 108 21 112 22 109 23
REMARK SMILES IDX 111 24 110 25 6 26 7 27 8 28 5 29 1 30 2 31 3 32 115 33 4 34
REMARK SMILES IDX 114 35 22 36 23 37 24 38 31 39 25 40 26 41 30 42 27 44 29 45
REMARK SMILES IDX 28 46 35 47 36 48 37 49 38 50 39 51 40 52 41 54 42 55 43 56
REMARK SMILES IDX 107 57 44 58 106 59 45 60 46 61 47 62 100 63 48 64 105 65
REMARK SMILES IDX 99 66 101 67 49 68 104 69 98 70 97 71 50 73 84 74 63 75
REMARK SMILES IDX 83 76 64 77 67 78 82 79 102 80 65 81 66 82 81 84 103 85
REMARK SMILES IDX 68 86 51 87 52 88 61 89 53 90 54 91 60 92 62 93 55 94 56 95
REMARK SMILES IDX 57 96 58 97 59 98 85 99 86 100 95 101 87 102 88 103 94 104
REMARK SMILES IDX 96 105 89 106 90 107 91 108 92 109 93 110 69 111 70 112
REMARK SMILES IDX 79 113 71 114 72 115 78 116 80 117 73 118 74 119 75 120
REMARK SMILES IDX 76 121 77 122
REMARK H PARENT 34 4 20 9 16 14 25 43 39 53 101 72 67 83
REMARK Flexibility Score: inf
ROOT
ATOM      1  C   UNL     1      -9.371   0.446   3.980  1.00  0.00     0.242 C 
ATOM      2  O   UNL     1      -8.714  -0.592   3.820  1.00  0.00    -0.273 OA
ATOM      3  N   UNL     1      -9.615   0.789   5.266  1.00  0.00    -0.354 N 
ATOM      4  H   UNL     1      -9.244   0.146   5.913  1.00  0.00     0.163 HD
ENDROOT
BRANCH   1   5
ATOM      5  C   UNL     1      -9.852   1.226   2.740  1.00  0.00     0.175 C 
BRANCH   5   6
ATOM      6  N   UNL     1      -9.377   2.609   2.868  1.00  0.00    -0.342 N 
ATOM      7  C   UNL     1      -8.130   3.125   2.677  1.00  0.00     0.240 C 
ATOM      8  O   UNL     1      -7.991   4.330   2.913  1.00  0.00    -0.273 OA
ATOM      9  H   UNL     1     -10.064   3.264   3.132  1.00  0.00     0.164 HD
BRANCH   7  10
ATOM     10  C   UNL     1      -7.003   2.332   1.980  1.00  0.00     0.216 C 
BRANCH  10  11
ATOM     11  N   UNL     1      -6.812   0.924   2.314  1.00  0.00    -0.340 N 
ATOM     12  C   UNL     1      -6.485  -0.125   1.471  1.00  0.00     0.292 C 
ATOM     13  O   UNL     1      -6.274  -1.261   1.877  1.00  0.00    -0.265 OA
ATOM     14  H   UNL     1      -6.932   0.690   3.263  1.00  0.00     0.164 HD
BRANCH  12  15
ATOM     15  C   UNL     1      -6.385   0.139  -0.028  1.00  0.00     0.252 C 
ATOM     16  O   UNL     1      -5.550   0.966  -0.393  1.00  0.00    -0.283 OA
BRANCH  15  17
ATOM     17  C   UNL     1      -7.369  -0.432  -0.957  1.00  0.00     0.054 A 
ATOM     18  N   UNL     1      -8.756  -1.763  -2.146  1.00  0.00    -0.240 N 
ATOM     19  C   UNL     1      -7.788  -1.755  -1.143  1.00  0.00     0.117 A 
ATOM     20  C   UNL     1      -9.102  -0.427  -2.410  1.00  0.00     0.065 A 
ATOM     21  C   UNL     1      -8.039   0.343  -1.949  1.00  0.00     0.012 A 
ATOM     22  C   UNL     1     -10.095   0.119  -3.248  1.00  0.00     0.028 A 
ATOM     23  C   UNL     1      -7.862   1.639  -2.477  1.00  0.00     0.011 A 
ATOM     24  C   UNL     1      -9.859   1.373  -3.811  1.00  0.00     0.002 A 
ATOM     25  C   UNL     1      -8.736   2.108  -3.461  1.00  0.00     0.001 A 
BRANCH  18  26
ATOM     26  S   UNL     1      -8.693  -2.703  -3.615  1.00  0.00     0.268 S 
ATOM     27  O   UNL     1      -7.522  -2.175  -4.297  1.00  0.00    -0.201 OA
ATOM     28  O   UNL     1     -10.028  -2.514  -4.170  1.00  0.00    -0.201 OA
BRANCH  26  29
ATOM     29  C   UNL     1      -8.529  -4.448  -3.714  1.00  0.00     0.088 A 
ATOM     30  C   UNL     1      -8.680  -8.605  -4.880  1.00  0.00     0.044 C 
ATOM     31  C   UNL     1      -8.571  -7.171  -4.447  1.00  0.00    -0.051 A 
ATOM     32  C   UNL     1      -8.703  -6.199  -5.428  1.00  0.00     0.005 A 
ATOM     33  C   UNL     1      -8.400  -6.769  -3.103  1.00  0.00     0.005 A 
ATOM     34  C   UNL     1      -8.669  -4.866  -5.062  1.00  0.00     0.022 A 
ATOM     35  C   UNL     1      -8.382  -5.401  -2.722  1.00  0.00     0.022 A 
ENDBRANCH  26  29
ENDBRANCH  18  26
ENDBRANCH  15  17
ENDBRANCH  12  15
ENDBRANCH  10  11
ENDBRANCH   7  10
ENDBRANCH   5   6
BRANCH   5  36
ATOM     36  C   UNL     1     -11.349   1.160   2.364  1.00  0.00     0.072 C 
BRANCH  36  37
ATOM     37  C   UNL     1     -12.195  -0.016   2.781  1.00  0.00    -0.020 A 
ATOM     38  C   UNL     1     -11.835  -1.170   3.449  1.00  0.00     0.087 A 
ATOM     39  C   UNL     1     -13.622  -0.120   2.586  1.00  0.00     0.003 A 
ATOM     40  N   UNL     1     -12.970  -1.787   3.901  1.00  0.00    -0.361 N 
ATOM     41  C   UNL     1     -14.077  -1.177   3.375  1.00  0.00     0.046 A 
ATOM     42  C   UNL     1     -14.581   0.617   1.859  1.00  0.00     0.010 A 
ATOM     43  H   UNL     1     -12.988  -2.557   4.515  1.00  0.00     0.166 HD
ATOM     44  C   UNL     1     -15.431  -1.478   3.554  1.00  0.00     0.026 A 
ATOM     45  C   UNL     1     -15.938   0.282   1.966  1.00  0.00     0.001 A 
ATOM     46  C   UNL     1     -16.357  -0.732   2.825  1.00  0.00     0.002 A 
ENDBRANCH  36  37
ENDBRANCH   5  36
ENDBRANCH   1   5
BRANCH   3  47
ATOM     47  C   UNL     1     -10.305   1.897   5.902  1.00  0.00     0.116 C 
BRANCH  47  48
ATOM     48  C   UNL     1     -11.819   1.718   6.011  1.00  0.00     0.023 C 
BRANCH  48  49
ATOM     49  C   UNL     1     -12.298   0.377   6.573  1.00  0.00     0.023 C 
BRANCH  49  50
ATOM     50  C   UNL     1     -12.069   0.197   8.066  1.00  0.00     0.116 C 
BRANCH  50  51
ATOM     51  N   UNL     1     -13.274  -0.255   8.763  1.00  0.00    -0.352 N 
ATOM     52  C   UNL     1     -13.379  -0.772  10.049  1.00  0.00     0.251 C 
ATOM     53  H   UNL     1     -14.115  -0.184   8.258  1.00  0.00     0.163 HD
ATOM     54  O   UNL     1     -14.410  -1.201  10.514  1.00  0.00    -0.269 OA
BRANCH  52  55
ATOM     55  C   UNL     1     -12.146  -0.705  10.858  1.00  0.00     0.039 A 
ATOM     56  C   UNL     1     -12.021   0.385  11.727  1.00  0.00     0.014 A 
ATOM     57  C   UNL     1     -11.043  -1.424  10.413  1.00  0.00     0.014 A 
ATOM     58  C   UNL     1     -10.757   0.904  11.979  1.00  0.00     0.010 A 
ATOM     59  C   UNL     1      -9.801  -0.849  10.586  1.00  0.00     0.010 A 
ATOM     60  C   UNL     1      -9.666   0.347  11.315  1.00  0.00    -0.014 A 
BRANCH  60  61
ATOM     61  C   UNL     1      -8.353   0.980  11.244  1.00  0.00     0.031 A 
ATOM     62  C   UNL     1      -7.208   0.336  11.929  1.00  0.00     0.074 A 
ATOM     63  C   UNL     1      -8.160   2.086  10.491  1.00  0.00     0.049 A 
ATOM     64  N   UNL     1      -6.071   0.898  12.154  1.00  0.00    -0.248 NA
ATOM     65  C   UNL     1      -7.289  -1.013  12.477  1.00  0.00     0.031 C 
ATOM     66  C   UNL     1      -6.883   2.618  10.024  1.00  0.00     0.029 A 
ATOM     67  N   UNL     1      -9.076   3.069  10.138  1.00  0.00    -0.354 N 
ATOM     68  C   UNL     1      -5.201  -0.060  12.632  1.00  0.00     0.074 A 
ATOM     69  C   UNL     1      -6.026  -1.222  12.852  1.00  0.00     0.031 C 
ATOM     70  C   UNL     1      -7.045   3.899   9.658  1.00  0.00     0.029 A 
ATOM     71  C   UNL     1      -8.396   4.290  10.019  1.00  0.00     0.049 A 
ATOM     72  H   UNL     1     -10.041   2.932   9.994  1.00  0.00     0.167 HD
ATOM     73  C   UNL     1      -3.867   0.225  12.679  1.00  0.00     0.037 A 
ATOM     74  C   UNL     1      -8.692   5.351  10.831  1.00  0.00     0.037 A 
ATOM     75  C   UNL     1      -3.636   1.640  12.384  1.00  0.00     0.049 A 
ATOM     76  C   UNL     1      -7.570   5.744  11.769  1.00  0.00     0.074 A 
ATOM     77  C   UNL     1      -3.291   2.321  11.227  1.00  0.00     0.029 A 
ATOM     78  N   UNL     1      -4.078   2.601  13.287  1.00  0.00    -0.354 N 
ATOM     79  N   UNL     1      -6.515   5.009  11.993  1.00  0.00    -0.248 NA
ATOM     80  C   UNL     1      -7.552   6.983  12.544  1.00  0.00     0.031 C 
ATOM     81  C   UNL     1      -3.617   3.690  11.411  1.00  0.00     0.029 A 
ATOM     82  C   UNL     1      -4.129   3.846  12.688  1.00  0.00     0.049 A 
ATOM     83  H   UNL     1      -4.322   2.420  14.224  1.00  0.00     0.167 HD
ATOM     84  C   UNL     1      -5.728   5.604  12.944  1.00  0.00     0.074 A 
ATOM     85  C   UNL     1      -6.402   6.857  13.231  1.00  0.00     0.031 C 
ATOM     86  C   UNL     1      -4.599   5.007  13.431  1.00  0.00     0.037 A 
BRANCH  73  87
ATOM     87  C   UNL     1      -2.761  -0.818  12.727  1.00  0.00     0.058 A 
ATOM     88  C   UNL     1      -1.486  -0.536  12.184  1.00  0.00     0.135 A 
ATOM     89  C   UNL     1      -2.899  -2.133  13.216  1.00  0.00     0.135 A 
ATOM     90  F   UNL     1      -1.162   0.693  11.760  1.00  0.00    -0.206 F 
ATOM     91  C   UNL     1      -0.484  -1.501  12.038  1.00  0.00     0.059 A 
ATOM     92  C   UNL     1      -1.935  -3.130  13.032  1.00  0.00     0.059 A 
ATOM     93  F   UNL     1      -3.950  -2.503  13.954  1.00  0.00    -0.206 F 
ATOM     94  C   UNL     1      -0.731  -2.808  12.430  1.00  0.00     0.060 A 
BRANCH  94  95
ATOM     95  S   UNL     1       0.536  -4.062  12.168  1.00  0.00     0.124 S 
ATOM     96  O   UNL     1       0.772  -3.966  10.731  1.00  0.00    -0.237 OA
ATOM     97  O   UNL     1       1.617  -3.587  13.024  1.00  0.00    -0.237 OA
ATOM     98  O   UNL     1      -0.111  -5.297  12.606  1.00  0.00    -0.744 OA
ENDBRANCH  94  95
ENDBRANCH  73  87
BRANCH  74  99
ATOM     99  C   UNL     1     -10.149   5.480  11.107  1.00  0.00     0.058 A 
ATOM    100  C   UNL     1     -10.968   5.860  10.027  1.00  0.00     0.135 A 
ATOM    101  C   UNL     1     -10.751   4.791  12.170  1.00  0.00     0.135 A 
ATOM    102  F   UNL     1     -10.445   6.544   8.996  1.00  0.00    -0.206 F 
ATOM    103  C   UNL     1     -12.274   5.402   9.908  1.00  0.00     0.059 A 
ATOM    104  C   UNL     1     -12.065   4.327  12.074  1.00  0.00     0.059 A 
ATOM    105  F   UNL     1     -10.022   4.415  13.230  1.00  0.00    -0.206 F 
ATOM    106  C   UNL     1     -12.783   4.569  10.902  1.00  0.00     0.060 A 
BRANCH 106 107
ATOM    107  S   UNL     1     -14.284   3.635  10.518  1.00  0.00     0.124 S 
ATOM    108  O   UNL     1     -15.251   4.698  10.273  1.00  0.00    -0.237 OA
ATOM    109  O   UNL     1     -13.858   2.882   9.338  1.00  0.00    -0.237 OA
ATOM    110  O   UNL     1     -14.502   2.843  11.722  1.00  0.00    -0.744 OA
ENDBRANCH 106 107
ENDBRANCH  74  99
BRANCH  86 111
ATOM    111  C   UNL     1      -3.790   5.489  14.612  1.00  0.00     0.058 A 
ATOM    112  C   UNL     1      -4.341   6.139  15.729  1.00  0.00     0.135 A 
ATOM    113  C   UNL     1      -2.416   5.159  14.712  1.00  0.00     0.135 A 
ATOM    114  F   UNL     1      -5.653   6.411  15.799  1.00  0.00    -0.206 F 
ATOM    115  C   UNL     1      -3.575   6.493  16.841  1.00  0.00     0.059 A 
ATOM    116  C   UNL     1      -1.646   5.453  15.834  1.00  0.00     0.059 A 
ATOM    117  F   UNL     1      -1.778   4.523  13.718  1.00  0.00    -0.206 F 
ATOM    118  C   UNL     1      -2.228   6.146  16.886  1.00  0.00     0.060 A 
BRANCH 118 119
ATOM    119  S   UNL     1      -1.242   6.543  18.342  1.00  0.00     0.124 S 
ATOM    120  O   UNL     1      -0.684   7.839  17.970  1.00  0.00    -0.237 OA
ATOM    121  O   UNL     1      -2.236   6.569  19.412  1.00  0.00    -0.237 OA
ATOM    122  O   UNL     1      -0.290   5.439  18.409  1.00  0.00    -0.744 OA
ENDBRANCH 118 119
ENDBRANCH  86 111
ENDBRANCH  60  61
ENDBRANCH  52  55
ENDBRANCH  50  51
ENDBRANCH  49  50
ENDBRANCH  48  49
ENDBRANCH  47  48
ENDBRANCH   3  47
TORSDOF 23
