REMARK SMILES COc1cc(C(C)C)cc([C@H]([NH3+])C(=O)NCCCCNC(=O)c2ccc(-c3c4nc(c(-c5c(F)cc(S(=O)(=O)[O-])cc5F)c5ccc([nH]5)c(-c5c(F)cc(S(=O)(=O)[O-])cc5F)c5nc(c(-c6c(F)cc(S(=O)(=O)[O-])cc6F)c6ccc3[nH]6)C=C5)C=C4)cc2)c1O
REMARK SMILES IDX 18 1 17 2 16 3 15 4 13 5 14 6 11 8 10 9 3 10 4 11 89 12 5 13
REMARK SMILES IDX 9 14 2 15 1 16 90 17 6 19 7 20 8 21 12 22 19 26 20 27 21 28
REMARK SMILES IDX 22 30 23 31 24 32 88 33 25 34 87 35 26 36 27 37 28 38 81 39
REMARK SMILES IDX 29 40 86 41 80 42 82 43 30 44 85 45 79 46 78 47 31 49 65 50
REMARK SMILES IDX 44 51 64 52 45 53 48 54 63 55 83 56 46 57 47 58 62 60 84 61
REMARK SMILES IDX 49 62 32 63 33 64 42 65 34 66 35 67 41 68 43 69 36 70 37 71
REMARK SMILES IDX 38 72 39 73 40 74 66 75 67 76 76 77 68 78 69 79 75 80 77 81
REMARK SMILES IDX 70 82 71 83 72 84 73 85 74 86 50 87 51 88 60 89 52 90 53 91
REMARK SMILES IDX 59 92 61 93 54 94 55 95 56 96 57 97 58 98
REMARK H PARENT 15 7 90 18 12 23 12 24 12 25 20 29 82 48 48 59
REMARK Flexibility Score: inf
ROOT
ATOM      1  C   UNL     1      -2.532  -6.217   4.159  1.00  0.00     0.023 C 
ENDROOT
BRANCH   1   2
ATOM      2  C   UNL     1      -1.317  -5.315   3.955  1.00  0.00     0.023 C 
BRANCH   2   3
ATOM      3  C   UNL     1      -0.151  -5.959   3.216  1.00  0.00     0.116 C 
BRANCH   3   4
ATOM      4  N   UNL     1      -0.463  -6.270   1.835  1.00  0.00    -0.351 N 
ATOM      5  C   UNL     1       0.169  -5.865   0.692  1.00  0.00     0.283 C 
ATOM      6  O   UNL     1      -0.284  -6.282  -0.380  1.00  0.00    -0.268 OA
ATOM      7  H   UNL     1      -1.242  -6.857   1.701  1.00  0.00     0.163 HD
BRANCH   5   8
ATOM      8  C   UNL     1       1.398  -4.905   0.724  1.00  0.00     0.306 C 
BRANCH   8   9
ATOM      9  C   UNL     1       2.615  -5.554   1.374  1.00  0.00     0.065 A 
ATOM     10  C   UNL     1       4.226  -7.396   1.417  1.00  0.00     0.161 A 
ATOM     11  C   UNL     1       4.625  -6.998   2.698  1.00  0.00     0.054 A 
ATOM     12  C   UNL     1       3.206  -6.683   0.778  1.00  0.00     0.167 A 
ATOM     13  C   UNL     1       4.060  -5.881   3.326  1.00  0.00    -0.041 A 
ATOM     14  C   UNL     1       3.100  -5.139   2.627  1.00  0.00     0.018 A 
BRANCH  10  15
ATOM     15  O   UNL     1       4.867  -8.518   0.968  1.00  0.00    -0.493 OA
ATOM     16  C   UNL     1       4.905  -8.745  -0.435  1.00  0.00     0.278 C 
ENDBRANCH  10  15
BRANCH  12  17
ATOM     17  O   UNL     1       2.701  -7.082  -0.428  1.00  0.00    -0.504 OA
ATOM     18  H   UNL     1       3.063  -7.829  -0.864  1.00  0.00     0.293 HD
ENDBRANCH  12  17
BRANCH  13  19
ATOM     19  C   UNL     1       4.401  -5.501   4.757  1.00  0.00     0.013 C 
ATOM     20  C   UNL     1       4.108  -6.652   5.727  1.00  0.00     0.012 C 
ATOM     21  C   UNL     1       5.845  -5.022   4.890  1.00  0.00     0.012 C 
ENDBRANCH  13  19
ENDBRANCH   8   9
BRANCH   8  22
ATOM     22  N   UNL     1       0.995  -3.603   1.316  1.00  0.00    -0.343 N 
ATOM     23  H   UNL     1       0.676  -3.749   2.273  1.00  0.00     0.345 HD
ATOM     24  H   UNL     1       0.238  -3.198   0.764  1.00  0.00     0.345 HD
ATOM     25  H   UNL     1       1.793  -2.968   1.316  1.00  0.00     0.345 HD
ENDBRANCH   8  22
ENDBRANCH   5   8
ENDBRANCH   3   4
ENDBRANCH   2   3
ENDBRANCH   1   2
BRANCH   1  26
ATOM     26  C   UNL     1      -2.249  -7.556   4.831  1.00  0.00     0.116 C 
BRANCH  26  27
ATOM     27  N   UNL     1      -1.625  -7.425   6.140  1.00  0.00    -0.352 N 
ATOM     28  C   UNL     1      -1.953  -8.046   7.322  1.00  0.00     0.251 C 
ATOM     29  H   UNL     1      -0.861  -6.805   6.185  1.00  0.00     0.163 HD
ATOM     30  O   UNL     1      -1.381  -7.729   8.362  1.00  0.00    -0.269 OA
BRANCH  28  31
ATOM     31  C   UNL     1      -3.023  -9.066   7.341  1.00  0.00     0.039 A 
ATOM     32  C   UNL     1      -4.026  -8.976   8.309  1.00  0.00     0.014 A 
ATOM     33  C   UNL     1      -3.055 -10.087   6.387  1.00  0.00     0.014 A 
ATOM     34  C   UNL     1      -5.106  -9.862   8.270  1.00  0.00     0.010 A 
ATOM     35  C   UNL     1      -4.166 -10.922   6.306  1.00  0.00     0.010 A 
ATOM     36  C   UNL     1      -5.206 -10.814   7.242  1.00  0.00    -0.014 A 
BRANCH  36  37
ATOM     37  C   UNL     1      -6.392 -11.700   7.121  1.00  0.00     0.031 A 
ATOM     38  C   UNL     1      -6.239 -13.190   7.264  1.00  0.00     0.074 A 
ATOM     39  C   UNL     1      -7.591 -11.171   6.807  1.00  0.00     0.049 A 
ATOM     40  N   UNL     1      -7.133 -14.131   7.104  1.00  0.00    -0.248 NA
ATOM     41  C   UNL     1      -4.897 -13.688   7.605  1.00  0.00     0.031 C 
ATOM     42  C   UNL     1      -7.859  -9.747   6.591  1.00  0.00     0.029 A 
ATOM     43  N   UNL     1      -8.809 -11.770   6.601  1.00  0.00    -0.354 N 
ATOM     44  C   UNL     1      -6.461 -15.330   7.306  1.00  0.00     0.074 A 
ATOM     45  C   UNL     1      -5.074 -15.000   7.552  1.00  0.00     0.031 C 
ATOM     46  C   UNL     1      -9.161  -9.582   6.304  1.00  0.00     0.029 A 
ATOM     47  C   UNL     1      -9.813 -10.887   6.279  1.00  0.00     0.049 A 
ATOM     48  H   UNL     1      -8.950 -12.742   6.676  1.00  0.00     0.167 HD
ATOM     49  C   UNL     1      -6.957 -16.591   7.308  1.00  0.00     0.037 A 
ATOM     50  C   UNL     1     -11.111 -11.105   5.992  1.00  0.00     0.037 A 
ATOM     51  C   UNL     1      -8.344 -16.913   7.094  1.00  0.00     0.049 A 
ATOM     52  C   UNL     1     -11.643 -12.512   6.013  1.00  0.00     0.074 A 
ATOM     53  C   UNL     1      -8.956 -18.153   7.133  1.00  0.00     0.029 A 
ATOM     54  N   UNL     1      -9.335 -15.987   6.802  1.00  0.00    -0.354 N 
ATOM     55  N   UNL     1     -11.003 -13.630   6.260  1.00  0.00    -0.248 NA
ATOM     56  C   UNL     1     -13.072 -12.688   5.722  1.00  0.00     0.031 C 
ATOM     57  C   UNL     1     -10.312 -17.982   6.835  1.00  0.00     0.029 A 
ATOM     58  C   UNL     1     -10.552 -16.630   6.647  1.00  0.00     0.049 A 
ATOM     59  H   UNL     1      -9.195 -15.017   6.718  1.00  0.00     0.167 HD
ATOM     60  C   UNL     1     -11.956 -14.639   6.179  1.00  0.00     0.074 A 
ATOM     61  C   UNL     1     -13.218 -13.998   5.870  1.00  0.00     0.031 C 
ATOM     62  C   UNL     1     -11.801 -15.975   6.348  1.00  0.00     0.037 A 
BRANCH  49  63
ATOM     63  C   UNL     1      -5.991 -17.714   7.561  1.00  0.00     0.058 A 
ATOM     64  C   UNL     1      -5.428 -17.927   8.830  1.00  0.00     0.135 A 
ATOM     65  C   UNL     1      -5.638 -18.601   6.531  1.00  0.00     0.135 A 
ATOM     66  F   UNL     1      -5.719 -17.099   9.846  1.00  0.00    -0.206 F 
ATOM     67  C   UNL     1      -4.523 -18.957   9.060  1.00  0.00     0.059 A 
ATOM     68  C   UNL     1      -4.755 -19.655   6.746  1.00  0.00     0.059 A 
ATOM     69  F   UNL     1      -6.148 -18.444   5.299  1.00  0.00    -0.206 F 
ATOM     70  C   UNL     1      -4.189 -19.813   8.011  1.00  0.00     0.060 A 
BRANCH  70  71
ATOM     71  S   UNL     1      -3.007 -21.142   8.323  1.00  0.00     0.124 S 
ATOM     72  O   UNL     1      -1.747 -20.405   8.359  1.00  0.00    -0.237 OA
ATOM     73  O   UNL     1      -3.465 -21.676   9.601  1.00  0.00    -0.237 OA
ATOM     74  O   UNL     1      -3.183 -22.029   7.177  1.00  0.00    -0.744 OA
ENDBRANCH  70  71
ENDBRANCH  49  63
BRANCH  50  75
ATOM     75  C   UNL     1     -12.006  -9.958   5.687  1.00  0.00     0.058 A 
ATOM     76  C   UNL     1     -12.978  -9.541   6.608  1.00  0.00     0.135 A 
ATOM     77  C   UNL     1     -11.901  -9.249   4.481  1.00  0.00     0.135 A 
ATOM     78  F   UNL     1     -13.120 -10.193   7.773  1.00  0.00    -0.206 F 
ATOM     79  C   UNL     1     -13.824  -8.470   6.341  1.00  0.00     0.059 A 
ATOM     80  C   UNL     1     -12.721  -8.161   4.199  1.00  0.00     0.059 A 
ATOM     81  F   UNL     1     -10.976  -9.599   3.573  1.00  0.00    -0.206 F 
ATOM     82  C   UNL     1     -13.687  -7.785   5.133  1.00  0.00     0.060 A 
BRANCH  82  83
ATOM     83  S   UNL     1     -14.755  -6.363   4.816  1.00  0.00     0.124 S 
ATOM     84  O   UNL     1     -16.021  -7.013   4.497  1.00  0.00    -0.237 OA
ATOM     85  O   UNL     1     -14.706  -5.651   6.090  1.00  0.00    -0.237 OA
ATOM     86  O   UNL     1     -14.092  -5.688   3.705  1.00  0.00    -0.744 OA
ENDBRANCH  82  83
ENDBRANCH  50  75
BRANCH  62  87
ATOM     87  C   UNL     1     -13.030 -16.833   6.233  1.00  0.00     0.058 A 
ATOM     88  C   UNL     1     -13.614 -17.119   4.990  1.00  0.00     0.135 A 
ATOM     89  C   UNL     1     -13.597 -17.417   7.377  1.00  0.00     0.135 A 
ATOM     90  F   UNL     1     -13.113 -16.579   3.868  1.00  0.00    -0.206 F 
ATOM     91  C   UNL     1     -14.732 -17.940   4.886  1.00  0.00     0.059 A 
ATOM     92  C   UNL     1     -14.701 -18.259   7.294  1.00  0.00     0.059 A 
ATOM     93  F   UNL     1     -13.069 -17.181   8.589  1.00  0.00    -0.206 F 
ATOM     94  C   UNL     1     -15.268 -18.506   6.045  1.00  0.00     0.060 A 
BRANCH  94  95
ATOM     95  S   UNL     1     -16.697 -19.600   5.895  1.00  0.00     0.124 S 
ATOM     96  O   UNL     1     -17.777 -18.643   5.679  1.00  0.00    -0.237 OA
ATOM     97  O   UNL     1     -16.342 -20.425   4.744  1.00  0.00    -0.237 OA
ATOM     98  O   UNL     1     -16.723 -20.300   7.176  1.00  0.00    -0.744 OA
ENDBRANCH  94  95
ENDBRANCH  62  87
ENDBRANCH  36  37
ENDBRANCH  28  31
ENDBRANCH  26  27
ENDBRANCH   1  26
TORSDOF 19
