REMARK SMILES Cc1ccc(C(=O)NCCCCNC(=O)c2ccc(-c3c4nc(c(-c5c(F)cc(S(=O)(=O)[O-])cc5F)c5ccc([nH]5)c(-c5c(F)cc(S(=O)(=O)[O-])cc5F)c5nc(c(-c6c(F)cc(S(=O)(=O)[O-])cc6F)c6ccc3[nH]6)C=C5)C=C4)cc2)c(Oc2cccc(F)c2C(N)=O)c1
REMARK SMILES IDX 10 1 9 2 8 3 6 4 7 5 5 7 1 8 2 9 3 10 94 11 4 12 82 13 83 14
REMARK SMILES IDX 84 15 85 16 90 17 86 18 88 19 87 20 89 21 91 22 92 23 93 24
REMARK SMILES IDX 11 27 12 28 13 29 14 30 15 32 16 33 17 34 81 35 18 36 80 37
REMARK SMILES IDX 19 38 20 39 21 40 74 41 22 42 79 43 73 44 75 45 23 46 78 47
REMARK SMILES IDX 72 48 71 49 24 51 58 52 37 53 57 54 38 55 41 56 56 57 76 58
REMARK SMILES IDX 39 59 40 60 55 62 77 63 42 64 25 65 26 66 35 67 27 68 28 69
REMARK SMILES IDX 34 70 36 71 29 72 30 73 31 74 32 75 33 76 59 77 60 78 69 79
REMARK SMILES IDX 61 80 62 81 68 82 70 83 63 84 64 85 65 86 66 87 67 88 43 89
REMARK SMILES IDX 44 90 53 91 45 92 46 93 52 94 54 95 47 96 48 97 49 98 50 99
REMARK SMILES IDX 51 100
REMARK H PARENT 8 6 92 25 92 26 13 31 75 50 41 61
REMARK Flexibility Score: inf
ROOT
ATOM      1  C   UNL     1      -3.876   3.172  -2.143  1.00  0.00     0.023 C 
ENDROOT
BRANCH   1   2
ATOM      2  C   UNL     1      -3.481   2.734  -0.732  1.00  0.00     0.116 C 
BRANCH   2   3
ATOM      3  N   UNL     1      -3.754   1.347  -0.416  1.00  0.00    -0.352 N 
ATOM      4  C   UNL     1      -2.986   0.276  -0.024  1.00  0.00     0.255 C 
ATOM      5  O   UNL     1      -3.614  -0.753   0.252  1.00  0.00    -0.269 OA
ATOM      6  H   UNL     1      -4.708   1.119  -0.502  1.00  0.00     0.163 HD
BRANCH   4   7
ATOM      7  C   UNL     1      -1.489   0.190   0.011  1.00  0.00     0.082 A 
ATOM      8  C   UNL     1       2.779  -0.644   0.075  1.00  0.00     0.044 C 
ATOM      9  C   UNL     1       1.304  -0.377   0.069  1.00  0.00    -0.047 A 
ATOM     10  C   UNL     1       0.397  -1.360  -0.316  1.00  0.00     0.004 A 
ATOM     11  C   UNL     1       0.810   0.858   0.490  1.00  0.00     0.051 A 
ATOM     12  C   UNL     1      -0.975  -1.081  -0.334  1.00  0.00     0.018 A 
ATOM     13  C   UNL     1      -0.565   1.161   0.423  1.00  0.00     0.140 A 
BRANCH  13  14
ATOM     14  O   UNL     1      -0.985   2.375   0.883  1.00  0.00    -0.456 OA
BRANCH  14  15
ATOM     15  C   UNL     1      -0.381   3.549   0.463  1.00  0.00     0.143 A 
ATOM     16  C   UNL     1      -0.585   4.582   1.393  1.00  0.00     0.048 A 
ATOM     17  C   UNL     1       0.255   3.842  -0.761  1.00  0.00     0.117 A 
ATOM     18  C   UNL     1      -0.166   5.883   1.127  1.00  0.00     0.007 A 
ATOM     19  C   UNL     1       0.657   5.162  -1.012  1.00  0.00     0.139 A 
ATOM     20  C   UNL     1       0.444   6.178  -0.085  1.00  0.00     0.040 A 
ATOM     21  F   UNL     1       1.227   5.493  -2.182  1.00  0.00    -0.206 F 
BRANCH  17  22
ATOM     22  C   UNL     1       0.608   2.885  -1.832  1.00  0.00     0.255 C 
ATOM     23  N   UNL     1      -0.394   2.201  -2.457  1.00  0.00    -0.365 N 
ATOM     24  O   UNL     1       1.775   2.719  -2.170  1.00  0.00    -0.269 OA
ATOM     25  H   UNL     1      -1.329   2.338  -2.182  1.00  0.00     0.159 HD
ATOM     26  H   UNL     1      -0.181   1.570  -3.182  1.00  0.00     0.159 HD
ENDBRANCH  17  22
ENDBRANCH  14  15
ENDBRANCH  13  14
ENDBRANCH   4   7
ENDBRANCH   2   3
ENDBRANCH   1   2
BRANCH   1  27
ATOM     27  C   UNL     1      -5.367   3.286  -2.427  1.00  0.00     0.023 C 
BRANCH  27  28
ATOM     28  C   UNL     1      -6.124   4.232  -1.510  1.00  0.00     0.116 C 
BRANCH  28  29
ATOM     29  N   UNL     1      -6.034   5.636  -1.857  1.00  0.00    -0.352 N 
ATOM     30  C   UNL     1      -6.760   6.689  -1.318  1.00  0.00     0.251 C 
ATOM     31  H   UNL     1      -5.382   5.870  -2.557  1.00  0.00     0.163 HD
ATOM     32  O   UNL     1      -6.958   7.699  -1.974  1.00  0.00    -0.269 OA
BRANCH  30  33
ATOM     33  C   UNL     1      -7.164   6.620   0.111  1.00  0.00     0.039 A 
ATOM     34  C   UNL     1      -6.825   7.704   0.934  1.00  0.00     0.014 A 
ATOM     35  C   UNL     1      -7.672   5.455   0.676  1.00  0.00     0.014 A 
ATOM     36  C   UNL     1      -6.825   7.556   2.322  1.00  0.00     0.010 A 
ATOM     37  C   UNL     1      -7.576   5.274   2.040  1.00  0.00     0.010 A 
ATOM     38  C   UNL     1      -7.124   6.313   2.865  1.00  0.00    -0.014 A 
BRANCH  38  39
ATOM     39  C   UNL     1      -6.988   5.941   4.269  1.00  0.00     0.031 A 
ATOM     40  C   UNL     1      -8.205   5.649   5.066  1.00  0.00     0.074 A 
ATOM     41  C   UNL     1      -5.772   5.558   4.716  1.00  0.00     0.049 A 
ATOM     42  N   UNL     1      -8.198   5.307   6.310  1.00  0.00    -0.248 NA
ATOM     43  C   UNL     1      -9.559   5.769   4.519  1.00  0.00     0.031 C 
ATOM     44  C   UNL     1      -5.482   4.616   5.794  1.00  0.00     0.029 A 
ATOM     45  N   UNL     1      -4.532   6.125   4.410  1.00  0.00    -0.354 N 
ATOM     46  C   UNL     1      -9.454   4.835   6.607  1.00  0.00     0.074 A 
ATOM     47  C   UNL     1     -10.292   5.278   5.524  1.00  0.00     0.031 C 
ATOM     48  C   UNL     1      -4.227   4.813   6.224  1.00  0.00     0.029 A 
ATOM     49  C   UNL     1      -3.745   6.020   5.577  1.00  0.00     0.049 A 
ATOM     50  H   UNL     1      -4.261   6.520   3.550  1.00  0.00     0.167 HD
ATOM     51  C   UNL     1      -9.605   3.978   7.654  1.00  0.00     0.037 A 
ATOM     52  C   UNL     1      -3.353   7.139   6.261  1.00  0.00     0.037 A 
ATOM     53  C   UNL     1      -8.438   4.015   8.533  1.00  0.00     0.049 A 
ATOM     54  C   UNL     1      -3.869   7.229   7.680  1.00  0.00     0.074 A 
ATOM     55  C   UNL     1      -7.414   3.129   8.809  1.00  0.00     0.029 A 
ATOM     56  N   UNL     1      -8.076   5.230   9.112  1.00  0.00    -0.354 N 
ATOM     57  N   UNL     1      -4.834   6.494   8.161  1.00  0.00    -0.248 NA
ATOM     58  C   UNL     1      -3.349   8.176   8.664  1.00  0.00     0.031 C 
ATOM     59  C   UNL     1      -6.366   3.865   9.434  1.00  0.00     0.029 A 
ATOM     60  C   UNL     1      -6.783   5.177   9.591  1.00  0.00     0.049 A 
ATOM     61  H   UNL     1      -8.662   6.019   9.170  1.00  0.00     0.167 HD
ATOM     62  C   UNL     1      -5.118   6.891   9.441  1.00  0.00     0.074 A 
ATOM     63  C   UNL     1      -4.130   7.915   9.726  1.00  0.00     0.031 C 
ATOM     64  C   UNL     1      -6.159   6.368  10.155  1.00  0.00     0.037 A 
BRANCH  51  65
ATOM     65  C   UNL     1     -10.724   2.961   7.778  1.00  0.00     0.058 A 
ATOM     66  C   UNL     1     -10.889   2.221   8.969  1.00  0.00     0.135 A 
ATOM     67  C   UNL     1     -11.569   2.560   6.716  1.00  0.00     0.135 A 
ATOM     68  F   UNL     1     -10.132   2.476  10.046  1.00  0.00    -0.206 F 
ATOM     69  C   UNL     1     -11.808   1.170   9.092  1.00  0.00     0.059 A 
ATOM     70  C   UNL     1     -12.530   1.554   6.834  1.00  0.00     0.059 A 
ATOM     71  F   UNL     1     -11.457   3.068   5.482  1.00  0.00    -0.206 F 
ATOM     72  C   UNL     1     -12.625   0.842   8.017  1.00  0.00     0.060 A 
BRANCH  72  73
ATOM     73  S   UNL     1     -13.791  -0.527   8.152  1.00  0.00     0.124 S 
ATOM     74  O   UNL     1     -12.909  -1.683   8.029  1.00  0.00    -0.237 OA
ATOM     75  O   UNL     1     -14.383  -0.313   9.468  1.00  0.00    -0.237 OA
ATOM     76  O   UNL     1     -14.696  -0.312   7.025  1.00  0.00    -0.744 OA
ENDBRANCH  72  73
ENDBRANCH  51  65
BRANCH  52  77
ATOM     77  C   UNL     1      -3.105   8.305   5.368  1.00  0.00     0.058 A 
ATOM     78  C   UNL     1      -1.989   8.236   4.514  1.00  0.00     0.135 A 
ATOM     79  C   UNL     1      -4.157   9.160   5.003  1.00  0.00     0.135 A 
ATOM     80  F   UNL     1      -0.948   7.446   4.827  1.00  0.00    -0.206 F 
ATOM     81  C   UNL     1      -2.003   8.828   3.259  1.00  0.00     0.059 A 
ATOM     82  C   UNL     1      -4.191   9.759   3.743  1.00  0.00     0.059 A 
ATOM     83  F   UNL     1      -5.235   9.279   5.790  1.00  0.00    -0.206 F 
ATOM     84  C   UNL     1      -3.151   9.503   2.850  1.00  0.00     0.060 A 
BRANCH  84  85
ATOM     85  S   UNL     1      -3.347   9.804   1.078  1.00  0.00     0.124 S 
ATOM     86  O   UNL     1      -2.124  10.532   0.755  1.00  0.00    -0.237 OA
ATOM     87  O   UNL     1      -3.417   8.437   0.566  1.00  0.00    -0.237 OA
ATOM     88  O   UNL     1      -4.584  10.573   1.002  1.00  0.00    -0.744 OA
ENDBRANCH  84  85
ENDBRANCH  52  77
BRANCH  64  89
ATOM     89  C   UNL     1      -6.646   6.905  11.479  1.00  0.00     0.058 A 
ATOM     90  C   UNL     1      -6.607   8.264  11.838  1.00  0.00     0.135 A 
ATOM     91  C   UNL     1      -7.295   6.049  12.400  1.00  0.00     0.135 A 
ATOM     92  F   UNL     1      -6.133   9.193  10.994  1.00  0.00    -0.206 F 
ATOM     93  C   UNL     1      -7.090   8.731  13.062  1.00  0.00     0.059 A 
ATOM     94  C   UNL     1      -7.832   6.502  13.603  1.00  0.00     0.059 A 
ATOM     95  F   UNL     1      -7.430   4.737  12.153  1.00  0.00    -0.206 F 
ATOM     96  C   UNL     1      -7.694   7.841  13.943  1.00  0.00     0.060 A 
BRANCH  96  97
ATOM     97  S   UNL     1      -8.348   8.434  15.515  1.00  0.00     0.124 S 
ATOM     98  O   UNL     1      -7.214   8.206  16.406  1.00  0.00    -0.237 OA
ATOM     99  O   UNL     1      -8.655   9.834  15.236  1.00  0.00    -0.237 OA
ATOM    100  O   UNL     1      -9.509   7.578  15.734  1.00  0.00    -0.744 OA
ENDBRANCH  96  97
ENDBRANCH  64  89
ENDBRANCH  38  39
ENDBRANCH  30  33
ENDBRANCH  28  29
ENDBRANCH  27  28
ENDBRANCH   1  27
TORSDOF 17
