REMARK SMILES Cc1cccc(Nc2ccccc2C(=O)NCCCCNC(=O)c2ccc(-c3c4nc(c(-c5c(F)cc(S(=O)(=O)[O-])cc5F)c5ccc([nH]5)c(-c5c(F)cc(S(=O)(=O)[O-])cc5F)c5nc(c(-c6c(F)cc(S(=O)(=O)[O-])cc6F)c6ccc3[nH]6)C=C5)C=C4)cc2)c1C
REMARK SMILES IDX 19 1 18 2 17 3 16 4 14 5 15 6 13 8 8 9 9 10 10 11 12 12
REMARK SMILES IDX 11 13 7 14 6 16 1 17 2 18 3 19 90 20 4 21 91 22 5 23 20 24
REMARK SMILES IDX 21 25 22 26 23 28 24 29 25 30 89 31 26 32 88 33 27 34 28 35
REMARK SMILES IDX 29 36 82 37 30 38 87 39 81 40 83 41 31 42 86 43 80 44 79 45
REMARK SMILES IDX 32 47 66 48 45 49 65 50 46 51 49 52 64 53 84 54 47 55 48 56
REMARK SMILES IDX 63 58 85 59 50 60 33 61 34 62 43 63 35 64 36 65 42 66 44 67
REMARK SMILES IDX 37 68 38 69 39 70 40 71 41 72 67 73 68 74 77 75 69 76 70 77
REMARK SMILES IDX 76 78 78 79 71 80 72 81 73 82 74 83 75 84 51 85 52 86 61 87
REMARK SMILES IDX 53 88 54 89 60 90 62 91 55 92 56 93 57 94 58 95 59 96
REMARK H PARENT 16 7 7 15 21 27 83 46 49 57
REMARK Flexibility Score: inf
ROOT
ATOM      1  C   UNL     1      -3.256  -1.168   3.155  1.00  0.00     0.023 C 
ENDROOT
BRANCH   1   2
ATOM      2  C   UNL     1      -2.741  -2.429   2.454  1.00  0.00     0.023 C 
BRANCH   2   3
ATOM      3  C   UNL     1      -1.477  -2.283   1.617  1.00  0.00     0.116 C 
BRANCH   3   4
ATOM      4  N   UNL     1      -0.247  -2.172   2.360  1.00  0.00    -0.352 N 
ATOM      5  C   UNL     1       1.025  -2.573   2.021  1.00  0.00     0.253 C 
ATOM      6  O   UNL     1       1.944  -2.203   2.758  1.00  0.00    -0.269 OA
ATOM      7  H   UNL     1      -0.329  -1.745   3.243  1.00  0.00     0.163 HD
BRANCH   5   8
ATOM      8  C   UNL     1       1.351  -3.537   0.918  1.00  0.00     0.063 A 
ATOM      9  C   UNL     1       0.850  -3.583  -0.399  1.00  0.00     0.051 A 
ATOM     10  C   UNL     1       1.261  -4.657  -1.230  1.00  0.00     0.027 A 
ATOM     11  C   UNL     1       2.191  -5.611  -0.818  1.00  0.00     0.002 A 
ATOM     12  C   UNL     1       2.314  -4.503   1.307  1.00  0.00     0.016 A 
ATOM     13  C   UNL     1       2.739  -5.519   0.449  1.00  0.00     0.001 A 
BRANCH   9  14
ATOM     14  N   UNL     1       0.068  -2.613  -1.060  1.00  0.00    -0.355 N 
ATOM     15  H   UNL     1      -0.622  -3.008  -1.640  1.00  0.00     0.167 HD
BRANCH  14  16
ATOM     16  C   UNL     1       0.056  -1.203  -1.076  1.00  0.00     0.042 A 
ATOM     17  C   UNL     1       2.021   1.935  -0.092  1.00  0.00     0.044 C 
ATOM     18  C   UNL     1       0.918   1.016  -0.550  1.00  0.00    -0.046 A 
ATOM     19  C   UNL     1      -0.344   1.569  -0.815  1.00  0.00     0.004 A 
ATOM     20  C   UNL     1       1.142  -0.373  -0.735  1.00  0.00    -0.025 A 
ATOM     21  C   UNL     1      -1.387   0.767  -1.251  1.00  0.00     0.002 A 
ATOM     22  C   UNL     1       2.548  -0.907  -0.615  1.00  0.00     0.047 C 
ATOM     23  C   UNL     1      -1.187  -0.603  -1.377  1.00  0.00     0.026 A 
ENDBRANCH  14  16
ENDBRANCH   9  14
ENDBRANCH   5   8
ENDBRANCH   3   4
ENDBRANCH   2   3
ENDBRANCH   1   2
BRANCH   1  24
ATOM     24  C   UNL     1      -3.392   0.110   2.324  1.00  0.00     0.116 C 
BRANCH  24  25
ATOM     25  N   UNL     1      -4.132  -0.040   1.080  1.00  0.00    -0.352 N 
ATOM     26  C   UNL     1      -4.968   0.856   0.447  1.00  0.00     0.251 C 
ATOM     27  H   UNL     1      -4.020  -0.906   0.625  1.00  0.00     0.163 HD
ATOM     28  O   UNL     1      -5.482   0.557  -0.622  1.00  0.00    -0.269 OA
BRANCH  26  29
ATOM     29  C   UNL     1      -5.282   2.159   1.083  1.00  0.00     0.039 A 
ATOM     30  C   UNL     1      -6.624   2.538   1.198  1.00  0.00     0.014 A 
ATOM     31  C   UNL     1      -4.279   2.987   1.594  1.00  0.00     0.014 A 
ATOM     32  C   UNL     1      -6.962   3.691   1.913  1.00  0.00     0.010 A 
ATOM     33  C   UNL     1      -4.622   4.103   2.361  1.00  0.00     0.010 A 
ATOM     34  C   UNL     1      -5.968   4.456   2.546  1.00  0.00    -0.014 A 
BRANCH  34  35
ATOM     35  C   UNL     1      -6.339   5.576   3.455  1.00  0.00     0.031 A 
ATOM     36  C   UNL     1      -5.962   6.997   3.132  1.00  0.00     0.074 A 
ATOM     37  C   UNL     1      -6.973   5.298   4.614  1.00  0.00     0.049 A 
ATOM     38  N   UNL     1      -6.219   8.089   3.805  1.00  0.00    -0.248 NA
ATOM     39  C   UNL     1      -5.173   7.220   1.910  1.00  0.00     0.031 C 
ATOM     40  C   UNL     1      -7.312   3.953   5.091  1.00  0.00     0.029 A 
ATOM     41  N   UNL     1      -7.438   6.124   5.607  1.00  0.00    -0.354 N 
ATOM     42  C   UNL     1      -5.615   9.125   3.101  1.00  0.00     0.074 A 
ATOM     43  C   UNL     1      -4.943   8.525   1.968  1.00  0.00     0.031 C 
ATOM     44  C   UNL     1      -7.946   4.049   6.271  1.00  0.00     0.029 A 
ATOM     45  C   UNL     1      -8.044   5.456   6.647  1.00  0.00     0.049 A 
ATOM     46  H   UNL     1      -7.347   7.104   5.578  1.00  0.00     0.167 HD
ATOM     47  C   UNL     1      -5.636  10.454   3.364  1.00  0.00     0.037 A 
ATOM     48  C   UNL     1      -8.618   5.921   7.773  1.00  0.00     0.037 A 
ATOM     49  C   UNL     1      -6.337  11.051   4.472  1.00  0.00     0.049 A 
ATOM     50  C   UNL     1      -8.688   7.407   8.001  1.00  0.00     0.074 A 
ATOM     51  C   UNL     1      -6.496  12.396   4.765  1.00  0.00     0.029 A 
ATOM     52  N   UNL     1      -6.994  10.348   5.470  1.00  0.00    -0.354 N 
ATOM     53  N   UNL     1      -8.207   8.378   7.261  1.00  0.00    -0.248 NA
ATOM     54  C   UNL     1      -9.398   7.863   9.204  1.00  0.00     0.031 C 
ATOM     55  C   UNL     1      -7.215  12.504   5.960  1.00  0.00     0.029 A 
ATOM     56  C   UNL     1      -7.543  11.228   6.388  1.00  0.00     0.049 A 
ATOM     57  H   UNL     1      -7.060   9.367   5.519  1.00  0.00     0.167 HD
ATOM     58  C   UNL     1      -8.576   9.558   7.898  1.00  0.00     0.074 A 
ATOM     59  C   UNL     1      -9.341   9.180   9.068  1.00  0.00     0.031 C 
ATOM     60  C   UNL     1      -8.304  10.839   7.547  1.00  0.00     0.037 A 
BRANCH  47  61
ATOM     61  C   UNL     1      -4.895  11.371   2.430  1.00  0.00     0.058 A 
ATOM     62  C   UNL     1      -5.375  11.653   1.142  1.00  0.00     0.135 A 
ATOM     63  C   UNL     1      -3.739  12.043   2.859  1.00  0.00     0.135 A 
ATOM     64  F   UNL     1      -6.468  11.027   0.676  1.00  0.00    -0.206 F 
ATOM     65  C   UNL     1      -4.732  12.562   0.308  1.00  0.00     0.059 A 
ATOM     66  C   UNL     1      -3.092  12.975   2.051  1.00  0.00     0.059 A 
ATOM     67  F   UNL     1      -3.236  11.810   4.082  1.00  0.00    -0.206 F 
ATOM     68  C   UNL     1      -3.595  13.223   0.775  1.00  0.00     0.060 A 
BRANCH  68  69
ATOM     69  S   UNL     1      -2.800  14.436  -0.302  1.00  0.00     0.124 S 
ATOM     70  O   UNL     1      -2.160  13.573  -1.290  1.00  0.00    -0.237 OA
ATOM     71  O   UNL     1      -3.936  15.217  -0.784  1.00  0.00    -0.237 OA
ATOM     72  O   UNL     1      -1.892  15.144   0.595  1.00  0.00    -0.744 OA
ENDBRANCH  68  69
ENDBRANCH  47  61
BRANCH  48  73
ATOM     73  C   UNL     1      -9.198   4.978   8.768  1.00  0.00     0.058 A 
ATOM     74  C   UNL     1     -10.585   4.890   8.964  1.00  0.00     0.135 A 
ATOM     75  C   UNL     1      -8.374   4.164   9.561  1.00  0.00     0.135 A 
ATOM     76  F   UNL     1     -11.414   5.649   8.232  1.00  0.00    -0.206 F 
ATOM     77  C   UNL     1     -11.133   4.060   9.936  1.00  0.00     0.059 A 
ATOM     78  C   UNL     1      -8.901   3.305  10.521  1.00  0.00     0.059 A 
ATOM     79  F   UNL     1      -7.042   4.193   9.398  1.00  0.00    -0.206 F 
ATOM     80  C   UNL     1     -10.281   3.275  10.714  1.00  0.00     0.060 A 
BRANCH  80  81
ATOM     81  S   UNL     1     -10.999   2.188  11.965  1.00  0.00     0.124 S 
ATOM     82  O   UNL     1     -11.326   3.136  13.024  1.00  0.00    -0.237 OA
ATOM     83  O   UNL     1     -12.134   1.606  11.256  1.00  0.00    -0.237 OA
ATOM     84  O   UNL     1      -9.913   1.258  12.261  1.00  0.00    -0.744 OA
ENDBRANCH  80  81
ENDBRANCH  48  73
BRANCH  60  85
ATOM     85  C   UNL     1      -8.867  11.923   8.425  1.00  0.00     0.058 A 
ATOM     86  C   UNL     1      -8.363  12.166   9.713  1.00  0.00     0.135 A 
ATOM     87  C   UNL     1      -9.923  12.730   7.971  1.00  0.00     0.135 A 
ATOM     88  F   UNL     1      -7.356  11.422  10.196  1.00  0.00    -0.206 F 
ATOM     89  C   UNL     1      -8.918  13.140  10.538  1.00  0.00     0.059 A 
ATOM     90  C   UNL     1     -10.473  13.728   8.768  1.00  0.00     0.059 A 
ATOM     91  F   UNL     1     -10.432  12.549   6.742  1.00  0.00    -0.206 F 
ATOM     92  C   UNL     1      -9.979  13.910  10.059  1.00  0.00     0.060 A 
BRANCH  92  93
ATOM     93  S   UNL     1     -10.703  15.161  11.140  1.00  0.00     0.124 S 
ATOM     94  O   UNL     1     -11.527  14.342  12.024  1.00  0.00    -0.237 OA
ATOM     95  O   UNL     1      -9.527  15.769  11.754  1.00  0.00    -0.237 OA
ATOM     96  O   UNL     1     -11.436  16.022  10.217  1.00  0.00    -0.744 OA
ENDBRANCH  92  93
ENDBRANCH  60  85
ENDBRANCH  34  35
ENDBRANCH  26  29
ENDBRANCH  24  25
ENDBRANCH   1  24
TORSDOF 16
