REMARK SMILES C[C@@H](C(=O)NCCCCNC(=O)c1ccc(-c2c3nc(c(-c4c(F)cc(S(=O)(=O)[O-])cc4F)c4ccc([nH]4)c(-c4c(F)cc(S(=O)(=O)[O-])cc4F)c4nc(c(-c5c(F)cc(S(=O)(=O)[O-])cc5F)c5ccc2[nH]5)C=C4)C=C3)cc1)c1ccc(-c2ccccc2)c(F)c1
REMARK SMILES IDX 8 1 7 2 6 3 5 4 3 5 4 6 2 8 1 9 79 10 80 11 91 12 81 13
REMARK SMILES IDX 89 14 82 15 90 16 83 17 84 18 88 19 85 20 87 21 86 22 9 23
REMARK SMILES IDX 10 24 11 25 12 27 13 28 14 29 78 30 15 31 77 32 16 33 17 34
REMARK SMILES IDX 18 35 71 36 19 37 76 38 70 39 72 40 20 41 75 42 69 43 68 44
REMARK SMILES IDX 21 46 55 47 34 48 54 49 35 50 38 51 53 52 73 53 36 54 37 55
REMARK SMILES IDX 52 57 74 58 39 59 22 60 23 61 32 62 24 63 25 64 31 65 33 66
REMARK SMILES IDX 26 67 27 68 28 69 29 70 30 71 56 72 57 73 66 74 58 75 59 76
REMARK SMILES IDX 65 77 67 78 60 79 61 80 62 81 63 82 64 83 40 84 41 85 50 86
REMARK SMILES IDX 42 87 43 88 49 89 51 90 44 91 45 92 46 93 47 94 48 95
REMARK H PARENT 5 7 10 26 72 45 38 56
REMARK Flexibility Score: inf
ROOT
ATOM      1  C   UNL     1       5.097   2.371   0.248  1.00  0.00     0.023 C 
ENDROOT
BRANCH   1   2
ATOM      2  C   UNL     1       4.334   1.044   0.225  1.00  0.00     0.023 C 
BRANCH   2   3
ATOM      3  C   UNL     1       3.559   0.718   1.503  1.00  0.00     0.116 C 
BRANCH   3   4
ATOM      4  N   UNL     1       2.575   1.735   1.805  1.00  0.00    -0.356 N 
ATOM      5  C   UNL     1       1.216   1.730   1.695  1.00  0.00     0.227 C 
ATOM      6  O   UNL     1       0.656   2.772   2.040  1.00  0.00    -0.274 OA
ATOM      7  H   UNL     1       2.953   2.577   2.149  1.00  0.00     0.163 HD
BRANCH   5   8
ATOM      8  C   UNL     1       0.476   0.465   1.212  1.00  0.00     0.105 C 
ATOM      9  C   UNL     1       0.764   0.142  -0.257  1.00  0.00     0.023 C 
BRANCH   8  10
ATOM     10  C   UNL     1      -1.046   0.471   1.384  1.00  0.00    -0.033 A 
ATOM     11  C   UNL     1      -1.827   1.621   1.217  1.00  0.00     0.005 A 
ATOM     12  C   UNL     1      -1.715  -0.743   1.607  1.00  0.00     0.044 A 
ATOM     13  C   UNL     1      -3.221   1.570   1.313  1.00  0.00     0.012 A 
ATOM     14  C   UNL     1      -3.111  -0.791   1.672  1.00  0.00     0.131 A 
ATOM     15  C   UNL     1      -3.897   0.360   1.530  1.00  0.00     0.017 A 
ATOM     16  F   UNL     1      -3.688  -1.990   1.848  1.00  0.00    -0.206 F 
BRANCH  15  17
ATOM     17  C   UNL     1      -5.369   0.337   1.594  1.00  0.00    -0.015 A 
ATOM     18  C   UNL     1      -6.141   1.011   0.630  1.00  0.00     0.009 A 
ATOM     19  C   UNL     1      -6.047  -0.317   2.635  1.00  0.00     0.009 A 
ATOM     20  C   UNL     1      -7.534   1.050   0.714  1.00  0.00     0.001 A 
ATOM     21  C   UNL     1      -7.442  -0.280   2.720  1.00  0.00     0.001 A 
ATOM     22  C   UNL     1      -8.184   0.408   1.763  1.00  0.00     0.000 A 
ENDBRANCH  15  17
ENDBRANCH   8  10
ENDBRANCH   5   8
ENDBRANCH   3   4
ENDBRANCH   2   3
ENDBRANCH   1   2
BRANCH   1  23
ATOM     23  C   UNL     1       6.059   2.549   1.415  1.00  0.00     0.116 C 
BRANCH  23  24
ATOM     24  N   UNL     1       7.067   1.503   1.474  1.00  0.00    -0.352 N 
ATOM     25  C   UNL     1       8.420   1.621   1.680  1.00  0.00     0.251 C 
ATOM     26  H   UNL     1       6.735   0.585   1.351  1.00  0.00     0.163 HD
ATOM     27  O   UNL     1       9.145   0.637   1.555  1.00  0.00    -0.269 OA
BRANCH  25  28
ATOM     28  C   UNL     1       8.999   2.938   2.020  1.00  0.00     0.039 A 
ATOM     29  C   UNL     1      10.153   3.361   1.356  1.00  0.00     0.014 A 
ATOM     30  C   UNL     1       8.400   3.757   2.982  1.00  0.00     0.014 A 
ATOM     31  C   UNL     1      10.674   4.630   1.618  1.00  0.00     0.010 A 
ATOM     32  C   UNL     1       8.875   5.049   3.183  1.00  0.00     0.010 A 
ATOM     33  C   UNL     1      10.023   5.496   2.512  1.00  0.00    -0.014 A 
BRANCH  33  34
ATOM     34  C   UNL     1      10.537   6.864   2.773  1.00  0.00     0.031 A 
ATOM     35  C   UNL     1      11.015   7.238   4.150  1.00  0.00     0.074 A 
ATOM     36  C   UNL     1      10.514   7.787   1.792  1.00  0.00     0.049 A 
ATOM     37  N   UNL     1      11.442   8.392   4.593  1.00  0.00    -0.248 NA
ATOM     38  C   UNL     1      10.979   6.179   5.172  1.00  0.00     0.031 C 
ATOM     39  C   UNL     1      10.031   7.561   0.428  1.00  0.00     0.029 A 
ATOM     40  N   UNL     1      10.901   9.104   1.792  1.00  0.00    -0.354 N 
ATOM     41  C   UNL     1      11.707   8.204   5.944  1.00  0.00     0.074 A 
ATOM     42  C   UNL     1      11.338   6.842   6.261  1.00  0.00     0.031 C 
ATOM     43  C   UNL     1      10.177   8.691  -0.283  1.00  0.00     0.029 A 
ATOM     44  C   UNL     1      10.727   9.731   0.581  1.00  0.00     0.049 A 
ATOM     45  H   UNL     1      11.268   9.557   2.585  1.00  0.00     0.167 HD
ATOM     46  C   UNL     1      12.234   9.079   6.835  1.00  0.00     0.037 A 
ATOM     47  C   UNL     1      10.980  11.001   0.209  1.00  0.00     0.037 A 
ATOM     48  C   UNL     1      12.620  10.426   6.507  1.00  0.00     0.049 A 
ATOM     49  C   UNL     1      11.566  11.956   1.213  1.00  0.00     0.074 A 
ATOM     50  C   UNL     1      13.216  11.374   7.320  1.00  0.00     0.029 A 
ATOM     51  N   UNL     1      12.444  11.019   5.264  1.00  0.00    -0.354 N 
ATOM     52  N   UNL     1      11.871  11.745   2.471  1.00  0.00    -0.248 NA
ATOM     53  C   UNL     1      11.851  13.319   0.745  1.00  0.00     0.031 C 
ATOM     54  C   UNL     1      13.358  12.555   6.582  1.00  0.00     0.029 A 
ATOM     55  C   UNL     1      12.901  12.327   5.294  1.00  0.00     0.049 A 
ATOM     56  H   UNL     1      12.052  10.576   4.478  1.00  0.00     0.167 HD
ATOM     57  C   UNL     1      12.414  12.937   2.937  1.00  0.00     0.074 A 
ATOM     58  C   UNL     1      12.399  13.864   1.823  1.00  0.00     0.031 C 
ATOM     59  C   UNL     1      12.886  13.236   4.173  1.00  0.00     0.037 A 
BRANCH  46  60
ATOM     60  C   UNL     1      12.415   8.598   8.251  1.00  0.00     0.058 A 
ATOM     61  C   UNL     1      13.357   7.610   8.583  1.00  0.00     0.135 A 
ATOM     62  C   UNL     1      11.633   9.128   9.290  1.00  0.00     0.135 A 
ATOM     63  F   UNL     1      14.123   7.058   7.628  1.00  0.00    -0.206 F 
ATOM     64  C   UNL     1      13.483   7.130   9.882  1.00  0.00     0.059 A 
ATOM     65  C   UNL     1      11.765   8.686  10.604  1.00  0.00     0.059 A 
ATOM     66  F   UNL     1      10.719  10.077   9.033  1.00  0.00    -0.206 F 
ATOM     67  C   UNL     1      12.677   7.669  10.885  1.00  0.00     0.060 A 
BRANCH  67  68
ATOM     68  S   UNL     1      12.829   7.014  12.560  1.00  0.00     0.124 S 
ATOM     69  O   UNL     1      12.165   5.721  12.427  1.00  0.00    -0.237 OA
ATOM     70  O   UNL     1      14.276   6.967  12.747  1.00  0.00    -0.237 OA
ATOM     71  O   UNL     1      12.127   8.000  13.376  1.00  0.00    -0.744 OA
ENDBRANCH  67  68
ENDBRANCH  46  60
BRANCH  47  72
ATOM     72  C   UNL     1      10.721  11.424  -1.193  1.00  0.00     0.058 A 
ATOM     73  C   UNL     1      11.783  11.664  -2.078  1.00  0.00     0.135 A 
ATOM     74  C   UNL     1       9.415  11.558  -1.688  1.00  0.00     0.135 A 
ATOM     75  F   UNL     1      13.050  11.555  -1.649  1.00  0.00    -0.206 F 
ATOM     76  C   UNL     1      11.561  12.028  -3.401  1.00  0.00     0.059 A 
ATOM     77  C   UNL     1       9.167  11.898  -3.014  1.00  0.00     0.059 A 
ATOM     78  F   UNL     1       8.364  11.324  -0.886  1.00  0.00    -0.206 F 
ATOM     79  C   UNL     1      10.248  12.135  -3.863  1.00  0.00     0.060 A 
BRANCH  79  80
ATOM     80  S   UNL     1       9.974  12.536  -5.603  1.00  0.00     0.124 S 
ATOM     81  O   UNL     1      10.353  13.944  -5.644  1.00  0.00    -0.237 OA
ATOM     82  O   UNL     1      10.879  11.610  -6.276  1.00  0.00    -0.237 OA
ATOM     83  O   UNL     1       8.553  12.258  -5.791  1.00  0.00    -0.744 OA
ENDBRANCH  79  80
ENDBRANCH  47  72
BRANCH  59  84
ATOM     84  C   UNL     1      13.467  14.608   4.380  1.00  0.00     0.058 A 
ATOM     85  C   UNL     1      12.660  15.754   4.442  1.00  0.00     0.135 A 
ATOM     86  C   UNL     1      14.850  14.769   4.571  1.00  0.00     0.135 A 
ATOM     87  F   UNL     1      11.333  15.657   4.261  1.00  0.00    -0.206 F 
ATOM     88  C   UNL     1      13.206  17.015   4.661  1.00  0.00     0.059 A 
ATOM     89  C   UNL     1      15.413  16.016   4.819  1.00  0.00     0.059 A 
ATOM     90  F   UNL     1      15.666  13.704   4.532  1.00  0.00    -0.206 F 
ATOM     91  C   UNL     1      14.584  17.136   4.850  1.00  0.00     0.060 A 
BRANCH  91  92
ATOM     92  S   UNL     1      15.276  18.773   5.165  1.00  0.00     0.124 S 
ATOM     93  O   UNL     1      15.202  19.383   3.841  1.00  0.00    -0.237 OA
ATOM     94  O   UNL     1      14.359  19.314   6.164  1.00  0.00    -0.237 OA
ATOM     95  O   UNL     1      16.622  18.486   5.650  1.00  0.00    -0.744 OA
ENDBRANCH  91  92
ENDBRANCH  59  84
ENDBRANCH  33  34
ENDBRANCH  25  28
ENDBRANCH  23  24
ENDBRANCH   1  23
TORSDOF 16
