REMARK SMILES CC[C@@H]1CCC[N@H+]([C@@H]2CC[C@]([NH2+]C3CC3)(C(=O)NCCCCNC(=O)c3ccc(-c4c5nc(c(-c6c(F)cc(S(=O)(=O)[O-])cc6F)c6ccc([nH]6)c(-c6c(F)cc(S(=O)(=O)[O-])cc6F)c6nc(c(-c7c(F)cc(S(=O)(=O)[O-])cc7F)c7ccc4[nH]7)C=C6)C=C5)cc3)C2)CC1
REMARK SMILES IDX 19 1 18 2 16 3 17 4 11 6 8 7 9 8 92 9 10 10 7 11 93 13 94 14
REMARK SMILES IDX 3 15 2 17 1 18 6 19 5 20 4 21 12 23 13 26 14 27 15 28 20 29
REMARK SMILES IDX 21 30 22 31 23 32 24 33 25 35 26 36 27 37 91 38 28 39 90 40
REMARK SMILES IDX 29 41 30 42 31 43 84 44 32 45 89 46 83 47 85 48 33 49 88 50
REMARK SMILES IDX 82 51 81 52 34 54 68 55 47 56 67 57 48 58 51 59 66 60 86 61
REMARK SMILES IDX 49 62 50 63 65 65 87 66 52 67 35 68 36 69 45 70 37 71 38 72
REMARK SMILES IDX 44 73 46 74 39 75 40 76 41 77 42 78 43 79 69 80 70 81 79 82
REMARK SMILES IDX 71 83 72 84 78 85 80 86 73 87 74 88 75 89 76 90 77 91 53 92
REMARK SMILES IDX 54 93 63 94 55 95 56 96 62 97 64 98 57 99 58 100 59 101
REMARK SMILES IDX 60 102 61 103
REMARK H PARENT 18 5 7 12 12 24 12 25 23 34 85 53 51 64
REMARK Flexibility Score: 80.00
ROOT
ATOM      1  C   UNL     1       3.259  -0.516  -9.453  1.00  0.00     0.116 C 
ENDROOT
BRANCH   1   2
ATOM      2  N   UNL     1       4.663  -0.589  -9.097  1.00  0.00    -0.351 N 
ATOM      3  C   UNL     1       5.329  -1.442  -8.263  1.00  0.00     0.281 C 
ATOM      4  O   UNL     1       6.559  -1.327  -8.235  1.00  0.00    -0.268 OA
ATOM      5  H   UNL     1       5.231   0.090  -9.527  1.00  0.00     0.163 HD
BRANCH   3   6
ATOM      6  C   UNL     1       4.590  -2.576  -7.468  1.00  0.00     0.181 C 
ATOM      7  C   UNL     1       3.309  -2.865  -5.403  1.00  0.00     0.191 C 
ATOM      8  C   UNL     1       4.770  -3.124  -5.038  1.00  0.00     0.072 C 
ATOM      9  C   UNL     1       3.403  -2.012  -6.666  1.00  0.00     0.144 C 
ATOM     10  C   UNL     1       5.537  -3.141  -6.365  1.00  0.00     0.085 C 
BRANCH   7  11
ATOM     11  N   UNL     1       2.442  -2.326  -4.340  1.00  0.00    -0.332 N 
ATOM     12  H   UNL     1       1.511  -2.235  -4.746  1.00  0.00     0.348 HD
BRANCH  11  13
ATOM     13  C   UNL     1       2.729  -0.940  -3.965  1.00  0.00     0.262 C 
BRANCH  13  14
ATOM     14  C   UNL     1       2.296  -0.435  -2.584  1.00  0.00     0.065 C 
BRANCH  14  15
ATOM     15  C   UNL     1       0.813  -0.659  -2.259  1.00  0.00    -0.006 CG0
ATOM     16  G   UNL     1       0.568  -2.071  -1.707  1.00  0.00     0.000 G0
BRANCH  15  17
ATOM     17  C   UNL     1       0.302   0.412  -1.266  1.00  0.00     0.000 C 
ATOM     18  C   UNL     1       0.944   0.377   0.116  1.00  0.00     0.004 C 
ENDBRANCH  15  17
ENDBRANCH  14  15
ENDBRANCH  13  14
ENDBRANCH  11  13
BRANCH  11  19
ATOM     19  C   UNL     1       2.260  -3.270  -3.241  1.00  0.00     0.262 C 
BRANCH  19  20
ATOM     20  C   UNL     1       0.833  -3.204  -2.692  1.00  0.00     0.062 C 
BRANCH  20  21
ATOM     21  C   UNL     1       0.568  -2.071  -1.707  1.00  0.00     0.009 CG0
ATOM     22  G   UNL     1       0.813  -0.659  -2.259  1.00  0.00     0.000 G0
ENDBRANCH  20  21
ENDBRANCH  19  20
ENDBRANCH  11  19
ENDBRANCH   7  11
BRANCH   6  23
ATOM     23  N   UNL     1       4.254  -3.615  -8.479  1.00  0.00    -0.331 N 
ATOM     24  H   UNL     1       5.129  -3.920  -8.905  1.00  0.00     0.347 HD
ATOM     25  H   UNL     1       3.595  -3.159  -9.109  1.00  0.00     0.347 HD
BRANCH  23  26
ATOM     26  C   UNL     1       3.554  -4.812  -8.013  1.00  0.00     0.183 C 
ATOM     27  C   UNL     1       2.080  -4.939  -8.274  1.00  0.00     0.071 C 
ATOM     28  C   UNL     1       3.050  -5.790  -9.037  1.00  0.00     0.071 C 
ENDBRANCH  23  26
ENDBRANCH   6  23
ENDBRANCH   3   6
ENDBRANCH   1   2
BRANCH   1  29
ATOM     29  C   UNL     1       2.551   0.649  -8.756  1.00  0.00     0.023 C 
BRANCH  29  30
ATOM     30  C   UNL     1       3.025   2.041  -9.186  1.00  0.00     0.023 C 
BRANCH  30  31
ATOM     31  C   UNL     1       2.827   2.367 -10.662  1.00  0.00     0.116 C 
BRANCH  31  32
ATOM     32  N   UNL     1       1.429   2.349 -11.069  1.00  0.00    -0.352 N 
ATOM     33  C   UNL     1       0.804   3.156 -11.992  1.00  0.00     0.251 C 
ATOM     34  H   UNL     1       0.860   1.677 -10.628  1.00  0.00     0.163 HD
ATOM     35  O   UNL     1      -0.412   3.097 -12.148  1.00  0.00    -0.269 OA
BRANCH  33  36
ATOM     36  C   UNL     1       1.612   4.122 -12.765  1.00  0.00     0.039 A 
ATOM     37  C   UNL     1       1.232   5.467 -12.782  1.00  0.00     0.014 A 
ATOM     38  C   UNL     1       2.768   3.704 -13.428  1.00  0.00     0.014 A 
ATOM     39  C   UNL     1       2.057   6.410 -13.402  1.00  0.00     0.010 A 
ATOM     40  C   UNL     1       3.614   4.651 -13.996  1.00  0.00     0.010 A 
ATOM     41  C   UNL     1       3.273   6.013 -13.979  1.00  0.00    -0.014 A 
BRANCH  41  42
ATOM     42  C   UNL     1       4.222   6.989 -14.575  1.00  0.00     0.031 A 
ATOM     43  C   UNL     1       4.531   6.914 -16.044  1.00  0.00     0.074 A 
ATOM     44  C   UNL     1       4.890   7.849 -13.780  1.00  0.00     0.049 A 
ATOM     45  N   UNL     1       5.476   7.513 -16.720  1.00  0.00    -0.248 NA
ATOM     46  C   UNL     1       3.685   6.021 -16.854  1.00  0.00     0.031 C 
ATOM     47  C   UNL     1       4.701   7.995 -12.335  1.00  0.00     0.029 A 
ATOM     48  N   UNL     1       5.893   8.742 -14.072  1.00  0.00    -0.354 N 
ATOM     49  C   UNL     1       5.369   7.036 -18.021  1.00  0.00     0.074 A 
ATOM     50  C   UNL     1       4.276   6.089 -18.039  1.00  0.00     0.031 C 
ATOM     51  C   UNL     1       5.561   8.915 -11.868  1.00  0.00     0.029 A 
ATOM     52  C   UNL     1       6.393   9.392 -12.968  1.00  0.00     0.049 A 
ATOM     53  H   UNL     1       6.222   8.901 -14.986  1.00  0.00     0.167 HD
ATOM     54  C   UNL     1       6.112   7.367 -19.102  1.00  0.00     0.037 A 
ATOM     55  C   UNL     1       7.424  10.252 -12.852  1.00  0.00     0.037 A 
ATOM     56  C   UNL     1       7.157   8.356 -19.091  1.00  0.00     0.049 A 
ATOM     57  C   UNL     1       8.216  10.623 -14.079  1.00  0.00     0.074 A 
ATOM     58  C   UNL     1       7.912   8.818 -20.154  1.00  0.00     0.029 A 
ATOM     59  N   UNL     1       7.584   9.042 -17.965  1.00  0.00    -0.354 N 
ATOM     60  N   UNL     1       8.067  10.201 -15.311  1.00  0.00    -0.248 NA
ATOM     61  C   UNL     1       9.315  11.584 -13.902  1.00  0.00     0.031 C 
ATOM     62  C   UNL     1       8.818   9.764 -19.667  1.00  0.00     0.029 A 
ATOM     63  C   UNL     1       8.600   9.917 -18.307  1.00  0.00     0.049 A 
ATOM     64  H   UNL     1       7.220   8.924 -17.058  1.00  0.00     0.167 HD
ATOM     65  C   UNL     1       9.026  10.875 -16.061  1.00  0.00     0.074 A 
ATOM     66  C   UNL     1       9.753  11.728 -15.145  1.00  0.00     0.031 C 
ATOM     67  C   UNL     1       9.280  10.794 -17.388  1.00  0.00     0.037 A 
BRANCH  54  68
ATOM     68  C   UNL     1       5.829   6.664 -20.398  1.00  0.00     0.058 A 
ATOM     69  C   UNL     1       4.698   6.970 -21.170  1.00  0.00     0.135 A 
ATOM     70  C   UNL     1       6.743   5.730 -20.912  1.00  0.00     0.135 A 
ATOM     71  F   UNL     1       3.786   7.844 -20.715  1.00  0.00    -0.206 F 
ATOM     72  C   UNL     1       4.479   6.370 -22.404  1.00  0.00     0.059 A 
ATOM     73  C   UNL     1       6.555   5.133 -22.155  1.00  0.00     0.059 A 
ATOM     74  F   UNL     1       7.839   5.400 -20.210  1.00  0.00    -0.206 F 
ATOM     75  C   UNL     1       5.416   5.455 -22.891  1.00  0.00     0.060 A 
BRANCH  75  76
ATOM     76  S   UNL     1       5.139   4.716 -24.514  1.00  0.00     0.124 S 
ATOM     77  O   UNL     1       4.085   3.751 -24.218  1.00  0.00    -0.237 OA
ATOM     78  O   UNL     1       4.736   5.866 -25.318  1.00  0.00    -0.237 OA
ATOM     79  O   UNL     1       6.438   4.143 -24.853  1.00  0.00    -0.744 OA
ENDBRANCH  75  76
ENDBRANCH  54  68
BRANCH  55  80
ATOM     80  C   UNL     1       7.783  10.826 -11.527  1.00  0.00     0.058 A 
ATOM     81  C   UNL     1       7.558  12.182 -11.247  1.00  0.00     0.135 A 
ATOM     82  C   UNL     1       8.384  10.043 -10.530  1.00  0.00     0.135 A 
ATOM     83  F   UNL     1       6.991  12.972 -12.172  1.00  0.00    -0.206 F 
ATOM     84  C   UNL     1       7.947  12.752 -10.040  1.00  0.00     0.059 A 
ATOM     85  C   UNL     1       8.760  10.585  -9.304  1.00  0.00     0.059 A 
ATOM     86  F   UNL     1       8.603   8.736 -10.740  1.00  0.00    -0.206 F 
ATOM     87  C   UNL     1       8.555  11.946  -9.076  1.00  0.00     0.060 A 
BRANCH  87  88
ATOM     88  S   UNL     1       9.052  12.689  -7.507  1.00  0.00     0.124 S 
ATOM     89  O   UNL     1      10.283  13.372  -7.886  1.00  0.00    -0.237 OA
ATOM     90  O   UNL     1       7.915  13.548  -7.195  1.00  0.00    -0.237 OA
ATOM     91  O   UNL     1       9.213  11.534  -6.629  1.00  0.00    -0.744 OA
ENDBRANCH  87  88
ENDBRANCH  55  80
BRANCH  67  92
ATOM     92  C   UNL     1      10.335  11.695 -17.959  1.00  0.00     0.058 A 
ATOM     93  C   UNL     1      11.701  11.410 -17.821  1.00  0.00     0.135 A 
ATOM     94  C   UNL     1       9.966  12.797 -18.747  1.00  0.00     0.135 A 
ATOM     95  F   UNL     1      12.102  10.371 -17.071  1.00  0.00    -0.206 F 
ATOM     96  C   UNL     1      12.668  12.186 -18.450  1.00  0.00     0.059 A 
ATOM     97  C   UNL     1      10.916  13.575 -19.401  1.00  0.00     0.059 A 
ATOM     98  F   UNL     1       8.670  13.105 -18.914  1.00  0.00    -0.206 F 
ATOM     99  C   UNL     1      12.265  13.261 -19.245  1.00  0.00     0.060 A 
BRANCH  99 100
ATOM    100  S   UNL     1      13.524  14.210 -20.126  1.00  0.00     0.124 S 
ATOM    101  O   UNL     1      14.079  15.029 -19.054  1.00  0.00    -0.237 OA
ATOM    102  O   UNL     1      14.402  13.164 -20.643  1.00  0.00    -0.237 OA
ATOM    103  O   UNL     1      12.758  14.932 -21.138  1.00  0.00    -0.744 OA
ENDBRANCH  99 100
ENDBRANCH  67  92
ENDBRANCH  41  42
ENDBRANCH  33  36
ENDBRANCH  31  32
ENDBRANCH  30  31
ENDBRANCH  29  30
ENDBRANCH   1  29
TORSDOF 18
