REMARK SMILES CCC[C@@H]1CCc2nc3c(F)cccc3c(C(=O)NCCCCNC(=O)c3ccc(-c4c5nc(c(-c6c(F)cc(S(=O)(=O)[O-])cc6F)c6ccc([nH]6)c(-c6c(F)cc(S(=O)(=O)[O-])cc6F)c6nc(c(-c7c(F)cc(S(=O)(=O)[O-])cc7F)c7ccc4[nH]7)C=C6)C=C5)cc3)c2C1
REMARK SMILES IDX 22 1 21 2 20 3 19 4 17 5 18 6 16 8 4 9 5 10 94 11 6 12 93 13
REMARK SMILES IDX 7 14 8 15 15 16 9 17 14 18 10 19 13 20 11 21 12 22 3 23 2 24
REMARK SMILES IDX 1 25 23 26 24 27 25 28 26 30 27 31 28 32 92 33 29 34 91 35
REMARK SMILES IDX 30 36 31 37 32 38 85 39 33 40 90 41 84 42 86 43 34 44 89 45
REMARK SMILES IDX 83 46 82 47 35 49 69 50 48 51 68 52 49 53 52 54 67 55 87 56
REMARK SMILES IDX 50 57 51 58 66 60 88 61 53 62 36 63 37 64 46 65 38 66 39 67
REMARK SMILES IDX 45 68 47 69 40 70 41 71 42 72 43 73 44 74 70 75 71 76 80 77
REMARK SMILES IDX 72 78 73 79 79 80 81 81 74 82 75 83 76 84 77 85 78 86 54 87
REMARK SMILES IDX 55 88 64 89 56 90 57 91 63 92 65 93 58 94 59 95 60 96 61 97
REMARK SMILES IDX 62 98
REMARK H PARENT 19 7 24 29 86 48 52 59
REMARK Flexibility Score: inf
ROOT
ATOM      1  C   UNL     1      -0.736   5.041   5.233  1.00  0.00     0.023 C 
ENDROOT
BRANCH   1   2
ATOM      2  C   UNL     1      -1.164   3.627   5.604  1.00  0.00     0.023 C 
BRANCH   2   3
ATOM      3  C   UNL     1      -1.985   2.886   4.536  1.00  0.00     0.116 C 
BRANCH   3   4
ATOM      4  N   UNL     1      -1.077   2.258   3.594  1.00  0.00    -0.352 N 
ATOM      5  C   UNL     1      -0.310   1.121   3.739  1.00  0.00     0.252 C 
ATOM      6  O   UNL     1       0.837   1.179   3.299  1.00  0.00    -0.269 OA
ATOM      7  H   UNL     1      -0.998   2.710   2.722  1.00  0.00     0.163 HD
BRANCH   5   8
ATOM      8  C   UNL     1      -0.868  -0.191   4.221  1.00  0.00     0.054 A 
ATOM      9  C   UNL     1       0.455  -2.634   1.482  1.00  0.00    -0.006 C 
ATOM     10  C   UNL     1      -0.754  -3.571   1.523  1.00  0.00     0.010 C 
ATOM     11  C   UNL     1       0.077  -1.267   2.078  1.00  0.00     0.042 C 
ATOM     12  C   UNL     1      -1.192  -3.770   2.970  1.00  0.00     0.057 C 
ATOM     13  C   UNL     1      -0.719  -1.312   3.366  1.00  0.00    -0.013 A 
ATOM     14  C   UNL     1      -1.390  -2.480   3.719  1.00  0.00     0.045 A 
ATOM     15  N   UNL     1      -2.191  -2.568   4.802  1.00  0.00    -0.249 NA
ATOM     16  C   UNL     1      -1.523  -0.359   5.472  1.00  0.00     0.016 A 
ATOM     17  C   UNL     1      -2.257  -1.542   5.665  1.00  0.00     0.107 A 
ATOM     18  C   UNL     1      -1.448   0.536   6.565  1.00  0.00     0.011 A 
ATOM     19  C   UNL     1      -3.046  -1.659   6.814  1.00  0.00     0.149 A 
ATOM     20  C   UNL     1      -2.239   0.404   7.705  1.00  0.00     0.004 A 
ATOM     21  F   UNL     1      -3.804  -2.754   6.995  1.00  0.00    -0.205 F 
ATOM     22  C   UNL     1      -3.076  -0.688   7.811  1.00  0.00     0.041 A 
BRANCH   9  23
ATOM     23  C   UNL     1       1.104  -2.575   0.079  1.00  0.00     0.003 C 
BRANCH  23  24
ATOM     24  C   UNL     1       0.606  -1.506  -0.899  1.00  0.00    -0.003 C 
ATOM     25  C   UNL     1       1.354  -0.181  -0.774  1.00  0.00     0.004 C 
ENDBRANCH  23  24
ENDBRANCH   9  23
ENDBRANCH   5   8
ENDBRANCH   3   4
ENDBRANCH   2   3
ENDBRANCH   1   2
BRANCH   1  26
ATOM     26  C   UNL     1      -1.879   6.032   5.114  1.00  0.00     0.116 C 
BRANCH  26  27
ATOM     27  N   UNL     1      -2.711   6.083   6.310  1.00  0.00    -0.352 N 
ATOM     28  C   UNL     1      -3.133   7.191   7.001  1.00  0.00     0.251 C 
ATOM     29  H   UNL     1      -3.007   5.215   6.666  1.00  0.00     0.163 HD
ATOM     30  O   UNL     1      -3.725   7.080   8.069  1.00  0.00    -0.269 OA
BRANCH  28  31
ATOM     31  C   UNL     1      -2.834   8.515   6.433  1.00  0.00     0.039 A 
ATOM     32  C   UNL     1      -2.143   9.451   7.205  1.00  0.00     0.014 A 
ATOM     33  C   UNL     1      -3.169   8.780   5.101  1.00  0.00     0.014 A 
ATOM     34  C   UNL     1      -1.737  10.647   6.617  1.00  0.00     0.010 A 
ATOM     35  C   UNL     1      -2.702   9.938   4.501  1.00  0.00     0.010 A 
ATOM     36  C   UNL     1      -1.998  10.885   5.259  1.00  0.00    -0.014 A 
BRANCH  36  37
ATOM     37  C   UNL     1      -1.640  12.167   4.617  1.00  0.00     0.031 A 
ATOM     38  C   UNL     1      -2.749  13.094   4.210  1.00  0.00     0.074 A 
ATOM     39  C   UNL     1      -0.355  12.459   4.345  1.00  0.00     0.049 A 
ATOM     40  N   UNL     1      -2.692  14.199   3.517  1.00  0.00    -0.248 NA
ATOM     41  C   UNL     1      -4.112  12.702   4.611  1.00  0.00     0.031 C 
ATOM     42  C   UNL     1       0.797  11.619   4.679  1.00  0.00     0.029 A 
ATOM     43  N   UNL     1       0.195  13.543   3.712  1.00  0.00    -0.354 N 
ATOM     44  C   UNL     1      -4.007  14.626   3.390  1.00  0.00     0.074 A 
ATOM     45  C   UNL     1      -4.845  13.633   4.023  1.00  0.00     0.031 C 
ATOM     46  C   UNL     1       1.920  12.230   4.261  1.00  0.00     0.029 A 
ATOM     47  C   UNL     1       1.563  13.484   3.603  1.00  0.00     0.049 A 
ATOM     48  H   UNL     1      -0.341  14.294   3.368  1.00  0.00     0.167 HD
ATOM     49  C   UNL     1      -4.472  15.761   2.821  1.00  0.00     0.037 A 
ATOM     50  C   UNL     1       2.424  14.347   3.030  1.00  0.00     0.037 A 
ATOM     51  C   UNL     1      -3.628  16.755   2.218  1.00  0.00     0.049 A 
ATOM     52  C   UNL     1       1.881  15.597   2.391  1.00  0.00     0.074 A 
ATOM     53  C   UNL     1      -3.988  17.955   1.633  1.00  0.00     0.029 A 
ATOM     54  N   UNL     1      -2.245  16.666   2.135  1.00  0.00    -0.354 N 
ATOM     55  N   UNL     1       0.635  15.996   2.286  1.00  0.00    -0.248 NA
ATOM     56  C   UNL     1       2.860  16.514   1.792  1.00  0.00     0.031 C 
ATOM     57  C   UNL     1      -2.824  18.582   1.175  1.00  0.00     0.029 A 
ATOM     58  C   UNL     1      -1.736  17.787   1.504  1.00  0.00     0.049 A 
ATOM     59  H   UNL     1      -1.706  15.915   2.475  1.00  0.00     0.167 HD
ATOM     60  C   UNL     1       0.681  17.218   1.625  1.00  0.00     0.074 A 
ATOM     61  C   UNL     1       2.080  17.499   1.369  1.00  0.00     0.031 C 
ATOM     62  C   UNL     1      -0.338  18.036   1.262  1.00  0.00     0.037 A 
BRANCH  49  63
ATOM     63  C   UNL     1      -5.957  15.981   2.844  1.00  0.00     0.058 A 
ATOM     64  C   UNL     1      -6.629  16.294   4.037  1.00  0.00     0.135 A 
ATOM     65  C   UNL     1      -6.718  15.873   1.671  1.00  0.00     0.135 A 
ATOM     66  F   UNL     1      -5.950  16.381   5.193  1.00  0.00    -0.206 F 
ATOM     67  C   UNL     1      -8.008  16.465   4.071  1.00  0.00     0.059 A 
ATOM     68  C   UNL     1      -8.097  16.065   1.677  1.00  0.00     0.059 A 
ATOM     69  F   UNL     1      -6.126  15.564   0.506  1.00  0.00    -0.206 F 
ATOM     70  C   UNL     1      -8.734  16.347   2.885  1.00  0.00     0.060 A 
BRANCH  70  71
ATOM     71  S   UNL     1     -10.524  16.572   2.947  1.00  0.00     0.124 S 
ATOM     72  O   UNL     1     -10.950  15.334   3.592  1.00  0.00    -0.237 OA
ATOM     73  O   UNL     1     -10.658  17.784   3.748  1.00  0.00    -0.237 OA
ATOM     74  O   UNL     1     -10.897  16.708   1.542  1.00  0.00    -0.744 OA
ENDBRANCH  70  71
ENDBRANCH  49  63
BRANCH  50  75
ATOM     75  C   UNL     1       3.884  14.076   3.063  1.00  0.00     0.058 A 
ATOM     76  C   UNL     1       4.730  14.820   3.899  1.00  0.00     0.135 A 
ATOM     77  C   UNL     1       4.462  13.068   2.277  1.00  0.00     0.135 A 
ATOM     78  F   UNL     1       4.223  15.800   4.663  1.00  0.00    -0.206 F 
ATOM     79  C   UNL     1       6.099  14.583   3.949  1.00  0.00     0.059 A 
ATOM     80  C   UNL     1       5.827  12.799   2.323  1.00  0.00     0.059 A 
ATOM     81  F   UNL     1       3.694  12.320   1.471  1.00  0.00    -0.206 F 
ATOM     82  C   UNL     1       6.639  13.567   3.158  1.00  0.00     0.060 A 
BRANCH  82  83
ATOM     83  S   UNL     1       8.411  13.233   3.272  1.00  0.00     0.124 S 
ATOM     84  O   UNL     1       8.973  14.386   2.579  1.00  0.00    -0.237 OA
ATOM     85  O   UNL     1       8.621  13.191   4.716  1.00  0.00    -0.237 OA
ATOM     86  O   UNL     1       8.555  11.952   2.588  1.00  0.00    -0.744 OA
ENDBRANCH  82  83
ENDBRANCH  50  75
BRANCH  62  87
ATOM     87  C   UNL     1       0.027  19.314   0.564  1.00  0.00     0.058 A 
ATOM     88  C   UNL     1       0.434  19.324  -0.778  1.00  0.00     0.135 A 
ATOM     89  C   UNL     1      -0.077  20.544   1.232  1.00  0.00     0.135 A 
ATOM     90  F   UNL     1       0.553  18.171  -1.457  1.00  0.00    -0.206 F 
ATOM     91  C   UNL     1       0.750  20.510  -1.430  1.00  0.00     0.059 A 
ATOM     92  C   UNL     1       0.211  21.745   0.593  1.00  0.00     0.059 A 
ATOM     93  F   UNL     1      -0.474  20.587   2.513  1.00  0.00    -0.206 F 
ATOM     94  C   UNL     1       0.636  21.716  -0.735  1.00  0.00     0.060 A 
BRANCH  94  95
ATOM     95  S   UNL     1       1.027  23.252  -1.599  1.00  0.00     0.124 S 
ATOM     96  O   UNL     1       2.485  23.209  -1.627  1.00  0.00    -0.237 OA
ATOM     97  O   UNL     1       0.362  23.067  -2.885  1.00  0.00    -0.237 OA
ATOM     98  O   UNL     1       0.444  24.280  -0.742  1.00  0.00    -0.744 OA
ENDBRANCH  94  95
ENDBRANCH  62  87
ENDBRANCH  36  37
ENDBRANCH  28  31
ENDBRANCH  26  27
ENDBRANCH   1  26
TORSDOF 16
