REMARK SMILES Cc1ccccc1[C@@H]1[NH2+][C@@H](C(=O)NCCCCNC(=O)c2ccc(-c3c4nc(c(-c5c(F)cc(S(=O)(=O)[O-])cc5F)c5ccc([nH]5)c(-c5c(F)cc(S(=O)(=O)[O-])cc5F)c5nc(c(-c6c(F)cc(S(=O)(=O)[O-])cc6F)c6ccc3[nH]6)C=C5)C=C4)cc2)CC2=c3ccccc3=N[C@@H]21
REMARK SMILES IDX 16 1 15 2 14 3 13 4 11 5 12 6 10 8 8 9 9 10 96 11 88 14
REMARK SMILES IDX 95 15 87 16 89 17 94 18 90 19 93 20 91 21 92 22 7 23 1 24
REMARK SMILES IDX 2 25 3 26 4 27 6 28 5 29 17 30 18 31 19 32 20 34 21 35 22 36
REMARK SMILES IDX 86 37 23 38 85 39 24 40 25 41 26 42 79 43 27 44 84 45 78 46
REMARK SMILES IDX 80 47 28 48 83 49 77 50 76 51 29 53 63 54 42 55 62 56 43 57
REMARK SMILES IDX 46 58 61 59 81 60 44 61 45 62 60 64 82 65 47 66 30 67 31 68
REMARK SMILES IDX 40 69 32 70 33 71 39 72 41 73 34 74 35 75 36 76 37 77 38 78
REMARK SMILES IDX 64 79 65 80 74 81 66 82 67 83 73 84 75 85 68 86 69 87 70 88
REMARK SMILES IDX 71 89 72 90 48 91 49 92 58 93 50 94 51 95 57 96 59 97 52 98
REMARK SMILES IDX 53 99 54 100 55 101 56 102
REMARK H PARENT 13 7 9 12 9 13 18 33 80 52 46 63
REMARK Flexibility Score: inf
ROOT
ATOM      1  C   UNL     1       4.069   2.236  -1.068  1.00  0.00     0.023 C 
ENDROOT
BRANCH   1   2
ATOM      2  C   UNL     1       3.310   3.691  -0.446  1.00  0.00     0.023 C 
BRANCH   2   3
ATOM      3  C   UNL     1       2.808   5.151  -1.007  1.00  0.00     0.116 C 
BRANCH   3   4
ATOM      4  N   UNL     1       1.538   5.884  -0.639  1.00  0.00    -0.351 N 
ATOM      5  C   UNL     1       0.930   6.152   0.594  1.00  0.00     0.278 C 
ATOM      6  O   UNL     1       0.237   7.142   0.796  1.00  0.00    -0.268 OA
ATOM      7  H   UNL     1       1.045   6.242  -1.412  1.00  0.00     0.163 HD
BRANCH   5   8
ATOM      8  C   UNL     1       0.992   4.940   1.493  1.00  0.00     0.277 C 
ATOM      9  C   UNL     1       0.309   2.592   1.151  1.00  0.00     0.243 C 
ATOM     10  N   UNL     1      -0.035   4.030   0.991  1.00  0.00    -0.327 N 
ATOM     11  C   UNL     1       1.459   2.271   2.311  1.00  0.00     0.196 C 
ATOM     12  H   UNL     1      -0.902   4.212   1.497  1.00  0.00     0.347 HD
ATOM     13  H   UNL     1      -0.125   4.205  -0.010  1.00  0.00     0.347 HD
ATOM     14  C   UNL     1       1.913   3.543   3.081  1.00  0.00    -0.024 C 
ATOM     15  N   UNL     1       2.758   1.645   1.889  1.00  0.00    -0.270 NA
ATOM     16  C   UNL     1       1.019   4.778   2.998  1.00  0.00     0.109 C 
ATOM     17  C   UNL     1       3.251   3.635   3.122  1.00  0.00     0.002 A 
ATOM     18  C   UNL     1       3.681   2.426   2.387  1.00  0.00     0.066 A 
ATOM     19  C   UNL     1       4.114   4.790   3.207  1.00  0.00     0.010 A 
ATOM     20  C   UNL     1       5.153   2.337   2.136  1.00  0.00     0.028 A 
ATOM     21  C   UNL     1       5.371   4.708   2.738  1.00  0.00     0.001 A 
ATOM     22  C   UNL     1       5.906   3.449   2.252  1.00  0.00     0.002 A 
BRANCH   9  23
ATOM     23  C   UNL     1      -0.062   1.938  -0.236  1.00  0.00     0.015 A 
ATOM     24  C   UNL     1      -2.004   0.579   0.731  1.00  0.00     0.045 C 
ATOM     25  C   UNL     1      -1.263   1.208  -0.411  1.00  0.00    -0.042 A 
ATOM     26  C   UNL     1      -1.917   1.168  -1.676  1.00  0.00     0.004 A 
ATOM     27  C   UNL     1      -1.401   1.810  -2.795  1.00  0.00     0.000 A 
ATOM     28  C   UNL     1       0.464   2.479  -1.436  1.00  0.00     0.010 A 
ATOM     29  C   UNL     1      -0.187   2.445  -2.679  1.00  0.00     0.001 A 
ENDBRANCH   9  23
ENDBRANCH   5   8
ENDBRANCH   3   4
ENDBRANCH   2   3
ENDBRANCH   1   2
BRANCH   1  30
ATOM     30  C   UNL     1       4.538   1.853  -2.574  1.00  0.00     0.116 C 
BRANCH  30  31
ATOM     31  N   UNL     1       5.970   1.627  -3.278  1.00  0.00    -0.352 N 
ATOM     32  C   UNL     1       6.699   1.748  -4.618  1.00  0.00     0.251 C 
ATOM     33  H   UNL     1       6.603   1.290  -2.603  1.00  0.00     0.163 HD
ATOM     34  O   UNL     1       7.744   1.065  -4.619  1.00  0.00    -0.269 OA
BRANCH  32  35
ATOM     35  C   UNL     1       6.631   2.766  -5.949  1.00  0.00     0.039 A 
ATOM     36  C   UNL     1       7.649   3.721  -6.237  1.00  0.00     0.014 A 
ATOM     37  C   UNL     1       5.614   2.921  -6.867  1.00  0.00     0.014 A 
ATOM     38  C   UNL     1       7.278   5.073  -6.601  1.00  0.00     0.010 A 
ATOM     39  C   UNL     1       5.237   4.246  -7.259  1.00  0.00     0.010 A 
ATOM     40  C   UNL     1       5.936   5.370  -6.801  1.00  0.00    -0.014 A 
BRANCH  40  41
ATOM     41  C   UNL     1       5.255   6.708  -6.485  1.00  0.00     0.031 A 
ATOM     42  C   UNL     1       4.710   7.441  -7.609  1.00  0.00     0.074 A 
ATOM     43  C   UNL     1       4.883   7.341  -5.317  1.00  0.00     0.049 A 
ATOM     44  N   UNL     1       5.207   8.535  -8.075  1.00  0.00    -0.248 NA
ATOM     45  C   UNL     1       3.490   6.971  -8.249  1.00  0.00     0.031 C 
ATOM     46  C   UNL     1       4.278   8.671  -5.045  1.00  0.00     0.029 A 
ATOM     47  N   UNL     1       5.017   6.923  -4.006  1.00  0.00    -0.354 N 
ATOM     48  C   UNL     1       4.217   9.039  -8.885  1.00  0.00     0.074 A 
ATOM     49  C   UNL     1       3.314   7.933  -9.155  1.00  0.00     0.031 C 
ATOM     50  C   UNL     1       4.595   9.056  -3.782  1.00  0.00     0.029 A 
ATOM     51  C   UNL     1       5.386   7.995  -3.198  1.00  0.00     0.049 A 
ATOM     52  H   UNL     1       4.873   6.002  -3.690  1.00  0.00     0.167 HD
ATOM     53  C   UNL     1       3.989  10.380  -8.978  1.00  0.00     0.037 A 
ATOM     54  C   UNL     1       6.665   8.015  -2.710  1.00  0.00     0.037 A 
ATOM     55  C   UNL     1       4.648  11.110  -7.883  1.00  0.00     0.049 A 
ATOM     56  C   UNL     1       7.467   9.103  -3.367  1.00  0.00     0.074 A 
ATOM     57  C   UNL     1       4.138  11.714  -6.741  1.00  0.00     0.029 A 
ATOM     58  N   UNL     1       6.021  11.002  -7.671  1.00  0.00    -0.354 N 
ATOM     59  N   UNL     1       7.043   9.739  -4.418  1.00  0.00    -0.248 NA
ATOM     60  C   UNL     1       8.778   9.568  -2.930  1.00  0.00     0.031 C 
ATOM     61  C   UNL     1       5.199  11.912  -5.823  1.00  0.00     0.029 A 
ATOM     62  C   UNL     1       6.365  11.444  -6.404  1.00  0.00     0.049 A 
ATOM     63  H   UNL     1       6.662  10.657  -8.334  1.00  0.00     0.167 HD
ATOM     64  C   UNL     1       7.965  10.653  -4.822  1.00  0.00     0.074 A 
ATOM     65  C   UNL     1       9.026  10.531  -3.838  1.00  0.00     0.031 C 
ATOM     66  C   UNL     1       7.750  11.409  -5.937  1.00  0.00     0.037 A 
BRANCH  53  67
ATOM     67  C   UNL     1       2.865  10.930  -9.832  1.00  0.00     0.058 A 
ATOM     68  C   UNL     1       2.265  12.177  -9.578  1.00  0.00     0.135 A 
ATOM     69  C   UNL     1       2.373  10.262 -10.978  1.00  0.00     0.135 A 
ATOM     70  F   UNL     1       2.713  12.991  -8.614  1.00  0.00    -0.206 F 
ATOM     71  C   UNL     1       1.196  12.669 -10.332  1.00  0.00     0.059 A 
ATOM     72  C   UNL     1       1.261  10.694 -11.700  1.00  0.00     0.059 A 
ATOM     73  F   UNL     1       2.997   9.181 -11.473  1.00  0.00    -0.206 F 
ATOM     74  C   UNL     1       0.683  11.910 -11.376  1.00  0.00     0.060 A 
BRANCH  74  75
ATOM     75  S   UNL     1      -0.674  12.576 -12.355  1.00  0.00     0.124 S 
ATOM     76  O   UNL     1      -1.678  12.870 -11.337  1.00  0.00    -0.237 OA
ATOM     77  O   UNL     1      -0.048  13.734 -12.983  1.00  0.00    -0.237 OA
ATOM     78  O   UNL     1      -1.012  11.481 -13.261  1.00  0.00    -0.744 OA
ENDBRANCH  74  75
ENDBRANCH  53  67
BRANCH  54  79
ATOM     79  C   UNL     1       7.205   6.633  -2.395  1.00  0.00     0.058 A 
ATOM     80  C   UNL     1       6.405   5.875  -1.547  1.00  0.00     0.135 A 
ATOM     81  C   UNL     1       7.603   5.873  -3.470  1.00  0.00     0.135 A 
ATOM     82  F   UNL     1       6.277   6.201  -0.254  1.00  0.00    -0.206 F 
ATOM     83  C   UNL     1       5.561   4.871  -2.066  1.00  0.00     0.059 A 
ATOM     84  C   UNL     1       6.789   4.797  -3.901  1.00  0.00     0.059 A 
ATOM     85  F   UNL     1       8.816   6.047  -4.017  1.00  0.00    -0.206 F 
ATOM     86  C   UNL     1       5.540   4.527  -3.393  1.00  0.00     0.060 A 
BRANCH  86  87
ATOM     87  S   UNL     1       3.752   3.997  -4.449  1.00  0.00     0.124 S 
ATOM     88  O   UNL     1       2.733   3.880  -3.419  1.00  0.00    -0.237 OA
ATOM     89  O   UNL     1       3.426   5.083  -5.356  1.00  0.00    -0.237 OA
ATOM     90  O   UNL     1       3.991   2.693  -5.041  1.00  0.00    -0.744 OA
ENDBRANCH  86  87
ENDBRANCH  54  79
BRANCH  66  91
ATOM     91  C   UNL     1       8.778  12.268  -6.623  1.00  0.00     0.058 A 
ATOM     92  C   UNL     1      10.164  12.063  -6.532  1.00  0.00     0.135 A 
ATOM     93  C   UNL     1       8.369  13.286  -7.519  1.00  0.00     0.135 A 
ATOM     94  F   UNL     1      10.683  11.048  -5.829  1.00  0.00    -0.206 F 
ATOM     95  C   UNL     1      11.081  12.871  -7.202  1.00  0.00     0.059 A 
ATOM     96  C   UNL     1       9.264  14.055  -8.251  1.00  0.00     0.059 A 
ATOM     97  F   UNL     1       7.074  13.568  -7.725  1.00  0.00    -0.206 F 
ATOM     98  C   UNL     1      10.622  13.868  -8.055  1.00  0.00     0.060 A 
BRANCH  98  99
ATOM     99  S   UNL     1      11.809  14.893  -8.934  1.00  0.00     0.124 S 
ATOM    100  O   UNL     1      12.125  15.897  -7.923  1.00  0.00    -0.237 OA
ATOM    101  O   UNL     1      12.879  13.949  -9.242  1.00  0.00    -0.237 OA
ATOM    102  O   UNL     1      11.054  15.372 -10.087  1.00  0.00    -0.744 OA
ENDBRANCH  98  99
ENDBRANCH  66  91
ENDBRANCH  40  41
ENDBRANCH  32  35
ENDBRANCH  30  31
ENDBRANCH   1  30
TORSDOF 15
