REMARK SMILES CC[C@@](O)(C(=O)NCCCCNC(=O)c1ccc(-c2c3nc(c(-c4c(F)cc(S(=O)(=O)[O-])cc4F)c4ccc([nH]4)c(-c4c(F)cc(S(=O)(=O)[O-])cc4F)c4nc(c(-c5c(F)cc(S(=O)(=O)[O-])cc5F)c5ccc2[nH]5)C=C4)C=C3)cc1)[C@@H](C)c1ccc(OC)c(OC)c1
REMARK SMILES IDX 9 1 8 2 7 3 5 4 6 5 3 7 2 8 1 9 4 10 81 12 82 13 83 14 84 15
REMARK SMILES IDX 92 16 85 17 89 18 86 19 90 20 91 21 87 22 88 23 10 24 11 25
REMARK SMILES IDX 12 26 13 27 14 29 15 30 16 31 80 32 17 33 79 34 18 35 19 36
REMARK SMILES IDX 20 37 73 38 21 39 78 40 72 41 74 42 22 43 77 44 71 45 70 46
REMARK SMILES IDX 23 48 57 49 36 50 56 51 37 52 40 53 55 54 75 55 38 56 39 57
REMARK SMILES IDX 54 59 76 60 41 61 24 62 25 63 34 64 26 65 27 66 33 67 35 68
REMARK SMILES IDX 28 69 29 70 30 71 31 72 32 73 58 74 59 75 68 76 60 77 61 78
REMARK SMILES IDX 67 79 69 80 62 81 63 82 64 83 65 84 66 85 42 86 43 87 52 88
REMARK SMILES IDX 44 89 45 90 51 91 53 92 46 93 47 94 48 95 49 96 50 97
REMARK H PARENT 7 6 4 11 12 28 74 47 40 58
REMARK Flexibility Score: inf
ROOT
ATOM      1  C   UNL     1      -2.721  -2.411   1.273  1.00  0.00     0.023 C 
ENDROOT
BRANCH   1   2
ATOM      2  C   UNL     1      -1.934  -1.766   2.411  1.00  0.00     0.116 C 
BRANCH   2   3
ATOM      3  N   UNL     1      -0.819  -2.594   2.830  1.00  0.00    -0.354 N 
ATOM      4  C   UNL     1       0.533  -2.433   2.690  1.00  0.00     0.252 C 
ATOM      5  O   UNL     1       1.233  -3.292   3.233  1.00  0.00    -0.272 OA
ATOM      6  H   UNL     1      -1.082  -3.419   3.299  1.00  0.00     0.163 HD
BRANCH   4   7
ATOM      7  C   UNL     1       1.139  -1.223   1.898  1.00  0.00     0.149 C 
BRANCH   7   8
ATOM      8  C   UNL     1       0.674  -1.278   0.416  1.00  0.00     0.043 C 
ATOM      9  C   UNL     1       0.915  -0.043  -0.445  1.00  0.00     0.007 C 
ENDBRANCH   7   8
BRANCH   7  10
ATOM     10  O   UNL     1       0.564  -0.084   2.580  1.00  0.00    -0.379 OA
ATOM     11  H   UNL     1      -0.401  -0.102   2.483  1.00  0.00     0.212 HD
ENDBRANCH   7  10
BRANCH   7  12
ATOM     12  C   UNL     1       2.722  -1.175   2.068  1.00  0.00     0.058 C 
ATOM     13  C   UNL     1       3.410  -2.388   1.402  1.00  0.00     0.016 C 
BRANCH  12  14
ATOM     14  C   UNL     1       3.336   0.164   1.604  1.00  0.00    -0.038 A 
ATOM     15  C   UNL     1       4.286   0.270   0.584  1.00  0.00     0.008 A 
ATOM     16  C   UNL     1       2.873   1.364   2.171  1.00  0.00     0.054 A 
ATOM     17  C   UNL     1       4.634   1.521   0.066  1.00  0.00     0.051 A 
ATOM     18  C   UNL     1       3.124   2.616   1.593  1.00  0.00     0.160 A 
ATOM     19  C   UNL     1       4.021   2.695   0.522  1.00  0.00     0.160 A 
BRANCH  18  20
ATOM     20  O   UNL     1       2.522   3.753   2.067  1.00  0.00    -0.493 OA
ATOM     21  C   UNL     1       1.216   3.576   2.619  1.00  0.00     0.278 C 
ENDBRANCH  18  20
BRANCH  19  22
ATOM     22  O   UNL     1       4.413   3.805  -0.178  1.00  0.00    -0.493 OA
ATOM     23  C   UNL     1       3.574   4.949  -0.120  1.00  0.00     0.278 C 
ENDBRANCH  19  22
ENDBRANCH  12  14
ENDBRANCH   7  12
ENDBRANCH   4   7
ENDBRANCH   2   3
ENDBRANCH   1   2
BRANCH   1  24
ATOM     24  C   UNL     1      -3.521  -3.641   1.683  1.00  0.00     0.023 C 
BRANCH  24  25
ATOM     25  C   UNL     1      -4.503  -3.402   2.817  1.00  0.00     0.116 C 
BRANCH  25  26
ATOM     26  N   UNL     1      -5.452  -2.339   2.524  1.00  0.00    -0.352 N 
ATOM     27  C   UNL     1      -6.806  -2.313   2.756  1.00  0.00     0.251 C 
ATOM     28  H   UNL     1      -5.074  -1.532   2.105  1.00  0.00     0.163 HD
ATOM     29  O   UNL     1      -7.489  -1.404   2.305  1.00  0.00    -0.269 OA
BRANCH  27  30
ATOM     30  C   UNL     1      -7.422  -3.409   3.534  1.00  0.00     0.039 A 
ATOM     31  C   UNL     1      -8.615  -3.973   3.081  1.00  0.00     0.014 A 
ATOM     32  C   UNL     1      -6.810  -3.887   4.696  1.00  0.00     0.014 A 
ATOM     33  C   UNL     1      -9.177  -5.041   3.782  1.00  0.00     0.010 A 
ATOM     34  C   UNL     1      -7.316  -5.013   5.332  1.00  0.00     0.010 A 
ATOM     35  C   UNL     1      -8.523  -5.580   4.903  1.00  0.00    -0.014 A 
BRANCH  35  36
ATOM     36  C   UNL     1      -9.122  -6.695   5.677  1.00  0.00     0.031 A 
ATOM     37  C   UNL     1      -9.516  -6.476   7.115  1.00  0.00     0.074 A 
ATOM     38  C   UNL     1      -9.278  -7.904   5.105  1.00  0.00     0.049 A 
ATOM     39  N   UNL     1     -10.044  -7.317   7.965  1.00  0.00    -0.248 NA
ATOM     40  C   UNL     1      -9.253  -5.142   7.683  1.00  0.00     0.031 C 
ATOM     41  C   UNL     1      -8.886  -8.252   3.737  1.00  0.00     0.029 A 
ATOM     42  N   UNL     1      -9.812  -9.066   5.601  1.00  0.00    -0.354 N 
ATOM     43  C   UNL     1     -10.156  -6.624   9.165  1.00  0.00     0.074 A 
ATOM     44  C   UNL     1      -9.580  -5.316   8.954  1.00  0.00     0.031 C 
ATOM     45  C   UNL     1      -9.231  -9.526   3.491  1.00  0.00     0.029 A 
ATOM     46  C   UNL     1      -9.835 -10.097   4.691  1.00  0.00     0.049 A 
ATOM     47  H   UNL     1     -10.146  -9.154   6.523  1.00  0.00     0.167 HD
ATOM     48  C   UNL     1     -10.714  -7.029  10.330  1.00  0.00     0.037 A 
ATOM     49  C   UNL     1     -10.300 -11.355   4.811  1.00  0.00     0.037 A 
ATOM     50  C   UNL     1     -11.315  -8.323  10.520  1.00  0.00     0.049 A 
ATOM     51  C   UNL     1     -10.930 -11.779   6.112  1.00  0.00     0.074 A 
ATOM     52  C   UNL     1     -11.967  -8.813  11.637  1.00  0.00     0.029 A 
ATOM     53  N   UNL     1     -11.335  -9.333   9.569  1.00  0.00    -0.354 N 
ATOM     54  N   UNL     1     -11.093 -11.087   7.215  1.00  0.00    -0.248 NA
ATOM     55  C   UNL     1     -11.453 -13.149   6.178  1.00  0.00     0.031 C 
ATOM     56  C   UNL     1     -12.333 -10.139  11.381  1.00  0.00     0.029 A 
ATOM     57  C   UNL     1     -11.970 -10.452  10.081  1.00  0.00     0.049 A 
ATOM     58  H   UNL     1     -10.954  -9.264   8.664  1.00  0.00     0.167 HD
ATOM     59  C   UNL     1     -11.779 -11.924   8.091  1.00  0.00     0.074 A 
ATOM     60  C   UNL     1     -12.001 -13.169   7.385  1.00  0.00     0.031 C 
ATOM     61  C   UNL     1     -12.195 -11.680   9.359  1.00  0.00     0.037 A 
BRANCH  48  62
ATOM     62  C   UNL     1     -10.695  -6.064  11.486  1.00  0.00     0.058 A 
ATOM     63  C   UNL     1     -11.446  -4.876  11.477  1.00  0.00     0.135 A 
ATOM     64  C   UNL     1      -9.927  -6.340  12.629  1.00  0.00     0.135 A 
ATOM     65  F   UNL     1     -12.187  -4.551  10.405  1.00  0.00    -0.206 F 
ATOM     66  C   UNL     1     -11.404  -3.979  12.540  1.00  0.00     0.059 A 
ATOM     67  C   UNL     1      -9.897  -5.474  13.718  1.00  0.00     0.059 A 
ATOM     68  F   UNL     1      -9.188  -7.459  12.694  1.00  0.00    -0.206 F 
ATOM     69  C   UNL     1     -10.625  -4.287  13.656  1.00  0.00     0.060 A 
BRANCH  69  70
ATOM     70  S   UNL     1     -10.578  -3.111  15.024  1.00  0.00     0.124 S 
ATOM     71  O   UNL     1      -9.778  -2.032  14.453  1.00  0.00    -0.237 OA
ATOM     72  O   UNL     1     -11.992  -2.812  15.227  1.00  0.00    -0.237 OA
ATOM     73  O   UNL     1      -9.938  -3.864  16.099  1.00  0.00    -0.744 OA
ENDBRANCH  69  70
ENDBRANCH  48  62
BRANCH  49  74
ATOM     74  C   UNL     1     -10.238 -12.287   3.653  1.00  0.00     0.058 A 
ATOM     75  C   UNL     1     -11.406 -12.686   2.986  1.00  0.00     0.135 A 
ATOM     76  C   UNL     1      -9.015 -12.790   3.183  1.00  0.00     0.135 A 
ATOM     77  F   UNL     1     -12.601 -12.236   3.400  1.00  0.00    -0.206 F 
ATOM     78  C   UNL     1     -11.369 -13.567   1.910  1.00  0.00     0.059 A 
ATOM     79  C   UNL     1      -8.949 -13.650   2.091  1.00  0.00     0.059 A 
ATOM     80  F   UNL     1      -7.866 -12.425   3.773  1.00  0.00    -0.206 F 
ATOM     81  C   UNL     1     -10.133 -14.041   1.467  1.00  0.00     0.060 A 
BRANCH  81  82
ATOM     82  S   UNL     1     -10.094 -15.148   0.041  1.00  0.00     0.124 S 
ATOM     83  O   UNL     1     -10.651 -16.373   0.603  1.00  0.00    -0.237 OA
ATOM     84  O   UNL     1     -10.939 -14.442  -0.917  1.00  0.00    -0.237 OA
ATOM     85  O   UNL     1      -8.676 -15.200  -0.304  1.00  0.00    -0.744 OA
ENDBRANCH  81  82
ENDBRANCH  49  74
BRANCH  61  86
ATOM     86  C   UNL     1     -12.994 -12.756  10.044  1.00  0.00     0.058 A 
ATOM     87  C   UNL     1     -12.418 -13.967  10.458  1.00  0.00     0.135 A 
ATOM     88  C   UNL     1     -14.357 -12.552  10.319  1.00  0.00     0.135 A 
ATOM     89  F   UNL     1     -11.120 -14.215  10.220  1.00  0.00    -0.206 F 
ATOM     90  C   UNL     1     -13.174 -14.955  11.081  1.00  0.00     0.059 A 
ATOM     91  C   UNL     1     -15.123 -13.511  10.972  1.00  0.00     0.059 A 
ATOM     92  F   UNL     1     -14.956 -11.405   9.960  1.00  0.00    -0.206 F 
ATOM     93  C   UNL     1     -14.527 -14.718  11.332  1.00  0.00     0.060 A 
BRANCH  93  94
ATOM     94  S   UNL     1     -15.496 -16.004  12.146  1.00  0.00     0.124 S 
ATOM     95  O   UNL     1     -15.645 -16.983  11.073  1.00  0.00    -0.237 OA
ATOM     96  O   UNL     1     -14.626 -16.400  13.249  1.00  0.00    -0.237 OA
ATOM     97  O   UNL     1     -16.720 -15.312  12.538  1.00  0.00    -0.744 OA
ENDBRANCH  93  94
ENDBRANCH  61  86
ENDBRANCH  35  36
ENDBRANCH  27  30
ENDBRANCH  25  26
ENDBRANCH  24  25
ENDBRANCH   1  24
TORSDOF 20
