REMARK SMILES Nc1ccc(C(=O)NC[C@@H]2CC[C@@H](C(=O)NCCCCNC(=O)c3ccc(-c4c5nc(c(-c6c(F)cc(S(=O)(=O)[O-])cc6F)c6ccc([nH]6)c(-c6c(F)cc(S(=O)(=O)[O-])cc6F)c6nc(c(-c7c(F)cc(S(=O)(=O)[O-])cc7F)c7ccc4[nH]7)C=C6)C=C5)cc3)O2)cc1Cl
REMARK SMILES IDX 18 1 17 2 16 3 14 4 15 5 13 7 10 8 11 9 90 10 12 11 9 12
REMARK SMILES IDX 8 13 6 14 7 15 5 17 2 18 3 19 92 20 4 21 91 22 93 23 1 24
REMARK SMILES IDX 19 27 20 28 21 29 22 30 23 32 24 33 25 34 89 35 26 36 88 37
REMARK SMILES IDX 27 38 28 39 29 40 82 41 30 42 87 43 81 44 83 45 31 46 86 47
REMARK SMILES IDX 80 48 79 49 32 51 66 52 45 53 65 54 46 55 49 56 64 57 84 58
REMARK SMILES IDX 47 59 48 60 63 62 85 63 50 64 33 65 34 66 43 67 35 68 36 69
REMARK SMILES IDX 42 70 44 71 37 72 38 73 39 74 40 75 41 76 67 77 68 78 77 79
REMARK SMILES IDX 69 80 70 81 76 82 78 83 71 84 72 85 73 86 74 87 75 88 51 89
REMARK SMILES IDX 52 90 61 91 53 92 54 93 60 94 62 95 55 96 56 97 57 98 58 99
REMARK SMILES IDX 59 100
REMARK H PARENT 16 6 8 16 1 25 1 26 21 31 83 50 49 61
REMARK Flexibility Score: inf
ROOT
ATOM      1  C   UNL     1       4.465  -4.039  -2.679  1.00  0.00     0.023 C 
ENDROOT
BRANCH   1   2
ATOM      2  C   UNL     1       5.371  -2.886  -2.261  1.00  0.00     0.116 C 
BRANCH   2   3
ATOM      3  N   UNL     1       6.123  -2.339  -3.374  1.00  0.00    -0.354 N 
ATOM      4  C   UNL     1       6.196  -1.046  -3.809  1.00  0.00     0.249 C 
ATOM      5  O   UNL     1       6.934  -0.799  -4.765  1.00  0.00    -0.272 OA
ATOM      6  H   UNL     1       6.656  -2.990  -3.886  1.00  0.00     0.163 HD
BRANCH   4   7
ATOM      7  C   UNL     1       5.307   0.029  -3.153  1.00  0.00     0.207 C 
ATOM      8  C   UNL     1       5.769   1.355  -1.282  1.00  0.00     0.138 C 
ATOM      9  C   UNL     1       5.359   2.283  -2.411  1.00  0.00     0.037 C 
ATOM     10  O   UNL     1       5.370   0.047  -1.716  1.00  0.00    -0.363 OA
ATOM     11  C   UNL     1       5.677   1.436  -3.619  1.00  0.00     0.045 C 
BRANCH   8  12
ATOM     12  C   UNL     1       5.210   1.664   0.119  1.00  0.00     0.148 C 
BRANCH  12  13
ATOM     13  N   UNL     1       4.077   2.577   0.135  1.00  0.00    -0.349 N 
ATOM     14  C   UNL     1       2.719   2.473   0.058  1.00  0.00     0.251 C 
ATOM     15  O   UNL     1       2.112   3.550   0.052  1.00  0.00    -0.269 OA
ATOM     16  H   UNL     1       4.367   3.514   0.225  1.00  0.00     0.163 HD
BRANCH  14  17
ATOM     17  C   UNL     1       1.922   1.212  -0.003  1.00  0.00     0.041 A 
ATOM     18  C   UNL     1       0.173  -1.038  -0.056  1.00  0.00     0.050 A 
ATOM     19  C   UNL     1       1.561  -1.194  -0.101  1.00  0.00     0.028 A 
ATOM     20  C   UNL     1      -0.333   0.266   0.030  1.00  0.00     0.064 A 
ATOM     21  C   UNL     1       2.425  -0.085  -0.090  1.00  0.00     0.016 A 
ATOM     22  C   UNL     1       0.524   1.369   0.047  1.00  0.00     0.036 A 
ATOM     23  Cl  UNL     1      -2.039   0.548   0.110  1.00  0.00    -0.082 Cl
BRANCH  18  24
ATOM     24  N   UNL     1      -0.646  -2.157   0.015  1.00  0.00    -0.398 N 
ATOM     25  H   UNL     1      -0.256  -3.058  -0.049  1.00  0.00     0.156 HD
ATOM     26  H   UNL     1      -1.618  -2.049   0.130  1.00  0.00     0.156 HD
ENDBRANCH  18  24
ENDBRANCH  14  17
ENDBRANCH  12  13
ENDBRANCH   8  12
ENDBRANCH   4   7
ENDBRANCH   2   3
ENDBRANCH   1   2
BRANCH   1  27
ATOM     27  C   UNL     1       5.179  -5.249  -3.280  1.00  0.00     0.023 C 
BRANCH  27  28
ATOM     28  C   UNL     1       6.297  -5.842  -2.431  1.00  0.00     0.116 C 
BRANCH  28  29
ATOM     29  N   UNL     1       5.839  -6.303  -1.129  1.00  0.00    -0.352 N 
ATOM     30  C   UNL     1       6.006  -7.529  -0.526  1.00  0.00     0.251 C 
ATOM     31  H   UNL     1       5.336  -5.640  -0.603  1.00  0.00     0.163 HD
ATOM     32  O   UNL     1       5.422  -7.775   0.521  1.00  0.00    -0.269 OA
BRANCH  30  33
ATOM     33  C   UNL     1       6.864  -8.555  -1.162  1.00  0.00     0.039 A 
ATOM     34  C   UNL     1       6.396  -9.869  -1.245  1.00  0.00     0.014 A 
ATOM     35  C   UNL     1       8.117  -8.225  -1.683  1.00  0.00     0.014 A 
ATOM     36  C   UNL     1       7.151 -10.833  -1.919  1.00  0.00     0.010 A 
ATOM     37  C   UNL     1       8.831  -9.166  -2.421  1.00  0.00     0.010 A 
ATOM     38  C   UNL     1       8.355 -10.480  -2.549  1.00  0.00    -0.014 A 
BRANCH  38  39
ATOM     39  C   UNL     1       9.126 -11.464  -3.354  1.00  0.00     0.031 A 
ATOM     40  C   UNL     1      10.520 -11.854  -2.946  1.00  0.00     0.074 A 
ATOM     41  C   UNL     1       8.599 -11.950  -4.495  1.00  0.00     0.049 A 
ATOM     42  N   UNL     1      11.374 -12.633  -3.558  1.00  0.00    -0.248 NA
ATOM     43  C   UNL     1      11.032 -11.266  -1.698  1.00  0.00     0.031 C 
ATOM     44  C   UNL     1       7.280 -11.607  -5.031  1.00  0.00     0.029 A 
ATOM     45  N   UNL     1       9.114 -12.824  -5.420  1.00  0.00    -0.354 N 
ATOM     46  C   UNL     1      12.525 -12.621  -2.780  1.00  0.00     0.074 A 
ATOM     47  C   UNL     1      12.281 -11.708  -1.684  1.00  0.00     0.031 C 
ATOM     48  C   UNL     1       7.085 -12.273  -6.181  1.00  0.00     0.029 A 
ATOM     49  C   UNL     1       8.277 -13.060  -6.485  1.00  0.00     0.049 A 
ATOM     50  H   UNL     1      10.001 -13.243  -5.330  1.00  0.00     0.167 HD
ATOM     51  C   UNL     1      13.672 -13.323  -2.947  1.00  0.00     0.037 A 
ATOM     52  C   UNL     1       8.449 -13.814  -7.588  1.00  0.00     0.037 A 
ATOM     53  C   UNL     1      13.905 -14.238  -4.035  1.00  0.00     0.049 A 
ATOM     54  C   UNL     1       9.728 -14.586  -7.758  1.00  0.00     0.074 A 
ATOM     55  C   UNL     1      15.012 -15.037  -4.267  1.00  0.00     0.029 A 
ATOM     56  N   UNL     1      13.019 -14.473  -5.078  1.00  0.00    -0.354 N 
ATOM     57  N   UNL     1      10.782 -14.615  -6.977  1.00  0.00    -0.248 NA
ATOM     58  C   UNL     1       9.840 -15.436  -8.951  1.00  0.00     0.031 C 
ATOM     59  C   UNL     1      14.815 -15.719  -5.472  1.00  0.00     0.029 A 
ATOM     60  C   UNL     1      13.562 -15.388  -5.966  1.00  0.00     0.049 A 
ATOM     61  H   UNL     1      12.135 -14.052  -5.172  1.00  0.00     0.167 HD
ATOM     62  C   UNL     1      11.674 -15.501  -7.572  1.00  0.00     0.074 A 
ATOM     63  C   UNL     1      11.029 -15.996  -8.772  1.00  0.00     0.031 C 
ATOM     64  C   UNL     1      12.912 -15.872  -7.159  1.00  0.00     0.037 A 
BRANCH  51  65
ATOM     65  C   UNL     1      14.760 -13.121  -1.926  1.00  0.00     0.058 A 
ATOM     66  C   UNL     1      14.617 -13.562  -0.600  1.00  0.00     0.135 A 
ATOM     67  C   UNL     1      15.959 -12.478  -2.274  1.00  0.00     0.135 A 
ATOM     68  F   UNL     1      13.488 -14.172  -0.208  1.00  0.00    -0.206 F 
ATOM     69  C   UNL     1      15.600 -13.327   0.356  1.00  0.00     0.059 A 
ATOM     70  C   UNL     1      16.970 -12.261  -1.341  1.00  0.00     0.059 A 
ATOM     71  F   UNL     1      16.153 -12.040  -3.528  1.00  0.00    -0.206 F 
ATOM     72  C   UNL     1      16.771 -12.669  -0.023  1.00  0.00     0.060 A 
BRANCH  72  73
ATOM     73  S   UNL     1      18.022 -12.342   1.236  1.00  0.00     0.124 S 
ATOM     74  O   UNL     1      17.398 -11.258   1.990  1.00  0.00    -0.237 OA
ATOM     75  O   UNL     1      18.113 -13.624   1.928  1.00  0.00    -0.237 OA
ATOM     76  O   UNL     1      19.199 -11.969   0.458  1.00  0.00    -0.744 OA
ENDBRANCH  72  73
ENDBRANCH  51  65
BRANCH  52  77
ATOM     77  C   UNL     1       7.365 -13.885  -8.604  1.00  0.00     0.058 A 
ATOM     78  C   UNL     1       6.586 -15.041  -8.750  1.00  0.00     0.135 A 
ATOM     79  C   UNL     1       7.053 -12.780  -9.412  1.00  0.00     0.135 A 
ATOM     80  F   UNL     1       6.850 -16.126  -8.005  1.00  0.00    -0.206 F 
ATOM     81  C   UNL     1       5.536 -15.102  -9.660  1.00  0.00     0.059 A 
ATOM     82  C   UNL     1       5.994 -12.808 -10.312  1.00  0.00     0.059 A 
ATOM     83  F   UNL     1       7.759 -11.644  -9.298  1.00  0.00    -0.206 F 
ATOM     84  C   UNL     1       5.242 -13.976 -10.431  1.00  0.00     0.060 A 
BRANCH  84  85
ATOM     85  S   UNL     1       3.824 -14.039 -11.549  1.00  0.00     0.124 S 
ATOM     86  O   UNL     1       4.321 -14.909 -12.607  1.00  0.00    -0.237 OA
ATOM     87  O   UNL     1       2.785 -14.602 -10.692  1.00  0.00    -0.237 OA
ATOM     88  O   UNL     1       3.627 -12.640 -11.920  1.00  0.00    -0.744 OA
ENDBRANCH  84  85
ENDBRANCH  52  77
BRANCH  64  89
ATOM     89  C   UNL     1      13.648 -16.883  -7.996  1.00  0.00     0.058 A 
ATOM     90  C   UNL     1      14.194 -16.551  -9.245  1.00  0.00     0.135 A 
ATOM     91  C   UNL     1      13.856 -18.186  -7.515  1.00  0.00     0.135 A 
ATOM     92  F   UNL     1      14.018 -15.322  -9.756  1.00  0.00    -0.206 F 
ATOM     93  C   UNL     1      14.904 -17.482  -9.998  1.00  0.00     0.059 A 
ATOM     94  C   UNL     1      14.586 -19.124  -8.238  1.00  0.00     0.059 A 
ATOM     95  F   UNL     1      13.363 -18.553  -6.321  1.00  0.00    -0.206 F 
ATOM     96  C   UNL     1      15.097 -18.765  -9.484  1.00  0.00     0.060 A 
BRANCH  96  97
ATOM     97  S   UNL     1      16.052 -19.952 -10.454  1.00  0.00     0.124 S 
ATOM     98  O   UNL     1      15.110 -20.291 -11.515  1.00  0.00    -0.237 OA
ATOM     99  O   UNL     1      17.210 -19.162 -10.862  1.00  0.00    -0.237 OA
ATOM    100  O   UNL     1      16.335 -21.021  -9.501  1.00  0.00    -0.744 OA
ENDBRANCH  96  97
ENDBRANCH  64  89
ENDBRANCH  38  39
ENDBRANCH  30  33
ENDBRANCH  28  29
ENDBRANCH  27  28
ENDBRANCH   1  27
TORSDOF 18
