REMARK SMILES O=C(NCCCCNC(=O)[C@@H]1C=C[C@@H](Nc2ccc3ccccc3n2)C1)c1ccc(-c2c3nc(c(-c4c(F)cc(S(=O)(=O)[O-])cc4F)c4ccc([nH]4)c(-c4c(F)cc(S(=O)(=O)[O-])cc4F)c4nc(c(-c5c(F)cc(S(=O)(=O)[O-])cc5F)c5ccc2[nH]5)C=C4)C=C3)cc1
REMARK SMILES IDX 5 1 4 2 3 3 1 4 2 5 27 7 28 8 92 9 29 10 91 11 30 12 31 13
REMARK SMILES IDX 32 14 85 15 33 16 90 17 84 18 86 19 34 20 89 21 83 22 82 23
REMARK SMILES IDX 35 25 69 26 48 27 68 28 49 29 52 30 67 31 87 32 50 33 51 34
REMARK SMILES IDX 66 36 88 37 53 38 36 39 37 40 46 41 38 42 39 43 45 44 47 45
REMARK SMILES IDX 40 46 41 47 42 48 43 49 44 50 70 51 71 52 80 53 72 54 73 55
REMARK SMILES IDX 79 56 81 57 74 58 75 59 76 60 77 61 78 62 54 63 55 64 64 65
REMARK SMILES IDX 56 66 57 67 63 68 65 69 58 70 59 71 60 72 61 73 62 74 6 75
REMARK SMILES IDX 7 76 8 77 9 78 10 80 11 81 12 82 26 83 13 84 14 85 15 86
REMARK SMILES IDX 16 88 17 89 25 90 18 91 24 92 19 93 23 94 20 95 22 96 21 97
REMARK H PARENT 3 6 86 24 52 35 8 79 15 87
REMARK Flexibility Score: inf
ROOT
ATOM      1  C   UNL     1       2.418   6.700   2.384  1.00  0.00     0.023 C 
ENDROOT
BRANCH   1   2
ATOM      2  C   UNL     1       1.332   7.523   3.067  1.00  0.00     0.116 C 
BRANCH   2   3
ATOM      3  N   UNL     1       1.605   8.951   3.089  1.00  0.00    -0.352 N 
ATOM      4  O   UNL     1       1.043  11.140   3.067  1.00  0.00    -0.269 OA
ATOM      5  C   UNL     1       0.689   9.974   3.165  1.00  0.00     0.251 C 
ATOM      6  H   UNL     1       2.553   9.215   3.044  1.00  0.00     0.163 HD
BRANCH   5   7
ATOM      7  C   UNL     1      -0.737   9.625   3.329  1.00  0.00     0.039 A 
ATOM      8  C   UNL     1      -1.136   8.768   4.358  1.00  0.00     0.014 A 
ATOM      9  C   UNL     1      -1.668  10.133   2.420  1.00  0.00     0.014 A 
ATOM     10  C   UNL     1      -2.455   8.336   4.419  1.00  0.00     0.010 A 
ATOM     11  C   UNL     1      -3.006   9.748   2.522  1.00  0.00     0.010 A 
ATOM     12  C   UNL     1      -3.404   8.838   3.514  1.00  0.00    -0.014 A 
BRANCH  12  13
ATOM     13  C   UNL     1      -4.833   8.494   3.697  1.00  0.00     0.031 A 
ATOM     14  C   UNL     1      -5.569   7.652   2.696  1.00  0.00     0.074 A 
ATOM     15  C   UNL     1      -5.460   8.978   4.787  1.00  0.00     0.049 A 
ATOM     16  N   UNL     1      -6.829   7.302   2.692  1.00  0.00    -0.248 NA
ATOM     17  C   UNL     1      -4.801   7.141   1.549  1.00  0.00     0.031 C 
ATOM     18  C   UNL     1      -4.836   9.829   5.807  1.00  0.00     0.029 A 
ATOM     19  N   UNL     1      -6.751   8.836   5.221  1.00  0.00    -0.354 N 
ATOM     20  C   UNL     1      -7.015   6.553   1.537  1.00  0.00     0.074 A 
ATOM     21  C   UNL     1      -5.737   6.501   0.859  1.00  0.00     0.031 C 
ATOM     22  C   UNL     1      -5.741  10.123   6.750  1.00  0.00     0.029 A 
ATOM     23  C   UNL     1      -7.019   9.531   6.376  1.00  0.00     0.049 A 
ATOM     24  H   UNL     1      -7.422   8.290   4.751  1.00  0.00     0.167 HD
ATOM     25  C   UNL     1      -8.152   5.966   1.094  1.00  0.00     0.037 A 
ATOM     26  C   UNL     1      -8.175   9.707   7.041  1.00  0.00     0.037 A 
ATOM     27  C   UNL     1      -9.407   6.003   1.801  1.00  0.00     0.049 A 
ATOM     28  C   UNL     1      -9.420   9.059   6.513  1.00  0.00     0.074 A 
ATOM     29  C   UNL     1     -10.591   5.359   1.485  1.00  0.00     0.029 A 
ATOM     30  N   UNL     1      -9.646   6.733   2.957  1.00  0.00    -0.354 N 
ATOM     31  N   UNL     1      -9.561   8.296   5.455  1.00  0.00    -0.248 NA
ATOM     32  C   UNL     1     -10.663   9.303   7.255  1.00  0.00     0.031 C 
ATOM     33  C   UNL     1     -11.558   5.737   2.422  1.00  0.00     0.029 A 
ATOM     34  C   UNL     1     -10.968   6.587   3.343  1.00  0.00     0.049 A 
ATOM     35  H   UNL     1      -8.974   7.274   3.432  1.00  0.00     0.167 HD
ATOM     36  C   UNL     1     -10.910   7.974   5.401  1.00  0.00     0.074 A 
ATOM     37  C   UNL     1     -11.536   8.599   6.548  1.00  0.00     0.031 C 
ATOM     38  C   UNL     1     -11.572   7.234   4.479  1.00  0.00     0.037 A 
BRANCH  25  39
ATOM     39  C   UNL     1      -8.117   5.237  -0.219  1.00  0.00     0.058 A 
ATOM     40  C   UNL     1      -7.561   3.955  -0.337  1.00  0.00     0.135 A 
ATOM     41  C   UNL     1      -8.749   5.785  -1.348  1.00  0.00     0.135 A 
ATOM     42  F   UNL     1      -6.935   3.391   0.708  1.00  0.00    -0.206 F 
ATOM     43  C   UNL     1      -7.636   3.238  -1.528  1.00  0.00     0.059 A 
ATOM     44  C   UNL     1      -8.849   5.080  -2.545  1.00  0.00     0.059 A 
ATOM     45  F   UNL     1      -9.293   7.011  -1.288  1.00  0.00    -0.206 F 
ATOM     46  C   UNL     1      -8.287   3.807  -2.625  1.00  0.00     0.060 A 
BRANCH  46  47
ATOM     47  S   UNL     1      -8.421   2.843  -4.146  1.00  0.00     0.124 S 
ATOM     48  O   UNL     1      -7.055   2.913  -4.656  1.00  0.00    -0.237 OA
ATOM     49  O   UNL     1      -8.846   1.536  -3.653  1.00  0.00    -0.237 OA
ATOM     50  O   UNL     1      -9.419   3.570  -4.924  1.00  0.00    -0.744 OA
ENDBRANCH  46  47
ENDBRANCH  25  39
BRANCH  26  51
ATOM     51  C   UNL     1      -8.209  10.577   8.243  1.00  0.00     0.058 A 
ATOM     52  C   UNL     1      -8.391  10.040   9.524  1.00  0.00     0.135 A 
ATOM     53  C   UNL     1      -8.041  11.967   8.130  1.00  0.00     0.135 A 
ATOM     54  F   UNL     1      -8.557   8.718   9.680  1.00  0.00    -0.206 F 
ATOM     55  C   UNL     1      -8.422  10.852  10.653  1.00  0.00     0.059 A 
ATOM     56  C   UNL     1      -8.044  12.796   9.245  1.00  0.00     0.059 A 
ATOM     57  F   UNL     1      -7.844  12.525   6.926  1.00  0.00    -0.206 F 
ATOM     58  C   UNL     1      -8.249  12.230  10.503  1.00  0.00     0.060 A 
BRANCH  58  59
ATOM     59  S   UNL     1      -8.254  13.278  11.973  1.00  0.00     0.124 S 
ATOM     60  O   UNL     1      -9.682  13.405  12.235  1.00  0.00    -0.237 OA
ATOM     61  O   UNL     1      -7.497  12.476  12.930  1.00  0.00    -0.237 OA
ATOM     62  O   UNL     1      -7.582  14.491  11.517  1.00  0.00    -0.744 OA
ENDBRANCH  58  59
ENDBRANCH  26  51
BRANCH  38  63
ATOM     63  C   UNL     1     -13.052   7.078   4.670  1.00  0.00     0.058 A 
ATOM     64  C   UNL     1     -13.935   8.125   4.367  1.00  0.00     0.135 A 
ATOM     65  C   UNL     1     -13.593   5.865   5.123  1.00  0.00     0.135 A 
ATOM     66  F   UNL     1     -13.462   9.307   3.944  1.00  0.00    -0.206 F 
ATOM     67  C   UNL     1     -15.309   7.979   4.521  1.00  0.00     0.059 A 
ATOM     68  C   UNL     1     -14.965   5.691   5.263  1.00  0.00     0.059 A 
ATOM     69  F   UNL     1     -12.787   4.834   5.420  1.00  0.00    -0.206 F 
ATOM     70  C   UNL     1     -15.814   6.757   4.969  1.00  0.00     0.060 A 
BRANCH  70  71
ATOM     71  S   UNL     1     -17.602   6.567   5.131  1.00  0.00     0.124 S 
ATOM     72  O   UNL     1     -17.863   7.293   6.369  1.00  0.00    -0.237 OA
ATOM     73  O   UNL     1     -18.097   7.196   3.910  1.00  0.00    -0.237 OA
ATOM     74  O   UNL     1     -17.783   5.120   5.200  1.00  0.00    -0.744 OA
ENDBRANCH  70  71
ENDBRANCH  38  63
ENDBRANCH  12  13
ENDBRANCH   5   7
ENDBRANCH   2   3
ENDBRANCH   1   2
BRANCH   1  75
ATOM     75  C   UNL     1       3.827   6.897   2.945  1.00  0.00     0.023 C 
BRANCH  75  76
ATOM     76  C   UNL     1       3.961   6.590   4.436  1.00  0.00     0.116 C 
BRANCH  76  77
ATOM     77  N   UNL     1       4.233   5.192   4.687  1.00  0.00    -0.356 N 
ATOM     78  C   UNL     1       5.374   4.482   4.861  1.00  0.00     0.227 C 
ATOM     79  H   UNL     1       3.419   4.640   4.742  1.00  0.00     0.163 HD
ATOM     80  O   UNL     1       5.220   3.276   5.104  1.00  0.00    -0.274 OA
BRANCH  78  81
ATOM     81  C   UNL     1       6.804   5.042   4.798  1.00  0.00     0.103 C 
ATOM     82  C   UNL     1       7.435   5.044   6.167  1.00  0.00    -0.016 C 
ATOM     83  C   UNL     1       7.123   6.454   4.320  1.00  0.00     0.046 C 
ATOM     84  C   UNL     1       7.734   6.283   6.580  1.00  0.00    -0.006 C 
ATOM     85  C   UNL     1       7.279   7.303   5.594  1.00  0.00     0.104 C 
BRANCH  85  86
ATOM     86  N   UNL     1       8.268   8.324   5.386  1.00  0.00    -0.364 N 
ATOM     87  H   UNL     1       9.194   8.096   5.144  1.00  0.00     0.162 HD
BRANCH  86  88
ATOM     88  C   UNL     1       7.870   9.638   5.539  1.00  0.00     0.127 A 
ATOM     89  C   UNL     1       7.988  10.516   4.470  1.00  0.00     0.047 A 
ATOM     90  N   UNL     1       7.296  10.008   6.700  1.00  0.00    -0.231 NA
ATOM     91  C   UNL     1       7.516  11.818   4.604  1.00  0.00     0.014 A 
ATOM     92  C   UNL     1       6.875  11.277   6.853  1.00  0.00     0.073 A 
ATOM     93  C   UNL     1       6.959  12.229   5.818  1.00  0.00     0.000 A 
ATOM     94  C   UNL     1       6.341  11.682   8.070  1.00  0.00     0.029 A 
ATOM     95  C   UNL     1       6.498  13.542   6.018  1.00  0.00     0.010 A 
ATOM     96  C   UNL     1       5.896  12.992   8.281  1.00  0.00     0.002 A 
ATOM     97  C   UNL     1       5.972  13.922   7.251  1.00  0.00     0.001 A 
ENDBRANCH  86  88
ENDBRANCH  85  86
ENDBRANCH  78  81
ENDBRANCH  76  77
ENDBRANCH  75  76
ENDBRANCH   1  75
TORSDOF 16
