REMARK SMILES C[C@H](C(=O)NCCCCNC(=O)c1ccc(-c2c3nc(c(-c4c(F)cc(S(=O)(=O)[O-])cc4F)c4ccc([nH]4)c(-c4c(F)cc(S(=O)(=O)[O-])cc4F)c4nc(c(-c5c(F)cc(S(=O)(=O)[O-])cc5F)c5ccc2[nH]5)C=C4)C=C3)cc1)[C@H](C)[S@@](=O)c1cccs1
REMARK SMILES IDX 7 1 6 2 5 3 3 4 4 5 2 7 1 8 79 9 80 10 81 11 82 12 83 13
REMARK SMILES IDX 84 14 87 15 85 16 86 17 8 18 9 19 10 20 11 21 12 23 13 24
REMARK SMILES IDX 14 25 78 26 15 27 77 28 16 29 17 30 18 31 71 32 19 33 76 34
REMARK SMILES IDX 70 35 72 36 20 37 75 38 69 39 68 40 21 42 55 43 34 44 54 45
REMARK SMILES IDX 35 46 38 47 53 48 73 49 36 50 37 51 52 53 74 54 39 55 22 56
REMARK SMILES IDX 23 57 32 58 24 59 25 60 31 61 33 62 26 63 27 64 28 65 29 66
REMARK SMILES IDX 30 67 56 68 57 69 66 70 58 71 59 72 65 73 67 74 60 75 61 76
REMARK SMILES IDX 62 77 63 78 64 79 40 80 41 81 50 82 42 83 43 84 49 85 51 86
REMARK SMILES IDX 44 87 45 88 46 89 47 90 48 91
REMARK H PARENT 5 6 10 22 72 41 38 52
REMARK Flexibility Score: inf
ROOT
ATOM      1  C   UNL     1      -0.291  -1.771   1.699  1.00  0.00     0.023 C 
ENDROOT
BRANCH   1   2
ATOM      2  C   UNL     1      -1.147  -0.508   1.782  1.00  0.00     0.116 C 
BRANCH   2   3
ATOM      3  N   UNL     1      -0.350   0.687   1.600  1.00  0.00    -0.356 N 
ATOM      4  C   UNL     1      -0.366   1.621   0.615  1.00  0.00     0.224 C 
ATOM      5  O   UNL     1       0.461   2.532   0.686  1.00  0.00    -0.275 OA
ATOM      6  H   UNL     1       0.314   0.849   2.308  1.00  0.00     0.163 HD
BRANCH   4   7
ATOM      7  C   UNL     1      -1.346   1.510  -0.548  1.00  0.00     0.091 C 
ATOM      8  C   UNL     1      -1.603   2.932  -1.053  1.00  0.00     0.019 C 
BRANCH   7   9
ATOM      9  C   UNL     1      -0.848   0.471  -1.586  1.00  0.00     0.094 C 
ATOM     10  C   UNL     1       0.662   0.397  -1.793  1.00  0.00     0.023 C 
BRANCH   9  11
ATOM     11  S   UNL     1      -1.794   0.434  -3.169  1.00  0.00     0.067 S 
ATOM     12  O   UNL     1      -3.226   0.751  -2.846  1.00  0.00    -0.253 OA
BRANCH  11  13
ATOM     13  C   UNL     1      -1.141   1.787  -4.059  1.00  0.00     0.091 A 
ATOM     14  C   UNL     1      -1.848   2.932  -4.361  1.00  0.00     0.029 A 
ATOM     15  S   UNL     1       0.403   1.792  -4.782  1.00  0.00    -0.135 S 
ATOM     16  C   UNL     1      -1.042   3.892  -5.042  1.00  0.00     0.013 A 
ATOM     17  C   UNL     1       0.215   3.403  -5.322  1.00  0.00     0.066 A 
ENDBRANCH  11  13
ENDBRANCH   9  11
ENDBRANCH   7   9
ENDBRANCH   4   7
ENDBRANCH   2   3
ENDBRANCH   1   2
BRANCH   1  18
ATOM     18  C   UNL     1       0.872  -1.836   2.695  1.00  0.00     0.023 C 
BRANCH  18  19
ATOM     19  C   UNL     1       0.505  -1.594   4.157  1.00  0.00     0.116 C 
BRANCH  19  20
ATOM     20  N   UNL     1      -0.475  -2.544   4.659  1.00  0.00    -0.352 N 
ATOM     21  C   UNL     1      -0.433  -3.323   5.791  1.00  0.00     0.251 C 
ATOM     22  H   UNL     1      -1.285  -2.644   4.108  1.00  0.00     0.163 HD
ATOM     23  O   UNL     1      -1.303  -4.168   5.984  1.00  0.00    -0.269 OA
BRANCH  21  24
ATOM     24  C   UNL     1       0.680  -3.167   6.752  1.00  0.00     0.039 A 
ATOM     25  C   UNL     1       1.371  -4.308   7.170  1.00  0.00     0.014 A 
ATOM     26  C   UNL     1       1.063  -1.905   7.213  1.00  0.00     0.014 A 
ATOM     27  C   UNL     1       2.506  -4.174   7.972  1.00  0.00     0.010 A 
ATOM     28  C   UNL     1       2.229  -1.768   7.965  1.00  0.00     0.010 A 
ATOM     29  C   UNL     1       2.975  -2.899   8.330  1.00  0.00    -0.014 A 
BRANCH  29  30
ATOM     30  C   UNL     1       4.283  -2.725   9.016  1.00  0.00     0.031 A 
ATOM     31  C   UNL     1       4.352  -2.144  10.400  1.00  0.00     0.074 A 
ATOM     32  C   UNL     1       5.418  -3.009   8.343  1.00  0.00     0.049 A 
ATOM     33  N   UNL     1       5.406  -1.827  11.107  1.00  0.00    -0.248 NA
ATOM     34  C   UNL     1       3.072  -1.862  11.071  1.00  0.00     0.031 C 
ATOM     35  C   UNL     1       5.482  -3.527   6.973  1.00  0.00     0.029 A 
ATOM     36  N   UNL     1       6.736  -2.880   8.707  1.00  0.00    -0.354 N 
ATOM     37  C   UNL     1       4.921  -1.295  12.296  1.00  0.00     0.074 A 
ATOM     38  C   UNL     1       3.477  -1.303  12.204  1.00  0.00     0.031 C 
ATOM     39  C   UNL     1       6.768  -3.672   6.615  1.00  0.00     0.029 A 
ATOM     40  C   UNL     1       7.620  -3.220   7.709  1.00  0.00     0.049 A 
ATOM     41  H   UNL     1       7.021  -2.572   9.597  1.00  0.00     0.167 HD
ATOM     42  C   UNL     1       5.620  -0.855  13.369  1.00  0.00     0.037 A 
ATOM     43  C   UNL     1       8.966  -3.152   7.667  1.00  0.00     0.037 A 
ATOM     44  C   UNL     1       7.057  -0.881  13.467  1.00  0.00     0.049 A 
ATOM     45  C   UNL     1       9.713  -2.649   8.872  1.00  0.00     0.074 A 
ATOM     46  C   UNL     1       7.849  -0.546  14.553  1.00  0.00     0.029 A 
ATOM     47  N   UNL     1       7.918  -1.250  12.445  1.00  0.00    -0.354 N 
ATOM     48  N   UNL     1       9.237  -2.239  10.023  1.00  0.00    -0.248 NA
ATOM     49  C   UNL     1      11.179  -2.597   8.774  1.00  0.00     0.031 C 
ATOM     50  C   UNL     1       9.188  -0.664  14.171  1.00  0.00     0.029 A 
ATOM     51  C   UNL     1       9.232  -1.115  12.862  1.00  0.00     0.049 A 
ATOM     52  H   UNL     1       7.636  -1.561  11.554  1.00  0.00     0.167 HD
ATOM     53  C   UNL     1      10.345  -1.892  10.789  1.00  0.00     0.074 A 
ATOM     54  C   UNL     1      11.515  -2.163   9.981  1.00  0.00     0.031 C 
ATOM     55  C   UNL     1      10.388  -1.388  12.047  1.00  0.00     0.037 A 
BRANCH  42  56
ATOM     56  C   UNL     1       4.853  -0.312  14.542  1.00  0.00     0.058 A 
ATOM     57  C   UNL     1       4.154  -1.156  15.417  1.00  0.00     0.135 A 
ATOM     58  C   UNL     1       4.903   1.058  14.851  1.00  0.00     0.135 A 
ATOM     59  F   UNL     1       4.064  -2.471  15.161  1.00  0.00    -0.206 F 
ATOM     60  C   UNL     1       3.527  -0.662  16.557  1.00  0.00     0.059 A 
ATOM     61  C   UNL     1       4.303   1.570  15.997  1.00  0.00     0.059 A 
ATOM     62  F   UNL     1       5.557   1.909  14.045  1.00  0.00    -0.206 F 
ATOM     63  C   UNL     1       3.614   0.702  16.843  1.00  0.00     0.060 A 
BRANCH  63  64
ATOM     64  S   UNL     1       2.840   1.315  18.354  1.00  0.00     0.124 S 
ATOM     65  O   UNL     1       1.423   1.230  18.011  1.00  0.00    -0.237 OA
ATOM     66  O   UNL     1       3.307   0.360  19.353  1.00  0.00    -0.237 OA
ATOM     67  O   UNL     1       3.373   2.667  18.486  1.00  0.00    -0.744 OA
ENDBRANCH  63  64
ENDBRANCH  42  56
BRANCH  43  68
ATOM     68  C   UNL     1       9.699  -3.548   6.435  1.00  0.00     0.058 A 
ATOM     69  C   UNL     1      10.507  -4.694   6.409  1.00  0.00     0.135 A 
ATOM     70  C   UNL     1       9.626  -2.773   5.266  1.00  0.00     0.135 A 
ATOM     71  F   UNL     1      10.615  -5.463   7.503  1.00  0.00    -0.206 F 
ATOM     72  C   UNL     1      11.241  -5.043   5.279  1.00  0.00     0.059 A 
ATOM     73  C   UNL     1      10.328  -3.117   4.116  1.00  0.00     0.059 A 
ATOM     74  F   UNL     1       8.853  -1.677   5.233  1.00  0.00    -0.206 F 
ATOM     75  C   UNL     1      11.147  -4.245   4.138  1.00  0.00     0.060 A 
BRANCH  75  76
ATOM     76  S   UNL     1      12.089  -4.713   2.670  1.00  0.00     0.124 S 
ATOM     77  O   UNL     1      13.438  -4.307   3.046  1.00  0.00    -0.237 OA
ATOM     78  O   UNL     1      11.851  -6.151   2.596  1.00  0.00    -0.237 OA
ATOM     79  O   UNL     1      11.464  -3.928   1.609  1.00  0.00    -0.744 OA
ENDBRANCH  75  76
ENDBRANCH  43  68
BRANCH  55  80
ATOM     80  C   UNL     1      11.742  -1.104  12.632  1.00  0.00     0.058 A 
ATOM     81  C   UNL     1      12.506  -0.006  12.208  1.00  0.00     0.135 A 
ATOM     82  C   UNL     1      12.258  -1.903  13.665  1.00  0.00     0.135 A 
ATOM     83  F   UNL     1      12.063   0.783  11.217  1.00  0.00    -0.206 F 
ATOM     84  C   UNL     1      13.742   0.281  12.777  1.00  0.00     0.059 A 
ATOM     85  C   UNL     1      13.480  -1.619  14.267  1.00  0.00     0.059 A 
ATOM     86  F   UNL     1      11.563  -2.962  14.113  1.00  0.00    -0.206 F 
ATOM     87  C   UNL     1      14.219  -0.530  13.809  1.00  0.00     0.060 A 
BRANCH  87  88
ATOM     88  S   UNL     1      15.805  -0.119  14.569  1.00  0.00     0.124 S 
ATOM     89  O   UNL     1      16.744  -0.542  13.535  1.00  0.00    -0.237 OA
ATOM     90  O   UNL     1      15.691   1.322  14.771  1.00  0.00    -0.237 OA
ATOM     91  O   UNL     1      15.814  -0.919  15.790  1.00  0.00    -0.744 OA
ENDBRANCH  87  88
ENDBRANCH  55  80
ENDBRANCH  29  30
ENDBRANCH  21  24
ENDBRANCH  19  20
ENDBRANCH  18  19
ENDBRANCH   1  18
TORSDOF 17
