REMARK SMILES O=C(CSc1nc(O)cc(=O)[nH]1)Nc1cccc(C(=O)NCCCCNC(=O)c2ccc(-c3c4nc(c(-c5c(F)cc(S(=O)(=O)[O-])cc5F)c5ccc([nH]5)c(-c5c(F)cc(S(=O)(=O)[O-])cc5F)c5nc(c(-c6c(F)cc(S(=O)(=O)[O-])cc6F)c6ccc3[nH]6)C=C5)C=C4)cc2)c1
REMARK SMILES IDX 22 1 21 2 19 3 20 4 18 6 14 7 15 8 95 9 16 10 17 11 13 12
REMARK SMILES IDX 1 13 2 14 3 16 4 17 5 18 6 19 12 20 7 21 10 22 9 24 11 25
REMARK SMILES IDX 8 26 23 28 24 29 25 30 26 31 27 32 28 34 29 35 30 36 94 37
REMARK SMILES IDX 31 38 93 39 32 40 33 41 34 42 87 43 35 44 92 45 86 46 88 47
REMARK SMILES IDX 36 48 91 49 85 50 84 51 37 53 71 54 50 55 70 56 51 57 54 58
REMARK SMILES IDX 69 59 89 60 52 61 53 62 68 64 90 65 55 66 38 67 39 68 48 69
REMARK SMILES IDX 40 70 41 71 47 72 49 73 42 74 43 75 44 76 45 77 46 78 72 79
REMARK SMILES IDX 73 80 82 81 74 82 75 83 81 84 83 85 76 86 77 87 78 88 79 89
REMARK SMILES IDX 80 90 56 91 57 92 66 93 58 94 59 95 65 96 67 97 60 98 61 99
REMARK SMILES IDX 62 100 63 101 64 102
REMARK H PARENT 21 5 13 15 12 23 8 27 26 33 88 52 54 63
REMARK Flexibility Score: inf
ROOT
ATOM      1  C   UNL     1       0.144  -0.565  -3.284  1.00  0.00     0.116 C 
ENDROOT
BRANCH   1   2
ATOM      2  N   UNL     1      -0.645  -1.778  -3.459  1.00  0.00    -0.352 N 
ATOM      3  C   UNL     1      -0.549  -2.999  -2.821  1.00  0.00     0.251 C 
ATOM      4  O   UNL     1      -1.305  -3.916  -3.133  1.00  0.00    -0.269 OA
ATOM      5  H   UNL     1      -1.356  -1.718  -4.137  1.00  0.00     0.163 HD
BRANCH   3   6
ATOM      6  C   UNL     1       0.515  -3.248  -1.815  1.00  0.00     0.041 A 
ATOM      7  C   UNL     1       2.098  -2.360  -0.223  1.00  0.00     0.041 A 
ATOM      8  C   UNL     1       2.815  -3.561  -0.286  1.00  0.00     0.026 A 
ATOM      9  C   UNL     1       0.883  -2.266  -0.894  1.00  0.00     0.040 A 
ATOM     10  C   UNL     1       2.352  -4.622  -1.070  1.00  0.00     0.003 A 
ATOM     11  C   UNL     1       1.219  -4.454  -1.865  1.00  0.00     0.014 A 
BRANCH   7  12
ATOM     12  N   UNL     1       2.714  -1.251   0.395  1.00  0.00    -0.325 N 
ATOM     13  O   UNL     1       1.056   0.380   0.250  1.00  0.00    -0.274 OA
ATOM     14  C   UNL     1       2.205   0.036   0.511  1.00  0.00     0.234 C 
ATOM     15  H   UNL     1       3.603  -1.407   0.787  1.00  0.00     0.169 HD
BRANCH  14  16
ATOM     16  C   UNL     1       3.245   1.084   0.885  1.00  0.00     0.178 C 
BRANCH  16  17
ATOM     17  S   UNL     1       4.397   0.500   2.165  1.00  0.00    -0.078 SA
BRANCH  17  18
ATOM     18  C   UNL     1       3.237   0.212   3.422  1.00  0.00     0.172 A 
ATOM     19  N   UNL     1       2.533   1.159   3.937  1.00  0.00    -0.189 NA
ATOM     20  N   UNL     1       3.167  -1.095   3.775  1.00  0.00    -0.301 N 
ATOM     21  C   UNL     1       1.658   0.779   4.915  1.00  0.00     0.218 A 
ATOM     22  C   UNL     1       2.296  -1.523   4.725  1.00  0.00     0.255 A 
ATOM     23  H   UNL     1       3.759  -1.746   3.335  1.00  0.00     0.172 HD
ATOM     24  C   UNL     1       1.478  -0.474   5.340  1.00  0.00     0.139 A 
ATOM     25  O   UNL     1       2.206  -2.701   5.056  1.00  0.00    -0.269 OA
BRANCH  21  26
ATOM     26  O   UNL     1       0.929   1.791   5.480  1.00  0.00    -0.493 OA
ATOM     27  H   UNL     1       1.048   2.674   5.188  1.00  0.00     0.295 HD
ENDBRANCH  21  26
ENDBRANCH  17  18
ENDBRANCH  16  17
ENDBRANCH  14  16
ENDBRANCH   7  12
ENDBRANCH   3   6
ENDBRANCH   1   2
BRANCH   1  28
ATOM     28  C   UNL     1       0.562   0.117  -4.580  1.00  0.00     0.023 C 
BRANCH  28  29
ATOM     29  C   UNL     1      -0.565   0.661  -5.449  1.00  0.00     0.023 C 
BRANCH  29  30
ATOM     30  C   UNL     1      -1.581   1.553  -4.746  1.00  0.00     0.116 C 
BRANCH  30  31
ATOM     31  N   UNL     1      -0.996   2.720  -4.100  1.00  0.00    -0.352 N 
ATOM     32  C   UNL     1      -1.321   4.053  -4.228  1.00  0.00     0.251 C 
ATOM     33  H   UNL     1      -0.257   2.527  -3.479  1.00  0.00     0.163 HD
ATOM     34  O   UNL     1      -0.647   4.904  -3.660  1.00  0.00    -0.269 OA
BRANCH  32  35
ATOM     35  C   UNL     1      -2.457   4.457  -5.089  1.00  0.00     0.039 A 
ATOM     36  C   UNL     1      -2.273   5.497  -6.005  1.00  0.00     0.014 A 
ATOM     37  C   UNL     1      -3.684   3.793  -5.022  1.00  0.00     0.014 A 
ATOM     38  C   UNL     1      -3.284   5.800  -6.921  1.00  0.00     0.010 A 
ATOM     39  C   UNL     1      -4.656   4.040  -5.987  1.00  0.00     0.010 A 
ATOM     40  C   UNL     1      -4.463   5.037  -6.955  1.00  0.00    -0.014 A 
BRANCH  40  41
ATOM     41  C   UNL     1      -5.494   5.246  -8.005  1.00  0.00     0.031 A 
ATOM     42  C   UNL     1      -6.885   5.675  -7.626  1.00  0.00     0.074 A 
ATOM     43  C   UNL     1      -5.203   4.964  -9.291  1.00  0.00     0.049 A 
ATOM     44  N   UNL     1      -7.943   5.813  -8.384  1.00  0.00    -0.248 NA
ATOM     45  C   UNL     1      -7.127   5.955  -6.202  1.00  0.00     0.031 C 
ATOM     46  C   UNL     1      -3.908   4.486  -9.782  1.00  0.00     0.029 A 
ATOM     47  N   UNL     1      -5.981   5.024 -10.421  1.00  0.00    -0.354 N 
ATOM     48  C   UNL     1      -8.977   6.175  -7.529  1.00  0.00     0.074 A 
ATOM     49  C   UNL     1      -8.431   6.187  -6.189  1.00  0.00     0.031 C 
ATOM     50  C   UNL     1      -3.975   4.319 -11.113  1.00  0.00     0.029 A 
ATOM     51  C   UNL     1      -5.324   4.640 -11.566  1.00  0.00     0.049 A 
ATOM     52  H   UNL     1      -6.922   5.315 -10.411  1.00  0.00     0.167 HD
ATOM     53  C   UNL     1     -10.259   6.490  -7.834  1.00  0.00     0.037 A 
ATOM     54  C   UNL     1      -5.760   4.550 -12.838  1.00  0.00     0.037 A 
ATOM     55  C   UNL     1     -10.790   6.507  -9.172  1.00  0.00     0.049 A 
ATOM     56  C   UNL     1      -7.183   4.920 -13.156  1.00  0.00     0.074 A 
ATOM     57  C   UNL     1     -12.057   6.874  -9.590  1.00  0.00     0.029 A 
ATOM     58  N   UNL     1     -10.084   6.143 -10.309  1.00  0.00    -0.354 N 
ATOM     59  N   UNL     1      -8.131   5.318 -12.342  1.00  0.00    -0.248 NA
ATOM     60  C   UNL     1      -7.595   4.832 -14.564  1.00  0.00     0.031 C 
ATOM     61  C   UNL     1     -12.127   6.700 -10.977  1.00  0.00     0.029 A 
ATOM     62  C   UNL     1     -10.892   6.262 -11.427  1.00  0.00     0.049 A 
ATOM     63  H   UNL     1      -9.146   5.843 -10.319  1.00  0.00     0.167 HD
ATOM     64  C   UNL     1      -9.245   5.552 -13.141  1.00  0.00     0.074 A 
ATOM     65  C   UNL     1      -8.849   5.259 -14.504  1.00  0.00     0.031 C 
ATOM     66  C   UNL     1     -10.481   5.973 -12.779  1.00  0.00     0.037 A 
BRANCH  53  67
ATOM     67  C   UNL     1     -11.170   6.851  -6.694  1.00  0.00     0.058 A 
ATOM     68  C   UNL     1     -11.023   8.056  -5.988  1.00  0.00     0.135 A 
ATOM     69  C   UNL     1     -12.208   5.988  -6.306  1.00  0.00     0.135 A 
ATOM     70  F   UNL     1     -10.038   8.910  -6.307  1.00  0.00    -0.206 F 
ATOM     71  C   UNL     1     -11.846   8.375  -4.913  1.00  0.00     0.059 A 
ATOM     72  C   UNL     1     -13.062   6.300  -5.251  1.00  0.00     0.059 A 
ATOM     73  F   UNL     1     -12.396   4.824  -6.948  1.00  0.00    -0.206 F 
ATOM     74  C   UNL     1     -12.859   7.488  -4.548  1.00  0.00     0.060 A 
BRANCH  74  75
ATOM     75  S   UNL     1     -13.909   7.907  -3.142  1.00  0.00     0.124 S 
ATOM     76  O   UNL     1     -13.019   7.623  -2.021  1.00  0.00    -0.237 OA
ATOM     77  O   UNL     1     -14.200   9.318  -3.376  1.00  0.00    -0.237 OA
ATOM     78  O   UNL     1     -15.046   7.004  -3.286  1.00  0.00    -0.744 OA
ENDBRANCH  74  75
ENDBRANCH  53  67
BRANCH  54  79
ATOM     79  C   UNL     1      -4.825   4.122 -13.912  1.00  0.00     0.058 A 
ATOM     80  C   UNL     1      -4.332   5.048 -14.844  1.00  0.00     0.135 A 
ATOM     81  C   UNL     1      -4.386   2.794 -14.014  1.00  0.00     0.135 A 
ATOM     82  F   UNL     1      -4.729   6.328 -14.790  1.00  0.00    -0.206 F 
ATOM     83  C   UNL     1      -3.443   4.671 -15.845  1.00  0.00     0.059 A 
ATOM     84  C   UNL     1      -3.480   2.397 -14.993  1.00  0.00     0.059 A 
ATOM     85  F   UNL     1      -4.817   1.874 -13.137  1.00  0.00    -0.206 F 
ATOM     86  C   UNL     1      -3.019   3.343 -15.909  1.00  0.00     0.060 A 
BRANCH  86  87
ATOM     87  S   UNL     1      -1.815   2.878 -17.172  1.00  0.00     0.124 S 
ATOM     88  O   UNL     1      -2.642   2.859 -18.373  1.00  0.00    -0.237 OA
ATOM     89  O   UNL     1      -0.842   3.962 -17.084  1.00  0.00    -0.237 OA
ATOM     90  O   UNL     1      -1.335   1.578 -16.714  1.00  0.00    -0.744 OA
ENDBRANCH  86  87
ENDBRANCH  54  79
BRANCH  66  91
ATOM     91  C   UNL     1     -11.492   6.172 -13.873  1.00  0.00     0.058 A 
ATOM     92  C   UNL     1     -12.115   5.087 -14.506  1.00  0.00     0.135 A 
ATOM     93  C   UNL     1     -11.880   7.467 -14.254  1.00  0.00     0.135 A 
ATOM     94  F   UNL     1     -11.774   3.829 -14.184  1.00  0.00    -0.206 F 
ATOM     95  C   UNL     1     -13.077   5.277 -15.493  1.00  0.00     0.059 A 
ATOM     96  C   UNL     1     -12.856   7.681 -15.221  1.00  0.00     0.059 A 
ATOM     97  F   UNL     1     -11.319   8.539 -13.672  1.00  0.00    -0.206 F 
ATOM     98  C   UNL     1     -13.442   6.579 -15.843  1.00  0.00     0.060 A 
BRANCH  98  99
ATOM     99  S   UNL     1     -14.721   6.814 -17.096  1.00  0.00     0.124 S 
ATOM    100  O   UNL     1     -13.987   6.522 -18.323  1.00  0.00    -0.237 OA
ATOM    101  O   UNL     1     -15.726   5.829 -16.709  1.00  0.00    -0.237 OA
ATOM    102  O   UNL     1     -15.117   8.208 -16.917  1.00  0.00    -0.744 OA
ENDBRANCH  98  99
ENDBRANCH  66  91
ENDBRANCH  40  41
ENDBRANCH  32  35
ENDBRANCH  30  31
ENDBRANCH  29  30
ENDBRANCH  28  29
ENDBRANCH   1  28
TORSDOF 19
