REMARK SMILES CCCc1cc(-n2ccc(C(=O)NCCCCNC(=O)c3ccc(-c4c5nc(c(-c6c(F)cc(S(=O)(=O)[O-])cc6F)c6ccc([nH]6)c(-c6c(F)cc(S(=O)(=O)[O-])cc6F)c6nc(c(-c7c(F)cc(S(=O)(=O)[O-])cc7F)c7ccc4[nH]7)C=C6)C=C5)cc3)n2)nc(-c2ccc(C(F)(F)F)cc2)n1
REMARK SMILES IDX 15 1 14 2 13 3 11 4 12 5 10 7 7 8 8 9 87 10 9 11 6 12 4 13
REMARK SMILES IDX 5 14 100 15 89 16 88 17 3 18 2 19 1 20 90 21 91 22 99 23
REMARK SMILES IDX 92 24 98 25 93 26 94 27 95 28 96 29 97 30 16 31 17 32 18 33
REMARK SMILES IDX 19 34 20 36 21 37 22 38 86 39 23 40 85 41 24 42 25 43 26 44
REMARK SMILES IDX 79 45 27 46 84 47 78 48 80 49 28 50 83 51 77 52 76 53 29 55
REMARK SMILES IDX 63 56 42 57 62 58 43 59 46 60 61 61 81 62 44 63 45 64 60 66
REMARK SMILES IDX 82 67 47 68 30 69 31 70 40 71 32 72 33 73 39 74 41 75 34 76
REMARK SMILES IDX 35 77 36 78 37 79 38 80 64 81 65 82 74 83 66 84 67 85 73 86
REMARK SMILES IDX 75 87 68 88 69 89 70 90 71 91 72 92 48 93 49 94 58 95 50 96
REMARK SMILES IDX 51 97 57 98 59 99 52 100 53 101 54 102 55 103 56 104
REMARK H PARENT 13 6 18 35 80 54 46 65
REMARK Flexibility Score: inf
ROOT
ATOM      1  C   UNL     1       4.930  -3.425  -5.975  1.00  0.00     0.023 C 
ENDROOT
BRANCH   1   2
ATOM      2  C   UNL     1       3.545  -4.067  -6.125  1.00  0.00     0.116 C 
BRANCH   2   3
ATOM      3  N   UNL     1       3.434  -5.335  -5.417  1.00  0.00    -0.351 N 
ATOM      4  C   UNL     1       2.706  -5.685  -4.300  1.00  0.00     0.271 C 
ATOM      5  O   UNL     1       2.904  -6.806  -3.816  1.00  0.00    -0.267 OA
ATOM      6  H   UNL     1       3.969  -6.066  -5.801  1.00  0.00     0.163 HD
BRANCH   4   7
ATOM      7  C   UNL     1       1.800  -4.731  -3.643  1.00  0.00     0.150 A 
ATOM      8  N   UNL     1       0.735  -2.923  -3.257  1.00  0.00    -0.222 N 
ATOM      9  C   UNL     1       0.727  -3.603  -2.059  1.00  0.00     0.118 A 
ATOM     10  N   UNL     1       1.240  -3.673  -4.254  1.00  0.00    -0.161 NA
ATOM     11  C   UNL     1       1.374  -4.792  -2.288  1.00  0.00     0.056 A 
BRANCH   8  12
ATOM     12  C   UNL     1       0.451  -1.547  -3.461  1.00  0.00     0.157 A 
ATOM     13  C   UNL     1       0.618   0.673  -2.712  1.00  0.00     0.047 A 
ATOM     14  C   UNL     1       0.882  -0.662  -2.497  1.00  0.00     0.073 A 
ATOM     15  N   UNL     1      -0.005   1.102  -3.831  1.00  0.00    -0.233 NA
ATOM     16  C   UNL     1      -0.365   0.161  -4.733  1.00  0.00     0.161 A 
ATOM     17  N   UNL     1      -0.151  -1.156  -4.599  1.00  0.00    -0.209 NA
BRANCH  13  18
ATOM     18  C   UNL     1       1.071   1.710  -1.713  1.00  0.00     0.056 C 
BRANCH  18  19
ATOM     19  C   UNL     1       0.443   1.599  -0.314  1.00  0.00     0.003 C 
ATOM     20  C   UNL     1       0.895   0.397   0.508  1.00  0.00     0.004 C 
ENDBRANCH  18  19
ENDBRANCH  13  18
BRANCH  16  21
ATOM     21  C   UNL     1      -1.086   0.587  -5.936  1.00  0.00     0.019 A 
ATOM     22  C   UNL     1      -0.580   1.585  -6.782  1.00  0.00     0.012 A 
ATOM     23  C   UNL     1      -2.297  -0.031  -6.295  1.00  0.00     0.012 A 
ATOM     24  C   UNL     1      -1.254   1.940  -7.958  1.00  0.00     0.014 A 
ATOM     25  C   UNL     1      -2.982   0.332  -7.459  1.00  0.00     0.014 A 
ATOM     26  C   UNL     1      -2.463   1.318  -8.307  1.00  0.00     0.056 A 
BRANCH  26  27
ATOM     27  C   UNL     1      -3.176   1.706  -9.579  1.00  0.00     0.416 C 
ATOM     28  F   UNL     1      -3.482   3.034  -9.613  1.00  0.00    -0.166 F 
ATOM     29  F   UNL     1      -2.433   1.468 -10.693  1.00  0.00    -0.166 F 
ATOM     30  F   UNL     1      -4.357   1.053  -9.766  1.00  0.00    -0.166 F 
ENDBRANCH  26  27
ENDBRANCH  16  21
ENDBRANCH   8  12
ENDBRANCH   4   7
ENDBRANCH   2   3
ENDBRANCH   1   2
BRANCH   1  31
ATOM     31  C   UNL     1       6.096  -4.160  -6.647  1.00  0.00     0.023 C 
BRANCH  31  32
ATOM     32  C   UNL     1       5.939  -4.360  -8.148  1.00  0.00     0.116 C 
BRANCH  32  33
ATOM     33  N   UNL     1       5.886  -3.105  -8.904  1.00  0.00    -0.352 N 
ATOM     34  C   UNL     1       5.729  -2.956 -10.271  1.00  0.00     0.251 C 
ATOM     35  H   UNL     1       5.971  -2.276  -8.380  1.00  0.00     0.163 HD
ATOM     36  O   UNL     1       6.076  -1.920 -10.838  1.00  0.00    -0.269 OA
BRANCH  34  37
ATOM     37  C   UNL     1       5.128  -4.065 -11.030  1.00  0.00     0.039 A 
ATOM     38  C   UNL     1       5.631  -4.493 -12.261  1.00  0.00     0.014 A 
ATOM     39  C   UNL     1       4.060  -4.724 -10.430  1.00  0.00     0.014 A 
ATOM     40  C   UNL     1       5.105  -5.651 -12.833  1.00  0.00     0.010 A 
ATOM     41  C   UNL     1       3.679  -5.953 -10.894  1.00  0.00     0.010 A 
ATOM     42  C   UNL     1       4.143  -6.392 -12.128  1.00  0.00    -0.014 A 
BRANCH  42  43
ATOM     43  C   UNL     1       3.679  -7.696 -12.596  1.00  0.00     0.031 A 
ATOM     44  C   UNL     1       4.769  -8.679 -12.847  1.00  0.00     0.074 A 
ATOM     45  C   UNL     1       2.374  -8.052 -12.562  1.00  0.00     0.049 A 
ATOM     46  N   UNL     1       5.168  -9.149 -13.982  1.00  0.00    -0.248 NA
ATOM     47  C   UNL     1       5.630  -9.068 -11.715  1.00  0.00     0.031 C 
ATOM     48  C   UNL     1       1.235  -7.274 -12.049  1.00  0.00     0.029 A 
ATOM     49  N   UNL     1       1.791  -9.237 -12.890  1.00  0.00    -0.354 N 
ATOM     50  C   UNL     1       6.155 -10.085 -13.682  1.00  0.00     0.074 A 
ATOM     51  C   UNL     1       6.542  -9.833 -12.320  1.00  0.00     0.031 C 
ATOM     52  C   UNL     1       0.164  -8.079 -11.883  1.00  0.00     0.029 A 
ATOM     53  C   UNL     1       0.474  -9.373 -12.457  1.00  0.00     0.049 A 
ATOM     54  H   UNL     1       2.262  -9.942 -13.391  1.00  0.00     0.167 HD
ATOM     55  C   UNL     1       6.366 -11.165 -14.487  1.00  0.00     0.037 A 
ATOM     56  C   UNL     1      -0.322 -10.464 -12.576  1.00  0.00     0.037 A 
ATOM     57  C   UNL     1       5.702 -10.988 -15.756  1.00  0.00     0.049 A 
ATOM     58  C   UNL     1       0.242 -11.274 -13.680  1.00  0.00     0.074 A 
ATOM     59  C   UNL     1       5.830 -10.133 -16.829  1.00  0.00     0.029 A 
ATOM     60  N   UNL     1       4.454 -11.552 -15.847  1.00  0.00    -0.354 N 
ATOM     61  N   UNL     1       0.294 -10.867 -14.920  1.00  0.00    -0.248 NA
ATOM     62  C   UNL     1       1.141 -12.367 -13.347  1.00  0.00     0.031 C 
ATOM     63  C   UNL     1       4.503  -9.936 -17.317  1.00  0.00     0.029 A 
ATOM     64  C   UNL     1       3.630 -10.724 -16.563  1.00  0.00     0.049 A 
ATOM     65  H   UNL     1       4.191 -12.417 -15.458  1.00  0.00     0.167 HD
ATOM     66  C   UNL     1       1.505 -11.342 -15.399  1.00  0.00     0.074 A 
ATOM     67  C   UNL     1       1.906 -12.371 -14.443  1.00  0.00     0.031 C 
ATOM     68  C   UNL     1       2.195 -10.656 -16.358  1.00  0.00     0.037 A 
BRANCH  55  69
ATOM     69  C   UNL     1       6.771 -12.544 -14.000  1.00  0.00     0.058 A 
ATOM     70  C   UNL     1       7.064 -13.550 -14.947  1.00  0.00     0.135 A 
ATOM     71  C   UNL     1       6.597 -13.000 -12.674  1.00  0.00     0.135 A 
ATOM     72  F   UNL     1       7.243 -13.239 -16.241  1.00  0.00    -0.206 F 
ATOM     73  C   UNL     1       7.107 -14.907 -14.614  1.00  0.00     0.059 A 
ATOM     74  C   UNL     1       6.687 -14.340 -12.312  1.00  0.00     0.059 A 
ATOM     75  F   UNL     1       6.232 -12.187 -11.677  1.00  0.00    -0.206 F 
ATOM     76  C   UNL     1       6.901 -15.292 -13.294  1.00  0.00     0.060 A 
BRANCH  76  77
ATOM     77  S   UNL     1       6.859 -17.043 -12.873  1.00  0.00     0.124 S 
ATOM     78  O   UNL     1       5.628 -17.471 -13.529  1.00  0.00    -0.237 OA
ATOM     79  O   UNL     1       8.102 -17.526 -13.465  1.00  0.00    -0.237 OA
ATOM     80  O   UNL     1       6.827 -17.037 -11.413  1.00  0.00    -0.744 OA
ENDBRANCH  76  77
ENDBRANCH  55  69
BRANCH  56  81
ATOM     81  C   UNL     1      -1.334 -10.979 -11.618  1.00  0.00     0.058 A 
ATOM     82  C   UNL     1      -2.323 -11.901 -12.002  1.00  0.00     0.135 A 
ATOM     83  C   UNL     1      -1.173 -10.782 -10.231  1.00  0.00     0.135 A 
ATOM     84  F   UNL     1      -2.523 -12.172 -13.300  1.00  0.00    -0.206 F 
ATOM     85  C   UNL     1      -3.087 -12.611 -11.065  1.00  0.00     0.059 A 
ATOM     86  C   UNL     1      -1.923 -11.476  -9.280  1.00  0.00     0.059 A 
ATOM     87  F   UNL     1      -0.214  -9.969  -9.762  1.00  0.00    -0.206 F 
ATOM     88  C   UNL     1      -2.868 -12.403  -9.703  1.00  0.00     0.060 A 
BRANCH  88  89
ATOM     89  S   UNL     1      -3.753 -13.417  -8.492  1.00  0.00     0.124 S 
ATOM     90  O   UNL     1      -5.125 -12.945  -8.647  1.00  0.00    -0.237 OA
ATOM     91  O   UNL     1      -3.488 -14.771  -8.968  1.00  0.00    -0.237 OA
ATOM     92  O   UNL     1      -3.115 -13.069  -7.225  1.00  0.00    -0.744 OA
ENDBRANCH  88  89
ENDBRANCH  56  81
BRANCH  68  93
ATOM     93  C   UNL     1       1.445  -9.613 -17.150  1.00  0.00     0.058 A 
ATOM     94  C   UNL     1       0.988  -8.386 -16.636  1.00  0.00     0.135 A 
ATOM     95  C   UNL     1       1.310  -9.813 -18.531  1.00  0.00     0.135 A 
ATOM     96  F   UNL     1       1.154  -8.076 -15.345  1.00  0.00    -0.206 F 
ATOM     97  C   UNL     1       0.402  -7.415 -17.453  1.00  0.00     0.059 A 
ATOM     98  C   UNL     1       0.755  -8.850 -19.369  1.00  0.00     0.059 A 
ATOM     99  F   UNL     1       1.775 -10.941 -19.093  1.00  0.00    -0.206 F 
ATOM    100  C   UNL     1       0.295  -7.655 -18.822  1.00  0.00     0.060 A 
BRANCH 100 101
ATOM    101  S   UNL     1      -0.376  -6.365 -19.895  1.00  0.00     0.124 S 
ATOM    102  O   UNL     1      -1.792  -6.379 -19.545  1.00  0.00    -0.237 OA
ATOM    103  O   UNL     1       0.369  -5.182 -19.476  1.00  0.00    -0.237 OA
ATOM    104  O   UNL     1      -0.062  -6.843 -21.240  1.00  0.00    -0.744 OA
ENDBRANCH 100 101
ENDBRANCH  68  93
ENDBRANCH  42  43
ENDBRANCH  34  37
ENDBRANCH  32  33
ENDBRANCH  31  32
ENDBRANCH   1  31
TORSDOF 19
