REMARK SMILES C[C@@H]1CCC[C@]1(Sc1ccc(F)cc1)C(=O)NCCCCNC(=O)c1ccc(-c2c3nc(c(-c4c(F)cc(S(=O)(=O)[O-])cc4F)c4ccc([nH]4)c(-c4c(F)cc(S(=O)(=O)[O-])cc4F)c4nc(c(-c5c(F)cc(S(=O)(=O)[O-])cc5F)c5ccc2[nH]5)C=C4)C=C3)cc1
REMARK SMILES IDX 20 1 19 2 18 3 17 4 15 5 16 6 6 8 1 9 2 10 3 11 4 12 5 13
REMARK SMILES IDX 7 14 8 15 9 16 14 17 10 18 13 19 11 20 12 21 21 22 22 23
REMARK SMILES IDX 23 24 24 26 25 27 26 28 90 29 27 30 89 31 28 32 29 33 30 34
REMARK SMILES IDX 83 35 31 36 88 37 82 38 84 39 32 40 87 41 81 42 80 43 33 45
REMARK SMILES IDX 67 46 46 47 66 48 47 49 50 50 65 51 85 52 48 53 49 54 64 56
REMARK SMILES IDX 86 57 51 58 34 59 35 60 44 61 36 62 37 63 43 64 45 65 38 66
REMARK SMILES IDX 39 67 40 68 41 69 42 70 68 71 69 72 78 73 70 74 71 75 77 76
REMARK SMILES IDX 79 77 72 78 73 79 74 80 75 81 76 82 52 83 53 84 62 85 54 86
REMARK SMILES IDX 55 87 61 88 63 89 56 90 57 91 58 92 59 93 60 94
REMARK H PARENT 17 7 22 25 84 44 50 55
REMARK Flexibility Score: inf
ROOT
ATOM      1  C   UNL     1       4.646   2.903   1.568  1.00  0.00     0.023 C 
ENDROOT
BRANCH   1   2
ATOM      2  C   UNL     1       3.693   1.749   1.872  1.00  0.00     0.023 C 
BRANCH   2   3
ATOM      3  C   UNL     1       2.245   2.159   2.117  1.00  0.00     0.116 C 
BRANCH   3   4
ATOM      4  N   UNL     1       1.617   2.751   0.947  1.00  0.00    -0.355 N 
ATOM      5  C   UNL     1       0.507   2.366   0.241  1.00  0.00     0.236 C 
ATOM      6  O   UNL     1       0.130   3.120  -0.661  1.00  0.00    -0.273 OA
ATOM      7  H   UNL     1       2.062   3.560   0.605  1.00  0.00     0.163 HD
BRANCH   5   8
ATOM      8  C   UNL     1      -0.229   1.028   0.559  1.00  0.00     0.102 C 
ATOM      9  C   UNL     1       1.660  -0.054  -0.853  1.00  0.00     0.009 C 
ATOM     10  C   UNL     1       0.682  -0.210   0.331  1.00  0.00     0.012 C 
ATOM     11  C   UNL     1      -0.271  -1.365  -0.014  1.00  0.00     0.005 C 
ATOM     12  C   UNL     1      -1.551  -0.734  -0.543  1.00  0.00     0.002 C 
ATOM     13  C   UNL     1      -1.372   0.779  -0.448  1.00  0.00     0.028 C 
BRANCH   8  14
ATOM     14  S   UNL     1      -0.990   1.348   2.267  1.00  0.00    -0.109 SA
BRANCH  14  15
ATOM     15  C   UNL     1      -1.614  -0.193   2.872  1.00  0.00     0.008 A 
ATOM     16  C   UNL     1      -0.763  -1.193   3.355  1.00  0.00     0.018 A 
ATOM     17  C   UNL     1      -2.998  -0.337   3.032  1.00  0.00     0.018 A 
ATOM     18  C   UNL     1      -1.292  -2.356   3.920  1.00  0.00     0.040 A 
ATOM     19  C   UNL     1      -3.527  -1.489   3.617  1.00  0.00     0.040 A 
ATOM     20  C   UNL     1      -2.669  -2.493   4.045  1.00  0.00     0.123 A 
ATOM     21  F   UNL     1      -3.174  -3.601   4.603  1.00  0.00    -0.207 F 
ENDBRANCH  14  15
ENDBRANCH   8  14
ENDBRANCH   5   8
ENDBRANCH   3   4
ENDBRANCH   2   3
ENDBRANCH   1   2
BRANCH   1  22
ATOM     22  C   UNL     1       4.686   4.001   2.624  1.00  0.00     0.116 C 
BRANCH  22  23
ATOM     23  N   UNL     1       5.059   3.510   3.943  1.00  0.00    -0.352 N 
ATOM     24  C   UNL     1       5.938   4.062   4.845  1.00  0.00     0.251 C 
ATOM     25  H   UNL     1       4.625   2.673   4.226  1.00  0.00     0.163 HD
ATOM     26  O   UNL     1       6.239   3.454   5.867  1.00  0.00    -0.269 OA
BRANCH  24  27
ATOM     27  C   UNL     1       6.539   5.378   4.550  1.00  0.00     0.039 A 
ATOM     28  C   UNL     1       7.924   5.531   4.645  1.00  0.00     0.014 A 
ATOM     29  C   UNL     1       5.734   6.444   4.138  1.00  0.00     0.014 A 
ATOM     30  C   UNL     1       8.512   6.736   4.256  1.00  0.00     0.010 A 
ATOM     31  C   UNL     1       6.326   7.617   3.686  1.00  0.00     0.010 A 
ATOM     32  C   UNL     1       7.720   7.774   3.740  1.00  0.00    -0.014 A 
BRANCH  32  33
ATOM     33  C   UNL     1       8.312   9.049   3.265  1.00  0.00     0.031 A 
ATOM     34  C   UNL     1       7.973  10.331   3.973  1.00  0.00     0.074 A 
ATOM     35  C   UNL     1       9.083   9.067   2.161  1.00  0.00     0.049 A 
ATOM     36  N   UNL     1       8.259  11.561   3.638  1.00  0.00    -0.248 NA
ATOM     37  C   UNL     1       7.182  10.210   5.208  1.00  0.00     0.031 C 
ATOM     38  C   UNL     1       9.470   7.892   1.379  1.00  0.00     0.029 A 
ATOM     39  N   UNL     1       9.671  10.116   1.498  1.00  0.00    -0.354 N 
ATOM     40  C   UNL     1       7.667  12.361   4.607  1.00  0.00     0.074 A 
ATOM     41  C   UNL     1       6.964  11.480   5.513  1.00  0.00     0.031 C 
ATOM     42  C   UNL     1      10.253   8.281   0.360  1.00  0.00     0.029 A 
ATOM     43  C   UNL     1      10.386   9.736   0.388  1.00  0.00     0.049 A 
ATOM     44  H   UNL     1       9.588  11.052   1.791  1.00  0.00     0.167 HD
ATOM     45  C   UNL     1       7.724  13.707   4.742  1.00  0.00     0.037 A 
ATOM     46  C   UNL     1      11.066  10.476  -0.511  1.00  0.00     0.037 A 
ATOM     47  C   UNL     1       8.446  14.575   3.850  1.00  0.00     0.049 A 
ATOM     48  C   UNL     1      11.099  11.971  -0.357  1.00  0.00     0.074 A 
ATOM     49  C   UNL     1       8.582  15.950   3.911  1.00  0.00     0.029 A 
ATOM     50  N   UNL     1       9.161  14.149   2.740  1.00  0.00    -0.354 N 
ATOM     51  N   UNL     1      10.538  12.714   0.566  1.00  0.00    -0.248 NA
ATOM     52  C   UNL     1      11.851  12.730  -1.367  1.00  0.00     0.031 C 
ATOM     53  C   UNL     1       9.358  16.359   2.821  1.00  0.00     0.029 A 
ATOM     54  C   UNL     1       9.738  15.235   2.104  1.00  0.00     0.049 A 
ATOM     55  H   UNL     1       9.246  13.212   2.448  1.00  0.00     0.167 HD
ATOM     56  C   UNL     1      10.890  14.025   0.266  1.00  0.00     0.074 A 
ATOM     57  C   UNL     1      11.711  13.975  -0.927  1.00  0.00     0.031 C 
ATOM     58  C   UNL     1      10.565  15.164   0.924  1.00  0.00     0.037 A 
BRANCH  45  59
ATOM     59  C   UNL     1       6.986  14.313   5.902  1.00  0.00     0.058 A 
ATOM     60  C   UNL     1       5.821  15.069   5.695  1.00  0.00     0.135 A 
ATOM     61  C   UNL     1       7.432  14.144   7.223  1.00  0.00     0.135 A 
ATOM     62  F   UNL     1       5.348  15.258   4.454  1.00  0.00    -0.206 F 
ATOM     63  C   UNL     1       5.120  15.628   6.758  1.00  0.00     0.059 A 
ATOM     64  C   UNL     1       6.731  14.671   8.303  1.00  0.00     0.059 A 
ATOM     65  F   UNL     1       8.527  13.410   7.476  1.00  0.00    -0.206 F 
ATOM     66  C   UNL     1       5.579  15.417   8.060  1.00  0.00     0.060 A 
BRANCH  66  67
ATOM     67  S   UNL     1       4.609  16.067   9.438  1.00  0.00     0.124 S 
ATOM     68  O   UNL     1       4.938  17.487   9.392  1.00  0.00    -0.237 OA
ATOM     69  O   UNL     1       3.246  15.716   9.050  1.00  0.00    -0.237 OA
ATOM     70  O   UNL     1       5.129  15.334  10.589  1.00  0.00    -0.744 OA
ENDBRANCH  66  67
ENDBRANCH  45  59
BRANCH  46  71
ATOM     71  C   UNL     1      11.807   9.793  -1.602  1.00  0.00     0.058 A 
ATOM     72  C   UNL     1      11.140   9.179  -2.673  1.00  0.00     0.135 A 
ATOM     73  C   UNL     1      13.204   9.678  -1.547  1.00  0.00     0.135 A 
ATOM     74  F   UNL     1       9.804   9.254  -2.765  1.00  0.00    -0.206 F 
ATOM     75  C   UNL     1      11.829   8.442  -3.630  1.00  0.00     0.059 A 
ATOM     76  C   UNL     1      13.917   8.961  -2.503  1.00  0.00     0.059 A 
ATOM     77  F   UNL     1      13.884  10.260  -0.548  1.00  0.00    -0.206 F 
ATOM     78  C   UNL     1      13.217   8.328  -3.529  1.00  0.00     0.060 A 
BRANCH  78  79
ATOM     79  S   UNL     1      14.086   7.315  -4.746  1.00  0.00     0.124 S 
ATOM     80  O   UNL     1      13.623   5.976  -4.394  1.00  0.00    -0.237 OA
ATOM     81  O   UNL     1      13.583   7.851  -6.006  1.00  0.00    -0.237 OA
ATOM     82  O   UNL     1      15.493   7.586  -4.468  1.00  0.00    -0.744 OA
ENDBRANCH  78  79
ENDBRANCH  46  71
BRANCH  58  83
ATOM     83  C   UNL     1      11.116  16.461   0.404  1.00  0.00     0.058 A 
ATOM     84  C   UNL     1      12.133  17.128   1.106  1.00  0.00     0.135 A 
ATOM     85  C   UNL     1      10.556  17.100  -0.712  1.00  0.00     0.135 A 
ATOM     86  F   UNL     1      12.699  16.557   2.181  1.00  0.00    -0.206 F 
ATOM     87  C   UNL     1      12.551  18.402   0.740  1.00  0.00     0.059 A 
ATOM     88  C   UNL     1      10.973  18.367  -1.108  1.00  0.00     0.059 A 
ATOM     89  F   UNL     1       9.590  16.496  -1.421  1.00  0.00    -0.206 F 
ATOM     90  C   UNL     1      11.955  19.020  -0.361  1.00  0.00     0.060 A 
BRANCH  90  91
ATOM     91  S   UNL     1      12.482  20.690  -0.798  1.00  0.00     0.124 S 
ATOM     92  O   UNL     1      11.909  21.477   0.288  1.00  0.00    -0.237 OA
ATOM     93  O   UNL     1      13.937  20.566  -0.795  1.00  0.00    -0.237 OA
ATOM     94  O   UNL     1      11.881  20.902  -2.112  1.00  0.00    -0.744 OA
ENDBRANCH  90  91
ENDBRANCH  58  83
ENDBRANCH  32  33
ENDBRANCH  24  27
ENDBRANCH  22  23
ENDBRANCH   1  22
TORSDOF 16
