REMARK SMILES N#C/C(=C\c1ccc(-c2cc(C(F)(F)F)ccc2Cl)o1)C(=O)NCCCCNC(=O)c1ccc(-c2c3nc(c(-c4c(F)cc(S(=O)(=O)[O-])cc4F)c4ccc([nH]4)c(-c4c(F)cc(S(=O)(=O)[O-])cc4F)c4nc(c(-c5c(F)cc(S(=O)(=O)[O-])cc5F)c5ccc2[nH]5)C=C4)C=C3)cc1
REMARK SMILES IDX 25 1 24 2 23 3 21 4 22 5 3 7 4 8 2 9 1 10 5 11 6 12 20 13
REMARK SMILES IDX 7 14 8 15 9 16 10 17 18 18 11 19 17 20 19 21 16 22 12 23
REMARK SMILES IDX 13 24 14 25 15 26 26 27 27 28 28 29 29 30 30 32 31 33 32 34
REMARK SMILES IDX 96 35 33 36 95 37 34 38 35 39 36 40 89 41 37 42 94 43 88 44
REMARK SMILES IDX 90 45 38 46 93 47 87 48 86 49 39 51 73 52 52 53 72 54 53 55
REMARK SMILES IDX 56 56 71 57 91 58 54 59 55 60 70 62 92 63 57 64 40 65 41 66
REMARK SMILES IDX 50 67 42 68 43 69 49 70 51 71 44 72 45 73 46 74 47 75 48 76
REMARK SMILES IDX 74 77 75 78 84 79 76 80 77 81 83 82 85 83 78 84 79 85 80 86
REMARK SMILES IDX 81 87 82 88 58 89 59 90 68 91 60 92 61 93 67 94 69 95 62 96
REMARK SMILES IDX 63 97 64 98 65 99 66 100
REMARK H PARENT 23 6 28 31 90 50 56 61
REMARK Flexibility Score: inf
ROOT
ATOM      1  C   UNL     1       7.545   0.827  -0.392  1.00  0.00     0.023 C 
ENDROOT
BRANCH   1   2
ATOM      2  C   UNL     1       6.970  -0.025   0.745  1.00  0.00     0.116 C 
BRANCH   2   3
ATOM      3  N   UNL     1       5.864   0.645   1.403  1.00  0.00    -0.351 N 
ATOM      4  C   UNL     1       4.522   0.672   1.181  1.00  0.00     0.262 C 
ATOM      5  O   UNL     1       3.843   1.336   1.966  1.00  0.00    -0.268 OA
ATOM      6  H   UNL     1       6.143   1.194   2.171  1.00  0.00     0.163 HD
BRANCH   4   7
ATOM      7  C   UNL     1       3.845  -0.042   0.064  1.00  0.00     0.120 C 
ATOM      8  C   UNL     1       4.401  -0.668  -1.004  1.00  0.00     0.072 C 
BRANCH   7   9
ATOM      9  C   UNL     1       2.325  -0.042   0.064  1.00  0.00     0.105 C 
ATOM     10  N   UNL     1       1.064  -0.042   0.064  1.00  0.00    -0.192 NA
ENDBRANCH   7   9
BRANCH   8  11
ATOM     11  C   UNL     1       3.637  -1.294  -2.053  1.00  0.00     0.129 A 
ATOM     12  C   UNL     1       2.596  -0.781  -2.824  1.00  0.00     0.051 A 
ATOM     13  O   UNL     1       3.873  -2.586  -2.501  1.00  0.00    -0.457 OA
ATOM     14  C   UNL     1       2.158  -1.789  -3.708  1.00  0.00     0.051 A 
ATOM     15  C   UNL     1       2.983  -2.869  -3.500  1.00  0.00     0.136 A 
BRANCH  15  16
ATOM     16  C   UNL     1       3.073  -4.175  -4.147  1.00  0.00     0.036 A 
ATOM     17  C   UNL     1       2.907  -5.347  -3.386  1.00  0.00     0.026 A 
ATOM     18  C   UNL     1       3.231  -4.301  -5.540  1.00  0.00     0.052 A 
ATOM     19  C   UNL     1       2.873  -6.619  -3.996  1.00  0.00     0.056 A 
ATOM     20  C   UNL     1       3.213  -5.560  -6.151  1.00  0.00     0.022 A 
ATOM     21  Cl  UNL     1       3.462  -2.936  -6.582  1.00  0.00    -0.084 Cl
ATOM     22  C   UNL     1       3.030  -6.711  -5.386  1.00  0.00     0.014 A 
BRANCH  19  23
ATOM     23  C   UNL     1       2.651  -7.864  -3.167  1.00  0.00     0.416 C 
ATOM     24  F   UNL     1       3.656  -8.087  -2.278  1.00  0.00    -0.166 F 
ATOM     25  F   UNL     1       1.503  -7.806  -2.438  1.00  0.00    -0.166 F 
ATOM     26  F   UNL     1       2.556  -9.000  -3.914  1.00  0.00    -0.166 F 
ENDBRANCH  19  23
ENDBRANCH  15  16
ENDBRANCH   8  11
ENDBRANCH   4   7
ENDBRANCH   2   3
ENDBRANCH   1   2
BRANCH   1  27
ATOM     27  C   UNL     1       8.604   1.842   0.056  1.00  0.00     0.023 C 
BRANCH  27  28
ATOM     28  C   UNL     1       9.842   1.232   0.706  1.00  0.00     0.116 C 
BRANCH  28  29
ATOM     29  N   UNL     1      10.509   0.246  -0.127  1.00  0.00    -0.352 N 
ATOM     30  C   UNL     1      11.816  -0.185  -0.051  1.00  0.00     0.251 C 
ATOM     31  H   UNL     1       9.960  -0.166  -0.833  1.00  0.00     0.163 HD
ATOM     32  O   UNL     1      12.265  -0.942  -0.895  1.00  0.00    -0.269 OA
BRANCH  30  33
ATOM     33  C   UNL     1      12.674   0.323   1.042  1.00  0.00     0.039 A 
ATOM     34  C   UNL     1      13.925   0.853   0.721  1.00  0.00     0.014 A 
ATOM     35  C   UNL     1      12.235   0.301   2.368  1.00  0.00     0.014 A 
ATOM     36  C   UNL     1      14.716   1.411   1.728  1.00  0.00     0.010 A 
ATOM     37  C   UNL     1      12.990   0.924   3.357  1.00  0.00     0.010 A 
ATOM     38  C   UNL     1      14.242   1.475   3.049  1.00  0.00    -0.014 A 
BRANCH  38  39
ATOM     39  C   UNL     1      15.057   2.089   4.127  1.00  0.00     0.031 A 
ATOM     40  C   UNL     1      15.559   1.240   5.264  1.00  0.00     0.074 A 
ATOM     41  C   UNL     1      15.298   3.414   4.110  1.00  0.00     0.049 A 
ATOM     42  N   UNL     1      16.254   1.593   6.314  1.00  0.00    -0.248 NA
ATOM     43  C   UNL     1      15.205  -0.189   5.233  1.00  0.00     0.031 C 
ATOM     44  C   UNL     1      14.815   4.351   3.092  1.00  0.00     0.029 A 
ATOM     45  N   UNL     1      16.007   4.206   4.977  1.00  0.00    -0.354 N 
ATOM     46  C   UNL     1      16.400   0.440   7.077  1.00  0.00     0.074 A 
ATOM     47  C   UNL     1      15.676  -0.611   6.397  1.00  0.00     0.031 C 
ATOM     48  C   UNL     1      15.271   5.582   3.375  1.00  0.00     0.029 A 
ATOM     49  C   UNL     1      16.052   5.530   4.607  1.00  0.00     0.049 A 
ATOM     50  H   UNL     1      16.443   3.859   5.789  1.00  0.00     0.167 HD
ATOM     51  C   UNL     1      17.095   0.267   8.226  1.00  0.00     0.037 A 
ATOM     52  C   UNL     1      16.662   6.579   5.192  1.00  0.00     0.037 A 
ATOM     53  C   UNL     1      17.849   1.308   8.873  1.00  0.00     0.049 A 
ATOM     54  C   UNL     1      17.459   6.354   6.449  1.00  0.00     0.074 A 
ATOM     55  C   UNL     1      18.651   1.219   9.997  1.00  0.00     0.029 A 
ATOM     56  N   UNL     1      17.897   2.628   8.450  1.00  0.00    -0.354 N 
ATOM     57  N   UNL     1      17.648   5.241   7.117  1.00  0.00    -0.248 NA
ATOM     58  C   UNL     1      18.134   7.524   7.024  1.00  0.00     0.031 C 
ATOM     59  C   UNL     1      19.156   2.495  10.274  1.00  0.00     0.029 A 
ATOM     60  C   UNL     1      18.703   3.368   9.298  1.00  0.00     0.049 A 
ATOM     61  H   UNL     1      17.427   2.986   7.662  1.00  0.00     0.167 HD
ATOM     62  C   UNL     1      18.493   5.570   8.171  1.00  0.00     0.074 A 
ATOM     63  C   UNL     1      18.781   6.984   8.048  1.00  0.00     0.031 C 
ATOM     64  C   UNL     1      18.989   4.773   9.150  1.00  0.00     0.037 A 
BRANCH  51  65
ATOM     65  C   UNL     1      17.073  -1.101   8.851  1.00  0.00     0.058 A 
ATOM     66  C   UNL     1      17.732  -2.193   8.262  1.00  0.00     0.135 A 
ATOM     67  C   UNL     1      16.397  -1.322  10.062  1.00  0.00     0.135 A 
ATOM     68  F   UNL     1      18.380  -2.043   7.096  1.00  0.00    -0.206 F 
ATOM     69  C   UNL     1      17.688  -3.462   8.829  1.00  0.00     0.059 A 
ATOM     70  C   UNL     1      16.365  -2.577  10.663  1.00  0.00     0.059 A 
ATOM     71  F   UNL     1      15.751  -0.314  10.669  1.00  0.00    -0.206 F 
ATOM     72  C   UNL     1      16.998  -3.645  10.029  1.00  0.00     0.060 A 
BRANCH  72  73
ATOM     73  S   UNL     1      16.942  -5.299  10.749  1.00  0.00     0.124 S 
ATOM     74  O   UNL     1      15.977  -5.962   9.876  1.00  0.00    -0.237 OA
ATOM     75  O   UNL     1      18.325  -5.746  10.618  1.00  0.00    -0.237 OA
ATOM     76  O   UNL     1      16.490  -5.059  12.116  1.00  0.00    -0.744 OA
ENDBRANCH  72  73
ENDBRANCH  51  65
BRANCH  52  77
ATOM     77  C   UNL     1      16.590   7.925   4.566  1.00  0.00     0.058 A 
ATOM     78  C   UNL     1      17.715   8.486   3.943  1.00  0.00     0.135 A 
ATOM     79  C   UNL     1      15.402   8.671   4.565  1.00  0.00     0.135 A 
ATOM     80  F   UNL     1      18.875   7.813   3.922  1.00  0.00    -0.206 F 
ATOM     81  C   UNL     1      17.671   9.747   3.357  1.00  0.00     0.059 A 
ATOM     82  C   UNL     1      15.327   9.925   3.965  1.00  0.00     0.059 A 
ATOM     83  F   UNL     1      14.293   8.171   5.131  1.00  0.00    -0.206 F 
ATOM     84  C   UNL     1      16.471  10.458   3.372  1.00  0.00     0.060 A 
BRANCH  84  85
ATOM     85  S   UNL     1      16.412  12.073   2.565  1.00  0.00     0.124 S 
ATOM     86  O   UNL     1      17.140  12.904   3.517  1.00  0.00    -0.237 OA
ATOM     87  O   UNL     1      17.088  11.809   1.299  1.00  0.00    -0.237 OA
ATOM     88  O   UNL     1      14.981  12.341   2.457  1.00  0.00    -0.744 OA
ENDBRANCH  84  85
ENDBRANCH  52  77
BRANCH  64  89
ATOM     89  C   UNL     1      19.931   5.402  10.138  1.00  0.00     0.058 A 
ATOM     90  C   UNL     1      19.479   6.281  11.135  1.00  0.00     0.135 A 
ATOM     91  C   UNL     1      21.299   5.086  10.111  1.00  0.00     0.135 A 
ATOM     92  F   UNL     1      18.181   6.618  11.201  1.00  0.00    -0.206 F 
ATOM     93  C   UNL     1      20.357   6.848  12.053  1.00  0.00     0.059 A 
ATOM     94  C   UNL     1      22.190   5.621  11.035  1.00  0.00     0.059 A 
ATOM     95  F   UNL     1      21.779   4.241   9.185  1.00  0.00    -0.206 F 
ATOM     96  C   UNL     1      21.711   6.513  11.993  1.00  0.00     0.060 A 
BRANCH  96  97
ATOM     97  S   UNL     1      22.838   7.238  13.203  1.00  0.00     0.124 S 
ATOM     98  O   UNL     1      22.993   8.593  12.684  1.00  0.00    -0.237 OA
ATOM     99  O   UNL     1      22.084   7.118  14.447  1.00  0.00    -0.237 OA
ATOM    100  O   UNL     1      24.023   6.391  13.111  1.00  0.00    -0.744 OA
ENDBRANCH  96  97
ENDBRANCH  64  89
ENDBRANCH  38  39
ENDBRANCH  30  33
ENDBRANCH  28  29
ENDBRANCH  27  28
ENDBRANCH   1  27
TORSDOF 18
