REMARK SMILES COCc1c(C(=O)NCCCCNC(=O)c2ccc(-c3c4nc(c(-c5c(F)cc(S(=O)(=O)[O-])cc5F)c5ccc([nH]5)c(-c5c(F)cc(S(=O)(=O)[O-])cc5F)c5nc(c(-c6c(F)cc(S(=O)(=O)[O-])cc6F)c6ccc3[nH]6)C=C5)C=C4)cc2)nnn1-c1ccc(S(C)(=O)=O)cc1
REMARK SMILES IDX 11 1 10 2 9 3 8 4 6 5 7 6 5 8 4 9 84 10 82 11 83 12 3 13
REMARK SMILES IDX 2 14 1 15 85 16 86 17 94 18 87 19 93 20 88 21 89 22 90 23
REMARK SMILES IDX 91 24 92 25 12 26 13 27 14 28 15 30 16 31 17 32 81 33 18 34
REMARK SMILES IDX 80 35 19 36 20 37 21 38 74 39 22 40 79 41 73 42 75 43 23 44
REMARK SMILES IDX 78 45 72 46 71 47 24 49 58 50 37 51 57 52 38 53 41 54 56 55
REMARK SMILES IDX 76 56 39 57 40 58 55 60 77 61 42 62 25 63 26 64 35 65 27 66
REMARK SMILES IDX 28 67 34 68 36 69 29 70 30 71 31 72 32 73 33 74 59 75 60 76
REMARK SMILES IDX 69 77 61 78 62 79 68 80 70 81 63 82 64 83 65 84 66 85 67 86
REMARK SMILES IDX 43 87 44 88 53 89 45 90 46 91 52 92 54 93 47 94 48 95 49 96
REMARK SMILES IDX 50 97 51 98
REMARK H PARENT 8 7 13 29 75 48 41 59
REMARK Flexibility Score: inf
ROOT
ATOM      1  C   UNL     1      -1.079  -6.081   0.600  1.00  0.00     0.023 C 
ENDROOT
BRANCH   1   2
ATOM      2  C   UNL     1      -0.387  -4.797   0.116  1.00  0.00     0.023 C 
BRANCH   2   3
ATOM      3  C   UNL     1       0.597  -4.984  -1.048  1.00  0.00     0.116 C 
BRANCH   3   4
ATOM      4  N   UNL     1      -0.069  -4.901  -2.320  1.00  0.00    -0.351 N 
ATOM      5  C   UNL     1      -0.393  -3.892  -3.186  1.00  0.00     0.273 C 
ATOM      6  O   UNL     1      -1.001  -4.296  -4.185  1.00  0.00    -0.267 OA
ATOM      7  H   UNL     1      -0.361  -5.783  -2.647  1.00  0.00     0.163 HD
BRANCH   5   8
ATOM      8  C   UNL     1      -0.085  -2.458  -3.052  1.00  0.00     0.176 A 
ATOM      9  C   UNL     1       0.491  -1.589  -2.120  1.00  0.00     0.103 A 
ATOM     10  N   UNL     1       0.492  -0.358  -2.777  1.00  0.00    -0.214 N 
ATOM     11  N   UNL     1      -0.528  -1.676  -4.116  1.00  0.00    -0.124 NA
ATOM     12  N   UNL     1      -0.263  -0.409  -3.881  1.00  0.00    -0.061 NA
BRANCH   9  13
ATOM     13  C   UNL     1       0.928  -1.646  -0.706  1.00  0.00     0.218 C 
BRANCH  13  14
ATOM     14  O   UNL     1       0.014  -0.836   0.032  1.00  0.00    -0.378 OA
ATOM     15  C   UNL     1       0.619   0.066   0.950  1.00  0.00     0.195 C 
ENDBRANCH  13  14
ENDBRANCH   9  13
BRANCH  10  16
ATOM     16  C   UNL     1       1.049   0.874  -2.361  1.00  0.00     0.067 A 
ATOM     17  C   UNL     1       0.227   2.009  -2.348  1.00  0.00     0.030 A 
ATOM     18  C   UNL     1       2.364   0.938  -1.879  1.00  0.00     0.030 A 
ATOM     19  C   UNL     1       0.682   3.177  -1.737  1.00  0.00     0.022 A 
ATOM     20  C   UNL     1       2.830   2.116  -1.297  1.00  0.00     0.022 A 
ATOM     21  C   UNL     1       1.974   3.217  -1.202  1.00  0.00     0.067 A 
BRANCH  21  22
ATOM     22  S   UNL     1       2.484   4.662  -0.305  1.00  0.00     0.175 S 
ATOM     23  C   UNL     1       2.546   5.930  -1.540  1.00  0.00     0.163 C 
ATOM     24  O   UNL     1       1.420   4.977   0.625  1.00  0.00    -0.224 OA
ATOM     25  O   UNL     1       3.841   4.437   0.165  1.00  0.00    -0.224 OA
ENDBRANCH  21  22
ENDBRANCH  10  16
ENDBRANCH   5   8
ENDBRANCH   3   4
ENDBRANCH   2   3
ENDBRANCH   1   2
BRANCH   1  26
ATOM     26  C   UNL     1      -0.152  -7.092   1.272  1.00  0.00     0.116 C 
BRANCH  26  27
ATOM     27  N   UNL     1       0.508  -6.560   2.466  1.00  0.00    -0.352 N 
ATOM     28  C   UNL     1       1.607  -7.077   3.133  1.00  0.00     0.251 C 
ATOM     29  H   UNL     1       0.124  -5.735   2.841  1.00  0.00     0.163 HD
ATOM     30  O   UNL     1       1.812  -6.812   4.306  1.00  0.00    -0.269 OA
BRANCH  28  31
ATOM     31  C   UNL     1       2.535  -7.938   2.378  1.00  0.00     0.039 A 
ATOM     32  C   UNL     1       3.056  -9.116   2.917  1.00  0.00     0.014 A 
ATOM     33  C   UNL     1       2.833  -7.555   1.073  1.00  0.00     0.014 A 
ATOM     34  C   UNL     1       3.811  -9.948   2.093  1.00  0.00     0.010 A 
ATOM     35  C   UNL     1       3.431  -8.449   0.223  1.00  0.00     0.010 A 
ATOM     36  C   UNL     1       3.974  -9.618   0.736  1.00  0.00    -0.014 A 
BRANCH  36  37
ATOM     37  C   UNL     1       4.627 -10.537  -0.189  1.00  0.00     0.031 A 
ATOM     38  C   UNL     1       4.073 -11.918  -0.188  1.00  0.00     0.074 A 
ATOM     39  C   UNL     1       5.526 -10.144  -1.117  1.00  0.00     0.049 A 
ATOM     40  N   UNL     1       4.620 -12.978   0.307  1.00  0.00    -0.248 NA
ATOM     41  C   UNL     1       2.689 -12.123  -0.642  1.00  0.00     0.031 C 
ATOM     42  C   UNL     1       5.960  -8.786  -1.469  1.00  0.00     0.029 A 
ATOM     43  N   UNL     1       6.195 -10.906  -2.022  1.00  0.00    -0.354 N 
ATOM     44  C   UNL     1       3.759 -14.030   0.009  1.00  0.00     0.074 A 
ATOM     45  C   UNL     1       2.514 -13.422  -0.384  1.00  0.00     0.031 C 
ATOM     46  C   UNL     1       6.628  -8.810  -2.644  1.00  0.00     0.029 A 
ATOM     47  C   UNL     1       6.829 -10.193  -3.033  1.00  0.00     0.049 A 
ATOM     48  H   UNL     1       6.228 -11.888  -1.966  1.00  0.00     0.167 HD
ATOM     49  C   UNL     1       4.225 -15.306  -0.116  1.00  0.00     0.037 A 
ATOM     50  C   UNL     1       7.470 -10.708  -4.114  1.00  0.00     0.037 A 
ATOM     51  C   UNL     1       5.557 -15.423   0.432  1.00  0.00     0.049 A 
ATOM     52  C   UNL     1       7.833 -12.107  -3.764  1.00  0.00     0.074 A 
ATOM     53  C   UNL     1       6.114 -15.179   1.674  1.00  0.00     0.029 A 
ATOM     54  N   UNL     1       6.614 -15.442  -0.448  1.00  0.00    -0.354 N 
ATOM     55  N   UNL     1       8.694 -12.416  -2.830  1.00  0.00    -0.248 NA
ATOM     56  C   UNL     1       6.880 -13.155  -4.101  1.00  0.00     0.031 C 
ATOM     57  C   UNL     1       7.365 -14.553   1.395  1.00  0.00     0.029 A 
ATOM     58  C   UNL     1       7.540 -14.537   0.011  1.00  0.00     0.049 A 
ATOM     59  H   UNL     1       6.693 -16.000  -1.256  1.00  0.00     0.167 HD
ATOM     60  C   UNL     1       8.130 -13.497  -2.169  1.00  0.00     0.074 A 
ATOM     61  C   UNL     1       7.051 -13.955  -3.045  1.00  0.00     0.031 C 
ATOM     62  C   UNL     1       8.394 -13.746  -0.851  1.00  0.00     0.037 A 
BRANCH  49  63
ATOM     63  C   UNL     1       3.644 -16.351  -1.042  1.00  0.00     0.058 A 
ATOM     64  C   UNL     1       4.126 -17.676  -0.975  1.00  0.00     0.135 A 
ATOM     65  C   UNL     1       2.842 -16.055  -2.166  1.00  0.00     0.135 A 
ATOM     66  F   UNL     1       4.902 -18.072   0.047  1.00  0.00    -0.206 F 
ATOM     67  C   UNL     1       3.895 -18.609  -1.987  1.00  0.00     0.059 A 
ATOM     68  C   UNL     1       2.553 -16.986  -3.158  1.00  0.00     0.059 A 
ATOM     69  F   UNL     1       2.378 -14.825  -2.412  1.00  0.00    -0.206 F 
ATOM     70  C   UNL     1       3.118 -18.247  -3.083  1.00  0.00     0.060 A 
BRANCH  70  71
ATOM     71  S   UNL     1       2.901 -19.413  -4.437  1.00  0.00     0.124 S 
ATOM     72  O   UNL     1       4.246 -19.461  -4.997  1.00  0.00    -0.237 OA
ATOM     73  O   UNL     1       2.457 -20.612  -3.734  1.00  0.00    -0.237 OA
ATOM     74  O   UNL     1       1.890 -18.772  -5.272  1.00  0.00    -0.744 OA
ENDBRANCH  70  71
ENDBRANCH  49  63
BRANCH  50  75
ATOM     75  C   UNL     1       7.468 -10.195  -5.511  1.00  0.00     0.058 A 
ATOM     76  C   UNL     1       8.334 -10.724  -6.486  1.00  0.00     0.135 A 
ATOM     77  C   UNL     1       6.420  -9.382  -5.992  1.00  0.00     0.135 A 
ATOM     78  F   UNL     1       9.350 -11.521  -6.122  1.00  0.00    -0.206 F 
ATOM     79  C   UNL     1       8.139 -10.509  -7.856  1.00  0.00     0.059 A 
ATOM     80  C   UNL     1       6.211  -9.148  -7.351  1.00  0.00     0.059 A 
ATOM     81  F   UNL     1       5.508  -8.863  -5.156  1.00  0.00    -0.206 F 
ATOM     82  C   UNL     1       7.058  -9.738  -8.281  1.00  0.00     0.060 A 
BRANCH  82  83
ATOM     83  S   UNL     1       6.690  -9.613 -10.049  1.00  0.00     0.124 S 
ATOM     84  O   UNL     1       7.791  -8.784 -10.528  1.00  0.00    -0.237 OA
ATOM     85  O   UNL     1       6.714 -11.009 -10.469  1.00  0.00    -0.237 OA
ATOM     86  O   UNL     1       5.374  -8.979 -10.076  1.00  0.00    -0.744 OA
ENDBRANCH  82  83
ENDBRANCH  50  75
BRANCH  62  87
ATOM     87  C   UNL     1       9.517 -12.990  -0.180  1.00  0.00     0.058 A 
ATOM     88  C   UNL     1       9.554 -11.594  -0.006  1.00  0.00     0.135 A 
ATOM     89  C   UNL     1      10.523 -13.734   0.455  1.00  0.00     0.135 A 
ATOM     90  F   UNL     1       8.579 -10.811  -0.485  1.00  0.00    -0.206 F 
ATOM     91  C   UNL     1      10.566 -10.967   0.726  1.00  0.00     0.059 A 
ATOM     92  C   UNL     1      11.523 -13.134   1.217  1.00  0.00     0.059 A 
ATOM     93  F   UNL     1      10.513 -15.075   0.383  1.00  0.00    -0.206 F 
ATOM     94  C   UNL     1      11.548 -11.747   1.336  1.00  0.00     0.060 A 
BRANCH  94  95
ATOM     95  S   UNL     1      12.821 -10.943   2.333  1.00  0.00     0.124 S 
ATOM     96  O   UNL     1      13.626 -10.271   1.319  1.00  0.00    -0.237 OA
ATOM     97  O   UNL     1      12.040 -10.069   3.203  1.00  0.00    -0.237 OA
ATOM     98  O   UNL     1      13.477 -12.058   3.012  1.00  0.00    -0.744 OA
ENDBRANCH  94  95
ENDBRANCH  62  87
ENDBRANCH  36  37
ENDBRANCH  28  31
ENDBRANCH  26  27
ENDBRANCH   1  26
TORSDOF 18
