REMARK SMILES O=C(NCCCCNC(=O)[C@@H]1[C@@H](C(=O)Nc2cccc(C(F)(F)F)c2)[C@@H]2C=C[C@H]1O2)c1ccc(-c2c3nc(c(-c4c(F)cc(S(=O)(=O)[O-])cc4F)c4ccc([nH]4)c(-c4c(F)cc(S(=O)(=O)[O-])cc4F)c4nc(c(-c5c(F)cc(S(=O)(=O)[O-])cc5F)c5ccc2[nH]5)C=C4)C=C3)cc1
REMARK SMILES IDX 5 1 4 2 3 3 1 4 2 5 31 7 32 8 96 9 33 10 95 11 34 12 35 13
REMARK SMILES IDX 36 14 89 15 37 16 94 17 88 18 90 19 38 20 93 21 87 22 86 23
REMARK SMILES IDX 39 25 73 26 52 27 72 28 53 29 56 30 71 31 91 32 54 33 55 34
REMARK SMILES IDX 70 36 92 37 57 38 40 39 41 40 50 41 42 42 43 43 49 44 51 45
REMARK SMILES IDX 44 46 45 47 46 48 47 49 48 50 74 51 75 52 84 53 76 54 77 55
REMARK SMILES IDX 83 56 85 57 78 58 79 59 80 60 81 61 82 62 58 63 59 64 68 65
REMARK SMILES IDX 60 66 61 67 67 68 69 69 62 70 63 71 64 72 65 73 66 74 6 75
REMARK SMILES IDX 7 76 8 77 9 78 10 80 11 81 12 82 29 83 26 84 28 85 30 86
REMARK SMILES IDX 27 87 13 88 14 89 15 90 16 92 17 93 25 94 18 95 20 96 19 97
REMARK SMILES IDX 21 98 22 99 23 100 24 101
REMARK H PARENT 3 6 90 24 56 35 8 79 15 91
REMARK Flexibility Score: inf
ROOT
ATOM      1  C   UNL     1       4.671  -2.734  -0.241  1.00  0.00     0.023 C 
ENDROOT
BRANCH   1   2
ATOM      2  C   UNL     1       4.422  -1.235  -0.367  1.00  0.00     0.116 C 
BRANCH   2   3
ATOM      3  N   UNL     1       3.025  -0.897  -0.601  1.00  0.00    -0.352 N 
ATOM      4  O   UNL     1       1.096   0.239  -0.308  1.00  0.00    -0.269 OA
ATOM      5  C   UNL     1       2.301   0.154  -0.089  1.00  0.00     0.251 C 
ATOM      6  H   UNL     1       2.535  -1.501  -1.204  1.00  0.00     0.163 HD
BRANCH   5   7
ATOM      7  C   UNL     1       2.980   1.155   0.761  1.00  0.00     0.039 A 
ATOM      8  C   UNL     1       4.194   1.718   0.362  1.00  0.00     0.014 A 
ATOM      9  C   UNL     1       2.417   1.494   1.995  1.00  0.00     0.014 A 
ATOM     10  C   UNL     1       4.918   2.494   1.259  1.00  0.00     0.010 A 
ATOM     11  C   UNL     1       3.113   2.338   2.865  1.00  0.00     0.010 A 
ATOM     12  C   UNL     1       4.391   2.806   2.524  1.00  0.00    -0.014 A 
BRANCH  12  13
ATOM     13  C   UNL     1       5.200   3.625   3.463  1.00  0.00     0.031 A 
ATOM     14  C   UNL     1       5.722   3.041   4.749  1.00  0.00     0.074 A 
ATOM     15  C   UNL     1       5.508   4.891   3.122  1.00  0.00     0.049 A 
ATOM     16  N   UNL     1       6.491   3.595   5.652  1.00  0.00    -0.248 NA
ATOM     17  C   UNL     1       5.324   1.661   5.071  1.00  0.00     0.031 C 
ATOM     18  C   UNL     1       5.048   5.572   1.909  1.00  0.00     0.029 A 
ATOM     19  N   UNL     1       6.301   5.821   3.744  1.00  0.00    -0.354 N 
ATOM     20  C   UNL     1       6.647   2.648   6.657  1.00  0.00     0.074 A 
ATOM     21  C   UNL     1       5.877   1.488   6.263  1.00  0.00     0.031 C 
ATOM     22  C   UNL     1       5.610   6.788   1.847  1.00  0.00     0.029 A 
ATOM     23  C   UNL     1       6.431   6.992   3.036  1.00  0.00     0.049 A 
ATOM     24  H   UNL     1       6.735   5.665   4.613  1.00  0.00     0.167 HD
ATOM     25  C   UNL     1       7.371   2.735   7.800  1.00  0.00     0.037 A 
ATOM     26  C   UNL     1       7.135   8.106   3.309  1.00  0.00     0.037 A 
ATOM     27  C   UNL     1       8.164   3.880   8.172  1.00  0.00     0.049 A 
ATOM     28  C   UNL     1       7.952   8.165   4.567  1.00  0.00     0.074 A 
ATOM     29  C   UNL     1       8.962   4.048   9.291  1.00  0.00     0.029 A 
ATOM     30  N   UNL     1       8.264   5.049   7.432  1.00  0.00    -0.354 N 
ATOM     31  N   UNL     1       8.106   7.249   5.493  1.00  0.00    -0.248 NA
ATOM     32  C   UNL     1       8.692   9.409   4.818  1.00  0.00     0.031 C 
ATOM     33  C   UNL     1       9.522   5.330   9.241  1.00  0.00     0.029 A 
ATOM     34  C   UNL     1       9.101   5.947   8.074  1.00  0.00     0.049 A 
ATOM     35  H   UNL     1       7.806   5.216   6.577  1.00  0.00     0.167 HD
ATOM     36  C   UNL     1       8.975   7.798   6.428  1.00  0.00     0.074 A 
ATOM     37  C   UNL     1       9.323   9.121   5.948  1.00  0.00     0.031 C 
ATOM     38  C   UNL     1       9.441   7.257   7.580  1.00  0.00     0.037 A 
BRANCH  25  39
ATOM     39  C   UNL     1       7.327   1.566   8.744  1.00  0.00     0.058 A 
ATOM     40  C   UNL     1       8.007   0.368   8.472  1.00  0.00     0.135 A 
ATOM     41  C   UNL     1       6.624   1.657   9.957  1.00  0.00     0.135 A 
ATOM     42  F   UNL     1       8.683   0.222   7.321  1.00  0.00    -0.206 F 
ATOM     43  C   UNL     1       7.969  -0.707   9.355  1.00  0.00     0.059 A 
ATOM     44  C   UNL     1       6.590   0.603  10.864  1.00  0.00     0.059 A 
ATOM     45  F   UNL     1       5.957   2.780  10.267  1.00  0.00    -0.206 F 
ATOM     46  C   UNL     1       7.254  -0.582  10.547  1.00  0.00     0.060 A 
BRANCH  46  47
ATOM     47  S   UNL     1       7.208  -1.984  11.684  1.00  0.00     0.124 S 
ATOM     48  O   UNL     1       6.245  -2.861  11.024  1.00  0.00    -0.237 OA
ATOM     49  O   UNL     1       8.593  -2.444  11.674  1.00  0.00    -0.237 OA
ATOM     50  O   UNL     1       6.758  -1.389  12.938  1.00  0.00    -0.744 OA
ENDBRANCH  46  47
ENDBRANCH  25  39
BRANCH  26  51
ATOM     51  C   UNL     1       7.112   9.242   2.354  1.00  0.00     0.058 A 
ATOM     52  C   UNL     1       8.229   9.540   1.562  1.00  0.00     0.135 A 
ATOM     53  C   UNL     1       5.961  10.027   2.189  1.00  0.00     0.135 A 
ATOM     54  F   UNL     1       9.353   8.817   1.688  1.00  0.00    -0.206 F 
ATOM     55  C   UNL     1       8.212  10.584   0.644  1.00  0.00     0.059 A 
ATOM     56  C   UNL     1       5.911  11.061   1.261  1.00  0.00     0.059 A 
ATOM     57  F   UNL     1       4.860   9.767   2.912  1.00  0.00    -0.206 F 
ATOM     58  C   UNL     1       7.045  11.338   0.499  1.00  0.00     0.060 A 
BRANCH  58  59
ATOM     59  S   UNL     1       7.005  12.651  -0.740  1.00  0.00     0.124 S 
ATOM     60  O   UNL     1       7.735  13.715  -0.061  1.00  0.00    -0.237 OA
ATOM     61  O   UNL     1       7.687  12.030  -1.872  1.00  0.00    -0.237 OA
ATOM     62  O   UNL     1       5.577  12.884  -0.932  1.00  0.00    -0.744 OA
ENDBRANCH  58  59
ENDBRANCH  26  51
BRANCH  38  63
ATOM     63  C   UNL     1      10.402   8.086   8.382  1.00  0.00     0.058 A 
ATOM     64  C   UNL     1       9.969   9.184   9.142  1.00  0.00     0.135 A 
ATOM     65  C   UNL     1      11.768   7.767   8.404  1.00  0.00     0.135 A 
ATOM     66  F   UNL     1       8.673   9.533   9.147  1.00  0.00    -0.206 F 
ATOM     67  C   UNL     1      10.864   9.956   9.875  1.00  0.00     0.059 A 
ATOM     68  C   UNL     1      12.678   8.512   9.147  1.00  0.00     0.059 A 
ATOM     69  F   UNL     1      12.229   6.721   7.701  1.00  0.00    -0.206 F 
ATOM     70  C   UNL     1      12.218   9.615   9.866  1.00  0.00     0.060 A 
BRANCH  70  71
ATOM     71  S   UNL     1      13.374  10.614  10.828  1.00  0.00     0.124 S 
ATOM     72  O   UNL     1      13.562  11.767   9.953  1.00  0.00    -0.237 OA
ATOM     73  O   UNL     1      12.629  10.866  12.057  1.00  0.00    -0.237 OA
ATOM     74  O   UNL     1      14.534   9.740  10.975  1.00  0.00    -0.744 OA
ENDBRANCH  70  71
ENDBRANCH  38  63
ENDBRANCH  12  13
ENDBRANCH   5   7
ENDBRANCH   2   3
ENDBRANCH   1   2
BRANCH   1  75
ATOM     75  C   UNL     1       4.227  -3.574  -1.442  1.00  0.00     0.023 C 
BRANCH  75  76
ATOM     76  C   UNL     1       4.812  -3.123  -2.778  1.00  0.00     0.116 C 
BRANCH  76  77
ATOM     77  N   UNL     1       6.247  -3.339  -2.830  1.00  0.00    -0.356 N 
ATOM     78  C   UNL     1       6.930  -4.372  -3.408  1.00  0.00     0.227 C 
ATOM     79  H   UNL     1       6.801  -2.652  -2.392  1.00  0.00     0.163 HD
ATOM     80  O   UNL     1       8.139  -4.469  -3.210  1.00  0.00    -0.275 OA
BRANCH  78  81
ATOM     81  C   UNL     1       6.165  -5.322  -4.297  1.00  0.00     0.127 C 
ATOM     82  C   UNL     1       6.942  -6.621  -4.689  1.00  0.00     0.127 C 
ATOM     83  C   UNL     1       5.907  -4.690  -5.673  1.00  0.00     0.155 C 
ATOM     84  C   UNL     1       6.847  -6.561  -6.227  1.00  0.00     0.155 C 
ATOM     85  C   UNL     1       7.176  -4.325  -6.391  1.00  0.00     0.004 C 
ATOM     86  O   UNL     1       5.568  -5.893  -6.412  1.00  0.00    -0.365 OA
ATOM     87  C   UNL     1       7.756  -5.482  -6.734  1.00  0.00     0.004 C 
BRANCH  82  88
ATOM     88  C   UNL     1       6.285  -7.876  -4.133  1.00  0.00     0.231 C 
ATOM     89  O   UNL     1       5.385  -7.825  -3.290  1.00  0.00    -0.274 OA
ATOM     90  N   UNL     1       6.654  -9.120  -4.574  1.00  0.00    -0.326 N 
ATOM     91  H   UNL     1       6.069  -9.851  -4.269  1.00  0.00     0.169 HD
BRANCH  90  92
ATOM     92  C   UNL     1       7.721  -9.528  -5.383  1.00  0.00     0.041 A 
ATOM     93  C   UNL     1       7.486 -10.584  -6.268  1.00  0.00     0.026 A 
ATOM     94  C   UNL     1       8.982  -8.930  -5.349  1.00  0.00     0.039 A 
ATOM     95  C   UNL     1       8.467 -10.966  -7.182  1.00  0.00     0.003 A 
ATOM     96  C   UNL     1       9.985  -9.318  -6.252  1.00  0.00     0.058 A 
ATOM     97  C   UNL     1       9.706 -10.328  -7.184  1.00  0.00     0.013 A 
BRANCH  96  98
ATOM     98  C   UNL     1      11.339  -8.652  -6.240  1.00  0.00     0.416 C 
ATOM     99  F   UNL     1      12.361  -9.550  -6.187  1.00  0.00    -0.166 F 
ATOM    100  F   UNL     1      11.553  -7.908  -7.361  1.00  0.00    -0.166 F 
ATOM    101  F   UNL     1      11.525  -7.809  -5.189  1.00  0.00    -0.166 F 
ENDBRANCH  96  98
ENDBRANCH  90  92
ENDBRANCH  82  88
ENDBRANCH  78  81
ENDBRANCH  76  77
ENDBRANCH  75  76
ENDBRANCH   1  75
TORSDOF 17
