REMARK SMILES CCCCCNC(=O)Oc1cccc(-c2ccc([C@@H](C)C(=O)NCCCCNC(=O)c3ccc(-c4c5nc(c(-c6c(F)cc(S(=O)(=O)[O-])cc6F)c6ccc([nH]6)c(-c6c(F)cc(S(=O)(=O)[O-])cc6F)c6nc(c(-c7c(F)cc(S(=O)(=O)[O-])cc7F)c7ccc4[nH]7)C=C6)C=C5)cc3)cc2F)c1
REMARK SMILES IDX 21 1 22 2 23 3 19 5 20 6 18 7 15 8 16 9 98 10 17 11 97 12
REMARK SMILES IDX 99 13 14 14 10 15 11 16 100 17 12 18 13 19 9 20 7 21 6 22
REMARK SMILES IDX 8 24 5 25 4 26 3 27 2 28 1 29 24 30 25 31 26 32 27 33 28 34
REMARK SMILES IDX 29 35 30 37 31 38 32 39 96 40 33 41 95 42 34 43 35 44 36 45
REMARK SMILES IDX 89 46 37 47 94 48 88 49 90 50 38 51 93 52 87 53 86 54 39 56
REMARK SMILES IDX 73 57 52 58 72 59 53 60 56 61 71 62 91 63 54 64 55 65 70 67
REMARK SMILES IDX 92 68 57 69 40 70 41 71 50 72 42 73 43 74 49 75 51 76 44 77
REMARK SMILES IDX 45 78 46 79 47 80 48 81 74 82 75 83 84 84 76 85 77 86 83 87
REMARK SMILES IDX 85 88 78 89 79 90 80 91 81 92 82 93 58 94 59 95 68 96 60 97
REMARK SMILES IDX 61 98 67 99 69 100 62 101 63 102 64 103 65 104 66 105
REMARK H PARENT 23 4 6 23 28 36 90 55 56 66
REMARK Flexibility Score: inf
ROOT
ATOM      1  C   UNL     1      -2.225   2.324 -13.507  1.00  0.00     0.227 C 
ATOM      2  O   UNL     1      -1.150   2.930 -13.427  1.00  0.00    -0.274 OA
ATOM      3  N   UNL     1      -3.356   3.079 -13.447  1.00  0.00    -0.356 N 
ATOM      4  H   UNL     1      -3.192   4.048 -13.401  1.00  0.00     0.163 HD
ENDROOT
BRANCH   1   5
ATOM      5  C   UNL     1      -2.224   0.795 -13.681  1.00  0.00     0.105 C 
ATOM      6  C   UNL     1      -2.858   0.313 -14.984  1.00  0.00     0.023 C 
BRANCH   5   7
ATOM      7  C   UNL     1      -2.627   0.042 -12.423  1.00  0.00    -0.033 A 
ATOM      8  C   UNL     1      -3.327  -1.100  -9.895  1.00  0.00     0.018 A 
ATOM      9  C   UNL     1      -4.297  -0.818 -10.870  1.00  0.00     0.012 A 
ATOM     10  C   UNL     1      -1.992  -0.865 -10.255  1.00  0.00     0.131 A 
ATOM     11  C   UNL     1      -3.949  -0.296 -12.123  1.00  0.00     0.005 A 
ATOM     12  C   UNL     1      -1.645  -0.285 -11.478  1.00  0.00     0.044 A 
ATOM     13  F   UNL     1      -0.992  -1.184  -9.417  1.00  0.00    -0.206 F 
BRANCH   8  14
ATOM     14  C   UNL     1      -3.716  -1.572  -8.548  1.00  0.00    -0.012 A 
ATOM     15  C   UNL     1      -3.441  -1.530  -6.129  1.00  0.00     0.133 A 
ATOM     16  C   UNL     1      -4.500  -2.414  -5.958  1.00  0.00     0.047 A 
ATOM     17  C   UNL     1      -3.043  -1.117  -7.401  1.00  0.00     0.056 A 
ATOM     18  C   UNL     1      -5.184  -2.874  -7.078  1.00  0.00     0.004 A 
ATOM     19  C   UNL     1      -4.792  -2.461  -8.357  1.00  0.00     0.009 A 
BRANCH  15  20
ATOM     20  O   UNL     1      -2.712  -1.172  -4.985  1.00  0.00    -0.410 OA
BRANCH  20  21
ATOM     21  C   UNL     1      -2.468   0.176  -4.763  1.00  0.00     0.412 C 
ATOM     22  N   UNL     1      -1.623   0.397  -3.710  1.00  0.00    -0.321 N 
ATOM     23  H   UNL     1      -1.424   1.337  -3.492  1.00  0.00     0.167 HD
ATOM     24  O   UNL     1      -2.934   1.109  -5.404  1.00  0.00    -0.224 OA
BRANCH  22  25
ATOM     25  C   UNL     1      -0.992  -0.609  -2.883  1.00  0.00     0.119 C 
BRANCH  25  26
ATOM     26  C   UNL     1       0.533  -0.502  -2.910  1.00  0.00     0.021 C 
BRANCH  26  27
ATOM     27  C   UNL     1       1.102   0.790  -2.313  1.00  0.00     0.002 C 
BRANCH  27  28
ATOM     28  C   UNL     1       0.688   1.091  -0.870  1.00  0.00    -0.003 C 
ATOM     29  C   UNL     1       1.099   0.009   0.118  1.00  0.00     0.004 C 
ENDBRANCH  27  28
ENDBRANCH  26  27
ENDBRANCH  25  26
ENDBRANCH  22  25
ENDBRANCH  20  21
ENDBRANCH  15  20
ENDBRANCH   8  14
ENDBRANCH   5   7
ENDBRANCH   1   5
BRANCH   3  30
ATOM     30  C   UNL     1      -4.757   2.714 -13.440  1.00  0.00     0.116 C 
BRANCH  30  31
ATOM     31  C   UNL     1      -5.333   2.671 -12.024  1.00  0.00     0.023 C 
BRANCH  31  32
ATOM     32  C   UNL     1      -5.860   4.006 -11.505  1.00  0.00     0.023 C 
BRANCH  32  33
ATOM     33  C   UNL     1      -6.995   4.615 -12.318  1.00  0.00     0.116 C 
BRANCH  33  34
ATOM     34  N   UNL     1      -8.155   3.744 -12.464  1.00  0.00    -0.352 N 
ATOM     35  C   UNL     1      -9.482   4.107 -12.527  1.00  0.00     0.251 C 
ATOM     36  H   UNL     1      -7.967   2.780 -12.525  1.00  0.00     0.163 HD
ATOM     37  O   UNL     1     -10.361   3.253 -12.565  1.00  0.00    -0.269 OA
BRANCH  35  38
ATOM     38  C   UNL     1      -9.825   5.544 -12.498  1.00  0.00     0.039 A 
ATOM     39  C   UNL     1     -10.743   6.002 -11.551  1.00  0.00     0.014 A 
ATOM     40  C   UNL     1      -9.168   6.441 -13.343  1.00  0.00     0.014 A 
ATOM     41  C   UNL     1     -10.938   7.376 -11.397  1.00  0.00     0.010 A 
ATOM     42  C   UNL     1      -9.297   7.808 -13.126  1.00  0.00     0.010 A 
ATOM     43  C   UNL     1     -10.181   8.291 -12.149  1.00  0.00    -0.014 A 
BRANCH  43  44
ATOM     44  C   UNL     1     -10.292   9.755 -11.921  1.00  0.00     0.031 A 
ATOM     45  C   UNL     1     -10.765  10.656 -13.030  1.00  0.00     0.074 A 
ATOM     46  C   UNL     1      -9.905  10.277 -10.740  1.00  0.00     0.049 A 
ATOM     47  N   UNL     1     -10.881  11.959 -13.041  1.00  0.00    -0.248 NA
ATOM     48  C   UNL     1     -11.127  10.012 -14.303  1.00  0.00     0.031 C 
ATOM     49  C   UNL     1      -9.366   9.513  -9.611  1.00  0.00     0.029 A 
ATOM     50  N   UNL     1      -9.896  11.574 -10.292  1.00  0.00    -0.354 N 
ATOM     51  C   UNL     1     -11.315  12.289 -14.319  1.00  0.00     0.074 A 
ATOM     52  C   UNL     1     -11.381  11.059 -15.075  1.00  0.00     0.031 C 
ATOM     53  C   UNL     1      -9.110  10.351  -8.593  1.00  0.00     0.029 A 
ATOM     54  C   UNL     1      -9.428  11.713  -9.005  1.00  0.00     0.049 A 
ATOM     55  H   UNL     1     -10.197  12.335 -10.840  1.00  0.00     0.167 HD
ATOM     56  C   UNL     1     -11.658  13.504 -14.809  1.00  0.00     0.037 A 
ATOM     57  C   UNL     1      -9.271  12.815  -8.245  1.00  0.00     0.037 A 
ATOM     58  C   UNL     1     -11.615  14.721 -14.041  1.00  0.00     0.049 A 
ATOM     59  C   UNL     1      -9.666  14.154  -8.811  1.00  0.00     0.074 A 
ATOM     60  C   UNL     1     -12.000  15.993 -14.425  1.00  0.00     0.029 A 
ATOM     61  N   UNL     1     -11.161  14.817 -12.734  1.00  0.00    -0.354 N 
ATOM     62  N   UNL     1     -10.148  14.438  -9.998  1.00  0.00    -0.248 NA
ATOM     63  C   UNL     1      -9.505  15.320  -7.932  1.00  0.00     0.031 C 
ATOM     64  C   UNL     1     -11.734  16.867 -13.366  1.00  0.00     0.029 A 
ATOM     65  C   UNL     1     -11.236  16.131 -12.303  1.00  0.00     0.049 A 
ATOM     66  H   UNL     1     -10.833  14.063 -12.193  1.00  0.00     0.167 HD
ATOM     67  C   UNL     1     -10.374  15.810  -9.998  1.00  0.00     0.074 A 
ATOM     68  C   UNL     1      -9.990  16.295  -8.689  1.00  0.00     0.031 C 
ATOM     69  C   UNL     1     -10.857  16.596 -10.992  1.00  0.00     0.037 A 
BRANCH  56  70
ATOM     70  C   UNL     1     -12.120  13.575 -16.239  1.00  0.00     0.058 A 
ATOM     71  C   UNL     1     -13.349  13.029 -16.645  1.00  0.00     0.135 A 
ATOM     72  C   UNL     1     -11.344  14.229 -17.211  1.00  0.00     0.135 A 
ATOM     73  F   UNL     1     -14.123  12.377 -15.762  1.00  0.00    -0.206 F 
ATOM     74  C   UNL     1     -13.779  13.102 -17.965  1.00  0.00     0.059 A 
ATOM     75  C   UNL     1     -11.769  14.341 -18.532  1.00  0.00     0.059 A 
ATOM     76  F   UNL     1     -10.160  14.768 -16.880  1.00  0.00    -0.206 F 
ATOM     77  C   UNL     1     -12.982  13.763 -18.901  1.00  0.00     0.060 A 
BRANCH  77  78
ATOM     78  S   UNL     1     -13.563  13.860 -20.608  1.00  0.00     0.124 S 
ATOM     79  O   UNL     1     -13.381  12.482 -21.055  1.00  0.00    -0.237 OA
ATOM     80  O   UNL     1     -14.946  14.294 -20.442  1.00  0.00    -0.237 OA
ATOM     81  O   UNL     1     -12.669  14.840 -21.217  1.00  0.00    -0.744 OA
ENDBRANCH  77  78
ENDBRANCH  56  70
BRANCH  57  82
ATOM     82  C   UNL     1      -8.742  12.698  -6.859  1.00  0.00     0.058 A 
ATOM     83  C   UNL     1      -9.566  12.936  -5.748  1.00  0.00     0.135 A 
ATOM     84  C   UNL     1      -7.406  12.343  -6.615  1.00  0.00     0.135 A 
ATOM     85  F   UNL     1     -10.849  13.283  -5.928  1.00  0.00    -0.206 F 
ATOM     86  C   UNL     1      -9.081  12.848  -4.447  1.00  0.00     0.059 A 
ATOM     87  C   UNL     1      -6.905  12.222  -5.322  1.00  0.00     0.059 A 
ATOM     88  F   UNL     1      -6.580  12.087  -7.641  1.00  0.00    -0.206 F 
ATOM     89  C   UNL     1      -7.748  12.489  -4.244  1.00  0.00     0.060 A 
BRANCH  89  90
ATOM     90  S   UNL     1      -7.139  12.343  -2.550  1.00  0.00     0.124 S 
ATOM     91  O   UNL     1      -7.064  13.742  -2.143  1.00  0.00    -0.237 OA
ATOM     92  O   UNL     1      -8.185  11.548  -1.916  1.00  0.00    -0.237 OA
ATOM     93  O   UNL     1      -5.857  11.663  -2.712  1.00  0.00    -0.744 OA
ENDBRANCH  89  90
ENDBRANCH  57  82
BRANCH  69  94
ATOM     94  C   UNL     1     -11.036  18.060 -10.692  1.00  0.00     0.058 A 
ATOM     95  C   UNL     1      -9.940  18.927 -10.563  1.00  0.00     0.135 A 
ATOM     96  C   UNL     1     -12.324  18.609 -10.587  1.00  0.00     0.135 A 
ATOM     97  F   UNL     1      -8.688  18.453 -10.650  1.00  0.00    -0.206 F 
ATOM     98  C   UNL     1     -10.115  20.285 -10.313  1.00  0.00     0.059 A 
ATOM     99  C   UNL     1     -12.523  19.968 -10.367  1.00  0.00     0.059 A 
ATOM    100  F   UNL     1     -13.407  17.825 -10.714  1.00  0.00    -0.206 F 
ATOM    101  C   UNL     1     -11.411  20.796 -10.219  1.00  0.00     0.060 A 
BRANCH 101 102
ATOM    102  S   UNL     1     -11.624  22.565  -9.928  1.00  0.00     0.124 S 
ATOM    103  O   UNL     1     -11.247  22.678  -8.523  1.00  0.00    -0.237 OA
ATOM    104  O   UNL     1     -10.692  23.154 -10.884  1.00  0.00    -0.237 OA
ATOM    105  O   UNL     1     -13.037  22.790 -10.219  1.00  0.00    -0.744 OA
ENDBRANCH 101 102
ENDBRANCH  69  94
ENDBRANCH  43  44
ENDBRANCH  35  38
ENDBRANCH  33  34
ENDBRANCH  32  33
ENDBRANCH  31  32
ENDBRANCH  30  31
ENDBRANCH   3  30
TORSDOF 22
