REMARK SMILES Cc1cnn(C2(C(=O)NCCCCNC(=O)c3ccc(-c4c5nc(c(-c6c(F)cc(S(=O)(=O)[O-])cc6F)c6ccc([nH]6)c(-c6c(F)cc(S(=O)(=O)[O-])cc6F)c6nc(c(-c7c(F)cc(S(=O)(=O)[O-])cc7F)c7ccc4[nH]7)C=C6)C=C5)cc3)CCN(C(=O)c3cscn3)CC2)c1
REMARK SMILES IDX 12 1 11 2 10 3 9 4 7 5 8 6 6 8 83 9 94 10 84 11 93 12 85 13
REMARK SMILES IDX 86 14 87 15 5 16 1 17 2 18 3 19 95 20 4 21 88 22 89 23 92 24
REMARK SMILES IDX 90 25 91 26 13 27 14 28 15 29 16 31 17 32 18 33 82 34 19 35
REMARK SMILES IDX 81 36 20 37 21 38 22 39 75 40 23 41 80 42 74 43 76 44 24 45
REMARK SMILES IDX 79 46 73 47 72 48 25 50 59 51 38 52 58 53 39 54 42 55 57 56
REMARK SMILES IDX 77 57 40 58 41 59 56 61 78 62 43 63 26 64 27 65 36 66 28 67
REMARK SMILES IDX 29 68 35 69 37 70 30 71 31 72 32 73 33 74 34 75 60 76 61 77
REMARK SMILES IDX 70 78 62 79 63 80 69 81 71 82 64 83 65 84 66 85 67 86 68 87
REMARK SMILES IDX 44 88 45 89 54 90 46 91 47 92 53 93 55 94 48 95 49 96 50 97
REMARK SMILES IDX 51 98 52 99
REMARK H PARENT 9 7 14 30 76 49 42 60
REMARK Flexibility Score: inf
ROOT
ATOM      1  C   UNL     1      -1.803   8.073   5.154  1.00  0.00     0.023 C 
ENDROOT
BRANCH   1   2
ATOM      2  C   UNL     1      -0.997   7.638   3.924  1.00  0.00     0.023 C 
BRANCH   2   3
ATOM      3  C   UNL     1       0.192   6.700   4.179  1.00  0.00     0.116 C 
BRANCH   3   4
ATOM      4  N   UNL     1      -0.226   5.386   4.655  1.00  0.00    -0.354 N 
ATOM      5  C   UNL     1      -0.271   4.132   4.081  1.00  0.00     0.248 C 
ATOM      6  O   UNL     1      -0.856   3.307   4.785  1.00  0.00    -0.272 OA
ATOM      7  H   UNL     1      -0.543   5.395   5.587  1.00  0.00     0.163 HD
BRANCH   5   8
ATOM      8  C   UNL     1       0.335   3.847   2.659  1.00  0.00     0.144 C 
ATOM      9  C   UNL     1      -0.491   4.691   1.659  1.00  0.00     0.062 C 
ATOM     10  C   UNL     1       1.845   4.189   2.735  1.00  0.00     0.062 C 
ATOM     11  C   UNL     1       0.250   5.191   0.433  1.00  0.00     0.123 C 
ATOM     12  C   UNL     1       2.466   4.670   1.433  1.00  0.00     0.123 C 
ATOM     13  N   UNL     1       1.615   5.608   0.706  1.00  0.00    -0.337 N 
ATOM     14  C   UNL     1       2.080   6.776   0.078  1.00  0.00     0.273 C 
ATOM     15  O   UNL     1       1.322   7.539  -0.519  1.00  0.00    -0.267 OA
BRANCH   8  16
ATOM     16  N   UNL     1       0.245   2.418   2.203  1.00  0.00    -0.257 N 
ATOM     17  C   UNL     1       0.891  -0.405  -0.046  1.00  0.00     0.048 C 
ATOM     18  C   UNL     1       0.522   0.556   1.014  1.00  0.00    -0.013 A 
ATOM     19  C   UNL     1      -0.009   0.308   2.291  1.00  0.00     0.138 A 
ATOM     20  C   UNL     1       0.650   1.926   0.979  1.00  0.00     0.113 A 
ATOM     21  N   UNL     1      -0.197   1.425   2.991  1.00  0.00    -0.180 NA
ENDBRANCH   8  16
BRANCH  14  22
ATOM     22  C   UNL     1       3.519   7.046   0.123  1.00  0.00     0.139 A 
ATOM     23  C   UNL     1       4.475   6.280  -0.525  1.00  0.00     0.100 A 
ATOM     24  N   UNL     1       4.028   8.144   0.810  1.00  0.00    -0.240 NA
ATOM     25  S   UNL     1       6.040   6.918  -0.240  1.00  0.00    -0.130 S 
ATOM     26  C   UNL     1       5.337   8.172   0.693  1.00  0.00     0.176 A 
ENDBRANCH  14  22
ENDBRANCH   5   8
ENDBRANCH   3   4
ENDBRANCH   2   3
ENDBRANCH   1   2
BRANCH   1  27
ATOM     27  C   UNL     1      -1.030   8.935   6.138  1.00  0.00     0.116 C 
BRANCH  27  28
ATOM     28  N   UNL     1      -0.572  10.199   5.555  1.00  0.00    -0.352 N 
ATOM     29  C   UNL     1       0.216  11.176   6.144  1.00  0.00     0.251 C 
ATOM     30  H   UNL     1      -0.860  10.376   4.630  1.00  0.00     0.163 HD
ATOM     31  O   UNL     1       0.238  12.316   5.717  1.00  0.00    -0.269 OA
BRANCH  29  32
ATOM     32  C   UNL     1       1.041  10.787   7.301  1.00  0.00     0.039 A 
ATOM     33  C   UNL     1       1.152  11.592   8.441  1.00  0.00     0.014 A 
ATOM     34  C   UNL     1       1.669   9.550   7.231  1.00  0.00     0.014 A 
ATOM     35  C   UNL     1       1.839  11.098   9.549  1.00  0.00     0.010 A 
ATOM     36  C   UNL     1       2.176   8.996   8.370  1.00  0.00     0.010 A 
ATOM     37  C   UNL     1       2.336   9.792   9.505  1.00  0.00    -0.014 A 
BRANCH  37  38
ATOM     38  C   UNL     1       2.992   9.161  10.642  1.00  0.00     0.031 A 
ATOM     39  C   UNL     1       2.115   8.877  11.813  1.00  0.00     0.074 A 
ATOM     40  C   UNL     1       4.188   8.558  10.450  1.00  0.00     0.049 A 
ATOM     41  N   UNL     1       2.238   9.306  13.026  1.00  0.00    -0.248 NA
ATOM     42  C   UNL     1       0.862   8.134  11.581  1.00  0.00     0.031 C 
ATOM     43  C   UNL     1       4.965   8.486   9.203  1.00  0.00     0.029 A 
ATOM     44  N   UNL     1       4.861   7.705  11.262  1.00  0.00    -0.354 N 
ATOM     45  C   UNL     1       1.224   8.683  13.757  1.00  0.00     0.074 A 
ATOM     46  C   UNL     1       0.289   8.187  12.784  1.00  0.00     0.031 C 
ATOM     47  C   UNL     1       5.817   7.442   9.263  1.00  0.00     0.029 A 
ATOM     48  C   UNL     1       5.761   6.876  10.595  1.00  0.00     0.049 A 
ATOM     49  H   UNL     1       4.726   7.674  12.237  1.00  0.00     0.167 HD
ATOM     50  C   UNL     1       1.376   8.387  15.081  1.00  0.00     0.037 A 
ATOM     51  C   UNL     1       6.326   5.748  11.095  1.00  0.00     0.037 A 
ATOM     52  C   UNL     1       2.517   9.080  15.632  1.00  0.00     0.049 A 
ATOM     53  C   UNL     1       6.224   5.851  12.581  1.00  0.00     0.074 A 
ATOM     54  C   UNL     1       2.904  10.405  15.706  1.00  0.00     0.029 A 
ATOM     55  N   UNL     1       3.658   8.348  15.869  1.00  0.00    -0.354 N 
ATOM     56  N   UNL     1       6.824   6.781  13.282  1.00  0.00    -0.248 NA
ATOM     57  C   UNL     1       5.067   5.244  13.224  1.00  0.00     0.031 C 
ATOM     58  C   UNL     1       4.308  10.388  15.457  1.00  0.00     0.029 A 
ATOM     59  C   UNL     1       4.707   9.055  15.338  1.00  0.00     0.049 A 
ATOM     60  H   UNL     1       3.712   7.481  16.332  1.00  0.00     0.167 HD
ATOM     61  C   UNL     1       5.893   7.170  14.238  1.00  0.00     0.074 A 
ATOM     62  C   UNL     1       4.860   6.134  14.200  1.00  0.00     0.031 C 
ATOM     63  C   UNL     1       5.877   8.439  14.749  1.00  0.00     0.037 A 
BRANCH  50  64
ATOM     64  C   UNL     1       0.760   7.193  15.790  1.00  0.00     0.058 A 
ATOM     65  C   UNL     1       0.943   7.065  17.186  1.00  0.00     0.135 A 
ATOM     66  C   UNL     1       0.264   6.039  15.143  1.00  0.00     0.135 A 
ATOM     67  F   UNL     1       1.386   8.101  17.917  1.00  0.00    -0.206 F 
ATOM     68  C   UNL     1       0.767   5.855  17.859  1.00  0.00     0.059 A 
ATOM     69  C   UNL     1       0.027   4.840  15.806  1.00  0.00     0.059 A 
ATOM     70  F   UNL     1       0.075   5.975  13.822  1.00  0.00    -0.206 F 
ATOM     71  C   UNL     1       0.335   4.740  17.152  1.00  0.00     0.060 A 
BRANCH  71  72
ATOM     72  S   UNL     1       0.247   3.144  17.980  1.00  0.00     0.124 S 
ATOM     73  O   UNL     1       1.661   2.849  18.183  1.00  0.00    -0.237 OA
ATOM     74  O   UNL     1      -0.519   3.467  19.179  1.00  0.00    -0.237 OA
ATOM     75  O   UNL     1      -0.443   2.301  17.009  1.00  0.00    -0.744 OA
ENDBRANCH  71  72
ENDBRANCH  50  64
BRANCH  51  76
ATOM     76  C   UNL     1       6.548   4.468  10.358  1.00  0.00     0.058 A 
ATOM     77  C   UNL     1       7.293   3.416  10.920  1.00  0.00     0.135 A 
ATOM     78  C   UNL     1       5.830   4.148   9.183  1.00  0.00     0.135 A 
ATOM     79  F   UNL     1       7.990   3.615  12.049  1.00  0.00    -0.206 F 
ATOM     80  C   UNL     1       7.295   2.123  10.377  1.00  0.00     0.059 A 
ATOM     81  C   UNL     1       5.832   2.875   8.614  1.00  0.00     0.059 A 
ATOM     82  F   UNL     1       5.027   5.040   8.587  1.00  0.00    -0.206 F 
ATOM     83  C   UNL     1       6.545   1.858   9.230  1.00  0.00     0.060 A 
BRANCH  83  84
ATOM     84  S   UNL     1       6.407   0.164   8.610  1.00  0.00     0.124 S 
ATOM     85  O   UNL     1       7.758  -0.091   8.124  1.00  0.00    -0.237 OA
ATOM     86  O   UNL     1       6.008  -0.569   9.806  1.00  0.00    -0.237 OA
ATOM     87  O   UNL     1       5.384   0.266   7.572  1.00  0.00    -0.744 OA
ENDBRANCH  83  84
ENDBRANCH  51  76
BRANCH  63  88
ATOM     88  C   UNL     1       7.041   9.361  14.475  1.00  0.00     0.058 A 
ATOM     89  C   UNL     1       7.413   9.813  13.197  1.00  0.00     0.135 A 
ATOM     90  C   UNL     1       7.672   9.972  15.570  1.00  0.00     0.135 A 
ATOM     91  F   UNL     1       6.788   9.372  12.100  1.00  0.00    -0.206 F 
ATOM     92  C   UNL     1       8.388  10.796  13.012  1.00  0.00     0.059 A 
ATOM     93  C   UNL     1       8.623  10.976  15.413  1.00  0.00     0.059 A 
ATOM     94  F   UNL     1       7.316   9.638  16.822  1.00  0.00    -0.206 F 
ATOM     95  C   UNL     1       8.985  11.376  14.129  1.00  0.00     0.060 A 
BRANCH  95  96
ATOM     96  S   UNL     1      10.184  12.705  13.890  1.00  0.00     0.124 S 
ATOM     97  O   UNL     1      11.328  11.988  13.336  1.00  0.00    -0.237 OA
ATOM     98  O   UNL     1       9.489  13.599  12.968  1.00  0.00    -0.237 OA
ATOM     99  O   UNL     1      10.375  13.239  15.237  1.00  0.00    -0.744 OA
ENDBRANCH  95  96
ENDBRANCH  63  88
ENDBRANCH  37  38
ENDBRANCH  29  32
ENDBRANCH  27  28
ENDBRANCH   1  27
TORSDOF 16
