REMARK SMILES CC1(C)C(NC(=O)N[C@]2(C(=O)NCCCCNC(=O)c3ccc(-c4c5nc(c(-c6c(F)cc(S(=O)(=O)[O-])cc6F)c6ccc([nH]6)c(-c6c(F)cc(S(=O)(=O)[O-])cc6F)c6nc(c(-c7c(F)cc(S(=O)(=O)[O-])cc7F)c7ccc4[nH]7)C=C6)C=C5)cc3)CC[C@@H](C)CC2)C1(C)C
REMARK SMILES IDX 15 1 14 2 13 3 12 4 10 5 11 6 9 8 89 9 88 10 90 11 87 12
REMARK SMILES IDX 91 13 86 14 8 15 6 16 7 18 5 19 4 21 2 22 92 23 1 24 3 25
REMARK SMILES IDX 93 26 94 27 16 28 17 29 18 30 19 32 20 33 21 34 85 35 22 36
REMARK SMILES IDX 84 37 23 38 24 39 25 40 78 41 26 42 83 43 77 44 79 45 27 46
REMARK SMILES IDX 82 47 76 48 75 49 28 51 62 52 41 53 61 54 42 55 45 56 60 57
REMARK SMILES IDX 80 58 43 59 44 60 59 62 81 63 46 64 29 65 30 66 39 67 31 68
REMARK SMILES IDX 32 69 38 70 40 71 33 72 34 73 35 74 36 75 37 76 63 77 64 78
REMARK SMILES IDX 73 79 65 80 66 81 72 82 74 83 67 84 68 85 69 86 70 87 71 88
REMARK SMILES IDX 47 89 48 90 57 91 49 92 50 93 56 94 58 95 51 96 52 97 53 98
REMARK SMILES IDX 54 99 55 100
REMARK H PARENT 12 7 8 17 5 20 17 31 79 50 45 61
REMARK Flexibility Score: inf
ROOT
ATOM      1  C   UNL     1      -2.679   4.703  -3.277  1.00  0.00     0.023 C 
ENDROOT
BRANCH   1   2
ATOM      2  C   UNL     1      -2.580   4.409  -1.780  1.00  0.00     0.023 C 
BRANCH   2   3
ATOM      3  C   UNL     1      -2.746   2.931  -1.446  1.00  0.00     0.116 C 
BRANCH   3   4
ATOM      4  N   UNL     1      -1.603   2.179  -1.926  1.00  0.00    -0.354 N 
ATOM      5  C   UNL     1      -1.063   1.005  -1.500  1.00  0.00     0.245 C 
ATOM      6  O   UNL     1      -0.018   0.654  -2.058  1.00  0.00    -0.272 OA
ATOM      7  H   UNL     1      -1.138   2.588  -2.692  1.00  0.00     0.163 HD
BRANCH   5   8
ATOM      8  C   UNL     1      -1.611   0.271  -0.248  1.00  0.00     0.120 C 
ATOM      9  C   UNL     1       2.570  -0.009   0.267  1.00  0.00     0.007 C 
ATOM     10  C   UNL     1       1.160  -0.174   0.850  1.00  0.00    -0.014 C 
ATOM     11  C   UNL     1       0.424  -1.280   0.069  1.00  0.00     0.006 C 
ATOM     12  C   UNL     1       0.457   1.192   0.917  1.00  0.00     0.006 C 
ATOM     13  C   UNL     1      -1.095  -1.158   0.009  1.00  0.00     0.039 C 
ATOM     14  C   UNL     1      -1.074   1.100   0.956  1.00  0.00     0.039 C 
BRANCH   8  15
ATOM     15  N   UNL     1      -3.085   0.249  -0.275  1.00  0.00    -0.324 N 
ATOM     16  C   UNL     1      -4.008  -0.180  -1.154  1.00  0.00     0.315 C 
ATOM     17  H   UNL     1      -3.486   0.636   0.537  1.00  0.00     0.166 HD
ATOM     18  O   UNL     1      -5.180  -0.180  -0.761  1.00  0.00    -0.249 OA
ATOM     19  N   UNL     1      -3.777  -0.548  -2.433  1.00  0.00    -0.334 N 
ATOM     20  H   UNL     1      -4.609  -0.737  -2.925  1.00  0.00     0.165 HD
BRANCH  19  21
ATOM     21  C   UNL     1      -2.610  -0.730  -3.241  1.00  0.00     0.096 C 
ATOM     22  C   UNL     1      -2.622  -1.510  -4.551  1.00  0.00    -0.007 C 
ATOM     23  C   UNL     1      -2.379   0.002  -4.570  1.00  0.00    -0.007 C 
ATOM     24  C   UNL     1      -1.450  -2.451  -4.769  1.00  0.00     0.014 C 
ATOM     25  C   UNL     1      -3.891  -2.039  -5.175  1.00  0.00     0.014 C 
ATOM     26  C   UNL     1      -3.443   0.908  -5.146  1.00  0.00     0.014 C 
ATOM     27  C   UNL     1      -0.993   0.493  -4.943  1.00  0.00     0.014 C 
ENDBRANCH  19  21
ENDBRANCH   8  15
ENDBRANCH   5   8
ENDBRANCH   3   4
ENDBRANCH   2   3
ENDBRANCH   1   2
BRANCH   1  28
ATOM     28  C   UNL     1      -4.055   4.417  -3.868  1.00  0.00     0.116 C 
BRANCH  28  29
ATOM     29  N   UNL     1      -5.054   5.350  -3.382  1.00  0.00    -0.352 N 
ATOM     30  C   UNL     1      -5.789   6.260  -4.093  1.00  0.00     0.251 C 
ATOM     31  H   UNL     1      -5.226   5.324  -2.413  1.00  0.00     0.163 HD
ATOM     32  O   UNL     1      -6.430   7.128  -3.500  1.00  0.00    -0.269 OA
BRANCH  30  33
ATOM     33  C   UNL     1      -5.792   6.210  -5.569  1.00  0.00     0.039 A 
ATOM     34  C   UNL     1      -5.609   7.396  -6.281  1.00  0.00     0.014 A 
ATOM     35  C   UNL     1      -5.982   5.001  -6.250  1.00  0.00     0.014 A 
ATOM     36  C   UNL     1      -5.583   7.366  -7.676  1.00  0.00     0.010 A 
ATOM     37  C   UNL     1      -5.883   4.964  -7.639  1.00  0.00     0.010 A 
ATOM     38  C   UNL     1      -5.697   6.148  -8.367  1.00  0.00    -0.014 A 
BRANCH  38  39
ATOM     39  C   UNL     1      -5.641   6.113  -9.852  1.00  0.00     0.031 A 
ATOM     40  C   UNL     1      -6.848   5.690 -10.646  1.00  0.00     0.074 A 
ATOM     41  C   UNL     1      -4.497   6.441 -10.484  1.00  0.00     0.049 A 
ATOM     42  N   UNL     1      -6.987   5.589 -11.943  1.00  0.00    -0.248 NA
ATOM     43  C   UNL     1      -8.049   5.315  -9.884  1.00  0.00     0.031 C 
ATOM     44  C   UNL     1      -3.249   6.830  -9.824  1.00  0.00     0.029 A 
ATOM     45  N   UNL     1      -4.195   6.498 -11.822  1.00  0.00    -0.354 N 
ATOM     46  C   UNL     1      -8.284   5.135 -12.152  1.00  0.00     0.074 A 
ATOM     47  C   UNL     1      -8.873   4.927 -10.848  1.00  0.00     0.031 C 
ATOM     48  C   UNL     1      -2.326   7.111 -10.758  1.00  0.00     0.029 A 
ATOM     49  C   UNL     1      -2.901   6.885 -12.081  1.00  0.00     0.049 A 
ATOM     50  H   UNL     1      -4.845   6.282 -12.530  1.00  0.00     0.167 HD
ATOM     51  C   UNL     1      -8.934   4.933 -13.324  1.00  0.00     0.037 A 
ATOM     52  C   UNL     1      -2.249   7.035 -13.251  1.00  0.00     0.037 A 
ATOM     53  C   UNL     1      -8.346   5.157 -14.620  1.00  0.00     0.049 A 
ATOM     54  C   UNL     1      -2.986   6.786 -14.539  1.00  0.00     0.074 A 
ATOM     55  C   UNL     1      -8.938   5.029 -15.865  1.00  0.00     0.029 A 
ATOM     56  N   UNL     1      -7.034   5.548 -14.841  1.00  0.00    -0.354 N 
ATOM     57  N   UNL     1      -4.233   6.419 -14.718  1.00  0.00    -0.248 NA
ATOM     58  C   UNL     1      -2.231   6.976 -15.785  1.00  0.00     0.031 C 
ATOM     59  C   UNL     1      -7.969   5.290 -16.839  1.00  0.00     0.029 A 
ATOM     60  C   UNL     1      -6.789   5.640 -16.202  1.00  0.00     0.049 A 
ATOM     61  H   UNL     1      -6.373   5.733 -14.135  1.00  0.00     0.167 HD
ATOM     62  C   UNL     1      -4.419   6.364 -16.096  1.00  0.00     0.074 A 
ATOM     63  C   UNL     1      -3.161   6.747 -16.702  1.00  0.00     0.031 C 
ATOM     64  C   UNL     1      -5.532   6.028 -16.794  1.00  0.00     0.037 A 
BRANCH  51  65
ATOM     65  C   UNL     1     -10.356   4.443 -13.261  1.00  0.00     0.058 A 
ATOM     66  C   UNL     1     -11.399   5.260 -12.795  1.00  0.00     0.135 A 
ATOM     67  C   UNL     1     -10.687   3.155 -13.711  1.00  0.00     0.135 A 
ATOM     68  F   UNL     1     -11.139   6.496 -12.339  1.00  0.00    -0.206 F 
ATOM     69  C   UNL     1     -12.714   4.808 -12.750  1.00  0.00     0.059 A 
ATOM     70  C   UNL     1     -12.000   2.692 -13.704  1.00  0.00     0.059 A 
ATOM     71  F   UNL     1      -9.731   2.331 -14.168  1.00  0.00    -0.206 F 
ATOM     72  C   UNL     1     -13.005   3.522 -13.208  1.00  0.00     0.060 A 
BRANCH  72  73
ATOM     73  S   UNL     1     -14.717   2.953 -13.149  1.00  0.00     0.124 S 
ATOM     74  O   UNL     1     -14.913   2.768 -11.714  1.00  0.00    -0.237 OA
ATOM     75  O   UNL     1     -15.438   4.073 -13.746  1.00  0.00    -0.237 OA
ATOM     76  O   UNL     1     -14.698   1.729 -13.943  1.00  0.00    -0.744 OA
ENDBRANCH  72  73
ENDBRANCH  51  65
BRANCH  52  77
ATOM     77  C   UNL     1      -0.822   7.457 -13.256  1.00  0.00     0.058 A 
ATOM     78  C   UNL     1      -0.442   8.722 -13.729  1.00  0.00     0.135 A 
ATOM     79  C   UNL     1       0.189   6.607 -12.781  1.00  0.00     0.135 A 
ATOM     80  F   UNL     1      -1.370   9.569 -14.200  1.00  0.00    -0.206 F 
ATOM     81  C   UNL     1       0.890   9.124 -13.747  1.00  0.00     0.059 A 
ATOM     82  C   UNL     1       1.524   6.997 -12.762  1.00  0.00     0.059 A 
ATOM     83  F   UNL     1      -0.122   5.393 -12.303  1.00  0.00    -0.206 F 
ATOM     84  C   UNL     1       1.866   8.255 -13.258  1.00  0.00     0.060 A 
BRANCH  84  85
ATOM     85  S   UNL     1       3.586   8.804 -13.244  1.00  0.00     0.124 S 
ATOM     86  O   UNL     1       3.919   8.765 -14.663  1.00  0.00    -0.237 OA
ATOM     87  O   UNL     1       3.478  10.132 -12.649  1.00  0.00    -0.237 OA
ATOM     88  O   UNL     1       4.250   7.805 -12.412  1.00  0.00    -0.744 OA
ENDBRANCH  84  85
ENDBRANCH  52  77
BRANCH  64  89
ATOM     89  C   UNL     1      -5.457   6.093 -18.296  1.00  0.00     0.058 A 
ATOM     90  C   UNL     1      -4.720   5.159 -19.042  1.00  0.00     0.135 A 
ATOM     91  C   UNL     1      -6.175   7.073 -19.001  1.00  0.00     0.135 A 
ATOM     92  F   UNL     1      -4.010   4.205 -18.420  1.00  0.00    -0.206 F 
ATOM     93  C   UNL     1      -4.679   5.210 -20.432  1.00  0.00     0.059 A 
ATOM     94  C   UNL     1      -6.173   7.123 -20.391  1.00  0.00     0.059 A 
ATOM     95  F   UNL     1      -6.905   7.984 -18.338  1.00  0.00    -0.206 F 
ATOM     96  C   UNL     1      -5.412   6.194 -21.098  1.00  0.00     0.060 A 
BRANCH  96  97
ATOM     97  S   UNL     1      -5.377   6.226 -22.903  1.00  0.00     0.124 S 
ATOM     98  O   UNL     1      -4.031   6.726 -23.162  1.00  0.00    -0.237 OA
ATOM     99  O   UNL     1      -5.610   4.826 -23.244  1.00  0.00    -0.237 OA
ATOM    100  O   UNL     1      -6.463   7.139 -23.249  1.00  0.00    -0.744 OA
ENDBRANCH  96  97
ENDBRANCH  64  89
ENDBRANCH  38  39
ENDBRANCH  30  33
ENDBRANCH  28  29
ENDBRANCH   1  28
TORSDOF 16
