REMARK SMILES Cc1ccc2[nH]c(C(=O)NCCCCNC(=O)c3ccc(-c4c5nc(c(-c6c(F)cc(S(=O)(=O)[O-])cc6F)c6ccc([nH]6)c(-c6c(F)cc(S(=O)(=O)[O-])cc6F)c6nc(c(-c7c(F)cc(S(=O)(=O)[O-])cc7F)c7ccc4[nH]7)C=C6)C=C5)cc3)c(NC(=O)[C@H]3C[C@H]3c3ccccc3)c2c1
REMARK SMILES IDX 12 1 11 2 10 3 8 4 9 5 7 7 1 8 2 9 3 10 98 11 4 12 97 13
REMARK SMILES IDX 5 14 84 15 6 16 85 18 86 19 87 21 88 22 89 23 90 24 91 25
REMARK SMILES IDX 92 26 96 27 93 28 95 29 94 30 13 31 14 32 15 33 16 34 17 36
REMARK SMILES IDX 18 37 19 38 83 39 20 40 82 41 21 42 22 43 23 44 76 45 24 46
REMARK SMILES IDX 81 47 75 48 77 49 25 50 80 51 74 52 73 53 26 55 60 56 39 57
REMARK SMILES IDX 59 58 40 59 43 60 58 61 78 62 41 63 42 64 57 66 79 67 44 68
REMARK SMILES IDX 27 69 28 70 37 71 29 72 30 73 36 74 38 75 31 76 32 77 33 78
REMARK SMILES IDX 34 79 35 80 61 81 62 82 71 83 63 84 64 85 70 86 72 87 65 88
REMARK SMILES IDX 66 89 67 90 68 91 69 92 45 93 46 94 55 95 47 96 48 97 54 98
REMARK SMILES IDX 56 99 49 100 50 101 51 102 52 103 53 104
REMARK H PARENT 10 6 6 17 85 20 15 35 77 54 43 65
REMARK Flexibility Score: inf
ROOT
ATOM      1  C   UNL     1      -5.157  -2.447   2.432  1.00  0.00     0.023 C 
ENDROOT
BRANCH   1   2
ATOM      2  C   UNL     1      -6.352  -2.822   1.544  1.00  0.00     0.116 C 
BRANCH   2   3
ATOM      3  N   UNL     1      -6.241  -2.857   0.086  1.00  0.00    -0.351 N 
ATOM      4  C   UNL     1      -6.019  -3.873  -0.822  1.00  0.00     0.269 C 
ATOM      5  O   UNL     1      -6.663  -3.815  -1.875  1.00  0.00    -0.268 OA
ATOM      6  H   UNL     1      -6.346  -1.973  -0.335  1.00  0.00     0.163 HD
BRANCH   4   7
ATOM      7  C   UNL     1      -5.100  -4.956  -0.611  1.00  0.00     0.129 A 
ATOM      8  C   UNL     1      -3.969  -9.803   2.576  1.00  0.00     0.044 C 
ATOM      9  C   UNL     1      -3.997  -8.878   1.386  1.00  0.00    -0.050 A 
ATOM     10  C   UNL     1      -4.436  -9.390   0.161  1.00  0.00     0.005 A 
ATOM     11  C   UNL     1      -3.723  -7.490   1.515  1.00  0.00     0.016 A 
ATOM     12  C   UNL     1      -4.765  -8.543  -0.896  1.00  0.00     0.027 A 
ATOM     13  C   UNL     1      -4.075  -6.601   0.463  1.00  0.00     0.024 A 
ATOM     14  C   UNL     1      -4.679  -7.167  -0.660  1.00  0.00     0.048 A 
ATOM     15  C   UNL     1      -3.981  -5.181   0.160  1.00  0.00     0.080 A 
ATOM     16  N   UNL     1      -5.178  -6.109  -1.380  1.00  0.00    -0.349 N 
ATOM     17  H   UNL     1      -5.533  -6.160  -2.296  1.00  0.00     0.167 HD
BRANCH  15  18
ATOM     18  N   UNL     1      -3.097  -4.256   0.685  1.00  0.00    -0.323 N 
ATOM     19  C   UNL     1      -2.723  -2.961   0.319  1.00  0.00     0.228 C 
ATOM     20  H   UNL     1      -2.632  -4.580   1.490  1.00  0.00     0.170 HD
ATOM     21  O   UNL     1      -2.047  -2.347   1.150  1.00  0.00    -0.274 OA
BRANCH  19  22
ATOM     22  C   UNL     1      -2.723  -2.408  -1.065  1.00  0.00     0.087 C 
ATOM     23  C   UNL     1      -3.715  -2.160  -2.132  1.00  0.00     0.023 C 
ATOM     24  C   UNL     1      -3.133  -0.956  -1.425  1.00  0.00     0.032 C 
BRANCH  24  25
ATOM     25  C   UNL     1      -4.156   0.082  -0.899  1.00  0.00    -0.044 A 
ATOM     26  C   UNL     1      -5.540   0.069  -1.189  1.00  0.00     0.004 A 
ATOM     27  C   UNL     1      -3.700   1.267  -0.278  1.00  0.00     0.004 A 
ATOM     28  C   UNL     1      -6.408   1.129  -0.868  1.00  0.00     0.000 A 
ATOM     29  C   UNL     1      -4.551   2.352   0.011  1.00  0.00     0.000 A 
ATOM     30  C   UNL     1      -5.907   2.282  -0.286  1.00  0.00     0.000 A 
ENDBRANCH  24  25
ENDBRANCH  19  22
ENDBRANCH  15  18
ENDBRANCH   4   7
ENDBRANCH   2   3
ENDBRANCH   1   2
BRANCH   1  31
ATOM     31  C   UNL     1      -4.606  -1.017   2.469  1.00  0.00     0.023 C 
BRANCH  31  32
ATOM     32  C   UNL     1      -5.535   0.093   2.946  1.00  0.00     0.116 C 
BRANCH  32  33
ATOM     33  N   UNL     1      -5.529   0.243   4.398  1.00  0.00    -0.352 N 
ATOM     34  C   UNL     1      -5.330   1.380   5.156  1.00  0.00     0.251 C 
ATOM     35  H   UNL     1      -5.690  -0.583   4.909  1.00  0.00     0.163 HD
ATOM     36  O   UNL     1      -5.142   1.272   6.366  1.00  0.00    -0.269 OA
BRANCH  34  37
ATOM     37  C   UNL     1      -5.334   2.731   4.530  1.00  0.00     0.039 A 
ATOM     38  C   UNL     1      -4.448   3.712   4.989  1.00  0.00     0.014 A 
ATOM     39  C   UNL     1      -6.235   3.053   3.515  1.00  0.00     0.014 A 
ATOM     40  C   UNL     1      -4.434   4.985   4.396  1.00  0.00     0.010 A 
ATOM     41  C   UNL     1      -6.152   4.286   2.866  1.00  0.00     0.010 A 
ATOM     42  C   UNL     1      -5.265   5.281   3.302  1.00  0.00    -0.014 A 
BRANCH  42  43
ATOM     43  C   UNL     1      -5.244   6.616   2.624  1.00  0.00     0.031 A 
ATOM     44  C   UNL     1      -6.516   7.425   2.476  1.00  0.00     0.074 A 
ATOM     45  C   UNL     1      -4.107   7.087   2.068  1.00  0.00     0.049 A 
ATOM     46  N   UNL     1      -6.712   8.558   1.847  1.00  0.00    -0.248 NA
ATOM     47  C   UNL     1      -7.740   6.860   3.066  1.00  0.00     0.031 C 
ATOM     48  C   UNL     1      -2.820   6.390   2.043  1.00  0.00     0.029 A 
ATOM     49  N   UNL     1      -3.850   8.268   1.410  1.00  0.00    -0.354 N 
ATOM     50  C   UNL     1      -8.077   8.814   1.932  1.00  0.00     0.074 A 
ATOM     51  C   UNL     1      -8.672   7.681   2.606  1.00  0.00     0.031 C 
ATOM     52  C   UNL     1      -1.904   7.171   1.448  1.00  0.00     0.029 A 
ATOM     53  C   UNL     1      -2.540   8.412   1.015  1.00  0.00     0.049 A 
ATOM     54  H   UNL     1      -4.541   8.948   1.238  1.00  0.00     0.167 HD
ATOM     55  C   UNL     1      -8.774   9.906   1.531  1.00  0.00     0.037 A 
ATOM     56  C   UNL     1      -1.915   9.428   0.384  1.00  0.00     0.037 A 
ATOM     57  C   UNL     1      -8.178  11.074   0.938  1.00  0.00     0.049 A 
ATOM     58  C   UNL     1      -2.691  10.664   0.011  1.00  0.00     0.074 A 
ATOM     59  C   UNL     1      -8.786  12.269   0.595  1.00  0.00     0.029 A 
ATOM     60  N   UNL     1      -6.836  11.202   0.615  1.00  0.00    -0.354 N 
ATOM     61  N   UNL     1      -3.967  10.919   0.179  1.00  0.00    -0.248 NA
ATOM     62  C   UNL     1      -1.941  11.756  -0.627  1.00  0.00     0.031 C 
ATOM     63  C   UNL     1      -7.818  13.109   0.034  1.00  0.00     0.029 A 
ATOM     64  C   UNL     1      -6.598  12.453   0.069  1.00  0.00     0.049 A 
ATOM     65  H   UNL     1      -6.153  10.506   0.753  1.00  0.00     0.167 HD
ATOM     66  C   UNL     1      -4.163  12.210  -0.303  1.00  0.00     0.074 A 
ATOM     67  C   UNL     1      -2.875  12.688  -0.758  1.00  0.00     0.031 C 
ATOM     68  C   UNL     1      -5.309  12.931  -0.363  1.00  0.00     0.037 A 
BRANCH  55  69
ATOM     69  C   UNL     1     -10.264   9.907   1.757  1.00  0.00     0.058 A 
ATOM     70  C   UNL     1     -10.813   9.963   3.049  1.00  0.00     0.135 A 
ATOM     71  C   UNL     1     -11.155   9.885   0.671  1.00  0.00     0.135 A 
ATOM     72  F   UNL     1     -10.011   9.978   4.125  1.00  0.00    -0.206 F 
ATOM     73  C   UNL     1     -12.188   9.948   3.259  1.00  0.00     0.059 A 
ATOM     74  C   UNL     1     -12.536   9.906   0.857  1.00  0.00     0.059 A 
ATOM     75  F   UNL     1     -10.689   9.842  -0.587  1.00  0.00    -0.206 F 
ATOM     76  C   UNL     1     -13.041   9.916   2.156  1.00  0.00     0.060 A 
BRANCH  76  77
ATOM     77  S   UNL     1     -14.822   9.891   2.448  1.00  0.00     0.124 S 
ATOM     78  O   UNL     1     -15.021   8.520   2.908  1.00  0.00    -0.237 OA
ATOM     79  O   UNL     1     -14.988  10.929   3.460  1.00  0.00    -0.237 OA
ATOM     80  O   UNL     1     -15.386  10.202   1.138  1.00  0.00    -0.744 OA
ENDBRANCH  76  77
ENDBRANCH  55  69
BRANCH  56  81
ATOM     81  C   UNL     1      -0.454   9.346   0.107  1.00  0.00     0.058 A 
ATOM     82  C   UNL     1       0.456  10.145   0.815  1.00  0.00     0.135 A 
ATOM     83  C   UNL     1       0.061   8.477  -0.866  1.00  0.00     0.135 A 
ATOM     84  F   UNL     1       0.012  10.999   1.751  1.00  0.00    -0.206 F 
ATOM     85  C   UNL     1       1.822  10.104   0.555  1.00  0.00     0.059 A 
ATOM     86  C   UNL     1       1.427   8.398  -1.127  1.00  0.00     0.059 A 
ATOM     87  F   UNL     1      -0.765   7.678  -1.560  1.00  0.00    -0.206 F 
ATOM     88  C   UNL     1       2.298   9.225  -0.419  1.00  0.00     0.060 A 
BRANCH  88  89
ATOM     89  S   UNL     1       4.077   9.154  -0.721  1.00  0.00     0.124 S 
ATOM     90  O   UNL     1       4.307  10.409  -1.425  1.00  0.00    -0.237 OA
ATOM     91  O   UNL     1       4.616   9.071   0.631  1.00  0.00    -0.237 OA
ATOM     92  O   UNL     1       4.232   7.941  -1.525  1.00  0.00    -0.744 OA
ENDBRANCH  88  89
ENDBRANCH  56  81
BRANCH  68  93
ATOM     93  C   UNL     1      -5.229  14.335  -0.899  1.00  0.00     0.058 A 
ATOM     94  C   UNL     1      -5.034  14.596  -2.264  1.00  0.00     0.135 A 
ATOM     95  C   UNL     1      -5.414  15.433  -0.042  1.00  0.00     0.135 A 
ATOM     96  F   UNL     1      -4.848  13.584  -3.126  1.00  0.00    -0.206 F 
ATOM     97  C   UNL     1      -5.007  15.897  -2.759  1.00  0.00     0.059 A 
ATOM     98  C   UNL     1      -5.418  16.740  -0.519  1.00  0.00     0.059 A 
ATOM     99  F   UNL     1      -5.614  15.240   1.271  1.00  0.00    -0.206 F 
ATOM    100  C   UNL     1      -5.204  16.963  -1.878  1.00  0.00     0.060 A 
BRANCH 100 101
ATOM    101  S   UNL     1      -5.211  18.642  -2.541  1.00  0.00     0.124 S 
ATOM    102  O   UNL     1      -3.793  18.857  -2.813  1.00  0.00    -0.237 OA
ATOM    103  O   UNL     1      -6.069  18.513  -3.714  1.00  0.00    -0.237 OA
ATOM    104  O   UNL     1      -5.767  19.436  -1.449  1.00  0.00    -0.744 OA
ENDBRANCH 100 101
ENDBRANCH  68  93
ENDBRANCH  42  43
ENDBRANCH  34  37
ENDBRANCH  32  33
ENDBRANCH  31  32
ENDBRANCH   1  31
TORSDOF 17
