REMARK SMILES O=C1O[C@@H](c2ccc(O)c(O)c2)[C@H](C(=O)NCCCCNC(=O)c2ccc(-c3c4nc(c(-c5c(F)cc(S(=O)(=O)[O-])cc5F)c5ccc([nH]5)c(-c5c(F)cc(S(=O)(=O)[O-])cc5F)c5nc(c(-c6c(F)cc(S(=O)(=O)[O-])cc6F)c6ccc3[nH]6)C=C5)C=C4)cc2)/C1=C\c1ccc(O)c(O)c1
REMARK SMILES IDX 19 1 18 2 17 3 16 4 14 5 15 6 13 8 1 9 2 10 3 11 90 12 4 13
REMARK SMILES IDX 91 14 5 15 6 16 12 17 7 18 10 19 8 20 11 21 9 23 92 25 93 26
REMARK SMILES IDX 99 27 94 28 97 29 95 30 98 31 96 33 20 35 21 36 22 37 23 39
REMARK SMILES IDX 24 40 25 41 89 42 26 43 88 44 27 45 28 46 29 47 82 48 30 49
REMARK SMILES IDX 87 50 81 51 83 52 31 53 86 54 80 55 79 56 32 58 66 59 45 60
REMARK SMILES IDX 65 61 46 62 49 63 64 64 84 65 47 66 48 67 63 69 85 70 50 71
REMARK SMILES IDX 33 72 34 73 43 74 35 75 36 76 42 77 44 78 37 79 38 80 39 81
REMARK SMILES IDX 40 82 41 83 67 84 68 85 77 86 69 87 70 88 76 89 78 90 71 91
REMARK SMILES IDX 72 92 73 93 74 94 75 95 51 96 52 97 61 98 53 99 54 100
REMARK SMILES IDX 60 101 62 102 55 103 56 104 57 105 58 106 59 107
REMARK H PARENT 16 7 11 22 9 24 98 32 96 34 21 38 83 57 49 68
REMARK Flexibility Score: inf
ROOT
ATOM      1  C   UNL     1       5.844   1.965   2.705  1.00  0.00     0.023 C 
ENDROOT
BRANCH   1   2
ATOM      2  C   UNL     1       5.197   1.634   1.367  1.00  0.00     0.023 C 
BRANCH   2   3
ATOM      3  C   UNL     1       4.075   0.609   1.445  1.00  0.00     0.116 C 
BRANCH   3   4
ATOM      4  N   UNL     1       2.876   1.091   2.101  1.00  0.00    -0.355 N 
ATOM      5  C   UNL     1       1.578   1.141   1.670  1.00  0.00     0.231 C 
ATOM      6  O   UNL     1       0.726   1.430   2.511  1.00  0.00    -0.274 OA
ATOM      7  H   UNL     1       3.020   1.443   3.009  1.00  0.00     0.163 HD
BRANCH   5   8
ATOM      8  C   UNL     1       1.238   0.951   0.186  1.00  0.00     0.161 C 
ATOM      9  O   UNL     1      -1.867  -0.804  -0.131  1.00  0.00    -0.247 OA
ATOM     10  C   UNL     1      -0.709  -0.422  -0.134  1.00  0.00     0.335 C 
ATOM     11  O   UNL     1       0.375  -1.221  -0.267  1.00  0.00    -0.453 OA
ATOM     12  C   UNL     1      -0.238   0.970  -0.044  1.00  0.00     0.054 C 
ATOM     13  C   UNL     1       1.581  -0.440  -0.340  1.00  0.00     0.224 C 
ATOM     14  C   UNL     1      -1.110   1.976  -0.208  1.00  0.00     0.020 C 
BRANCH  13  15
ATOM     15  C   UNL     1       2.181  -0.455  -1.751  1.00  0.00    -0.002 A 
ATOM     16  C   UNL     1       3.227   0.425  -2.114  1.00  0.00     0.012 A 
ATOM     17  C   UNL     1       1.773  -1.407  -2.697  1.00  0.00     0.057 A 
ATOM     18  C   UNL     1       3.861   0.348  -3.358  1.00  0.00     0.050 A 
ATOM     19  C   UNL     1       2.391  -1.462  -3.942  1.00  0.00     0.157 A 
ATOM     20  C   UNL     1       3.435  -0.602  -4.268  1.00  0.00     0.157 A 
BRANCH  19  21
ATOM     21  O   UNL     1       1.969  -2.387  -4.854  1.00  0.00    -0.504 OA
ATOM     22  H   UNL     1       2.377  -2.434  -5.696  1.00  0.00     0.293 HD
ENDBRANCH  19  21
BRANCH  20  23
ATOM     23  O   UNL     1       4.017  -0.734  -5.498  1.00  0.00    -0.504 OA
ATOM     24  H   UNL     1       4.722  -0.169  -5.745  1.00  0.00     0.293 HD
ENDBRANCH  20  23
ENDBRANCH  13  15
BRANCH  14  25
ATOM     25  C   UNL     1      -0.760   3.394  -0.170  1.00  0.00    -0.021 A 
ATOM     26  C   UNL     1       0.111   3.953  -1.117  1.00  0.00     0.012 A 
ATOM     27  C   UNL     1      -1.342   4.212   0.804  1.00  0.00     0.058 A 
ATOM     28  C   UNL     1       0.430   5.314  -1.074  1.00  0.00     0.051 A 
ATOM     29  C   UNL     1      -1.029   5.563   0.833  1.00  0.00     0.157 A 
ATOM     30  C   UNL     1      -0.143   6.111  -0.091  1.00  0.00     0.157 A 
BRANCH  29  31
ATOM     31  O   UNL     1      -1.601   6.359   1.784  1.00  0.00    -0.504 OA
ATOM     32  H   UNL     1      -1.398   7.273   1.814  1.00  0.00     0.293 HD
ENDBRANCH  29  31
BRANCH  30  33
ATOM     33  O   UNL     1       0.129   7.447   0.004  1.00  0.00    -0.504 OA
ATOM     34  H   UNL     1       0.720   7.849  -0.602  1.00  0.00     0.293 HD
ENDBRANCH  30  33
ENDBRANCH  14  25
ENDBRANCH   5   8
ENDBRANCH   3   4
ENDBRANCH   2   3
ENDBRANCH   1   2
BRANCH   1  35
ATOM     35  C   UNL     1       6.314   0.758   3.506  1.00  0.00     0.116 C 
BRANCH  35  36
ATOM     36  N   UNL     1       7.306  -0.050   2.807  1.00  0.00    -0.352 N 
ATOM     37  C   UNL     1       8.493  -0.542   3.305  1.00  0.00     0.251 C 
ATOM     38  H   UNL     1       7.105  -0.271   1.869  1.00  0.00     0.163 HD
ATOM     39  O   UNL     1       9.299  -1.103   2.572  1.00  0.00    -0.269 OA
BRANCH  37  40
ATOM     40  C   UNL     1       8.782  -0.338   4.739  1.00  0.00     0.039 A 
ATOM     41  C   UNL     1       9.959   0.311   5.116  1.00  0.00     0.014 A 
ATOM     42  C   UNL     1       7.817  -0.680   5.689  1.00  0.00     0.014 A 
ATOM     43  C   UNL     1      10.131   0.694   6.448  1.00  0.00     0.010 A 
ATOM     44  C   UNL     1       7.949  -0.214   6.989  1.00  0.00     0.010 A 
ATOM     45  C   UNL     1       9.107   0.476   7.385  1.00  0.00    -0.014 A 
BRANCH  45  46
ATOM     46  C   UNL     1       9.214   0.926   8.796  1.00  0.00     0.031 A 
ATOM     47  C   UNL     1       9.153  -0.101   9.896  1.00  0.00     0.074 A 
ATOM     48  C   UNL     1       9.266   2.240   9.095  1.00  0.00     0.049 A 
ATOM     49  N   UNL     1       9.053   0.074  11.187  1.00  0.00    -0.248 NA
ATOM     50  C   UNL     1       9.169  -1.514   9.480  1.00  0.00     0.031 C 
ATOM     51  C   UNL     1       9.305   3.333   8.121  1.00  0.00     0.029 A 
ATOM     52  N   UNL     1       9.273   2.881  10.309  1.00  0.00    -0.354 N 
ATOM     53  C   UNL     1       8.973  -1.202  11.733  1.00  0.00     0.074 A 
ATOM     54  C   UNL     1       8.970  -2.137  10.630  1.00  0.00     0.031 C 
ATOM     55  C   UNL     1       9.347   4.505   8.776  1.00  0.00     0.029 A 
ATOM     56  C   UNL     1       9.284   4.254  10.213  1.00  0.00     0.049 A 
ATOM     57  H   UNL     1       9.270   2.403  11.170  1.00  0.00     0.167 HD
ATOM     58  C   UNL     1       8.932  -1.563  13.036  1.00  0.00     0.037 A 
ATOM     59  C   UNL     1       9.230   5.200  11.172  1.00  0.00     0.037 A 
ATOM     60  C   UNL     1       8.960  -0.627  14.128  1.00  0.00     0.049 A 
ATOM     61  C   UNL     1       9.150   4.774  12.616  1.00  0.00     0.074 A 
ATOM     62  C   UNL     1       8.958  -0.890  15.486  1.00  0.00     0.029 A 
ATOM     63  N   UNL     1       8.996   0.753  13.986  1.00  0.00    -0.354 N 
ATOM     64  N   UNL     1       9.113   3.563  13.118  1.00  0.00    -0.248 NA
ATOM     65  C   UNL     1       9.108   5.842  13.626  1.00  0.00     0.031 C 
ATOM     66  C   UNL     1       8.944   0.331  16.166  1.00  0.00     0.029 A 
ATOM     67  C   UNL     1       9.004   1.354  15.233  1.00  0.00     0.049 A 
ATOM     68  H   UNL     1       9.014   1.233  13.127  1.00  0.00     0.167 HD
ATOM     69  C   UNL     1       9.093   3.723  14.500  1.00  0.00     0.074 A 
ATOM     70  C   UNL     1       9.117   5.148  14.755  1.00  0.00     0.031 C 
ATOM     71  C   UNL     1       9.065   2.776  15.470  1.00  0.00     0.037 A 
BRANCH  58  72
ATOM     72  C   UNL     1       8.860  -3.032  13.351  1.00  0.00     0.058 A 
ATOM     73  C   UNL     1       9.938  -3.895  13.094  1.00  0.00     0.135 A 
ATOM     74  C   UNL     1       7.713  -3.580  13.947  1.00  0.00     0.135 A 
ATOM     75  F   UNL     1      11.053  -3.430  12.508  1.00  0.00    -0.206 F 
ATOM     76  C   UNL     1       9.870  -5.253  13.385  1.00  0.00     0.059 A 
ATOM     77  C   UNL     1       7.635  -4.930  14.279  1.00  0.00     0.059 A 
ATOM     78  F   UNL     1       6.651  -2.803  14.213  1.00  0.00    -0.206 F 
ATOM     79  C   UNL     1       8.714  -5.760  13.981  1.00  0.00     0.060 A 
BRANCH  79  80
ATOM     80  S   UNL     1       8.649  -7.523  14.361  1.00  0.00     0.124 S 
ATOM     81  O   UNL     1       8.547  -8.105  13.026  1.00  0.00    -0.237 OA
ATOM     82  O   UNL     1       9.916  -7.739  15.051  1.00  0.00    -0.237 OA
ATOM     83  O   UNL     1       7.455  -7.649  15.192  1.00  0.00    -0.744 OA
ENDBRANCH  79  80
ENDBRANCH  58  72
BRANCH  59  84
ATOM     84  C   UNL     1       9.265   6.644  10.807  1.00  0.00     0.058 A 
ATOM     85  C   UNL     1      10.370   7.444  11.140  1.00  0.00     0.135 A 
ATOM     86  C   UNL     1       8.198   7.257  10.132  1.00  0.00     0.135 A 
ATOM     87  F   UNL     1      11.413   6.908  11.792  1.00  0.00    -0.206 F 
ATOM     88  C   UNL     1      10.406   8.802  10.840  1.00  0.00     0.059 A 
ATOM     89  C   UNL     1       8.224   8.608   9.794  1.00  0.00     0.059 A 
ATOM     90  F   UNL     1       7.124   6.537   9.775  1.00  0.00    -0.206 F 
ATOM     91  C   UNL     1       9.328   9.375  10.165  1.00  0.00     0.060 A 
BRANCH  91  92
ATOM     92  S   UNL     1       9.402  11.131   9.750  1.00  0.00     0.124 S 
ATOM     93  O   UNL     1       9.250  11.750  11.062  1.00  0.00    -0.237 OA
ATOM     94  O   UNL     1      10.722  11.244   9.139  1.00  0.00    -0.237 OA
ATOM     95  O   UNL     1       8.278  11.308   8.835  1.00  0.00    -0.744 OA
ENDBRANCH  91  92
ENDBRANCH  59  84
BRANCH  71  96
ATOM     96  C   UNL     1       9.139   3.229  16.902  1.00  0.00     0.058 A 
ATOM     97  C   UNL     1       8.058   3.846  17.548  1.00  0.00     0.135 A 
ATOM     98  C   UNL     1      10.287   2.950  17.664  1.00  0.00     0.135 A 
ATOM     99  F   UNL     1       6.941   4.142  16.865  1.00  0.00    -0.206 F 
ATOM    100  C   UNL     1       8.115   4.178  18.898  1.00  0.00     0.059 A 
ATOM    101  C   UNL     1      10.354   3.244  19.021  1.00  0.00     0.059 A 
ATOM    102  F   UNL     1      11.347   2.352  17.096  1.00  0.00    -0.206 F 
ATOM    103  C   UNL     1       9.263   3.864  19.629  1.00  0.00     0.060 A 
BRANCH 103 104
ATOM    104  S   UNL     1       9.295   4.238  21.395  1.00  0.00     0.124 S 
ATOM    105  O   UNL     1       9.394   5.694  21.386  1.00  0.00    -0.237 OA
ATOM    106  O   UNL     1       8.021   3.691  21.851  1.00  0.00    -0.237 OA
ATOM    107  O   UNL     1      10.480   3.532  21.872  1.00  0.00    -0.744 OA
ENDBRANCH 103 104
ENDBRANCH  71  96
ENDBRANCH  45  46
ENDBRANCH  37  40
ENDBRANCH  35  36
ENDBRANCH   1  35
TORSDOF 20
