REMARK SMILES COc1cc(C)cc2c1O[C@H](C(F)(F)F)C(C(=O)NCCCCNC(=O)c1ccc(-c3c4nc(c(-c5c(F)cc(S(=O)(=O)[O-])cc5F)c5ccc([nH]5)c(-c5c(F)cc(S(=O)(=O)[O-])cc5F)c5nc(c(-c6c(F)cc(S(=O)(=O)[O-])cc6F)c6ccc3[nH]6)C=C5)C=C4)cc1)=C2
REMARK SMILES IDX 22 1 21 2 20 3 19 4 17 5 18 6 16 8 3 9 4 10 9 11 5 12 8 13
REMARK SMILES IDX 10 14 6 15 7 16 93 17 11 18 2 19 1 20 12 21 13 22 14 23
REMARK SMILES IDX 15 24 23 25 24 26 25 27 26 29 27 30 28 31 92 32 29 33 91 34
REMARK SMILES IDX 30 35 31 36 32 37 85 38 33 39 90 40 84 41 86 42 34 43 89 44
REMARK SMILES IDX 83 45 82 46 35 48 69 49 48 50 68 51 49 52 52 53 67 54 87 55
REMARK SMILES IDX 50 56 51 57 66 59 88 60 53 61 36 62 37 63 46 64 38 65 39 66
REMARK SMILES IDX 45 67 47 68 40 69 41 70 42 71 43 72 44 73 70 74 71 75 80 76
REMARK SMILES IDX 72 77 73 78 79 79 81 80 74 81 75 82 76 83 77 84 78 85 54 86
REMARK SMILES IDX 55 87 64 88 56 89 57 90 63 91 65 92 58 93 59 94 60 95 61 96
REMARK SMILES IDX 62 97
REMARK H PARENT 19 7 24 28 86 47 52 58
REMARK Flexibility Score: inf
ROOT
ATOM      1  C   UNL     1      -7.127  -3.065   4.007  1.00  0.00     0.023 C 
ENDROOT
BRANCH   1   2
ATOM      2  C   UNL     1      -5.817  -2.349   3.661  1.00  0.00     0.023 C 
BRANCH   2   3
ATOM      3  C   UNL     1      -5.042  -1.824   4.867  1.00  0.00     0.116 C 
BRANCH   3   4
ATOM      4  N   UNL     1      -4.189  -2.841   5.458  1.00  0.00    -0.352 N 
ATOM      5  C   UNL     1      -2.878  -3.177   5.415  1.00  0.00     0.251 C 
ATOM      6  O   UNL     1      -2.563  -4.154   6.103  1.00  0.00    -0.270 OA
ATOM      7  H   UNL     1      -4.699  -3.445   6.044  1.00  0.00     0.163 HD
BRANCH   5   8
ATOM      8  C   UNL     1      -1.827  -2.471   4.622  1.00  0.00     0.067 C 
ATOM      9  C   UNL     1       1.228  -0.752   2.308  1.00  0.00     0.161 A 
ATOM     10  C   UNL     1       2.547  -1.185   2.463  1.00  0.00     0.054 A 
ATOM     11  C   UNL     1       0.198  -1.354   3.035  1.00  0.00     0.169 A 
ATOM     12  C   UNL     1       2.838  -2.258   3.313  1.00  0.00    -0.047 A 
ATOM     13  C   UNL     1       0.475  -2.423   3.887  1.00  0.00     0.021 A 
ATOM     14  O   UNL     1      -1.079  -0.904   2.836  1.00  0.00    -0.471 OA
ATOM     15  C   UNL     1       4.247  -2.743   3.487  1.00  0.00     0.044 C 
ATOM     16  C   UNL     1       1.794  -2.876   4.020  1.00  0.00     0.015 A 
ATOM     17  C   UNL     1      -0.620  -3.068   4.602  1.00  0.00     0.025 C 
ATOM     18  C   UNL     1      -2.022  -1.160   3.914  1.00  0.00     0.314 C 
BRANCH   9  19
ATOM     19  O   UNL     1       0.942   0.324   1.508  1.00  0.00    -0.493 OA
ATOM     20  C   UNL     1       1.102  -0.011   0.131  1.00  0.00     0.278 C 
ENDBRANCH   9  19
BRANCH  18  21
ATOM     21  C   UNL     1      -2.034   0.042   4.878  1.00  0.00     0.429 C 
ATOM     22  F   UNL     1      -2.510   1.149   4.253  1.00  0.00    -0.167 F 
ATOM     23  F   UNL     1      -2.836  -0.165   5.949  1.00  0.00    -0.167 F 
ATOM     24  F   UNL     1      -0.808   0.342   5.359  1.00  0.00    -0.167 F 
ENDBRANCH  18  21
ENDBRANCH   5   8
ENDBRANCH   3   4
ENDBRANCH   2   3
ENDBRANCH   1   2
BRANCH   1  25
ATOM     25  C   UNL     1      -8.126  -2.256   4.834  1.00  0.00     0.116 C 
BRANCH  25  26
ATOM     26  N   UNL     1      -8.447  -0.946   4.281  1.00  0.00    -0.352 N 
ATOM     27  C   UNL     1      -9.572  -0.184   4.519  1.00  0.00     0.251 C 
ATOM     28  H   UNL     1      -7.783  -0.560   3.665  1.00  0.00     0.163 HD
ATOM     29  O   UNL     1      -9.745   0.877   3.929  1.00  0.00    -0.269 OA
BRANCH  27  30
ATOM     30  C   UNL     1     -10.595  -0.705   5.449  1.00  0.00     0.039 A 
ATOM     31  C   UNL     1     -10.229  -1.133   6.726  1.00  0.00     0.014 A 
ATOM     32  C   UNL     1     -11.905  -0.872   4.992  1.00  0.00     0.014 A 
ATOM     33  C   UNL     1     -11.119  -1.899   7.468  1.00  0.00     0.010 A 
ATOM     34  C   UNL     1     -12.821  -1.579   5.774  1.00  0.00     0.010 A 
ATOM     35  C   UNL     1     -12.413  -2.159   6.985  1.00  0.00    -0.014 A 
BRANCH  35  36
ATOM     36  C   UNL     1     -13.285  -3.103   7.731  1.00  0.00     0.031 A 
ATOM     37  C   UNL     1     -13.638  -4.444   7.139  1.00  0.00     0.074 A 
ATOM     38  C   UNL     1     -13.675  -2.795   8.983  1.00  0.00     0.049 A 
ATOM     39  N   UNL     1     -14.328  -5.422   7.669  1.00  0.00    -0.248 NA
ATOM     40  C   UNL     1     -13.156  -4.726   5.777  1.00  0.00     0.031 C 
ATOM     41  C   UNL     1     -13.378  -1.538   9.671  1.00  0.00     0.029 A 
ATOM     42  N   UNL     1     -14.368  -3.529   9.912  1.00  0.00    -0.354 N 
ATOM     43  C   UNL     1     -14.378  -6.422   6.704  1.00  0.00     0.074 A 
ATOM     44  C   UNL     1     -13.671  -5.925   5.544  1.00  0.00     0.031 C 
ATOM     45  C   UNL     1     -13.826  -1.614  10.934  1.00  0.00     0.029 A 
ATOM     46  C   UNL     1     -14.486  -2.901  11.129  1.00  0.00     0.049 A 
ATOM     47  H   UNL     1     -14.744  -4.420   9.725  1.00  0.00     0.167 HD
ATOM     48  C   UNL     1     -14.946  -7.649   6.782  1.00  0.00     0.037 A 
ATOM     49  C   UNL     1     -15.061  -3.315  12.274  1.00  0.00     0.037 A 
ATOM     50  C   UNL     1     -15.616  -8.159   7.949  1.00  0.00     0.049 A 
ATOM     51  C   UNL     1     -15.716  -4.664  12.324  1.00  0.00     0.074 A 
ATOM     52  C   UNL     1     -16.194  -9.403   8.134  1.00  0.00     0.029 A 
ATOM     53  N   UNL     1     -15.792  -7.456   9.130  1.00  0.00    -0.354 N 
ATOM     54  N   UNL     1     -15.760  -5.591  11.397  1.00  0.00    -0.248 NA
ATOM     55  C   UNL     1     -16.421  -5.015  13.564  1.00  0.00     0.031 C 
ATOM     56  C   UNL     1     -16.747  -9.441   9.419  1.00  0.00     0.029 A 
ATOM     57  C   UNL     1     -16.490  -8.230  10.042  1.00  0.00     0.049 A 
ATOM     58  H   UNL     1     -15.469  -6.541   9.297  1.00  0.00     0.167 HD
ATOM     59  C   UNL     1     -16.507  -6.630  11.938  1.00  0.00     0.074 A 
ATOM     60  C   UNL     1     -16.872  -6.230  13.281  1.00  0.00     0.031 C 
ATOM     61  C   UNL     1     -16.865  -7.806  11.367  1.00  0.00     0.037 A 
BRANCH  48  62
ATOM     62  C   UNL     1     -14.873  -8.530   5.568  1.00  0.00     0.058 A 
ATOM     63  C   UNL     1     -13.690  -9.200   5.218  1.00  0.00     0.135 A 
ATOM     64  C   UNL     1     -16.008  -8.740   4.770  1.00  0.00     0.135 A 
ATOM     65  F   UNL     1     -12.572  -9.019   5.938  1.00  0.00    -0.206 F 
ATOM     66  C   UNL     1     -13.631 -10.035   4.107  1.00  0.00     0.059 A 
ATOM     67  C   UNL     1     -15.977  -9.585   3.664  1.00  0.00     0.059 A 
ATOM     68  F   UNL     1     -17.163  -8.120   5.061  1.00  0.00    -0.206 F 
ATOM     69  C   UNL     1     -14.780 -10.219   3.334  1.00  0.00     0.060 A 
BRANCH  69  70
ATOM     70  S   UNL     1     -14.687 -11.306   1.895  1.00  0.00     0.124 S 
ATOM     71  O   UNL     1     -13.945 -10.474   0.952  1.00  0.00    -0.237 OA
ATOM     72  O   UNL     1     -13.967 -12.462   2.420  1.00  0.00    -0.237 OA
ATOM     73  O   UNL     1     -16.087 -11.543   1.556  1.00  0.00    -0.744 OA
ENDBRANCH  69  70
ENDBRANCH  48  62
BRANCH  49  74
ATOM     74  C   UNL     1     -15.036  -2.429  13.464  1.00  0.00     0.058 A 
ATOM     75  C   UNL     1     -14.191  -2.706  14.547  1.00  0.00     0.135 A 
ATOM     76  C   UNL     1     -15.816  -1.264  13.517  1.00  0.00     0.135 A 
ATOM     77  F   UNL     1     -13.433  -3.813  14.542  1.00  0.00    -0.206 F 
ATOM     78  C   UNL     1     -14.112  -1.852  15.642  1.00  0.00     0.059 A 
ATOM     79  C   UNL     1     -15.740  -0.385  14.592  1.00  0.00     0.059 A 
ATOM     80  F   UNL     1     -16.630  -0.953  12.497  1.00  0.00    -0.206 F 
ATOM     81  C   UNL     1     -14.887  -0.690  15.652  1.00  0.00     0.060 A 
BRANCH  81  82
ATOM     82  S   UNL     1     -14.716   0.457  17.037  1.00  0.00     0.124 S 
ATOM     83  O   UNL     1     -15.481  -0.223  18.076  1.00  0.00    -0.237 OA
ATOM     84  O   UNL     1     -13.270   0.496  17.230  1.00  0.00    -0.237 OA
ATOM     85  O   UNL     1     -15.304   1.690  16.523  1.00  0.00    -0.744 OA
ENDBRANCH  81  82
ENDBRANCH  49  74
BRANCH  61  86
ATOM     86  C   UNL     1     -17.721  -8.733  12.176  1.00  0.00     0.058 A 
ATOM     87  C   UNL     1     -19.100  -8.510  12.305  1.00  0.00     0.135 A 
ATOM     88  C   UNL     1     -17.180  -9.888  12.761  1.00  0.00     0.135 A 
ATOM     89  F   UNL     1     -19.661  -7.415  11.770  1.00  0.00    -0.206 F 
ATOM     90  C   UNL     1     -19.917  -9.402  12.991  1.00  0.00     0.059 A 
ATOM     91  C   UNL     1     -17.982 -10.803  13.438  1.00  0.00     0.059 A 
ATOM     92  F   UNL     1     -15.867 -10.146  12.658  1.00  0.00    -0.206 F 
ATOM     93  C   UNL     1     -19.349 -10.549  13.550  1.00  0.00     0.060 A 
BRANCH  93  94
ATOM     94  S   UNL     1     -20.430 -11.728  14.387  1.00  0.00     0.124 S 
ATOM     95  O   UNL     1     -20.702 -11.038  15.643  1.00  0.00    -0.237 OA
ATOM     96  O   UNL     1     -21.556 -11.832  13.463  1.00  0.00    -0.237 OA
ATOM     97  O   UNL     1     -19.604 -12.928  14.494  1.00  0.00    -0.744 OA
ENDBRANCH  93  94
ENDBRANCH  61  86
ENDBRANCH  35  36
ENDBRANCH  27  30
ENDBRANCH  25  26
ENDBRANCH   1  25
TORSDOF 16
