REMARK SMILES COc1ccc(N2C(=O)/C(=C/c3c(C(=O)NCCCCNC(=O)c4ccc(-c5c6nc(c(-c7c(F)cc(S(=O)(=O)[O-])cc7F)c7ccc([nH]7)c(-c7c(F)cc(S(=O)(=O)[O-])cc7F)c7nc(c(-c8c(F)cc(S(=O)(=O)[O-])cc8F)c8ccc5[nH]8)C=C7)C=C6)cc4)[nH]c4cc(OC)ccc34)SC2=S)cc1
REMARK SMILES IDX 18 1 17 2 16 3 14 4 15 5 13 7 12 8 98 9 90 10 91 11 97 12
REMARK SMILES IDX 92 14 96 15 93 16 11 17 7 18 8 19 100 20 9 21 10 22 99 23
REMARK SMILES IDX 101 24 6 25 3 26 4 27 103 28 5 29 102 30 2 31 1 32 94 33
REMARK SMILES IDX 95 34 19 35 20 36 21 37 22 38 23 40 24 41 25 42 89 43 26 44
REMARK SMILES IDX 88 45 27 46 28 47 29 48 82 49 30 50 87 51 81 52 83 53 31 54
REMARK SMILES IDX 86 55 80 56 79 57 32 59 66 60 45 61 65 62 46 63 49 64 64 65
REMARK SMILES IDX 84 66 47 67 48 68 63 70 85 71 50 72 33 73 34 74 43 75 35 76
REMARK SMILES IDX 36 77 42 78 44 79 37 80 38 81 39 82 40 83 41 84 67 85 68 86
REMARK SMILES IDX 77 87 69 88 70 89 76 90 78 91 71 92 72 93 73 94 74 95 75 96
REMARK SMILES IDX 51 97 52 98 61 99 53 100 54 101 60 102 62 103 55 104 56 105
REMARK SMILES IDX 57 106 58 107 59 108
REMARK H PARENT 16 6 90 13 21 39 83 58 49 69
REMARK Flexibility Score: inf
ROOT
ATOM      1  C   UNL     1      -0.104  -1.712   9.029  1.00  0.00     0.023 C 
ENDROOT
BRANCH   1   2
ATOM      2  C   UNL     1       1.306  -2.281   9.165  1.00  0.00     0.116 C 
BRANCH   2   3
ATOM      3  N   UNL     1       2.338  -1.348   9.593  1.00  0.00    -0.351 N 
ATOM      4  C   UNL     1       3.479  -1.602  10.325  1.00  0.00     0.268 C 
ATOM      5  O   UNL     1       4.153  -0.644  10.703  1.00  0.00    -0.268 OA
ATOM      6  H   UNL     1       2.204  -0.411   9.323  1.00  0.00     0.163 HD
BRANCH   4   7
ATOM      7  C   UNL     1       3.828  -2.951  10.714  1.00  0.00     0.112 A 
ATOM      8  C   UNL     1       3.813  -4.213  10.103  1.00  0.00     0.014 A 
ATOM      9  C   UNL     1       3.826  -5.162  11.260  1.00  0.00     0.008 A 
ATOM     10  N   UNL     1       4.423  -3.130  11.933  1.00  0.00    -0.350 N 
ATOM     11  C   UNL     1       4.183  -4.394  12.377  1.00  0.00     0.050 A 
ATOM     12  C   UNL     1       3.573  -6.537  11.581  1.00  0.00     0.015 A 
ATOM     13  H   UNL     1       4.945  -2.448  12.416  1.00  0.00     0.167 HD
ATOM     14  C   UNL     1       4.257  -4.847  13.702  1.00  0.00     0.073 A 
ATOM     15  C   UNL     1       3.631  -7.017  12.949  1.00  0.00     0.047 A 
ATOM     16  C   UNL     1       3.957  -6.166  14.000  1.00  0.00     0.120 A 
BRANCH   8  17
ATOM     17  C   UNL     1       3.573  -4.308   8.639  1.00  0.00     0.032 C 
ATOM     18  N   UNL     1       3.808  -1.755   5.928  1.00  0.00    -0.261 N 
ATOM     19  C   UNL     1       3.440  -3.079   6.314  1.00  0.00     0.270 C 
ATOM     20  C   UNL     1       4.725  -1.148   6.757  1.00  0.00     0.152 C 
ATOM     21  O   UNL     1       2.636  -3.817   5.760  1.00  0.00    -0.268 OA
ATOM     22  C   UNL     1       4.064  -3.446   7.681  1.00  0.00     0.081 C 
ATOM     23  S   UNL     1       5.379  -2.336   7.894  1.00  0.00    -0.054 SA
ATOM     24  S   UNL     1       5.255   0.431   6.750  1.00  0.00    -0.051 S 
BRANCH  18  25
ATOM     25  C   UNL     1       3.235  -1.065   4.751  1.00  0.00     0.051 A 
ATOM     26  C   UNL     1       0.940  -0.563   1.951  1.00  0.00     0.119 A 
ATOM     27  C   UNL     1       0.738   0.436   3.704  1.00  0.00     0.048 A 
ATOM     28  C   UNL     1       2.355  -1.683   1.816  1.00  0.00     0.048 A 
ATOM     29  C   UNL     1       1.974   0.141   5.010  1.00  0.00     0.030 A 
ATOM     30  C   UNL     1       3.433  -1.881   3.198  1.00  0.00     0.030 A 
BRANCH  26  31
ATOM     31  O   UNL     1       0.111  -0.623   0.822  1.00  0.00    -0.497 OA
ATOM     32  C   UNL     1       0.638  -0.903  -0.469  1.00  0.00     0.278 C 
ENDBRANCH  26  31
ENDBRANCH  18  25
ENDBRANCH   8  17
BRANCH  16  33
ATOM     33  O   UNL     1       3.944  -6.401  15.346  1.00  0.00    -0.497 OA
ATOM     34  C   UNL     1       4.241  -7.687  15.861  1.00  0.00     0.278 C 
ENDBRANCH  16  33
ENDBRANCH   4   7
ENDBRANCH   2   3
ENDBRANCH   1   2
BRANCH   1  35
ATOM     35  C   UNL     1      -0.380  -0.867   7.788  1.00  0.00     0.023 C 
BRANCH  35  36
ATOM     36  C   UNL     1      -0.155  -1.474   6.404  1.00  0.00     0.116 C 
BRANCH  36  37
ATOM     37  N   UNL     1      -1.145  -2.251   5.696  1.00  0.00    -0.352 N 
ATOM     38  C   UNL     1      -1.321  -2.227   4.307  1.00  0.00     0.251 C 
ATOM     39  H   UNL     1      -1.735  -2.836   6.225  1.00  0.00     0.163 HD
ATOM     40  O   UNL     1      -2.175  -2.920   3.765  1.00  0.00    -0.269 OA
BRANCH  38  41
ATOM     41  C   UNL     1      -0.484  -1.306   3.486  1.00  0.00     0.039 A 
ATOM     42  C   UNL     1      -1.212   0.055   2.669  1.00  0.00     0.014 A 
ATOM     43  C   UNL     1       1.298  -1.350   3.635  1.00  0.00     0.014 A 
ATOM     44  C   UNL     1      -0.272   1.407   1.983  1.00  0.00     0.010 A 
ATOM     45  C   UNL     1       2.406   0.180   2.899  1.00  0.00     0.010 A 
ATOM     46  C   UNL     1       1.501   1.542   2.073  1.00  0.00    -0.014 A 
BRANCH  46  47
ATOM     47  C   UNL     1       2.071   2.787   1.439  1.00  0.00     0.031 A 
ATOM     48  C   UNL     1       2.910   2.684   0.190  1.00  0.00     0.074 A 
ATOM     49  C   UNL     1       1.690   4.026   1.842  1.00  0.00     0.049 A 
ATOM     50  N   UNL     1       3.365   3.621  -0.606  1.00  0.00    -0.248 NA
ATOM     51  C   UNL     1       3.234   1.331  -0.261  1.00  0.00     0.031 C 
ATOM     52  C   UNL     1       0.763   4.332   2.936  1.00  0.00     0.029 A 
ATOM     53  N   UNL     1       2.043   5.280   1.374  1.00  0.00    -0.354 N 
ATOM     54  C   UNL     1       3.974   2.959  -1.671  1.00  0.00     0.074 A 
ATOM     55  C   UNL     1       3.834   1.545  -1.421  1.00  0.00     0.031 C 
ATOM     56  C   UNL     1       0.660   5.667   3.082  1.00  0.00     0.029 A 
ATOM     57  C   UNL     1       1.543   6.327   2.125  1.00  0.00     0.049 A 
ATOM     58  H   UNL     1       2.602   5.415   0.575  1.00  0.00     0.167 HD
ATOM     59  C   UNL     1       4.628   3.469  -2.742  1.00  0.00     0.037 A 
ATOM     60  C   UNL     1       1.798   7.655   2.082  1.00  0.00     0.037 A 
ATOM     61  C   UNL     1       4.916   4.867  -2.912  1.00  0.00     0.049 A 
ATOM     62  C   UNL     1       2.735   8.188   1.020  1.00  0.00     0.074 A 
ATOM     63  C   UNL     1       5.686   5.475  -3.889  1.00  0.00     0.029 A 
ATOM     64  N   UNL     1       4.489   5.869  -2.057  1.00  0.00    -0.354 N 
ATOM     65  N   UNL     1       3.312   7.544   0.033  1.00  0.00    -0.248 NA
ATOM     66  C   UNL     1       3.055   9.625   1.057  1.00  0.00     0.031 C 
ATOM     67  C   UNL     1       5.797   6.831  -3.572  1.00  0.00     0.029 A 
ATOM     68  C   UNL     1       5.011   7.085  -2.460  1.00  0.00     0.049 A 
ATOM     69  H   UNL     1       3.901   5.736  -1.278  1.00  0.00     0.167 HD
ATOM     70  C   UNL     1       4.011   8.503  -0.695  1.00  0.00     0.074 A 
ATOM     71  C   UNL     1       3.793   9.771  -0.035  1.00  0.00     0.031 C 
ATOM     72  C   UNL     1       4.756   8.348  -1.816  1.00  0.00     0.037 A 
BRANCH  59  73
ATOM     73  C   UNL     1       5.162   2.508  -3.772  1.00  0.00     0.058 A 
ATOM     74  C   UNL     1       4.315   1.862  -4.686  1.00  0.00     0.135 A 
ATOM     75  C   UNL     1       6.544   2.285  -3.892  1.00  0.00     0.135 A 
ATOM     76  F   UNL     1       2.984   2.015  -4.600  1.00  0.00    -0.206 F 
ATOM     77  C   UNL     1       4.820   1.036  -5.687  1.00  0.00     0.059 A 
ATOM     78  C   UNL     1       7.072   1.483  -4.899  1.00  0.00     0.059 A 
ATOM     79  F   UNL     1       7.398   2.865  -3.034  1.00  0.00    -0.206 F 
ATOM     80  C   UNL     1       6.202   0.861  -5.792  1.00  0.00     0.060 A 
BRANCH  80  81
ATOM     81  S   UNL     1       6.840  -0.180  -7.122  1.00  0.00     0.124 S 
ATOM     82  O   UNL     1       6.347  -1.496  -6.727  1.00  0.00    -0.237 OA
ATOM     83  O   UNL     1       6.210   0.405  -8.301  1.00  0.00    -0.237 OA
ATOM     84  O   UNL     1       8.286  -0.002  -7.032  1.00  0.00    -0.744 OA
ENDBRANCH  80  81
ENDBRANCH  59  73
BRANCH  60  85
ATOM     85  C   UNL     1       1.235   8.586   3.113  1.00  0.00     0.058 A 
ATOM     86  C   UNL     1       0.402   9.663   2.766  1.00  0.00     0.135 A 
ATOM     87  C   UNL     1       1.592   8.465   4.467  1.00  0.00     0.135 A 
ATOM     88  F   UNL     1       0.041   9.848   1.487  1.00  0.00    -0.206 F 
ATOM     89  C   UNL     1      -0.026  10.598   3.710  1.00  0.00     0.059 A 
ATOM     90  C   UNL     1       1.147   9.364   5.435  1.00  0.00     0.059 A 
ATOM     91  F   UNL     1       2.389   7.461   4.867  1.00  0.00    -0.206 F 
ATOM     92  C   UNL     1       0.355  10.440   5.043  1.00  0.00     0.060 A 
BRANCH  92  93
ATOM     93  S   UNL     1      -0.205  11.654   6.259  1.00  0.00     0.124 S 
ATOM     94  O   UNL     1       0.568  12.831   5.879  1.00  0.00    -0.237 OA
ATOM     95  O   UNL     1      -1.638  11.717   5.991  1.00  0.00    -0.237 OA
ATOM     96  O   UNL     1       0.161  11.046   7.535  1.00  0.00    -0.744 OA
ENDBRANCH  92  93
ENDBRANCH  60  85
BRANCH  72  97
ATOM     97  C   UNL     1       5.324   9.575  -2.474  1.00  0.00     0.058 A 
ATOM     98  C   UNL     1       6.387  10.303  -1.921  1.00  0.00     0.135 A 
ATOM     99  C   UNL     1       4.854   9.961  -3.742  1.00  0.00     0.135 A 
ATOM    100  F   UNL     1       6.872   9.981  -0.711  1.00  0.00    -0.206 F 
ATOM    101  C   UNL     1       6.958  11.377  -2.597  1.00  0.00     0.059 A 
ATOM    102  C   UNL     1       5.433  11.006  -4.451  1.00  0.00     0.059 A 
ATOM    103  F   UNL     1       3.845   9.290  -4.322  1.00  0.00    -0.206 F 
ATOM    104  C   UNL     1       6.482  11.713  -3.867  1.00  0.00     0.060 A 
BRANCH 104 105
ATOM    105  S   UNL     1       7.283  13.059  -4.762  1.00  0.00     0.124 S 
ATOM    106  O   UNL     1       6.864  14.221  -3.985  1.00  0.00    -0.237 OA
ATOM    107  O   UNL     1       8.694  12.703  -4.660  1.00  0.00    -0.237 OA
ATOM    108  O   UNL     1       6.714  12.964  -6.104  1.00  0.00    -0.744 OA
ENDBRANCH 104 105
ENDBRANCH  72  97
ENDBRANCH  46  47
ENDBRANCH  38  41
ENDBRANCH  36  37
ENDBRANCH  35  36
ENDBRANCH   1  35
TORSDOF 18
