REMARK SMILES CCCCCCNC(=O)Oc1cccc(-c2ccc([C@@H](C)C(=O)NCCCCNC(=O)c3ccc(-c4c5nc(c(-c6c(F)cc(S(=O)(=O)[O-])cc6F)c6ccc([nH]6)c(-c6c(F)cc(S(=O)(=O)[O-])cc6F)c6nc(c(-c7c(F)cc(S(=O)(=O)[O-])cc7F)c7ccc4[nH]7)C=C6)C=C5)cc3)cc2F)c1
REMARK SMILES IDX 20 1 21 2 19 3 16 4 17 5 99 6 18 7 98 8 100 9 15 10 11 11
REMARK SMILES IDX 12 12 101 13 13 14 14 15 10 16 8 17 7 18 9 20 6 21 5 22 4 23
REMARK SMILES IDX 3 24 2 25 1 26 22 27 23 28 24 29 25 31 26 32 27 33 28 34
REMARK SMILES IDX 29 35 30 36 31 38 32 39 33 40 97 41 34 42 96 43 35 44 36 45
REMARK SMILES IDX 37 46 90 47 38 48 95 49 89 50 91 51 39 52 94 53 88 54 87 55
REMARK SMILES IDX 40 57 74 58 53 59 73 60 54 61 57 62 72 63 92 64 55 65 56 66
REMARK SMILES IDX 71 68 93 69 58 70 41 71 42 72 51 73 43 74 44 75 50 76 52 77
REMARK SMILES IDX 45 78 46 79 47 80 48 81 49 82 75 83 76 84 85 85 77 86 78 87
REMARK SMILES IDX 84 88 86 89 79 90 80 91 81 92 82 93 83 94 59 95 60 96 69 97
REMARK SMILES IDX 61 98 62 99 68 100 70 101 63 102 64 103 65 104 66 105 67 106
REMARK H PARENT 7 19 24 30 29 37 91 56 57 67
REMARK Flexibility Score: inf
ROOT
ATOM      1  C   UNL     1      -4.892   9.235  -9.996  1.00  0.00     0.105 C 
ATOM      2  C   UNL     1      -6.047   9.957 -10.687  1.00  0.00     0.023 C 
ENDROOT
BRANCH   1   3
ATOM      3  C   UNL     1      -5.156   8.764  -8.574  1.00  0.00    -0.033 A 
ATOM      4  C   UNL     1      -5.373   7.904  -5.852  1.00  0.00     0.018 A 
ATOM      5  C   UNL     1      -5.848   9.157  -6.272  1.00  0.00     0.012 A 
ATOM      6  C   UNL     1      -4.845   7.072  -6.850  1.00  0.00     0.131 A 
ATOM      7  C   UNL     1      -5.781   9.560  -7.612  1.00  0.00     0.005 A 
ATOM      8  C   UNL     1      -4.714   7.495  -8.176  1.00  0.00     0.044 A 
ATOM      9  F   UNL     1      -4.439   5.826  -6.556  1.00  0.00    -0.206 F 
BRANCH   4  10
ATOM     10  C   UNL     1      -5.411   7.520  -4.423  1.00  0.00    -0.012 A 
ATOM     11  C   UNL     1      -4.410   6.450  -2.479  1.00  0.00     0.133 A 
ATOM     12  C   UNL     1      -5.466   6.852  -1.668  1.00  0.00     0.047 A 
ATOM     13  C   UNL     1      -4.377   6.770  -3.838  1.00  0.00     0.056 A 
ATOM     14  C   UNL     1      -6.498   7.598  -2.223  1.00  0.00     0.004 A 
ATOM     15  C   UNL     1      -6.473   7.921  -3.584  1.00  0.00     0.009 A 
BRANCH  11  16
ATOM     16  O   UNL     1      -3.451   5.607  -1.901  1.00  0.00    -0.410 OA
BRANCH  16  17
ATOM     17  C   UNL     1      -2.115   5.962  -2.013  1.00  0.00     0.412 C 
ATOM     18  N   UNL     1      -1.272   5.027  -1.476  1.00  0.00    -0.321 N 
ATOM     19  H   UNL     1      -0.309   5.229  -1.509  1.00  0.00     0.167 HD
ATOM     20  O   UNL     1      -1.681   6.990  -2.515  1.00  0.00    -0.224 OA
BRANCH  18  21
ATOM     21  C   UNL     1      -1.653   3.771  -0.863  1.00  0.00     0.119 C 
BRANCH  21  22
ATOM     22  C   UNL     1      -1.049   2.573  -1.593  1.00  0.00     0.021 C 
BRANCH  22  23
ATOM     23  C   UNL     1       0.481   2.489  -1.529  1.00  0.00     0.002 C 
BRANCH  23  24
ATOM     24  C   UNL     1       1.077   2.420  -0.118  1.00  0.00    -0.000 C 
BRANCH  24  25
ATOM     25  C   UNL     1       0.590   1.253   0.745  1.00  0.00    -0.003 C 
ATOM     26  C   UNL     1       0.956  -0.108   0.175  1.00  0.00     0.004 C 
ENDBRANCH  24  25
ENDBRANCH  23  24
ENDBRANCH  22  23
ENDBRANCH  21  22
ENDBRANCH  18  21
ENDBRANCH  16  17
ENDBRANCH  11  16
ENDBRANCH   4  10
ENDBRANCH   1   3
BRANCH   1  27
ATOM     27  C   UNL     1      -3.527   9.922 -10.172  1.00  0.00     0.227 C 
ATOM     28  O   UNL     1      -2.617   9.329 -10.764  1.00  0.00    -0.274 OA
ATOM     29  N   UNL     1      -3.245  11.176  -9.724  1.00  0.00    -0.356 N 
ATOM     30  H   UNL     1      -2.349  11.500  -9.971  1.00  0.00     0.163 HD
BRANCH  29  31
ATOM     31  C   UNL     1      -4.025  12.119  -8.951  1.00  0.00     0.116 C 
BRANCH  31  32
ATOM     32  C   UNL     1      -3.686  12.063  -7.461  1.00  0.00     0.023 C 
BRANCH  32  33
ATOM     33  C   UNL     1      -2.519  12.949  -7.034  1.00  0.00     0.023 C 
BRANCH  33  34
ATOM     34  C   UNL     1      -2.715  14.440  -7.277  1.00  0.00     0.116 C 
BRANCH  34  35
ATOM     35  N   UNL     1      -3.900  14.995  -6.635  1.00  0.00    -0.352 N 
ATOM     36  C   UNL     1      -4.059  16.255  -6.101  1.00  0.00     0.251 C 
ATOM     37  H   UNL     1      -4.681  14.399  -6.577  1.00  0.00     0.163 HD
ATOM     38  O   UNL     1      -5.091  16.558  -5.513  1.00  0.00    -0.269 OA
BRANCH  36  39
ATOM     39  C   UNL     1      -2.941  17.215  -6.209  1.00  0.00     0.039 A 
ATOM     40  C   UNL     1      -2.463  17.834  -5.052  1.00  0.00     0.014 A 
ATOM     41  C   UNL     1      -2.312  17.427  -7.439  1.00  0.00     0.014 A 
ATOM     42  C   UNL     1      -1.300  18.603  -5.118  1.00  0.00     0.010 A 
ATOM     43  C   UNL     1      -1.109  18.120  -7.484  1.00  0.00     0.010 A 
ATOM     44  C   UNL     1      -0.588  18.714  -6.324  1.00  0.00    -0.014 A 
BRANCH  44  45
ATOM     45  C   UNL     1       0.699  19.451  -6.400  1.00  0.00     0.031 A 
ATOM     46  C   UNL     1       0.814  20.663  -7.287  1.00  0.00     0.074 A 
ATOM     47  C   UNL     1       1.775  19.000  -5.722  1.00  0.00     0.049 A 
ATOM     48  N   UNL     1       1.866  21.388  -7.562  1.00  0.00    -0.248 NA
ATOM     49  C   UNL     1      -0.411  21.099  -7.979  1.00  0.00     0.031 C 
ATOM     50  C   UNL     1       1.802  17.810  -4.866  1.00  0.00     0.029 A 
ATOM     51  N   UNL     1       3.058  19.483  -5.652  1.00  0.00    -0.354 N 
ATOM     52  C   UNL     1       1.432  22.362  -8.454  1.00  0.00     0.074 A 
ATOM     53  C   UNL     1       0.039  22.092  -8.732  1.00  0.00     0.031 C 
ATOM     54  C   UNL     1       3.029  17.674  -4.338  1.00  0.00     0.029 A 
ATOM     55  C   UNL     1       3.888  18.738  -4.846  1.00  0.00     0.049 A 
ATOM     56  H   UNL     1       3.356  20.288  -6.133  1.00  0.00     0.167 HD
ATOM     57  C   UNL     1       2.120  23.409  -8.966  1.00  0.00     0.037 A 
ATOM     58  C   UNL     1       5.196  18.893  -4.558  1.00  0.00     0.037 A 
ATOM     59  C   UNL     1       3.499  23.689  -8.668  1.00  0.00     0.049 A 
ATOM     60  C   UNL     1       5.944  20.052  -5.166  1.00  0.00     0.074 A 
ATOM     61  C   UNL     1       4.281  24.737  -9.119  1.00  0.00     0.029 A 
ATOM     62  N   UNL     1       4.299  22.922  -7.833  1.00  0.00    -0.354 N 
ATOM     63  N   UNL     1       5.502  20.988  -5.973  1.00  0.00    -0.248 NA
ATOM     64  C   UNL     1       7.367  20.180  -4.821  1.00  0.00     0.031 C 
ATOM     65  C   UNL     1       5.564  24.587  -8.582  1.00  0.00     0.029 A 
ATOM     66  C   UNL     1       5.567  23.472  -7.761  1.00  0.00     0.049 A 
ATOM     67  H   UNL     1       4.007  22.109  -7.362  1.00  0.00     0.167 HD
ATOM     68  C   UNL     1       6.583  21.835  -6.198  1.00  0.00     0.074 A 
ATOM     69  C   UNL     1       7.694  21.308  -5.434  1.00  0.00     0.031 C 
ATOM     70  C   UNL     1       6.652  22.948  -6.970  1.00  0.00     0.037 A 
BRANCH  57  71
ATOM     71  C   UNL     1       1.382  24.352  -9.876  1.00  0.00     0.058 A 
ATOM     72  C   UNL     1       0.398  25.221  -9.379  1.00  0.00     0.135 A 
ATOM     73  C   UNL     1       1.698  24.433 -11.242  1.00  0.00     0.135 A 
ATOM     74  F   UNL     1       0.042  25.172  -8.085  1.00  0.00    -0.206 F 
ATOM     75  C   UNL     1      -0.258  26.127 -10.205  1.00  0.00     0.059 A 
ATOM     76  C   UNL     1       1.074  25.351 -12.082  1.00  0.00     0.059 A 
ATOM     77  F   UNL     1       2.627  23.621 -11.770  1.00  0.00    -0.206 F 
ATOM     78  C   UNL     1       0.092  26.189 -11.554  1.00  0.00     0.060 A 
BRANCH  78  79
ATOM     79  S   UNL     1      -0.746  27.396 -12.602  1.00  0.00     0.124 S 
ATOM     80  O   UNL     1      -2.082  26.817 -12.703  1.00  0.00    -0.237 OA
ATOM     81  O   UNL     1      -0.644  28.618 -11.811  1.00  0.00    -0.237 OA
ATOM     82  O   UNL     1       0.038  27.381 -13.833  1.00  0.00    -0.744 OA
ENDBRANCH  78  79
ENDBRANCH  57  71
BRANCH  58  83
ATOM     83  C   UNL     1       5.892  17.945  -3.645  1.00  0.00     0.058 A 
ATOM     84  C   UNL     1       6.369  18.366  -2.394  1.00  0.00     0.135 A 
ATOM     85  C   UNL     1       6.140  16.616  -4.021  1.00  0.00     0.135 A 
ATOM     86  F   UNL     1       6.160  19.629  -1.988  1.00  0.00    -0.206 F 
ATOM     87  C   UNL     1       7.106  17.522  -1.570  1.00  0.00     0.059 A 
ATOM     88  C   UNL     1       6.849  15.742  -3.201  1.00  0.00     0.059 A 
ATOM     89  F   UNL     1       5.689  16.153  -5.198  1.00  0.00    -0.206 F 
ATOM     90  C   UNL     1       7.349  16.213  -1.987  1.00  0.00     0.060 A 
BRANCH  90  91
ATOM     91  S   UNL     1       8.319  15.128  -0.918  1.00  0.00     0.124 S 
ATOM     92  O   UNL     1       9.665  15.654  -1.113  1.00  0.00    -0.237 OA
ATOM     93  O   UNL     1       7.722  15.370   0.391  1.00  0.00    -0.237 OA
ATOM     94  O   UNL     1       8.073  13.801  -1.476  1.00  0.00    -0.744 OA
ENDBRANCH  90  91
ENDBRANCH  58  83
BRANCH  70  95
ATOM     95  C   UNL     1       7.952  23.703  -6.983  1.00  0.00     0.058 A 
ATOM     96  C   UNL     1       9.088  23.210  -7.642  1.00  0.00     0.135 A 
ATOM     97  C   UNL     1       8.043  24.965  -6.372  1.00  0.00     0.135 A 
ATOM     98  F   UNL     1       9.055  22.007  -8.237  1.00  0.00    -0.206 F 
ATOM     99  C   UNL     1      10.278  23.929  -7.673  1.00  0.00     0.059 A 
ATOM    100  C   UNL     1       9.213  25.714  -6.416  1.00  0.00     0.059 A 
ATOM    101  F   UNL     1       6.981  25.488  -5.738  1.00  0.00    -0.206 F 
ATOM    102  C   UNL     1      10.330  25.182  -7.059  1.00  0.00     0.060 A 
BRANCH 102 103
ATOM    103  S   UNL     1      11.870  26.120  -7.139  1.00  0.00     0.124 S 
ATOM    104  O   UNL     1      12.708  25.391  -6.194  1.00  0.00    -0.237 OA
ATOM    105  O   UNL     1      12.240  25.993  -8.545  1.00  0.00    -0.237 OA
ATOM    106  O   UNL     1      11.473  27.462  -6.721  1.00  0.00    -0.744 OA
ENDBRANCH 102 103
ENDBRANCH  70  95
ENDBRANCH  44  45
ENDBRANCH  36  39
ENDBRANCH  34  35
ENDBRANCH  33  34
ENDBRANCH  32  33
ENDBRANCH  31  32
ENDBRANCH  29  31
ENDBRANCH   1  27
TORSDOF 23
