REMARK SMILES Cc1noc2c1-c1c(c(C(=O)NCCCCNC(=O)c3ccc(-c4c5nc(c(-c6c(F)cc(S(=O)(=O)[O-])cc6F)c6ccc([nH]6)c(-c6c(F)cc(S(=O)(=O)[O-])cc6F)c6nc(c(-c7c(F)cc(S(=O)(=O)[O-])cc7F)c7ccc4[nH]7)C=C6)C=C5)cc3)nn1C)CC2
REMARK SMILES IDX 16 1 15 2 14 3 13 4 12 5 10 6 11 7 9 9 1 10 2 11 3 12 6 13
REMARK SMILES IDX 4 14 5 15 7 16 90 17 8 18 87 19 89 20 86 21 88 22 17 23
REMARK SMILES IDX 18 24 19 26 20 27 21 28 85 29 22 30 84 31 23 32 24 33 25 34
REMARK SMILES IDX 78 35 26 36 83 37 77 38 79 39 27 40 82 41 76 42 75 43 28 45
REMARK SMILES IDX 62 46 41 47 61 48 42 49 45 50 60 51 80 52 43 53 44 54 59 56
REMARK SMILES IDX 81 57 46 58 29 59 30 60 39 61 31 62 32 63 38 64 40 65 33 66
REMARK SMILES IDX 34 67 35 68 36 69 37 70 63 71 64 72 73 73 65 74 66 75 72 76
REMARK SMILES IDX 74 77 67 78 68 79 69 80 70 81 71 82 47 83 48 84 57 85 49 86
REMARK SMILES IDX 50 87 56 88 58 89 51 90 52 91 53 92 54 93 55 94
REMARK H PARENT 12 8 17 25 79 44 45 55
REMARK Flexibility Score: inf
ROOT
ATOM      1  C   UNL     1       2.760   9.859   1.661  1.00  0.00     0.116 C 
ENDROOT
BRANCH   1   2
ATOM      2  C   UNL     1       2.567   9.056   2.939  1.00  0.00     0.023 C 
BRANCH   2   3
ATOM      3  C   UNL     1       2.023   7.639   2.767  1.00  0.00     0.023 C 
BRANCH   3   4
ATOM      4  C   UNL     1       2.722   6.687   1.799  1.00  0.00     0.116 C 
BRANCH   4   5
ATOM      5  N   UNL     1       4.032   6.213   2.150  1.00  0.00    -0.351 N 
ATOM      6  C   UNL     1       4.588   4.958   1.947  1.00  0.00     0.272 C 
ATOM      7  O   UNL     1       5.739   4.814   2.370  1.00  0.00    -0.267 OA
ATOM      8  H   UNL     1       4.616   6.868   2.596  1.00  0.00     0.163 HD
BRANCH   6   9
ATOM      9  C   UNL     1       3.831   3.825   1.332  1.00  0.00     0.154 A 
ATOM     10  C   UNL     1       0.598  -0.516  -0.228  1.00  0.00     0.071 C 
ATOM     11  C   UNL     1       0.572   0.822  -0.855  1.00  0.00     0.090 A 
ATOM     12  N   UNL     1      -0.365   1.077  -1.788  1.00  0.00    -0.084 NA
ATOM     13  C   UNL     1       1.371   1.959  -0.630  1.00  0.00     0.066 A 
ATOM     14  O   UNL     1      -0.146   2.380  -2.214  1.00  0.00    -0.360 OA
ATOM     15  C   UNL     1       0.897   2.884  -1.524  1.00  0.00     0.146 A 
ATOM     16  C   UNL     1       2.477   2.399   0.245  1.00  0.00     0.077 A 
ATOM     17  C   UNL     1       1.420   4.236  -1.816  1.00  0.00     0.084 C 
ATOM     18  C   UNL     1       2.841   3.742   0.285  1.00  0.00     0.012 A 
ATOM     19  N   UNL     1       3.301   1.748   1.101  1.00  0.00    -0.267 N 
ATOM     20  C   UNL     1       2.183   4.788  -0.589  1.00  0.00     0.048 C 
ATOM     21  N   UNL     1       4.081   2.581   1.804  1.00  0.00    -0.167 NA
ATOM     22  C   UNL     1       3.469   0.329   1.285  1.00  0.00     0.174 C 
ENDBRANCH   6   9
ENDBRANCH   4   5
ENDBRANCH   3   4
ENDBRANCH   2   3
ENDBRANCH   1   2
BRANCH   1  23
ATOM     23  N   UNL     1       1.533  10.131   0.910  1.00  0.00    -0.352 N 
ATOM     24  C   UNL     1       1.426  10.876  -0.264  1.00  0.00     0.251 C 
ATOM     25  H   UNL     1       0.699   9.750   1.271  1.00  0.00     0.163 HD
ATOM     26  O   UNL     1       0.365  11.316  -0.646  1.00  0.00    -0.269 OA
BRANCH  24  27
ATOM     27  C   UNL     1       2.673  11.109  -1.026  1.00  0.00     0.039 A 
ATOM     28  C   UNL     1       3.075  12.389  -1.419  1.00  0.00     0.014 A 
ATOM     29  C   UNL     1       3.502  10.011  -1.212  1.00  0.00     0.014 A 
ATOM     30  C   UNL     1       4.375  12.568  -1.900  1.00  0.00     0.010 A 
ATOM     31  C   UNL     1       4.824  10.220  -1.515  1.00  0.00     0.010 A 
ATOM     32  C   UNL     1       5.263  11.482  -1.916  1.00  0.00    -0.014 A 
BRANCH  32  33
ATOM     33  C   UNL     1       6.674  11.648  -2.278  1.00  0.00     0.031 A 
ATOM     34  C   UNL     1       7.456  12.672  -1.517  1.00  0.00     0.074 A 
ATOM     35  C   UNL     1       7.325  10.749  -3.050  1.00  0.00     0.049 A 
ATOM     36  N   UNL     1       8.069  13.719  -1.968  1.00  0.00    -0.248 NA
ATOM     37  C   UNL     1       7.514  12.544  -0.052  1.00  0.00     0.031 C 
ATOM     38  C   UNL     1       6.816   9.486  -3.607  1.00  0.00     0.029 A 
ATOM     39  N   UNL     1       8.642  10.709  -3.387  1.00  0.00    -0.354 N 
ATOM     40  C   UNL     1       8.754  14.274  -0.885  1.00  0.00     0.074 A 
ATOM     41  C   UNL     1       8.255  13.602   0.287  1.00  0.00     0.031 C 
ATOM     42  C   UNL     1       7.851   8.701  -3.970  1.00  0.00     0.029 A 
ATOM     43  C   UNL     1       9.068   9.482  -3.873  1.00  0.00     0.049 A 
ATOM     44  H   UNL     1       9.242  11.485  -3.294  1.00  0.00     0.167 HD
ATOM     45  C   UNL     1       9.826  15.105  -1.047  1.00  0.00     0.037 A 
ATOM     46  C   UNL     1      10.335   9.110  -4.168  1.00  0.00     0.037 A 
ATOM     47  C   UNL     1       9.915  15.592  -2.399  1.00  0.00     0.049 A 
ATOM     48  C   UNL     1      11.120  10.353  -4.364  1.00  0.00     0.074 A 
ATOM     49  C   UNL     1       9.092  16.331  -3.227  1.00  0.00     0.029 A 
ATOM     50  N   UNL     1      10.852  15.022  -3.226  1.00  0.00    -0.354 N 
ATOM     51  N   UNL     1      10.905  11.207  -5.329  1.00  0.00    -0.248 NA
ATOM     52  C   UNL     1      11.871  10.870  -3.232  1.00  0.00     0.031 C 
ATOM     53  C   UNL     1       9.268  15.761  -4.523  1.00  0.00     0.029 A 
ATOM     54  C   UNL     1      10.224  14.748  -4.415  1.00  0.00     0.049 A 
ATOM     55  H   UNL     1      11.796  14.844  -3.008  1.00  0.00     0.167 HD
ATOM     56  C   UNL     1      11.121  12.454  -4.758  1.00  0.00     0.074 A 
ATOM     57  C   UNL     1      11.819  12.176  -3.505  1.00  0.00     0.031 C 
ATOM     58  C   UNL     1      10.479  13.569  -5.217  1.00  0.00     0.037 A 
BRANCH  45  59
ATOM     59  C   UNL     1      10.986  15.232  -0.081  1.00  0.00     0.058 A 
ATOM     60  C   UNL     1      11.932  16.268  -0.253  1.00  0.00     0.135 A 
ATOM     61  C   UNL     1      11.360  14.219   0.828  1.00  0.00     0.135 A 
ATOM     62  F   UNL     1      11.689  17.282  -1.098  1.00  0.00    -0.206 F 
ATOM     63  C   UNL     1      13.181  16.256   0.373  1.00  0.00     0.059 A 
ATOM     64  C   UNL     1      12.577  14.217   1.505  1.00  0.00     0.059 A 
ATOM     65  F   UNL     1      10.607  13.130   1.027  1.00  0.00    -0.206 F 
ATOM     66  C   UNL     1      13.501  15.213   1.235  1.00  0.00     0.060 A 
BRANCH  66  67
ATOM     67  S   UNL     1      15.157  15.119   1.941  1.00  0.00     0.124 S 
ATOM     68  O   UNL     1      15.948  14.751   0.772  1.00  0.00    -0.237 OA
ATOM     69  O   UNL     1      15.353  16.474   2.446  1.00  0.00    -0.237 OA
ATOM     70  O   UNL     1      15.026  14.088   2.966  1.00  0.00    -0.744 OA
ENDBRANCH  66  67
ENDBRANCH  45  59
BRANCH  46  71
ATOM     71  C   UNL     1      10.935   7.768  -3.994  1.00  0.00     0.058 A 
ATOM     72  C   UNL     1      12.093   7.383  -4.684  1.00  0.00     0.135 A 
ATOM     73  C   UNL     1      10.514   6.916  -2.949  1.00  0.00     0.135 A 
ATOM     74  F   UNL     1      12.574   8.152  -5.673  1.00  0.00    -0.206 F 
ATOM     75  C   UNL     1      12.812   6.233  -4.343  1.00  0.00     0.059 A 
ATOM     76  C   UNL     1      11.209   5.761  -2.595  1.00  0.00     0.059 A 
ATOM     77  F   UNL     1       9.454   7.232  -2.188  1.00  0.00    -0.206 F 
ATOM     78  C   UNL     1      12.370   5.436  -3.285  1.00  0.00     0.060 A 
BRANCH  78  79
ATOM     79  S   UNL     1      13.380   4.033  -2.754  1.00  0.00     0.124 S 
ATOM     80  O   UNL     1      13.249   3.123  -3.886  1.00  0.00    -0.237 OA
ATOM     81  O   UNL     1      14.691   4.648  -2.579  1.00  0.00    -0.237 OA
ATOM     82  O   UNL     1      12.731   3.594  -1.522  1.00  0.00    -0.744 OA
ENDBRANCH  78  79
ENDBRANCH  46  71
BRANCH  58  83
ATOM     83  C   UNL     1       9.761  13.495  -6.543  1.00  0.00     0.058 A 
ATOM     84  C   UNL     1       8.630  12.696  -6.788  1.00  0.00     0.135 A 
ATOM     85  C   UNL     1      10.125  14.406  -7.547  1.00  0.00     0.135 A 
ATOM     86  F   UNL     1       8.150  11.874  -5.848  1.00  0.00    -0.206 F 
ATOM     87  C   UNL     1       7.914  12.775  -7.985  1.00  0.00     0.059 A 
ATOM     88  C   UNL     1       9.407  14.524  -8.736  1.00  0.00     0.059 A 
ATOM     89  F   UNL     1      11.156  15.244  -7.352  1.00  0.00    -0.206 F 
ATOM     90  C   UNL     1       8.307  13.698  -8.952  1.00  0.00     0.060 A 
BRANCH  90  91
ATOM     91  S   UNL     1       7.317  13.870 -10.453  1.00  0.00     0.124 S 
ATOM     92  O   UNL     1       7.645  12.649 -11.180  1.00  0.00    -0.237 OA
ATOM     93  O   UNL     1       5.955  13.950  -9.931  1.00  0.00    -0.237 OA
ATOM     94  O   UNL     1       7.816  15.106 -11.052  1.00  0.00    -0.744 OA
ENDBRANCH  90  91
ENDBRANCH  58  83
ENDBRANCH  32  33
ENDBRANCH  24  27
ENDBRANCH   1  23
TORSDOF 14
