REMARK SMILES CCOc1cccc(C(=O)NCCCCNC(=O)c2ccc(-c3c4nc(c(-c5c(F)cc(S(=O)(=O)[O-])cc5F)c5ccc([nH]5)c(-c5c(F)cc(S(=O)(=O)[O-])cc5F)c5nc(c(-c6c(F)cc(S(=O)(=O)[O-])cc6F)c6ccc3[nH]6)C=C5)C=C4)cc2)c1OCc1ccc(Br)cc1
REMARK SMILES IDX 13 1 12 2 11 3 9 4 10 5 8 7 4 8 5 9 85 10 6 11 7 12 3 13
REMARK SMILES IDX 2 14 1 15 86 16 87 17 88 18 89 19 94 20 90 21 93 22 91 23
REMARK SMILES IDX 92 24 14 25 15 26 16 27 17 28 18 30 19 31 20 32 84 33 21 34
REMARK SMILES IDX 83 35 22 36 23 37 24 38 77 39 25 40 82 41 76 42 78 43 26 44
REMARK SMILES IDX 81 45 75 46 74 47 27 49 61 50 40 51 60 52 41 53 44 54 59 55
REMARK SMILES IDX 79 56 42 57 43 58 58 60 80 61 45 62 28 63 29 64 38 65 30 66
REMARK SMILES IDX 31 67 37 68 39 69 32 70 33 71 34 72 35 73 36 74 62 75 63 76
REMARK SMILES IDX 72 77 64 78 65 79 71 80 73 81 66 82 67 83 68 84 69 85 70 86
REMARK SMILES IDX 46 87 47 88 56 89 48 90 49 91 55 92 57 93 50 94 51 95 52 96
REMARK SMILES IDX 53 97 54 98
REMARK H PARENT 11 6 16 29 78 48 44 59
REMARK Flexibility Score: inf
ROOT
ATOM      1  C   UNL     1       3.133  -1.808   2.863  1.00  0.00     0.023 C 
ENDROOT
BRANCH   1   2
ATOM      2  C   UNL     1       3.523  -1.143   1.550  1.00  0.00     0.116 C 
BRANCH   2   3
ATOM      3  N   UNL     1       4.904  -1.277   1.105  1.00  0.00    -0.352 N 
ATOM      4  C   UNL     1       5.400  -1.359  -0.197  1.00  0.00     0.255 C 
ATOM      5  O   UNL     1       6.616  -1.399  -0.378  1.00  0.00    -0.269 OA
ATOM      6  H   UNL     1       5.580  -1.314   1.820  1.00  0.00     0.163 HD
BRANCH   4   7
ATOM      7  C   UNL     1       4.486  -1.555  -1.365  1.00  0.00     0.085 A 
ATOM      8  C   UNL     1       2.195  -1.718  -1.925  1.00  0.00     0.162 A 
ATOM      9  C   UNL     1       2.457  -2.747  -2.834  1.00  0.00     0.050 A 
ATOM     10  C   UNL     1       3.240  -0.938  -1.426  1.00  0.00     0.174 A 
ATOM     11  C   UNL     1       3.783  -3.116  -3.077  1.00  0.00     0.005 A 
ATOM     12  C   UNL     1       4.789  -2.586  -2.266  1.00  0.00     0.018 A 
BRANCH   8  13
ATOM     13  O   UNL     1       1.160  -1.875  -1.024  1.00  0.00    -0.490 OA
BRANCH  13  14
ATOM     14  C   UNL     1      -0.176  -1.950  -1.484  1.00  0.00     0.226 C 
ATOM     15  C   UNL     1      -1.023  -1.585  -0.269  1.00  0.00     0.049 C 
ENDBRANCH  13  14
ENDBRANCH   8  13
BRANCH  10  16
ATOM     16  O   UNL     1       3.156   0.306  -0.869  1.00  0.00    -0.484 OA
BRANCH  16  17
ATOM     17  C   UNL     1       1.911   0.976  -0.735  1.00  0.00     0.265 C 
BRANCH  17  18
ATOM     18  C   UNL     1       1.597   1.954  -1.841  1.00  0.00    -0.011 A 
ATOM     19  C   UNL     1       2.058   3.276  -1.763  1.00  0.00     0.008 A 
ATOM     20  C   UNL     1       0.768   1.591  -2.910  1.00  0.00     0.008 A 
ATOM     21  C   UNL     1       1.645   4.226  -2.701  1.00  0.00     0.016 A 
ATOM     22  C   UNL     1       0.349   2.539  -3.846  1.00  0.00     0.016 A 
ATOM     23  C   UNL     1       0.781   3.856  -3.729  1.00  0.00     0.017 A 
ATOM     24  Br  UNL     1       0.172   5.151  -4.963  1.00  0.00    -0.051 Br
ENDBRANCH  17  18
ENDBRANCH  16  17
ENDBRANCH  10  16
ENDBRANCH   4   7
ENDBRANCH   2   3
ENDBRANCH   1   2
BRANCH   1  25
ATOM     25  C   UNL     1       3.647  -1.159   4.139  1.00  0.00     0.023 C 
BRANCH  25  26
ATOM     26  C   UNL     1       3.429   0.345   4.280  1.00  0.00     0.116 C 
BRANCH  26  27
ATOM     27  N   UNL     1       2.034   0.766   4.237  1.00  0.00    -0.352 N 
ATOM     28  C   UNL     1       1.317   1.531   5.133  1.00  0.00     0.251 C 
ATOM     29  H   UNL     1       1.527   0.458   3.451  1.00  0.00     0.163 HD
ATOM     30  O   UNL     1       0.122   1.745   4.937  1.00  0.00    -0.269 OA
BRANCH  28  31
ATOM     31  C   UNL     1       1.971   2.049   6.357  1.00  0.00     0.039 A 
ATOM     32  C   UNL     1       1.344   1.863   7.592  1.00  0.00     0.014 A 
ATOM     33  C   UNL     1       3.223   2.663   6.297  1.00  0.00     0.014 A 
ATOM     34  C   UNL     1       2.023   2.187   8.771  1.00  0.00     0.010 A 
ATOM     35  C   UNL     1       3.934   2.896   7.472  1.00  0.00     0.010 A 
ATOM     36  C   UNL     1       3.349   2.650   8.723  1.00  0.00    -0.014 A 
BRANCH  36  37
ATOM     37  C   UNL     1       4.148   2.860   9.962  1.00  0.00     0.031 A 
ATOM     38  C   UNL     1       4.698   4.224  10.286  1.00  0.00     0.074 A 
ATOM     39  C   UNL     1       4.455   1.807  10.748  1.00  0.00     0.049 A 
ATOM     40  N   UNL     1       5.490   4.585  11.263  1.00  0.00    -0.248 NA
ATOM     41  C   UNL     1       4.338   5.320   9.372  1.00  0.00     0.031 C 
ATOM     42  C   UNL     1       4.041   0.421  10.514  1.00  0.00     0.029 A 
ATOM     43  N   UNL     1       5.201   1.734  11.900  1.00  0.00    -0.354 N 
ATOM     44  C   UNL     1       5.744   5.937  11.066  1.00  0.00     0.074 A 
ATOM     45  C   UNL     1       5.062   6.322   9.849  1.00  0.00     0.031 C 
ATOM     46  C   UNL     1       4.513  -0.356  11.503  1.00  0.00     0.029 A 
ATOM     47  C   UNL     1       5.296   0.464  12.421  1.00  0.00     0.049 A 
ATOM     48  H   UNL     1       5.628   2.519  12.315  1.00  0.00     0.167 HD
ATOM     49  C   UNL     1       6.460   6.788  11.839  1.00  0.00     0.037 A 
ATOM     50  C   UNL     1       5.943   0.009  13.512  1.00  0.00     0.037 A 
ATOM     51  C   UNL     1       7.098   6.414  13.074  1.00  0.00     0.049 A 
ATOM     52  C   UNL     1       6.710   0.981  14.370  1.00  0.00     0.074 A 
ATOM     53  C   UNL     1       7.775   7.222  13.971  1.00  0.00     0.029 A 
ATOM     54  N   UNL     1       7.138   5.126  13.587  1.00  0.00    -0.354 N 
ATOM     55  N   UNL     1       6.873   2.272  14.208  1.00  0.00    -0.248 NA
ATOM     56  C   UNL     1       7.374   0.435  15.562  1.00  0.00     0.031 C 
ATOM     57  C   UNL     1       8.257   6.416  15.008  1.00  0.00     0.029 A 
ATOM     58  C   UNL     1       7.842   5.114  14.780  1.00  0.00     0.049 A 
ATOM     59  H   UNL     1       6.726   4.337  13.166  1.00  0.00     0.167 HD
ATOM     60  C   UNL     1       7.631   2.698  15.294  1.00  0.00     0.074 A 
ATOM     61  C   UNL     1       7.886   1.529  16.110  1.00  0.00     0.031 C 
ATOM     62  C   UNL     1       8.075   3.945  15.589  1.00  0.00     0.037 A 
BRANCH  49  63
ATOM     63  C   UNL     1       6.582   8.215  11.379  1.00  0.00     0.058 A 
ATOM     64  C   UNL     1       5.489   9.096  11.408  1.00  0.00     0.135 A 
ATOM     65  C   UNL     1       7.818   8.720  10.941  1.00  0.00     0.135 A 
ATOM     66  F   UNL     1       4.282   8.662  11.803  1.00  0.00    -0.206 F 
ATOM     67  C   UNL     1       5.608  10.417  10.991  1.00  0.00     0.059 A 
ATOM     68  C   UNL     1       7.966  10.047  10.547  1.00  0.00     0.059 A 
ATOM     69  F   UNL     1       8.896   7.922  10.894  1.00  0.00    -0.206 F 
ATOM     70  C   UNL     1       6.851  10.884  10.562  1.00  0.00     0.060 A 
BRANCH  70  71
ATOM     71  S   UNL     1       6.990  12.604  10.033  1.00  0.00     0.124 S 
ATOM     72  O   UNL     1       6.324  12.564   8.735  1.00  0.00    -0.237 OA
ATOM     73  O   UNL     1       6.276  13.314  11.089  1.00  0.00    -0.237 OA
ATOM     74  O   UNL     1       8.431  12.832   9.992  1.00  0.00    -0.744 OA
ENDBRANCH  70  71
ENDBRANCH  49  63
BRANCH  50  75
ATOM     75  C   UNL     1       5.874  -1.431  13.880  1.00  0.00     0.058 A 
ATOM     76  C   UNL     1       5.152  -1.850  15.008  1.00  0.00     0.135 A 
ATOM     77  C   UNL     1       6.530  -2.414  13.124  1.00  0.00     0.135 A 
ATOM     78  F   UNL     1       4.512  -0.948  15.767  1.00  0.00    -0.206 F 
ATOM     79  C   UNL     1       5.101  -3.187  15.388  1.00  0.00     0.059 A 
ATOM     80  C   UNL     1       6.474  -3.761  13.469  1.00  0.00     0.059 A 
ATOM     81  F   UNL     1       7.221  -2.068  12.026  1.00  0.00    -0.206 F 
ATOM     82  C   UNL     1       5.768  -4.136  14.612  1.00  0.00     0.060 A 
BRANCH  82  83
ATOM     83  S   UNL     1       5.670  -5.875  15.094  1.00  0.00     0.124 S 
ATOM     84  O   UNL     1       6.566  -5.911  16.244  1.00  0.00    -0.237 OA
ATOM     85  O   UNL     1       4.249  -6.033  15.387  1.00  0.00    -0.237 OA
ATOM     86  O   UNL     1       6.138  -6.579  13.904  1.00  0.00    -0.744 OA
ENDBRANCH  82  83
ENDBRANCH  50  75
BRANCH  62  87
ATOM     87  C   UNL     1       8.843   4.121  16.869  1.00  0.00     0.058 A 
ATOM     88  C   UNL     1      10.161   3.663  17.010  1.00  0.00     0.135 A 
ATOM     89  C   UNL     1       8.265   4.802  17.953  1.00  0.00     0.135 A 
ATOM     90  F   UNL     1      10.757   3.000  16.005  1.00  0.00    -0.206 F 
ATOM     91  C   UNL     1      10.873   3.851  18.190  1.00  0.00     0.059 A 
ATOM     92  C   UNL     1       8.968   5.025  19.133  1.00  0.00     0.059 A 
ATOM     93  F   UNL     1       7.010   5.271  17.867  1.00  0.00    -0.206 F 
ATOM     94  C   UNL     1      10.268   4.534  19.247  1.00  0.00     0.060 A 
BRANCH  94  95
ATOM     95  S   UNL     1      11.211   4.799  20.763  1.00  0.00     0.124 S 
ATOM     96  O   UNL     1      11.168   3.474  21.371  1.00  0.00    -0.237 OA
ATOM     97  O   UNL     1      12.512   5.221  20.253  1.00  0.00    -0.237 OA
ATOM     98  O   UNL     1      10.453   5.835  21.458  1.00  0.00    -0.744 OA
ENDBRANCH  94  95
ENDBRANCH  62  87
ENDBRANCH  36  37
ENDBRANCH  28  31
ENDBRANCH  26  27
ENDBRANCH  25  26
ENDBRANCH   1  25
TORSDOF 19
