REMARK SMILES COc1ccc(OC)c(/C=N/[NH+]=C2/NC(=O)[C@@H](CC(=O)NCCCCNC(=O)c3ccc(-c4c5nc(c(-c6c(F)cc(S(=O)(=O)[O-])cc6F)c6ccc([nH]6)c(-c6c(F)cc(S(=O)(=O)[O-])cc6F)c6nc(c(-c7c(F)cc(S(=O)(=O)[O-])cc7F)c7ccc4[nH]7)C=C6)C=C5)cc3)S2)c1
REMARK SMILES IDX 23 1 22 2 21 3 19 4 20 5 18 7 17 8 12 9 13 10 14 12 95 13
REMARK SMILES IDX 15 14 16 16 11 17 10 18 9 19 3 20 4 21 96 22 5 23 6 24 2 25
REMARK SMILES IDX 1 26 7 27 8 28 24 29 25 30 26 31 27 32 28 34 29 35 30 36
REMARK SMILES IDX 94 37 31 38 93 39 32 40 33 41 34 42 87 43 35 44 92 45 86 46
REMARK SMILES IDX 88 47 36 48 91 49 85 50 84 51 37 53 71 54 50 55 70 56 51 57
REMARK SMILES IDX 54 58 69 59 89 60 52 61 53 62 68 64 90 65 55 66 38 67 39 68
REMARK SMILES IDX 48 69 40 70 41 71 47 72 49 73 42 74 43 75 44 76 45 77 46 78
REMARK SMILES IDX 72 79 73 80 82 81 74 82 75 83 81 84 83 85 76 86 77 87 78 88
REMARK SMILES IDX 79 89 80 90 56 91 57 92 66 93 58 94 59 95 65 96 67 97 60 98
REMARK SMILES IDX 61 99 62 100 63 101 64 102
REMARK H PARENT 21 6 12 11 14 15 26 33 88 52 54 63
REMARK Flexibility Score: inf
ROOT
ATOM      1  C   UNL     1       6.531  -2.231  -4.109  1.00  0.00     0.023 C 
ENDROOT
BRANCH   1   2
ATOM      2  C   UNL     1       7.502  -1.548  -3.150  1.00  0.00     0.116 C 
BRANCH   2   3
ATOM      3  N   UNL     1       7.046  -1.640  -1.774  1.00  0.00    -0.356 N 
ATOM      4  C   UNL     1       7.444  -2.441  -0.750  1.00  0.00     0.221 C 
ATOM      5  O   UNL     1       6.877  -2.316   0.336  1.00  0.00    -0.275 OA
ATOM      6  H   UNL     1       6.323  -1.013  -1.542  1.00  0.00     0.163 HD
BRANCH   4   7
ATOM      7  C   UNL     1       8.565  -3.440  -0.927  1.00  0.00     0.127 C 
BRANCH   7   8
ATOM      8  C   UNL     1       8.172  -4.857  -1.350  1.00  0.00     0.183 C 
ATOM      9  N   UNL     1       5.188  -5.748  -3.608  1.00  0.00    -0.142 N 
ATOM     10  C   UNL     1       6.244  -5.632  -2.880  1.00  0.00     0.337 C 
ATOM     11  H   UNL     1       5.274  -5.905  -4.576  1.00  0.00     0.343 HD
ATOM     12  N   UNL     1       7.447  -5.596  -3.500  1.00  0.00    -0.202 N 
ATOM     13  S   UNL     1       6.423  -5.356  -1.179  1.00  0.00    -0.020 SA
ATOM     14  C   UNL     1       8.512  -5.112  -2.805  1.00  0.00     0.322 C 
ATOM     15  H   UNL     1       7.549  -5.912  -4.427  1.00  0.00     0.316 HD
ATOM     16  O   UNL     1       9.594  -4.867  -3.326  1.00  0.00    -0.246 OA
BRANCH   9  17
ATOM     17  N   UNL     1       3.919  -5.652  -3.026  1.00  0.00    -0.093 NA
ATOM     18  C   UNL     1       3.590  -4.440  -2.703  1.00  0.00     0.170 C 
BRANCH  18  19
ATOM     19  C   UNL     1       2.220  -3.997  -2.403  1.00  0.00     0.042 A 
ATOM     20  C   UNL     1       0.803  -2.522  -1.116  1.00  0.00     0.119 A 
ATOM     21  C   UNL     1      -0.313  -2.977  -1.813  1.00  0.00     0.050 A 
ATOM     22  C   UNL     1       2.071  -3.028  -1.400  1.00  0.00     0.060 A 
ATOM     23  C   UNL     1      -0.159  -3.921  -2.830  1.00  0.00     0.051 A 
ATOM     24  C   UNL     1       1.109  -4.418  -3.147  1.00  0.00     0.128 A 
BRANCH  20  25
ATOM     25  O   UNL     1       0.603  -1.657  -0.076  1.00  0.00    -0.497 OA
ATOM     26  C   UNL     1       1.090  -0.350  -0.377  1.00  0.00     0.278 C 
ENDBRANCH  20  25
BRANCH  24  27
ATOM     27  O   UNL     1       1.144  -5.334  -4.163  1.00  0.00    -0.496 OA
ATOM     28  C   UNL     1       1.923  -4.925  -5.287  1.00  0.00     0.278 C 
ENDBRANCH  24  27
ENDBRANCH  18  19
ENDBRANCH   9  17
ENDBRANCH   7   8
ENDBRANCH   4   7
ENDBRANCH   2   3
ENDBRANCH   1   2
BRANCH   1  29
ATOM     29  C   UNL     1       5.144  -1.594  -4.186  1.00  0.00     0.023 C 
BRANCH  29  30
ATOM     30  C   UNL     1       5.084  -0.335  -5.029  1.00  0.00     0.116 C 
BRANCH  30  31
ATOM     31  N   UNL     1       5.278  -0.619  -6.443  1.00  0.00    -0.352 N 
ATOM     32  C   UNL     1       4.505  -0.266  -7.523  1.00  0.00     0.251 C 
ATOM     33  H   UNL     1       6.083  -1.143  -6.658  1.00  0.00     0.163 HD
ATOM     34  O   UNL     1       4.743  -0.760  -8.622  1.00  0.00    -0.269 OA
BRANCH  32  35
ATOM     35  C   UNL     1       3.378   0.679  -7.357  1.00  0.00     0.039 A 
ATOM     36  C   UNL     1       2.194   0.458  -8.067  1.00  0.00     0.014 A 
ATOM     37  C   UNL     1       3.482   1.781  -6.505  1.00  0.00     0.014 A 
ATOM     38  C   UNL     1       1.100   1.305  -7.872  1.00  0.00     0.010 A 
ATOM     39  C   UNL     1       2.362   2.556  -6.231  1.00  0.00     0.010 A 
ATOM     40  C   UNL     1       1.163   2.339  -6.924  1.00  0.00    -0.014 A 
BRANCH  40  41
ATOM     41  C   UNL     1       0.006   3.233  -6.661  1.00  0.00     0.031 A 
ATOM     42  C   UNL     1       0.144   4.717  -6.886  1.00  0.00     0.074 A 
ATOM     43  C   UNL     1      -1.131   2.727  -6.144  1.00  0.00     0.049 A 
ATOM     44  N   UNL     1      -0.694   5.679  -6.599  1.00  0.00    -0.248 NA
ATOM     45  C   UNL     1       1.413   5.185  -7.470  1.00  0.00     0.031 C 
ATOM     46  C   UNL     1      -1.366   1.317  -5.825  1.00  0.00     0.029 A 
ATOM     47  N   UNL     1      -2.301   3.346  -5.782  1.00  0.00    -0.354 N 
ATOM     48  C   UNL     1      -0.043   6.861  -6.936  1.00  0.00     0.074 A 
ATOM     49  C   UNL     1       1.281   6.500  -7.392  1.00  0.00     0.031 C 
ATOM     50  C   UNL     1      -2.612   1.175  -5.344  1.00  0.00     0.029 A 
ATOM     51  C   UNL     1      -3.250   2.485  -5.282  1.00  0.00     0.049 A 
ATOM     52  H   UNL     1      -2.448   4.315  -5.873  1.00  0.00     0.167 HD
ATOM     53  C   UNL     1      -0.514   8.129  -6.897  1.00  0.00     0.037 A 
ATOM     54  C   UNL     1      -4.493   2.728  -4.822  1.00  0.00     0.037 A 
ATOM     55  C   UNL     1      -1.853   8.474  -6.499  1.00  0.00     0.049 A 
ATOM     56  C   UNL     1      -5.012   4.140  -4.830  1.00  0.00     0.074 A 
ATOM     57  C   UNL     1      -2.456   9.719  -6.494  1.00  0.00     0.029 A 
ATOM     58  N   UNL     1      -2.801   7.566  -6.049  1.00  0.00    -0.354 N 
ATOM     59  N   UNL     1      -4.400   5.240  -5.203  1.00  0.00    -0.248 NA
ATOM     60  C   UNL     1      -6.389   4.346  -4.362  1.00  0.00     0.031 C 
ATOM     61  C   UNL     1      -3.761   9.569  -6.011  1.00  0.00     0.029 A 
ATOM     62  C   UNL     1      -3.982   8.225  -5.754  1.00  0.00     0.049 A 
ATOM     63  H   UNL     1      -2.655   6.597  -5.953  1.00  0.00     0.167 HD
ATOM     64  C   UNL     1      -5.327   6.264  -5.039  1.00  0.00     0.074 A 
ATOM     65  C   UNL     1      -6.543   5.651  -4.544  1.00  0.00     0.031 C 
ATOM     66  C   UNL     1      -5.185   7.591  -5.275  1.00  0.00     0.037 A 
BRANCH  53  67
ATOM     67  C   UNL     1       0.419   9.234  -7.312  1.00  0.00     0.058 A 
ATOM     68  C   UNL     1       0.818   9.398  -8.649  1.00  0.00     0.135 A 
ATOM     69  C   UNL     1       0.903  10.154  -6.368  1.00  0.00     0.135 A 
ATOM     70  F   UNL     1       0.400   8.537  -9.590  1.00  0.00    -0.206 F 
ATOM     71  C   UNL     1       1.691  10.412  -9.029  1.00  0.00     0.059 A 
ATOM     72  C   UNL     1       1.754  11.194  -6.731  1.00  0.00     0.059 A 
ATOM     73  F   UNL     1       0.555  10.044  -5.077  1.00  0.00    -0.206 F 
ATOM     74  C   UNL     1       2.155  11.304  -8.062  1.00  0.00     0.060 A 
BRANCH  74  75
ATOM     75  S   UNL     1       3.288  12.614  -8.571  1.00  0.00     0.124 S 
ATOM     76  O   UNL     1       4.527  11.867  -8.762  1.00  0.00    -0.237 OA
ATOM     77  O   UNL     1       2.658  13.117  -9.788  1.00  0.00    -0.237 OA
ATOM     78  O   UNL     1       3.277  13.533  -7.437  1.00  0.00    -0.744 OA
ENDBRANCH  74  75
ENDBRANCH  53  67
BRANCH  54  79
ATOM     79  C   UNL     1      -5.343   1.604  -4.347  1.00  0.00     0.058 A 
ATOM     80  C   UNL     1      -6.449   1.175  -5.095  1.00  0.00     0.135 A 
ATOM     81  C   UNL     1      -5.062   0.929  -3.149  1.00  0.00     0.135 A 
ATOM     82  F   UNL     1      -6.759   1.791  -6.246  1.00  0.00    -0.206 F 
ATOM     83  C   UNL     1      -7.260   0.130  -4.665  1.00  0.00     0.059 A 
ATOM     84  C   UNL     1      -5.844  -0.135  -2.709  1.00  0.00     0.059 A 
ATOM     85  F   UNL     1      -4.003   1.288  -2.407  1.00  0.00    -0.206 F 
ATOM     86  C   UNL     1      -6.948  -0.519  -3.469  1.00  0.00     0.060 A 
BRANCH  86  87
ATOM     87  S   UNL     1      -7.980  -1.905  -2.942  1.00  0.00     0.124 S 
ATOM     88  O   UNL     1      -9.176  -1.215  -2.471  1.00  0.00    -0.237 OA
ATOM     89  O   UNL     1      -8.126  -2.667  -4.178  1.00  0.00    -0.237 OA
ATOM     90  O   UNL     1      -7.173  -2.547  -1.910  1.00  0.00    -0.744 OA
ENDBRANCH  86  87
ENDBRANCH  54  79
BRANCH  66  91
ATOM     91  C   UNL     1      -6.381   8.467  -5.036  1.00  0.00     0.058 A 
ATOM     92  C   UNL     1      -6.803   8.798  -3.740  1.00  0.00     0.135 A 
ATOM     93  C   UNL     1      -7.076   9.029  -6.119  1.00  0.00     0.135 A 
ATOM     94  F   UNL     1      -6.175   8.282  -2.672  1.00  0.00    -0.206 F 
ATOM     95  C   UNL     1      -7.887   9.643  -3.525  1.00  0.00     0.059 A 
ATOM     96  C   UNL     1      -8.147   9.895  -5.928  1.00  0.00     0.059 A 
ATOM     97  F   UNL     1      -6.704   8.751  -7.379  1.00  0.00    -0.206 F 
ATOM     98  C   UNL     1      -8.552  10.188  -4.626  1.00  0.00     0.060 A 
BRANCH  98  99
ATOM     99  S   UNL     1      -9.931  11.315  -4.333  1.00  0.00     0.124 S 
ATOM    100  O   UNL     1     -10.987  10.389  -3.938  1.00  0.00    -0.237 OA
ATOM    101  O   UNL     1      -9.414  12.176  -3.275  1.00  0.00    -0.237 OA
ATOM    102  O   UNL     1     -10.117  11.965  -5.627  1.00  0.00    -0.744 OA
ENDBRANCH  98  99
ENDBRANCH  66  91
ENDBRANCH  40  41
ENDBRANCH  32  35
ENDBRANCH  30  31
ENDBRANCH  29  30
ENDBRANCH   1  29
TORSDOF 19
