REMARK SMILES Cc1csc2nc(C(=O)NCCCCNC(=O)c3ccc(-c4c5nc(c(-c6c(F)cc(S(=O)(=O)[O-])cc6F)c6ccc([nH]6)c(-c6c(F)cc(S(=O)(=O)[O-])cc6F)c6nc(c(-c7c(F)cc(S(=O)(=O)[O-])cc7F)c7ccc4[nH]7)C=C6)C=C5)cc3)cn12
REMARK SMILES IDX 14 1 13 2 12 3 11 4 10 5 8 6 9 7 7 9 1 10 2 11 3 12 85 13
REMARK SMILES IDX 4 14 5 15 84 16 6 17 15 18 16 19 17 21 18 22 19 23 83 24
REMARK SMILES IDX 20 25 82 26 21 27 22 28 23 29 76 30 24 31 81 32 75 33 77 34
REMARK SMILES IDX 25 35 80 36 74 37 73 38 26 40 60 41 39 42 59 43 40 44 43 45
REMARK SMILES IDX 58 46 78 47 41 48 42 49 57 51 79 52 44 53 27 54 28 55 37 56
REMARK SMILES IDX 29 57 30 58 36 59 38 60 31 61 32 62 33 63 34 64 35 65 61 66
REMARK SMILES IDX 62 67 71 68 63 69 64 70 70 71 72 72 65 73 66 74 67 75 68 76
REMARK SMILES IDX 69 77 45 78 46 79 55 80 47 81 48 82 54 83 56 84 49 85 50 86
REMARK SMILES IDX 51 87 52 88 53 89
REMARK H PARENT 10 8 15 20 77 39 43 50
REMARK Flexibility Score: inf
ROOT
ATOM      1  C   UNL     1      -0.036  -7.012  -8.221  1.00  0.00     0.116 C 
ENDROOT
BRANCH   1   2
ATOM      2  C   UNL     1       1.118  -6.324  -7.498  1.00  0.00     0.023 C 
BRANCH   2   3
ATOM      3  C   UNL     1       0.747  -4.999  -6.811  1.00  0.00     0.023 C 
BRANCH   3   4
ATOM      4  C   UNL     1      -0.293  -5.112  -5.691  1.00  0.00     0.116 C 
BRANCH   4   5
ATOM      5  N   UNL     1       0.272  -5.670  -4.474  1.00  0.00    -0.351 N 
ATOM      6  C   UNL     1       0.641  -5.065  -3.293  1.00  0.00     0.271 C 
ATOM      7  O   UNL     1       1.102  -5.781  -2.402  1.00  0.00    -0.267 OA
ATOM      8  H   UNL     1       0.416  -6.644  -4.497  1.00  0.00     0.163 HD
BRANCH   6   9
ATOM      9  C   UNL     1       0.488  -3.615  -3.098  1.00  0.00     0.148 A 
ATOM     10  C   UNL     1       0.893  -0.316  -0.047  1.00  0.00     0.066 C 
ATOM     11  C   UNL     1       0.440  -0.437  -1.456  1.00  0.00     0.032 A 
ATOM     12  C   UNL     1      -0.010   0.564  -2.241  1.00  0.00     0.090 A 
ATOM     13  N   UNL     1       0.440  -1.640  -2.143  1.00  0.00    -0.294 N 
ATOM     14  S   UNL     1      -0.429   0.042  -3.878  1.00  0.00    -0.105 S 
ATOM     15  C   UNL     1       0.026  -1.571  -3.437  1.00  0.00     0.194 A 
ATOM     16  C   UNL     1       0.743  -2.945  -1.897  1.00  0.00     0.128 A 
ATOM     17  N   UNL     1       0.071  -2.707  -4.068  1.00  0.00    -0.214 NA
ENDBRANCH   6   9
ENDBRANCH   4   5
ENDBRANCH   3   4
ENDBRANCH   2   3
ENDBRANCH   1   2
BRANCH   1  18
ATOM     18  N   UNL     1      -0.566  -6.232  -9.341  1.00  0.00    -0.352 N 
ATOM     19  C   UNL     1      -1.621  -6.558 -10.179  1.00  0.00     0.251 C 
ATOM     20  H   UNL     1      -0.119  -5.373  -9.520  1.00  0.00     0.163 HD
ATOM     21  O   UNL     1      -1.724  -6.057 -11.285  1.00  0.00    -0.269 OA
BRANCH  19  22
ATOM     22  C   UNL     1      -2.631  -7.517  -9.690  1.00  0.00     0.039 A 
ATOM     23  C   UNL     1      -3.159  -8.520 -10.511  1.00  0.00     0.014 A 
ATOM     24  C   UNL     1      -3.024  -7.406  -8.360  1.00  0.00     0.014 A 
ATOM     25  C   UNL     1      -4.019  -9.466  -9.952  1.00  0.00     0.010 A 
ATOM     26  C   UNL     1      -3.740  -8.418  -7.779  1.00  0.00     0.010 A 
ATOM     27  C   UNL     1      -4.290  -9.419  -8.577  1.00  0.00    -0.014 A 
BRANCH  27  28
ATOM     28  C   UNL     1      -5.002 -10.502  -7.895  1.00  0.00     0.031 A 
ATOM     29  C   UNL     1      -4.329 -11.828  -8.038  1.00  0.00     0.074 A 
ATOM     30  C   UNL     1      -5.972 -10.235  -6.986  1.00  0.00     0.049 A 
ATOM     31  N   UNL     1      -4.772 -12.898  -8.614  1.00  0.00    -0.248 NA
ATOM     32  C   UNL     1      -2.905 -11.926  -7.654  1.00  0.00     0.031 C 
ATOM     33  C   UNL     1      -6.447  -8.905  -6.570  1.00  0.00     0.029 A 
ATOM     34  N   UNL     1      -6.640 -11.057  -6.127  1.00  0.00    -0.354 N 
ATOM     35  C   UNL     1      -3.795 -13.873  -8.395  1.00  0.00     0.074 A 
ATOM     36  C   UNL     1      -2.598 -13.163  -8.050  1.00  0.00     0.031 C 
ATOM     37  C   UNL     1      -7.099  -8.996  -5.391  1.00  0.00     0.029 A 
ATOM     38  C   UNL     1      -7.250 -10.397  -5.055  1.00  0.00     0.049 A 
ATOM     39  H   UNL     1      -6.689 -12.033  -6.250  1.00  0.00     0.167 HD
ATOM     40  C   UNL     1      -4.151 -15.171  -8.168  1.00  0.00     0.037 A 
ATOM     41  C   UNL     1      -7.819 -10.961  -3.958  1.00  0.00     0.037 A 
ATOM     42  C   UNL     1      -5.525 -15.376  -8.555  1.00  0.00     0.049 A 
ATOM     43  C   UNL     1      -8.109 -12.370  -4.310  1.00  0.00     0.074 A 
ATOM     44  C   UNL     1      -6.244 -15.396  -9.729  1.00  0.00     0.029 A 
ATOM     45  N   UNL     1      -6.416 -15.188  -7.531  1.00  0.00    -0.354 N 
ATOM     46  N   UNL     1      -8.964 -12.720  -5.233  1.00  0.00    -0.248 NA
ATOM     47  C   UNL     1      -7.161 -13.402  -3.915  1.00  0.00     0.031 C 
ATOM     48  C   UNL     1      -7.560 -14.965  -9.385  1.00  0.00     0.029 A 
ATOM     49  C   UNL     1      -7.623 -14.761  -8.006  1.00  0.00     0.049 A 
ATOM     50  H   UNL     1      -6.213 -15.340  -6.579  1.00  0.00     0.167 HD
ATOM     51  C   UNL     1      -8.396 -13.832  -5.828  1.00  0.00     0.074 A 
ATOM     52  C   UNL     1      -7.390 -14.298  -4.879  1.00  0.00     0.031 C 
ATOM     53  C   UNL     1      -8.572 -14.066  -7.161  1.00  0.00     0.037 A 
BRANCH  40  54
ATOM     54  C   UNL     1      -3.502 -16.088  -7.130  1.00  0.00     0.058 A 
ATOM     55  C   UNL     1      -4.013 -17.399  -6.974  1.00  0.00     0.135 A 
ATOM     56  C   UNL     1      -2.654 -15.656  -6.085  1.00  0.00     0.135 A 
ATOM     57  F   UNL     1      -4.818 -17.934  -7.907  1.00  0.00    -0.206 F 
ATOM     58  C   UNL     1      -3.787 -18.169  -5.830  1.00  0.00     0.059 A 
ATOM     59  C   UNL     1      -2.380 -16.425  -4.957  1.00  0.00     0.059 A 
ATOM     60  F   UNL     1      -2.108 -14.438  -6.048  1.00  0.00    -0.206 F 
ATOM     61  C   UNL     1      -2.983 -17.662  -4.816  1.00  0.00     0.060 A 
BRANCH  61  62
ATOM     62  S   UNL     1      -2.760 -18.603  -3.297  1.00  0.00     0.124 S 
ATOM     63  O   UNL     1      -4.098 -18.545  -2.719  1.00  0.00    -0.237 OA
ATOM     64  O   UNL     1      -2.337 -19.902  -3.808  1.00  0.00    -0.237 OA
ATOM     65  O   UNL     1      -1.731 -17.851  -2.585  1.00  0.00    -0.744 OA
ENDBRANCH  61  62
ENDBRANCH  40  54
BRANCH  41  66
ATOM     66  C   UNL     1      -7.870 -10.467  -2.552  1.00  0.00     0.058 A 
ATOM     67  C   UNL     1      -8.735 -11.042  -1.601  1.00  0.00     0.135 A 
ATOM     68  C   UNL     1      -6.862  -9.627  -2.039  1.00  0.00     0.135 A 
ATOM     69  F   UNL     1      -9.720 -11.863  -1.996  1.00  0.00    -0.206 F 
ATOM     70  C   UNL     1      -8.572 -10.848  -0.222  1.00  0.00     0.059 A 
ATOM     71  C   UNL     1      -6.683  -9.415  -0.670  1.00  0.00     0.059 A 
ATOM     72  F   UNL     1      -5.958  -9.062  -2.852  1.00  0.00    -0.206 F 
ATOM     73  C   UNL     1      -7.524 -10.050   0.236  1.00  0.00     0.060 A 
BRANCH  73  74
ATOM     74  S   UNL     1      -7.194  -9.943   2.014  1.00  0.00     0.124 S 
ATOM     75  O   UNL     1      -8.338  -9.173   2.489  1.00  0.00    -0.237 OA
ATOM     76  O   UNL     1      -7.162 -11.347   2.409  1.00  0.00    -0.237 OA
ATOM     77  O   UNL     1      -5.909  -9.252   2.078  1.00  0.00    -0.744 OA
ENDBRANCH  73  74
ENDBRANCH  41  66
BRANCH  53  78
ATOM     78  C   UNL     1      -9.763 -13.444  -7.831  1.00  0.00     0.058 A 
ATOM     79  C   UNL     1      -9.944 -12.070  -8.065  1.00  0.00     0.135 A 
ATOM     80  C   UNL     1     -10.722 -14.319  -8.361  1.00  0.00     0.135 A 
ATOM     81  F   UNL     1      -9.031 -11.175  -7.663  1.00  0.00    -0.206 F 
ATOM     82  C   UNL     1     -11.051 -11.589  -8.769  1.00  0.00     0.059 A 
ATOM     83  C   UNL     1     -11.812 -13.866  -9.092  1.00  0.00     0.059 A 
ATOM     84  F   UNL     1     -10.575 -15.646  -8.213  1.00  0.00    -0.206 F 
ATOM     85  C   UNL     1     -11.979 -12.497  -9.281  1.00  0.00     0.060 A 
BRANCH  85  86
ATOM     86  S   UNL     1     -13.377 -11.887 -10.246  1.00  0.00     0.124 S 
ATOM     87  O   UNL     1     -14.188 -11.227  -9.229  1.00  0.00    -0.237 OA
ATOM     88  O   UNL     1     -12.733 -11.006 -11.216  1.00  0.00    -0.237 OA
ATOM     89  O   UNL     1     -13.957 -13.103 -10.812  1.00  0.00    -0.744 OA
ENDBRANCH  85  86
ENDBRANCH  53  78
ENDBRANCH  27  28
ENDBRANCH  19  22
ENDBRANCH   1  18
TORSDOF 14
