REMARK SMILES O=C1C[C@@H]([N@@H+]2[C@@H](C(=O)NCCCCNC(=O)c3ccc(-c4c5nc(c(-c6c(F)cc(S(=O)(=O)[O-])cc6F)c6ccc([nH]6)c(-c6c(F)cc(S(=O)(=O)[O-])cc6F)c6nc(c(-c7c(F)cc(S(=O)(=O)[O-])cc7F)c7ccc4[nH]7)C=C6)C=C5)cc3)CC[C@@H]3CCCC[C@H]32)C(=O)N1
REMARK SMILES IDX 12 1 11 2 10 3 9 4 7 5 8 6 6 8 5 9 90 10 83 12 85 13 89 14
REMARK SMILES IDX 84 15 86 16 88 17 87 18 4 19 1 20 2 21 3 22 93 23 91 24
REMARK SMILES IDX 92 26 13 27 14 28 15 29 16 31 17 32 18 33 82 34 19 35 81 36
REMARK SMILES IDX 20 37 21 38 22 39 75 40 23 41 80 42 74 43 76 44 24 45 79 46
REMARK SMILES IDX 73 47 72 48 25 50 59 51 38 52 58 53 39 54 42 55 57 56 77 57
REMARK SMILES IDX 40 58 41 59 56 61 78 62 43 63 26 64 27 65 36 66 28 67 29 68
REMARK SMILES IDX 35 69 37 70 30 71 31 72 32 73 33 74 34 75 60 76 61 77 70 78
REMARK SMILES IDX 62 79 63 80 69 81 71 82 64 83 65 84 66 85 67 86 68 87 44 88
REMARK SMILES IDX 45 89 54 90 46 91 47 92 53 93 55 94 48 95 49 96 50 97 51 98
REMARK SMILES IDX 52 99
REMARK H PARENT 9 7 5 11 93 25 14 30 76 49 42 60
REMARK Flexibility Score: inf
ROOT
ATOM      1  C   UNL     1       5.198   0.907  -3.937  1.00  0.00     0.023 C 
ENDROOT
BRANCH   1   2
ATOM      2  C   UNL     1       4.444  -0.417  -3.812  1.00  0.00     0.023 C 
BRANCH   2   3
ATOM      3  C   UNL     1       3.551  -0.507  -2.578  1.00  0.00     0.116 C 
BRANCH   3   4
ATOM      4  N   UNL     1       2.430   0.410  -2.687  1.00  0.00    -0.351 N 
ATOM      5  C   UNL     1       1.094   0.150  -2.672  1.00  0.00     0.278 C 
ATOM      6  O   UNL     1       0.308   1.101  -2.722  1.00  0.00    -0.268 OA
ATOM      7  H   UNL     1       2.672   1.359  -2.786  1.00  0.00     0.163 HD
BRANCH   5   8
ATOM      8  C   UNL     1       0.557  -1.291  -2.571  1.00  0.00     0.275 C 
ATOM      9  N   UNL     1       1.031  -1.994  -1.328  1.00  0.00    -0.311 N 
ATOM     10  C   UNL     1       0.710  -3.455  -1.363  1.00  0.00     0.188 C 
ATOM     11  H   UNL     1       2.046  -1.892  -1.324  1.00  0.00     0.349 HD
ATOM     12  C   UNL     1       0.881  -1.983  -3.905  1.00  0.00     0.076 C 
ATOM     13  C   UNL     1       1.165  -4.124  -2.688  1.00  0.00     0.048 C 
ATOM     14  C   UNL     1       1.346  -4.232  -0.182  1.00  0.00     0.065 C 
ATOM     15  C   UNL     1       0.512  -3.448  -3.889  1.00  0.00     0.016 C 
ATOM     16  C   UNL     1       0.836  -5.624  -2.718  1.00  0.00     0.010 C 
ATOM     17  C   UNL     1       1.029  -5.726  -0.224  1.00  0.00     0.006 C 
ATOM     18  C   UNL     1       1.450  -6.360  -1.538  1.00  0.00     0.001 C 
BRANCH   9  19
ATOM     19  C   UNL     1       0.545  -1.358  -0.053  1.00  0.00     0.284 C 
ATOM     20  O   UNL     1      -2.360   0.690   0.348  1.00  0.00    -0.274 OA
ATOM     21  C   UNL     1      -1.249   0.198   0.250  1.00  0.00     0.233 C 
ATOM     22  C   UNL     1      -0.970  -1.272   0.151  1.00  0.00     0.176 C 
ATOM     23  N   UNL     1      -0.076   0.876   0.276  1.00  0.00    -0.291 N 
ATOM     24  C   UNL     1       1.016   0.072   0.188  1.00  0.00     0.285 C 
ATOM     25  H   UNL     1      -0.020   1.856   0.352  1.00  0.00     0.173 HD
ATOM     26  O   UNL     1       2.172   0.443   0.328  1.00  0.00    -0.268 OA
ENDBRANCH   9  19
ENDBRANCH   5   8
ENDBRANCH   3   4
ENDBRANCH   2   3
ENDBRANCH   1   2
BRANCH   1  27
ATOM     27  C   UNL     1       6.116   1.228  -2.762  1.00  0.00     0.116 C 
BRANCH  27  28
ATOM     28  N   UNL     1       7.153   0.222  -2.575  1.00  0.00    -0.352 N 
ATOM     29  C   UNL     1       8.514   0.393  -2.492  1.00  0.00     0.251 C 
ATOM     30  H   UNL     1       6.835  -0.707  -2.497  1.00  0.00     0.163 HD
ATOM     31  O   UNL     1       9.265  -0.578  -2.502  1.00  0.00    -0.269 OA
BRANCH  29  32
ATOM     32  C   UNL     1       9.062   1.763  -2.424  1.00  0.00     0.039 A 
ATOM     33  C   UNL     1      10.069   2.135  -3.316  1.00  0.00     0.014 A 
ATOM     34  C   UNL     1       8.530   2.691  -1.524  1.00  0.00     0.014 A 
ATOM     35  C   UNL     1      10.480   3.469  -3.369  1.00  0.00     0.010 A 
ATOM     36  C   UNL     1       8.890   4.031  -1.629  1.00  0.00     0.010 A 
ATOM     37  C   UNL     1       9.854   4.436  -2.565  1.00  0.00    -0.014 A 
BRANCH  37  38
ATOM     38  C   UNL     1      10.148   5.884  -2.723  1.00  0.00     0.031 A 
ATOM     39  C   UNL     1      10.734   6.666  -1.580  1.00  0.00     0.074 A 
ATOM     40  C   UNL     1       9.788   6.511  -3.862  1.00  0.00     0.049 A 
ATOM     41  N   UNL     1      10.946   7.952  -1.486  1.00  0.00    -0.248 NA
ATOM     42  C   UNL     1      11.109   5.907  -0.375  1.00  0.00     0.031 C 
ATOM     43  C   UNL     1       9.165   5.867  -5.022  1.00  0.00     0.029 A 
ATOM     44  N   UNL     1       9.868   7.834  -4.226  1.00  0.00    -0.354 N 
ATOM     45  C   UNL     1      11.454   8.162  -0.210  1.00  0.00     0.074 A 
ATOM     46  C   UNL     1      11.492   6.874   0.447  1.00  0.00     0.031 C 
ATOM     47  C   UNL     1       8.920   6.793  -5.964  1.00  0.00     0.029 A 
ATOM     48  C   UNL     1       9.320   8.102  -5.460  1.00  0.00     0.049 A 
ATOM     49  H   UNL     1      10.277   8.525  -3.657  1.00  0.00     0.167 HD
ATOM     50  C   UNL     1      11.858   9.323   0.355  1.00  0.00     0.037 A 
ATOM     51  C   UNL     1       9.130   9.273  -6.101  1.00  0.00     0.037 A 
ATOM     52  C   UNL     1      11.846  10.595  -0.321  1.00  0.00     0.049 A 
ATOM     53  C   UNL     1       9.580  10.550  -5.442  1.00  0.00     0.074 A 
ATOM     54  C   UNL     1      12.331  11.809   0.133  1.00  0.00     0.029 A 
ATOM     55  N   UNL     1      11.309  10.822  -1.579  1.00  0.00    -0.354 N 
ATOM     56  N   UNL     1      10.158  10.714  -4.276  1.00  0.00    -0.248 NA
ATOM     57  C   UNL     1       9.351  11.801  -6.179  1.00  0.00     0.031 C 
ATOM     58  C   UNL     1      12.026  12.784  -0.821  1.00  0.00     0.029 A 
ATOM     59  C   UNL     1      11.408  12.167  -1.897  1.00  0.00     0.049 A 
ATOM     60  H   UNL     1      10.917  10.131  -2.160  1.00  0.00     0.167 HD
ATOM     61  C   UNL     1      10.378  12.082  -4.150  1.00  0.00     0.074 A 
ATOM     62  C   UNL     1       9.893  12.698  -5.366  1.00  0.00     0.031 C 
ATOM     63  C   UNL     1      10.928  12.766  -3.117  1.00  0.00     0.037 A 
BRANCH  50  64
ATOM     64  C   UNL     1      12.348   9.294   1.776  1.00  0.00     0.058 A 
ATOM     65  C   UNL     1      13.586   8.733   2.124  1.00  0.00     0.135 A 
ATOM     66  C   UNL     1      11.608   9.928   2.790  1.00  0.00     0.135 A 
ATOM     67  F   UNL     1      14.327   8.103   1.198  1.00  0.00    -0.206 F 
ATOM     68  C   UNL     1      14.072   8.796   3.426  1.00  0.00     0.059 A 
ATOM     69  C   UNL     1      12.086  10.026   4.092  1.00  0.00     0.059 A 
ATOM     70  F   UNL     1      10.415  10.477   2.512  1.00  0.00    -0.206 F 
ATOM     71  C   UNL     1      13.319   9.453   4.401  1.00  0.00     0.060 A 
BRANCH  71  72
ATOM     72  S   UNL     1      13.991   9.571   6.073  1.00  0.00     0.124 S 
ATOM     73  O   UNL     1      13.888   8.187   6.526  1.00  0.00    -0.237 OA
ATOM     74  O   UNL     1      15.345  10.058   5.829  1.00  0.00    -0.237 OA
ATOM     75  O   UNL     1      13.097  10.515   6.735  1.00  0.00    -0.744 OA
ENDBRANCH  71  72
ENDBRANCH  50  64
BRANCH  51  76
ATOM     76  C   UNL     1       8.455   9.303  -7.429  1.00  0.00     0.058 A 
ATOM     77  C   UNL     1       9.145   9.688  -8.588  1.00  0.00     0.135 A 
ATOM     78  C   UNL     1       7.097   8.971  -7.561  1.00  0.00     0.135 A 
ATOM     79  F   UNL     1      10.443  10.021  -8.516  1.00  0.00    -0.206 F 
ATOM     80  C   UNL     1       8.508   9.777  -9.822  1.00  0.00     0.059 A 
ATOM     81  C   UNL     1       6.445   9.021  -8.789  1.00  0.00     0.059 A 
ATOM     82  F   UNL     1       6.392   8.579  -6.488  1.00  0.00    -0.206 F 
ATOM     83  C   UNL     1       7.155   9.443  -9.911  1.00  0.00     0.060 A 
BRANCH  83  84
ATOM     84  S   UNL     1       6.340   9.550 -11.519  1.00  0.00     0.124 S 
ATOM     85  O   UNL     1       6.239  10.994 -11.700  1.00  0.00    -0.237 OA
ATOM     86  O   UNL     1       7.288   8.862 -12.389  1.00  0.00    -0.237 OA
ATOM     87  O   UNL     1       5.077   8.851 -11.302  1.00  0.00    -0.744 OA
ENDBRANCH  83  84
ENDBRANCH  51  76
BRANCH  63  88
ATOM     88  C   UNL     1      11.058  14.258  -3.255  1.00  0.00     0.058 A 
ATOM     89  C   UNL     1       9.940  15.103  -3.178  1.00  0.00     0.135 A 
ATOM     90  C   UNL     1      12.324  14.854  -3.381  1.00  0.00     0.135 A 
ATOM     91  F   UNL     1       8.707  14.585  -3.069  1.00  0.00    -0.206 F 
ATOM     92  C   UNL     1      10.072  16.487  -3.228  1.00  0.00     0.059 A 
ATOM     93  C   UNL     1      12.481  16.236  -3.403  1.00  0.00     0.059 A 
ATOM     94  F   UNL     1      13.426  14.091  -3.452  1.00  0.00    -0.206 F 
ATOM     95  C   UNL     1      11.348  17.044  -3.330  1.00  0.00     0.060 A 
BRANCH  95  96
ATOM     96  S   UNL     1      11.506  18.843  -3.326  1.00  0.00     0.124 S 
ATOM     97  O   UNL     1      10.968  19.189  -4.638  1.00  0.00    -0.237 OA
ATOM     98  O   UNL     1      10.684  19.224  -2.182  1.00  0.00    -0.237 OA
ATOM     99  O   UNL     1      12.941  19.058  -3.160  1.00  0.00    -0.744 OA
ENDBRANCH  95  96
ENDBRANCH  63  88
ENDBRANCH  37  38
ENDBRANCH  29  32
ENDBRANCH  27  28
ENDBRANCH   1  27
TORSDOF 15
