REMARK SMILES CCN1C(=O)CC[C@H](C(=O)NCCCCNC(=O)c2ccc(-c3c4nc(c(-c5c(F)cc(S(=O)(=O)[O-])cc5F)c5ccc([nH]5)c(-c5c(F)cc(S(=O)(=O)[O-])cc5F)c5nc(c(-c6c(F)cc(S(=O)(=O)[O-])cc6F)c6ccc3[nH]6)C=C5)C=C4)cc2)[C@@H]1c1ccc(OC)cc1
REMARK SMILES IDX 14 1 13 2 12 3 11 4 9 5 10 6 8 8 3 9 4 10 85 11 5 12 6 13
REMARK SMILES IDX 7 14 2 15 1 16 86 17 87 18 93 19 88 20 92 21 89 22 90 23
REMARK SMILES IDX 91 24 15 25 16 26 17 27 18 29 19 30 20 31 84 32 21 33 83 34
REMARK SMILES IDX 22 35 23 36 24 37 77 38 25 39 82 40 76 41 78 42 26 43 81 44
REMARK SMILES IDX 75 45 74 46 27 48 61 49 40 50 60 51 41 52 44 53 59 54 79 55
REMARK SMILES IDX 42 56 43 57 58 59 80 60 45 61 28 62 29 63 38 64 30 65 31 66
REMARK SMILES IDX 37 67 39 68 32 69 33 70 34 71 35 72 36 73 62 74 63 75 72 76
REMARK SMILES IDX 64 77 65 78 71 79 73 80 66 81 67 82 68 83 69 84 70 85 46 86
REMARK SMILES IDX 47 87 56 88 48 89 49 90 55 91 57 92 50 93 51 94 52 95 53 96
REMARK SMILES IDX 54 97
REMARK H PARENT 11 7 16 28 78 47 44 58
REMARK Flexibility Score: inf
ROOT
ATOM      1  C   UNL     1       5.438   6.783  -4.132  1.00  0.00     0.023 C 
ENDROOT
BRANCH   1   2
ATOM      2  C   UNL     1       4.954   5.340  -4.003  1.00  0.00     0.023 C 
BRANCH   2   3
ATOM      3  C   UNL     1       3.793   5.152  -3.041  1.00  0.00     0.116 C 
BRANCH   3   4
ATOM      4  N   UNL     1       2.524   5.629  -3.555  1.00  0.00    -0.356 N 
ATOM      5  C   UNL     1       1.292   5.052  -3.519  1.00  0.00     0.225 C 
ATOM      6  O   UNL     1       0.317   5.782  -3.723  1.00  0.00    -0.275 OA
ATOM      7  H   UNL     1       2.559   6.507  -3.999  1.00  0.00     0.163 HD
BRANCH   5   8
ATOM      8  C   UNL     1       1.073   3.567  -3.244  1.00  0.00     0.106 C 
ATOM      9  N   UNL     1       0.881   1.680  -1.566  1.00  0.00    -0.335 N 
ATOM     10  C   UNL     1       1.164   0.746  -2.553  1.00  0.00     0.223 C 
ATOM     11  C   UNL     1       0.955   3.155  -1.762  1.00  0.00     0.128 C 
ATOM     12  O   UNL     1       1.098  -0.471  -2.368  1.00  0.00    -0.275 OA
ATOM     13  C   UNL     1       1.464   1.225  -3.957  1.00  0.00     0.101 C 
ATOM     14  C   UNL     1       1.956   2.646  -4.069  1.00  0.00     0.026 C 
BRANCH   9  15
ATOM     15  C   UNL     1       0.302   1.222  -0.290  1.00  0.00     0.117 C 
ATOM     16  C   UNL     1       0.985   0.036   0.382  1.00  0.00     0.027 C 
ENDBRANCH   9  15
BRANCH  11  17
ATOM     17  C   UNL     1       1.938   3.816  -0.794  1.00  0.00    -0.024 A 
ATOM     18  C   UNL     1       3.098   3.171  -0.339  1.00  0.00     0.010 A 
ATOM     19  C   UNL     1       1.691   5.127  -0.342  1.00  0.00     0.010 A 
ATOM     20  C   UNL     1       4.000   3.835   0.499  1.00  0.00     0.047 A 
ATOM     21  C   UNL     1       2.604   5.795   0.484  1.00  0.00     0.047 A 
ATOM     22  C   UNL     1       3.775   5.157   0.883  1.00  0.00     0.118 A 
BRANCH  22  23
ATOM     23  O   UNL     1       4.755   5.716   1.654  1.00  0.00    -0.497 OA
ATOM     24  C   UNL     1       4.886   7.131   1.551  1.00  0.00     0.278 C 
ENDBRANCH  22  23
ENDBRANCH  11  17
ENDBRANCH   5   8
ENDBRANCH   3   4
ENDBRANCH   2   3
ENDBRANCH   1   2
BRANCH   1  25
ATOM     25  C   UNL     1       5.702   7.514  -2.817  1.00  0.00     0.116 C 
BRANCH  25  26
ATOM     26  N   UNL     1       6.594   6.800  -1.915  1.00  0.00    -0.352 N 
ATOM     27  C   UNL     1       7.593   7.305  -1.109  1.00  0.00     0.251 C 
ATOM     28  H   UNL     1       6.467   5.824  -1.874  1.00  0.00     0.163 HD
ATOM     29  O   UNL     1       8.318   6.558  -0.478  1.00  0.00    -0.269 OA
BRANCH  27  30
ATOM     30  C   UNL     1       7.786   8.770  -1.045  1.00  0.00     0.039 A 
ATOM     31  C   UNL     1       9.068   9.289  -1.242  1.00  0.00     0.014 A 
ATOM     32  C   UNL     1       6.699   9.623  -0.835  1.00  0.00     0.014 A 
ATOM     33  C   UNL     1       9.244  10.672  -1.314  1.00  0.00     0.010 A 
ATOM     34  C   UNL     1       6.866  10.995  -0.960  1.00  0.00     0.010 A 
ATOM     35  C   UNL     1       8.136  11.529  -1.215  1.00  0.00    -0.014 A 
BRANCH  35  36
ATOM     36  C   UNL     1       8.260  12.989  -1.427  1.00  0.00     0.031 A 
ATOM     37  C   UNL     1       8.001  13.938  -0.293  1.00  0.00     0.074 A 
ATOM     38  C   UNL     1       8.487  13.449  -2.672  1.00  0.00     0.049 A 
ATOM     39  N   UNL     1       7.961  15.244  -0.304  1.00  0.00    -0.248 NA
ATOM     40  C   UNL     1       7.716  13.336   1.019  1.00  0.00     0.031 C 
ATOM     41  C   UNL     1       8.685  12.612  -3.858  1.00  0.00     0.029 A 
ATOM     42  N   UNL     1       8.564  14.730  -3.154  1.00  0.00    -0.354 N 
ATOM     43  C   UNL     1       7.641  15.623   0.993  1.00  0.00     0.074 A 
ATOM     44  C   UNL     1       7.444  14.406   1.752  1.00  0.00     0.031 C 
ATOM     45  C   UNL     1       8.869  13.402  -4.928  1.00  0.00     0.029 A 
ATOM     46  C   UNL     1       8.771  14.796  -4.511  1.00  0.00     0.049 A 
ATOM     47  H   UNL     1       8.479  15.527  -2.582  1.00  0.00     0.167 HD
ATOM     48  C   UNL     1       7.541  16.872   1.506  1.00  0.00     0.037 A 
ATOM     49  C   UNL     1       8.863  15.863  -5.327  1.00  0.00     0.037 A 
ATOM     50  C   UNL     1       7.747  18.072   0.736  1.00  0.00     0.049 A 
ATOM     51  C   UNL     1       8.755  17.241  -4.735  1.00  0.00     0.074 A 
ATOM     52  C   UNL     1       7.733  19.386   1.167  1.00  0.00     0.029 A 
ATOM     53  N   UNL     1       7.996  18.102  -0.630  1.00  0.00    -0.354 N 
ATOM     54  N   UNL     1       8.533  17.586  -3.489  1.00  0.00    -0.248 NA
ATOM     55  C   UNL     1       8.920  18.374  -5.655  1.00  0.00     0.031 C 
ATOM     56  C   UNL     1       7.928  20.212   0.054  1.00  0.00     0.029 A 
ATOM     57  C   UNL     1       8.116  19.412  -1.062  1.00  0.00     0.049 A 
ATOM     58  H   UNL     1       8.075  17.308  -1.207  1.00  0.00     0.167 HD
ATOM     59  C   UNL     1       8.561  18.975  -3.468  1.00  0.00     0.074 A 
ATOM     60  C   UNL     1       8.829  19.405  -4.826  1.00  0.00     0.031 C 
ATOM     61  C   UNL     1       8.386  19.819  -2.420  1.00  0.00     0.037 A 
BRANCH  48  62
ATOM     62  C   UNL     1       7.196  16.999   2.965  1.00  0.00     0.058 A 
ATOM     63  C   UNL     1       8.095  16.610   3.972  1.00  0.00     0.135 A 
ATOM     64  C   UNL     1       5.959  17.530   3.366  1.00  0.00     0.135 A 
ATOM     65  F   UNL     1       9.287  16.082   3.647  1.00  0.00    -0.206 F 
ATOM     66  C   UNL     1       7.767  16.705   5.320  1.00  0.00     0.059 A 
ATOM     67  C   UNL     1       5.621  17.663   4.710  1.00  0.00     0.059 A 
ATOM     68  F   UNL     1       5.061  17.919   2.448  1.00  0.00    -0.206 F 
ATOM     69  C   UNL     1       6.524  17.230   5.679  1.00  0.00     0.060 A 
BRANCH  69  70
ATOM     70  S   UNL     1       6.107  17.334   7.433  1.00  0.00     0.124 S 
ATOM     71  O   UNL     1       5.856  15.932   7.754  1.00  0.00    -0.237 OA
ATOM     72  O   UNL     1       7.319  17.908   8.009  1.00  0.00    -0.237 OA
ATOM     73  O   UNL     1       4.935  18.202   7.452  1.00  0.00    -0.744 OA
ENDBRANCH  69  70
ENDBRANCH  48  62
BRANCH  49  74
ATOM     74  C   UNL     1       9.111  15.662  -6.779  1.00  0.00     0.058 A 
ATOM     75  C   UNL     1      10.361  15.959  -7.340  1.00  0.00     0.135 A 
ATOM     76  C   UNL     1       8.124  15.130  -7.623  1.00  0.00     0.135 A 
ATOM     77  F   UNL     1      11.335  16.472  -6.573  1.00  0.00    -0.206 F 
ATOM     78  C   UNL     1      10.624  15.745  -8.689  1.00  0.00     0.059 A 
ATOM     79  C   UNL     1       8.370  14.885  -8.971  1.00  0.00     0.059 A 
ATOM     80  F   UNL     1       6.918  14.810  -7.130  1.00  0.00    -0.206 F 
ATOM     81  C   UNL     1       9.623  15.201  -9.495  1.00  0.00     0.060 A 
BRANCH  81  82
ATOM     82  S   UNL     1       9.999  14.865 -11.230  1.00  0.00     0.124 S 
ATOM     83  O   UNL     1      10.034  16.211 -11.790  1.00  0.00    -0.237 OA
ATOM     84  O   UNL     1      11.284  14.178 -11.136  1.00  0.00    -0.237 OA
ATOM     85  O   UNL     1       8.881  14.030 -11.659  1.00  0.00    -0.744 OA
ENDBRANCH  81  82
ENDBRANCH  49  74
BRANCH  61  86
ATOM     86  C   UNL     1       8.511  21.291  -2.694  1.00  0.00     0.058 A 
ATOM     87  C   UNL     1       7.519  22.001  -3.387  1.00  0.00     0.135 A 
ATOM     88  C   UNL     1       9.616  22.010  -2.209  1.00  0.00     0.135 A 
ATOM     89  F   UNL     1       6.447  21.359  -3.878  1.00  0.00    -0.206 F 
ATOM     90  C   UNL     1       7.628  23.370  -3.610  1.00  0.00     0.059 A 
ATOM     91  C   UNL     1       9.732  23.383  -2.396  1.00  0.00     0.059 A 
ATOM     92  F   UNL     1      10.588  21.379  -1.531  1.00  0.00    -0.206 F 
ATOM     93  C   UNL     1       8.738  24.052  -3.108  1.00  0.00     0.060 A 
BRANCH  93  94
ATOM     94  S   UNL     1       8.851  25.834  -3.373  1.00  0.00     0.124 S 
ATOM     95  O   UNL     1       9.204  25.899  -4.787  1.00  0.00    -0.237 OA
ATOM     96  O   UNL     1       7.505  26.286  -3.034  1.00  0.00    -0.237 OA
ATOM     97  O   UNL     1       9.897  26.250  -2.444  1.00  0.00    -0.744 OA
ENDBRANCH  93  94
ENDBRANCH  61  86
ENDBRANCH  35  36
ENDBRANCH  27  30
ENDBRANCH  25  26
ENDBRANCH   1  25
TORSDOF 17
