REMARK SMILES COc1cccc(C(=O)NNC(=O)[C@H]2CC(C)=C(C)C[C@@H]2C(=O)NCCCCNC(=O)c2ccc(-c3c4nc(c(-c5c(F)cc(S(=O)(=O)[O-])cc5F)c5ccc([nH]5)c(-c5c(F)cc(S(=O)(=O)[O-])cc5F)c5nc(c(-c6c(F)cc(S(=O)(=O)[O-])cc6F)c6ccc3[nH]6)C=C5)C=C4)cc2)c1
REMARK SMILES IDX 26 1 25 2 24 3 22 4 23 5 21 7 14 8 15 9 16 10 20 11 17 12
REMARK SMILES IDX 18 13 19 14 12 15 11 16 13 18 10 19 8 20 9 21 7 23 3 24 4 25
REMARK SMILES IDX 98 26 5 27 6 28 2 29 1 30 27 31 28 32 29 33 30 34 31 36
REMARK SMILES IDX 32 37 33 38 97 39 34 40 96 41 35 42 36 43 37 44 90 45 38 46
REMARK SMILES IDX 95 47 89 48 91 49 39 50 94 51 88 52 87 53 40 55 74 56 53 57
REMARK SMILES IDX 73 58 54 59 57 60 72 61 92 62 55 63 56 64 71 66 93 67 58 68
REMARK SMILES IDX 41 69 42 70 51 71 43 72 44 73 50 74 52 75 45 76 46 77 47 78
REMARK SMILES IDX 48 79 49 80 75 81 76 82 85 83 77 84 78 85 84 86 86 87 79 88
REMARK SMILES IDX 80 89 81 90 82 91 83 92 59 93 60 94 69 95 61 96 62 97 68 98
REMARK SMILES IDX 70 99 63 100 64 101 65 102 66 103 67 104
REMARK H PARENT 24 6 11 17 10 22 29 35 91 54 57 65
REMARK Flexibility Score: inf
ROOT
ATOM      1  C   UNL     1      10.621   4.503   1.012  1.00  0.00     0.023 C 
ENDROOT
BRANCH   1   2
ATOM      2  C   UNL     1      10.147   3.058   0.949  1.00  0.00     0.116 C 
BRANCH   2   3
ATOM      3  N   UNL     1       9.295   2.631   2.045  1.00  0.00    -0.356 N 
ATOM      4  C   UNL     1       8.375   1.621   2.107  1.00  0.00     0.224 C 
ATOM      5  O   UNL     1       7.854   1.416   3.209  1.00  0.00    -0.275 OA
ATOM      6  H   UNL     1       9.396   3.151   2.874  1.00  0.00     0.163 HD
BRANCH   4   7
ATOM      7  C   UNL     1       7.877   0.879   0.848  1.00  0.00     0.095 C 
ATOM      8  C   UNL     1       6.924  -0.292   1.235  1.00  0.00     0.097 C 
ATOM      9  C   UNL     1       7.245  -1.693   0.680  1.00  0.00     0.045 C 
ATOM     10  C   UNL     1       8.242  -1.827  -0.439  1.00  0.00    -0.074 C 
ATOM     11  C   UNL     1       8.981   0.523  -0.150  1.00  0.00     0.045 C 
ATOM     12  C   UNL     1       8.389  -3.225  -0.984  1.00  0.00     0.039 C 
ATOM     13  C   UNL     1       8.999  -0.797  -0.848  1.00  0.00    -0.074 C 
ATOM     14  C   UNL     1      10.004  -0.876  -1.971  1.00  0.00     0.039 C 
BRANCH   8  15
ATOM     15  C   UNL     1       5.518   0.166   0.830  1.00  0.00     0.242 C 
ATOM     16  N   UNL     1       4.802   0.940   1.719  1.00  0.00    -0.267 N 
ATOM     17  H   UNL     1       4.110   1.542   1.360  1.00  0.00     0.191 HD
ATOM     18  O   UNL     1       5.058  -0.025  -0.297  1.00  0.00    -0.273 OA
BRANCH  16  19
ATOM     19  N   UNL     1       5.003   0.916   3.096  1.00  0.00    -0.263 N 
ATOM     20  C   UNL     1       4.009   0.877   4.061  1.00  0.00     0.269 C 
ATOM     21  O   UNL     1       4.320   0.792   5.249  1.00  0.00    -0.267 OA
ATOM     22  H   UNL     1       5.935   0.929   3.413  1.00  0.00     0.191 HD
BRANCH  20  23
ATOM     23  C   UNL     1       2.563   1.033   3.719  1.00  0.00     0.045 A 
ATOM     24  C   UNL     1       0.637   0.831   2.256  1.00  0.00     0.119 A 
ATOM     25  C   UNL     1      -0.128   1.563   3.167  1.00  0.00     0.046 A 
ATOM     26  C   UNL     1       1.968   0.523   2.558  1.00  0.00     0.060 A 
ATOM     27  C   UNL     1       0.429   2.005   4.364  1.00  0.00     0.005 A 
ATOM     28  C   UNL     1       1.773   1.748   4.634  1.00  0.00     0.014 A 
BRANCH  24  29
ATOM     29  O   UNL     1      -0.025   0.475   1.113  1.00  0.00    -0.497 OA
ATOM     30  C   UNL     1       0.771  -0.018   0.040  1.00  0.00     0.278 C 
ENDBRANCH  24  29
ENDBRANCH  20  23
ENDBRANCH  16  19
ENDBRANCH   8  15
ENDBRANCH   4   7
ENDBRANCH   2   3
ENDBRANCH   1   2
BRANCH   1  31
ATOM     31  C   UNL     1      11.452   4.894   2.229  1.00  0.00     0.023 C 
BRANCH  31  32
ATOM     32  C   UNL     1      12.613   3.969   2.579  1.00  0.00     0.116 C 
BRANCH  32  33
ATOM     33  N   UNL     1      13.594   3.826   1.511  1.00  0.00    -0.352 N 
ATOM     34  C   UNL     1      14.930   4.156   1.490  1.00  0.00     0.251 C 
ATOM     35  H   UNL     1      13.248   3.433   0.677  1.00  0.00     0.163 HD
ATOM     36  O   UNL     1      15.574   4.037   0.449  1.00  0.00    -0.269 OA
BRANCH  34  37
ATOM     37  C   UNL     1      15.576   4.697   2.704  1.00  0.00     0.039 A 
ATOM     38  C   UNL     1      16.312   5.880   2.608  1.00  0.00     0.014 A 
ATOM     39  C   UNL     1      15.411   4.070   3.941  1.00  0.00     0.014 A 
ATOM     40  C   UNL     1      16.784   6.496   3.771  1.00  0.00     0.010 A 
ATOM     41  C   UNL     1      15.809   4.726   5.103  1.00  0.00     0.010 A 
ATOM     42  C   UNL     1      16.482   5.955   5.032  1.00  0.00    -0.014 A 
BRANCH  42  43
ATOM     43  C   UNL     1      16.819   6.678   6.286  1.00  0.00     0.031 A 
ATOM     44  C   UNL     1      17.751   6.059   7.292  1.00  0.00     0.074 A 
ATOM     45  C   UNL     1      16.209   7.850   6.561  1.00  0.00     0.049 A 
ATOM     46  N   UNL     1      18.082   6.488   8.482  1.00  0.00    -0.248 NA
ATOM     47  C   UNL     1      18.368   4.775   6.924  1.00  0.00     0.031 C 
ATOM     48  C   UNL     1      15.233   8.522   5.697  1.00  0.00     0.029 A 
ATOM     49  N   UNL     1      16.302   8.677   7.654  1.00  0.00    -0.354 N 
ATOM     50  C   UNL     1      18.927   5.521   9.013  1.00  0.00     0.074 A 
ATOM     51  C   UNL     1      19.023   4.460   8.033  1.00  0.00     0.031 C 
ATOM     52  C   UNL     1      14.832   9.661   6.285  1.00  0.00     0.029 A 
ATOM     53  C   UNL     1      15.488   9.785   7.582  1.00  0.00     0.049 A 
ATOM     54  H   UNL     1      16.896   8.495   8.417  1.00  0.00     0.167 HD
ATOM     55  C   UNL     1      19.580   5.527  10.199  1.00  0.00     0.037 A 
ATOM     56  C   UNL     1      15.283  10.781   8.466  1.00  0.00     0.037 A 
ATOM     57  C   UNL     1      19.512   6.603  11.152  1.00  0.00     0.049 A 
ATOM     58  C   UNL     1      16.037  10.773   9.768  1.00  0.00     0.074 A 
ATOM     59  C   UNL     1      20.203   6.739  12.344  1.00  0.00     0.029 A 
ATOM     60  N   UNL     1      18.709   7.726  11.025  1.00  0.00    -0.354 N 
ATOM     61  N   UNL     1      16.895   9.887  10.216  1.00  0.00    -0.248 NA
ATOM     62  C   UNL     1      15.801  11.899  10.682  1.00  0.00     0.031 C 
ATOM     63  C   UNL     1      19.788   7.926  12.957  1.00  0.00     0.029 A 
ATOM     64  C   UNL     1      18.870   8.550  12.127  1.00  0.00     0.049 A 
ATOM     65  H   UNL     1      18.112   7.910  10.265  1.00  0.00     0.167 HD
ATOM     66  C   UNL     1      17.315  10.360  11.454  1.00  0.00     0.074 A 
ATOM     67  C   UNL     1      16.631  11.617  11.677  1.00  0.00     0.031 C 
ATOM     68  C   UNL     1      18.187   9.802  12.329  1.00  0.00     0.037 A 
BRANCH  55  69
ATOM     69  C   UNL     1      20.441   4.340  10.531  1.00  0.00     0.058 A 
ATOM     70  C   UNL     1      21.661   4.111   9.875  1.00  0.00     0.135 A 
ATOM     71  C   UNL     1      20.072   3.454  11.556  1.00  0.00     0.135 A 
ATOM     72  F   UNL     1      22.054   4.918   8.877  1.00  0.00    -0.206 F 
ATOM     73  C   UNL     1      22.476   3.036  10.210  1.00  0.00     0.059 A 
ATOM     74  C   UNL     1      20.884   2.386  11.925  1.00  0.00     0.059 A 
ATOM     75  F   UNL     1      18.914   3.626  12.213  1.00  0.00    -0.206 F 
ATOM     76  C   UNL     1      22.080   2.180  11.239  1.00  0.00     0.060 A 
BRANCH  76  77
ATOM     77  S   UNL     1      23.163   0.804  11.679  1.00  0.00     0.124 S 
ATOM     78  O   UNL     1      22.956  -0.100  10.553  1.00  0.00    -0.237 OA
ATOM     79  O   UNL     1      24.472   1.446  11.744  1.00  0.00    -0.237 OA
ATOM     80  O   UNL     1      22.629   0.346  12.958  1.00  0.00    -0.744 OA
ENDBRANCH  76  77
ENDBRANCH  55  69
BRANCH  56  81
ATOM     81  C   UNL     1      14.327  11.877   8.149  1.00  0.00     0.058 A 
ATOM     82  C   UNL     1      14.783  13.175   7.876  1.00  0.00     0.135 A 
ATOM     83  C   UNL     1      12.943  11.650   8.118  1.00  0.00     0.135 A 
ATOM     84  F   UNL     1      16.097  13.443   7.899  1.00  0.00    -0.206 F 
ATOM     85  C   UNL     1      13.900  14.216   7.605  1.00  0.00     0.059 A 
ATOM     86  C   UNL     1      12.041  12.669   7.826  1.00  0.00     0.059 A 
ATOM     87  F   UNL     1      12.456  10.421   8.354  1.00  0.00    -0.206 F 
ATOM     88  C   UNL     1      12.529  13.952   7.584  1.00  0.00     0.060 A 
BRANCH  88  89
ATOM     89  S   UNL     1      11.392  15.301   7.197  1.00  0.00     0.124 S 
ATOM     90  O   UNL     1      11.399  16.058   8.443  1.00  0.00    -0.237 OA
ATOM     91  O   UNL     1      12.046  15.938   6.058  1.00  0.00    -0.237 OA
ATOM     92  O   UNL     1      10.146  14.607   6.885  1.00  0.00    -0.744 OA
ENDBRANCH  88  89
ENDBRANCH  56  81
BRANCH  68  93
ATOM     93  C   UNL     1      18.473  10.556  13.597  1.00  0.00     0.058 A 
ATOM     94  C   UNL     1      17.539  10.617  14.642  1.00  0.00     0.135 A 
ATOM     95  C   UNL     1      19.718  11.177  13.790  1.00  0.00     0.135 A 
ATOM     96  F   UNL     1      16.332  10.046  14.504  1.00  0.00    -0.206 F 
ATOM     97  C   UNL     1      17.822  11.283  15.830  1.00  0.00     0.059 A 
ATOM     98  C   UNL     1      20.032  11.826  14.980  1.00  0.00     0.059 A 
ATOM     99  F   UNL     1      20.650  11.139  12.825  1.00  0.00    -0.206 F 
ATOM    100  C   UNL     1      19.073  11.883  15.990  1.00  0.00     0.060 A 
BRANCH 100 101
ATOM    101  S   UNL     1      19.444  12.709  17.552  1.00  0.00     0.124 S 
ATOM    102  O   UNL     1      18.672  13.941  17.422  1.00  0.00    -0.237 OA
ATOM    103  O   UNL     1      18.950  11.753  18.538  1.00  0.00    -0.237 OA
ATOM    104  O   UNL     1      20.894  12.869  17.515  1.00  0.00    -0.744 OA
ENDBRANCH 100 101
ENDBRANCH  68  93
ENDBRANCH  42  43
ENDBRANCH  34  37
ENDBRANCH  32  33
ENDBRANCH  31  32
ENDBRANCH   1  31
TORSDOF 18
