REMARK SMILES CN1C(=O)C[C@@H](C(=O)NCCCCNC(=O)c2ccc(-c3c4nc(c(-c5c(F)cc(S(=O)(=O)[O-])cc5F)c5ccc([nH]5)c(-c5c(F)cc(S(=O)(=O)[O-])cc5F)c5nc(c(-c6c(F)cc(S(=O)(=O)[O-])cc6F)c6ccc3[nH]6)C=C5)C=C4)cc2)C12CCN(c1ccc(Cl)cn1)CC2
REMARK SMILES IDX 12 1 11 2 10 3 9 4 7 5 8 6 6 8 1 9 2 10 3 11 83 12 4 13 5 14
REMARK SMILES IDX 84 15 95 16 85 17 94 18 86 19 87 20 88 21 93 22 89 23 92 24
REMARK SMILES IDX 90 25 91 26 13 27 14 28 15 29 16 31 17 32 18 33 82 34 19 35
REMARK SMILES IDX 81 36 20 37 21 38 22 39 75 40 23 41 80 42 74 43 76 44 24 45
REMARK SMILES IDX 79 46 73 47 72 48 25 50 59 51 38 52 58 53 39 54 42 55 57 56
REMARK SMILES IDX 77 57 40 58 41 59 56 61 78 62 43 63 26 64 27 65 36 66 28 67
REMARK SMILES IDX 29 68 35 69 37 70 30 71 31 72 32 73 33 74 34 75 60 76 61 77
REMARK SMILES IDX 70 78 62 79 63 80 69 81 71 82 64 83 65 84 66 85 67 86 68 87
REMARK SMILES IDX 44 88 45 89 54 90 46 91 47 92 53 93 55 94 48 95 49 96 50 97
REMARK SMILES IDX 51 98 52 99
REMARK H PARENT 9 7 14 30 76 49 42 60
REMARK Flexibility Score: inf
ROOT
ATOM      1  C   UNL     1      -2.393  -2.657   2.873  1.00  0.00     0.023 C 
ENDROOT
BRANCH   1   2
ATOM      2  C   UNL     1      -1.559  -1.680   2.053  1.00  0.00     0.023 C 
BRANCH   2   3
ATOM      3  C   UNL     1      -1.934  -0.207   2.244  1.00  0.00     0.116 C 
BRANCH   3   4
ATOM      4  N   UNL     1      -1.634   0.310   3.567  1.00  0.00    -0.356 N 
ATOM      5  C   UNL     1      -0.745   1.223   4.032  1.00  0.00     0.226 C 
ATOM      6  O   UNL     1      -0.792   1.458   5.245  1.00  0.00    -0.275 OA
ATOM      7  H   UNL     1      -2.192  -0.085   4.276  1.00  0.00     0.163 HD
BRANCH   5   8
ATOM      8  C   UNL     1       0.311   1.944   3.192  1.00  0.00     0.113 C 
ATOM      9  C   UNL     1       1.369   0.090   0.130  1.00  0.00     0.147 C 
ATOM     10  N   UNL     1       0.926   1.054   1.120  1.00  0.00    -0.339 N 
ATOM     11  C   UNL     1       0.051   2.087   0.816  1.00  0.00     0.223 C 
ATOM     12  C   UNL     1       1.410   1.094   2.511  1.00  0.00     0.058 C 
ATOM     13  O   UNL     1      -0.410   2.351  -0.283  1.00  0.00    -0.275 OA
ATOM     14  C   UNL     1      -0.291   2.814   2.086  1.00  0.00     0.116 C 
ATOM     15  C   UNL     1       1.600  -0.304   3.135  1.00  0.00     0.051 C 
ATOM     16  C   UNL     1       2.779   1.856   2.523  1.00  0.00     0.051 C 
ATOM     17  C   UNL     1       2.304  -0.258   4.476  1.00  0.00     0.120 C 
ATOM     18  C   UNL     1       3.544   1.765   3.855  1.00  0.00     0.120 C 
ATOM     19  N   UNL     1       3.586   0.367   4.237  1.00  0.00    -0.356 N 
BRANCH  19  20
ATOM     20  C   UNL     1       4.705  -0.203   4.797  1.00  0.00     0.128 A 
ATOM     21  C   UNL     1       4.988  -1.550   4.540  1.00  0.00     0.048 A 
ATOM     22  N   UNL     1       5.514   0.541   5.576  1.00  0.00    -0.238 NA
ATOM     23  C   UNL     1       6.099  -2.161   5.113  1.00  0.00     0.026 A 
ATOM     24  C   UNL     1       6.575  -0.081   6.152  1.00  0.00     0.134 A 
ATOM     25  C   UNL     1       6.904  -1.411   5.950  1.00  0.00     0.059 A 
ATOM     26  Cl  UNL     1       8.273  -2.116   6.706  1.00  0.00    -0.083 Cl
ENDBRANCH  19  20
ENDBRANCH   5   8
ENDBRANCH   3   4
ENDBRANCH   2   3
ENDBRANCH   1   2
BRANCH   1  27
ATOM     27  C   UNL     1      -3.877  -2.606   2.555  1.00  0.00     0.116 C 
BRANCH  27  28
ATOM     28  N   UNL     1      -4.147  -2.754   1.130  1.00  0.00    -0.352 N 
ATOM     29  C   UNL     1      -5.103  -3.520   0.515  1.00  0.00     0.251 C 
ATOM     30  H   UNL     1      -3.564  -2.235   0.530  1.00  0.00     0.163 HD
ATOM     31  O   UNL     1      -5.090  -3.672  -0.701  1.00  0.00    -0.269 OA
BRANCH  29  32
ATOM     32  C   UNL     1      -6.128  -4.169   1.350  1.00  0.00     0.039 A 
ATOM     33  C   UNL     1      -6.421  -5.517   1.145  1.00  0.00     0.014 A 
ATOM     34  C   UNL     1      -6.754  -3.445   2.369  1.00  0.00     0.014 A 
ATOM     35  C   UNL     1      -7.315  -6.155   2.002  1.00  0.00     0.010 A 
ATOM     36  C   UNL     1      -7.563  -4.106   3.279  1.00  0.00     0.010 A 
ATOM     37  C   UNL     1      -7.869  -5.461   3.091  1.00  0.00    -0.014 A 
BRANCH  37  38
ATOM     38  C   UNL     1      -8.818  -6.115   4.020  1.00  0.00     0.031 A 
ATOM     39  C   UNL     1     -10.228  -5.598   4.117  1.00  0.00     0.074 A 
ATOM     40  C   UNL     1      -8.397  -7.122   4.808  1.00  0.00     0.049 A 
ATOM     41  N   UNL     1     -11.192  -5.974   4.915  1.00  0.00    -0.248 NA
ATOM     42  C   UNL     1     -10.590  -4.483   3.225  1.00  0.00     0.031 C 
ATOM     43  C   UNL     1      -7.036  -7.665   4.839  1.00  0.00     0.029 A 
ATOM     44  N   UNL     1      -9.071  -7.868   5.740  1.00  0.00    -0.354 N 
ATOM     45  C   UNL     1     -12.262  -5.134   4.633  1.00  0.00     0.074 A 
ATOM     46  C   UNL     1     -11.809  -4.183   3.645  1.00  0.00     0.031 C 
ATOM     47  C   UNL     1      -6.986  -8.678   5.719  1.00  0.00     0.029 A 
ATOM     48  C   UNL     1      -8.298  -8.835   6.338  1.00  0.00     0.049 A 
ATOM     49  H   UNL     1     -10.019  -7.723   5.961  1.00  0.00     0.167 HD
ATOM     50  C   UNL     1     -13.522  -5.175   5.127  1.00  0.00     0.037 A 
ATOM     51  C   UNL     1      -8.620  -9.746   7.276  1.00  0.00     0.037 A 
ATOM     52  C   UNL     1     -13.973  -6.153   6.080  1.00  0.00     0.049 A 
ATOM     53  C   UNL     1     -10.033  -9.789   7.790  1.00  0.00     0.074 A 
ATOM     54  C   UNL     1     -15.238  -6.317   6.614  1.00  0.00     0.029 A 
ATOM     55  N   UNL     1     -13.172  -7.143   6.631  1.00  0.00    -0.354 N 
ATOM     56  N   UNL     1     -11.049  -9.018   7.477  1.00  0.00    -0.248 NA
ATOM     57  C   UNL     1     -10.350 -10.831   8.776  1.00  0.00     0.031 C 
ATOM     58  C   UNL     1     -15.195  -7.390   7.511  1.00  0.00     0.029 A 
ATOM     59  C   UNL     1     -13.915  -7.920   7.502  1.00  0.00     0.049 A 
ATOM     60  H   UNL     1     -12.217  -7.274   6.431  1.00  0.00     0.167 HD
ATOM     61  C   UNL     1     -12.132  -9.505   8.199  1.00  0.00     0.074 A 
ATOM     62  C   UNL     1     -11.649 -10.641   8.959  1.00  0.00     0.031 C 
ATOM     63  C   UNL     1     -13.412  -9.057   8.231  1.00  0.00     0.037 A 
BRANCH  50  64
ATOM     64  C   UNL     1     -14.497  -4.145   4.626  1.00  0.00     0.058 A 
ATOM     65  C   UNL     1     -14.973  -4.166   3.304  1.00  0.00     0.135 A 
ATOM     66  C   UNL     1     -14.973  -3.134   5.476  1.00  0.00     0.135 A 
ATOM     67  F   UNL     1     -14.534  -5.098   2.442  1.00  0.00    -0.206 F 
ATOM     68  C   UNL     1     -15.858  -3.204   2.833  1.00  0.00     0.059 A 
ATOM     69  C   UNL     1     -15.883  -2.178   5.034  1.00  0.00     0.059 A 
ATOM     70  F   UNL     1     -14.548  -3.064   6.747  1.00  0.00    -0.206 F 
ATOM     71  C   UNL     1     -16.308  -2.212   3.707  1.00  0.00     0.060 A 
BRANCH  71  72
ATOM     72  S   UNL     1     -17.461  -0.973   3.081  1.00  0.00     0.124 S 
ATOM     73  O   UNL     1     -16.582  -0.145   2.261  1.00  0.00    -0.237 OA
ATOM     74  O   UNL     1     -18.428  -1.786   2.351  1.00  0.00    -0.237 OA
ATOM     75  O   UNL     1     -17.969  -0.339   4.294  1.00  0.00    -0.744 OA
ENDBRANCH  71  72
ENDBRANCH  50  64
BRANCH  51  76
ATOM     76  C   UNL     1      -7.602 -10.720   7.752  1.00  0.00     0.058 A 
ATOM     77  C   UNL     1      -7.688 -12.077   7.407  1.00  0.00     0.135 A 
ATOM     78  C   UNL     1      -6.523 -10.317   8.554  1.00  0.00     0.135 A 
ATOM     79  F   UNL     1      -8.701 -12.510   6.642  1.00  0.00    -0.206 F 
ATOM     80  C   UNL     1      -6.757 -13.006   7.860  1.00  0.00     0.059 A 
ATOM     81  C   UNL     1      -5.565 -11.223   8.999  1.00  0.00     0.059 A 
ATOM     82  F   UNL     1      -6.382  -9.026   8.895  1.00  0.00    -0.206 F 
ATOM     83  C   UNL     1      -5.699 -12.568   8.657  1.00  0.00     0.060 A 
BRANCH  83  84
ATOM     84  S   UNL     1      -4.476 -13.776   9.212  1.00  0.00     0.124 S 
ATOM     85  O   UNL     1      -5.217 -14.491  10.244  1.00  0.00    -0.237 OA
ATOM     86  O   UNL     1      -4.203 -14.522   7.987  1.00  0.00    -0.237 OA
ATOM     87  O   UNL     1      -3.374 -12.943   9.686  1.00  0.00    -0.744 OA
ENDBRANCH  83  84
ENDBRANCH  51  76
BRANCH  63  88
ATOM     88  C   UNL     1     -14.389  -9.827   9.074  1.00  0.00     0.058 A 
ATOM     89  C   UNL     1     -14.370  -9.761  10.475  1.00  0.00     0.135 A 
ATOM     90  C   UNL     1     -15.387 -10.605   8.465  1.00  0.00     0.135 A 
ATOM     91  F   UNL     1     -13.432  -9.034  11.105  1.00  0.00    -0.206 F 
ATOM     92  C   UNL     1     -15.289 -10.463  11.246  1.00  0.00     0.059 A 
ATOM     93  C   UNL     1     -16.334 -11.293   9.215  1.00  0.00     0.059 A 
ATOM     94  F   UNL     1     -15.456 -10.690   7.127  1.00  0.00    -0.206 F 
ATOM     95  C   UNL     1     -16.267 -11.228  10.606  1.00  0.00     0.060 A 
BRANCH  95  96
ATOM     96  S   UNL     1     -17.471 -12.116  11.616  1.00  0.00     0.124 S 
ATOM     97  O   UNL     1     -16.673 -13.235  12.106  1.00  0.00    -0.237 OA
ATOM     98  O   UNL     1     -17.842 -11.116  12.613  1.00  0.00    -0.237 OA
ATOM     99  O   UNL     1     -18.523 -12.462  10.664  1.00  0.00    -0.744 OA
ENDBRANCH  95  96
ENDBRANCH  63  88
ENDBRANCH  37  38
ENDBRANCH  29  32
ENDBRANCH  27  28
ENDBRANCH   1  27
TORSDOF 15
