REMARK SMILES CC(C)[NH2+][C@@]1(C(=O)NCCCCNC(=O)c2ccc(-c3c4nc(c(-c5c(F)cc(S(=O)(=O)[O-])cc5F)c5ccc([nH]5)c(-c5c(F)cc(S(=O)(=O)[O-])cc5F)c5nc(c(-c6c(F)cc(S(=O)(=O)[O-])cc6F)c6ccc3[nH]6)C=C5)C=C4)cc2)CCC[C@H](Sc2ccncn2)C1
REMARK SMILES IDX 11 1 10 2 9 3 8 4 6 5 7 6 5 8 82 9 93 10 83 11 85 12 84 13
REMARK SMILES IDX 4 14 2 17 1 18 3 19 86 20 87 21 88 22 92 23 89 24 91 25
REMARK SMILES IDX 90 26 12 27 13 28 14 29 15 31 16 32 17 33 81 34 18 35 80 36
REMARK SMILES IDX 19 37 20 38 21 39 74 40 22 41 79 42 73 43 75 44 23 45 78 46
REMARK SMILES IDX 72 47 71 48 24 50 58 51 37 52 57 53 38 54 41 55 56 56 76 57
REMARK SMILES IDX 39 58 40 59 55 61 77 62 42 63 25 64 26 65 35 66 27 67 28 68
REMARK SMILES IDX 34 69 36 70 29 71 30 72 31 73 32 74 33 75 59 76 60 77 69 78
REMARK SMILES IDX 61 79 62 80 68 81 70 82 63 83 64 84 65 85 66 86 67 87 43 88
REMARK SMILES IDX 44 89 53 90 45 91 46 92 52 93 54 94 47 95 48 96 49 97 50 98
REMARK SMILES IDX 51 99
REMARK H PARENT 8 7 4 15 4 16 13 30 75 49 41 60
REMARK Flexibility Score: inf
ROOT
ATOM      1  C   UNL     1      -5.341   5.367   2.960  1.00  0.00     0.023 C 
ENDROOT
BRANCH   1   2
ATOM      2  C   UNL     1      -3.906   4.921   2.763  1.00  0.00     0.023 C 
BRANCH   2   3
ATOM      3  C   UNL     1      -3.547   3.627   3.473  1.00  0.00     0.116 C 
BRANCH   3   4
ATOM      4  N   UNL     1      -3.567   2.515   2.558  1.00  0.00    -0.351 N 
ATOM      5  C   UNL     1      -2.688   2.082   1.624  1.00  0.00     0.281 C 
ATOM      6  O   UNL     1      -3.140   1.194   0.879  1.00  0.00    -0.268 OA
ATOM      7  H   UNL     1      -4.378   1.962   2.625  1.00  0.00     0.163 HD
BRANCH   5   8
ATOM      8  C   UNL     1      -1.213   2.675   1.365  1.00  0.00     0.176 C 
ATOM      9  C   UNL     1      -0.429   2.951   2.665  1.00  0.00     0.079 C 
ATOM     10  C   UNL     1      -1.403   3.876   0.393  1.00  0.00     0.094 C 
ATOM     11  C   UNL     1      -0.139   4.383   3.106  1.00  0.00     0.008 C 
ATOM     12  C   UNL     1      -0.725   5.211   0.739  1.00  0.00     0.060 C 
ATOM     13  C   UNL     1      -0.548   5.531   2.207  1.00  0.00     0.015 C 
BRANCH   8  14
ATOM     14  N   UNL     1      -0.593   1.522   0.648  1.00  0.00    -0.332 N 
ATOM     15  H   UNL     1      -0.986   0.693   1.093  1.00  0.00     0.347 HD
ATOM     16  H   UNL     1      -0.797   1.798  -0.313  1.00  0.00     0.347 HD
BRANCH  14  17
ATOM     17  C   UNL     1       0.819   1.238   0.513  1.00  0.00     0.176 C 
ATOM     18  C   UNL     1       0.963  -0.092  -0.239  1.00  0.00     0.075 C 
ATOM     19  C   UNL     1       1.600   2.331  -0.202  1.00  0.00     0.075 C 
ENDBRANCH  14  17
ENDBRANCH   8  14
BRANCH  12  20
ATOM     20  S   UNL     1      -1.471   6.604  -0.279  1.00  0.00    -0.103 SA
BRANCH  20  21
ATOM     21  C   UNL     1      -2.431   7.635   0.834  1.00  0.00     0.100 A 
ATOM     22  C   UNL     1      -1.812   8.483   1.732  1.00  0.00     0.055 A 
ATOM     23  N   UNL     1      -3.765   7.647   0.645  1.00  0.00    -0.230 NA
ATOM     24  C   UNL     1      -2.632   9.319   2.458  1.00  0.00     0.115 A 
ATOM     25  C   UNL     1      -4.466   8.531   1.378  1.00  0.00     0.222 A 
ATOM     26  N   UNL     1      -3.962   9.369   2.292  1.00  0.00    -0.245 NA
ENDBRANCH  20  21
ENDBRANCH  12  20
ENDBRANCH   5   8
ENDBRANCH   3   4
ENDBRANCH   2   3
ENDBRANCH   1   2
BRANCH   1  27
ATOM     27  C   UNL     1      -5.615   5.898   4.357  1.00  0.00     0.116 C 
BRANCH  27  28
ATOM     28  N   UNL     1      -4.740   6.990   4.786  1.00  0.00    -0.352 N 
ATOM     29  C   UNL     1      -5.062   8.117   5.508  1.00  0.00     0.251 C 
ATOM     30  H   UNL     1      -3.795   6.907   4.524  1.00  0.00     0.163 HD
ATOM     31  O   UNL     1      -4.208   8.949   5.795  1.00  0.00    -0.269 OA
BRANCH  29  32
ATOM     32  C   UNL     1      -6.471   8.307   5.899  1.00  0.00     0.039 A 
ATOM     33  C   UNL     1      -7.131   9.485   5.547  1.00  0.00     0.014 A 
ATOM     34  C   UNL     1      -7.161   7.248   6.489  1.00  0.00     0.014 A 
ATOM     35  C   UNL     1      -8.515   9.566   5.715  1.00  0.00     0.010 A 
ATOM     36  C   UNL     1      -8.543   7.284   6.532  1.00  0.00     0.010 A 
ATOM     37  C   UNL     1      -9.236   8.449   6.164  1.00  0.00    -0.014 A 
BRANCH  37  38
ATOM     38  C   UNL     1     -10.712   8.455   6.321  1.00  0.00     0.031 A 
ATOM     39  C   UNL     1     -11.295   8.151   7.676  1.00  0.00     0.074 A 
ATOM     40  C   UNL     1     -11.516   8.606   5.250  1.00  0.00     0.049 A 
ATOM     41  N   UNL     1     -12.531   7.888   8.008  1.00  0.00    -0.248 NA
ATOM     42  C   UNL     1     -10.342   8.068   8.796  1.00  0.00     0.031 C 
ATOM     43  C   UNL     1     -11.072   8.851   3.876  1.00  0.00     0.029 A 
ATOM     44  N   UNL     1     -12.883   8.554   5.150  1.00  0.00    -0.354 N 
ATOM     45  C   UNL     1     -12.492   7.556   9.358  1.00  0.00     0.074 A 
ATOM     46  C   UNL     1     -11.105   7.587   9.764  1.00  0.00     0.031 C 
ATOM     47  C   UNL     1     -12.147   8.954   3.077  1.00  0.00     0.029 A 
ATOM     48  C   UNL     1     -13.353   8.740   3.871  1.00  0.00     0.049 A 
ATOM     49  H   UNL     1     -13.474   8.398   5.923  1.00  0.00     0.167 HD
ATOM     50  C   UNL     1     -13.521   7.281  10.192  1.00  0.00     0.037 A 
ATOM     51  C   UNL     1     -14.614   8.731   3.397  1.00  0.00     0.037 A 
ATOM     52  C   UNL     1     -14.901   7.329   9.794  1.00  0.00     0.049 A 
ATOM     53  C   UNL     1     -15.750   8.482   4.352  1.00  0.00     0.074 A 
ATOM     54  C   UNL     1     -16.030   7.155  10.572  1.00  0.00     0.029 A 
ATOM     55  N   UNL     1     -15.338   7.587   8.502  1.00  0.00    -0.354 N 
ATOM     56  N   UNL     1     -15.703   8.214   5.636  1.00  0.00    -0.248 NA
ATOM     57  C   UNL     1     -17.109   8.536   3.797  1.00  0.00     0.031 C 
ATOM     58  C   UNL     1     -17.152   7.284   9.746  1.00  0.00     0.029 A 
ATOM     59  C   UNL     1     -16.721   7.574   8.460  1.00  0.00     0.049 A 
ATOM     60  H   UNL     1     -14.751   7.755   7.730  1.00  0.00     0.167 HD
ATOM     61  C   UNL     1     -17.026   8.096   6.048  1.00  0.00     0.074 A 
ATOM     62  C   UNL     1     -17.849   8.328   4.878  1.00  0.00     0.031 C 
ATOM     63  C   UNL     1     -17.516   7.821   7.283  1.00  0.00     0.037 A 
BRANCH  50  64
ATOM     64  C   UNL     1     -13.181   6.922  11.613  1.00  0.00     0.058 A 
ATOM     65  C   UNL     1     -12.632   7.862  12.502  1.00  0.00     0.135 A 
ATOM     66  C   UNL     1     -13.384   5.616  12.087  1.00  0.00     0.135 A 
ATOM     67  F   UNL     1     -12.399   9.120  12.096  1.00  0.00    -0.206 F 
ATOM     68  C   UNL     1     -12.248   7.508  13.790  1.00  0.00     0.059 A 
ATOM     69  C   UNL     1     -13.038   5.248  13.385  1.00  0.00     0.059 A 
ATOM     70  F   UNL     1     -13.906   4.677  11.283  1.00  0.00    -0.206 F 
ATOM     71  C   UNL     1     -12.448   6.196  14.220  1.00  0.00     0.060 A 
BRANCH  71  72
ATOM     72  S   UNL     1     -11.919   5.743  15.885  1.00  0.00     0.124 S 
ATOM     73  O   UNL     1     -10.473   5.640  15.711  1.00  0.00    -0.237 OA
ATOM     74  O   UNL     1     -12.381   6.875  16.681  1.00  0.00    -0.237 OA
ATOM     75  O   UNL     1     -12.614   4.483  16.131  1.00  0.00    -0.744 OA
ENDBRANCH  71  72
ENDBRANCH  50  64
BRANCH  51  76
ATOM     76  C   UNL     1     -14.868   9.015   1.959  1.00  0.00     0.058 A 
ATOM     77  C   UNL     1     -15.416  10.244   1.562  1.00  0.00     0.135 A 
ATOM     78  C   UNL     1     -14.540   8.091   0.955  1.00  0.00     0.135 A 
ATOM     79  F   UNL     1     -15.752  11.157   2.486  1.00  0.00    -0.206 F 
ATOM     80  C   UNL     1     -15.639  10.546   0.223  1.00  0.00     0.059 A 
ATOM     81  C   UNL     1     -14.734   8.379  -0.394  1.00  0.00     0.059 A 
ATOM     82  F   UNL     1     -13.998   6.908   1.281  1.00  0.00    -0.206 F 
ATOM     83  C   UNL     1     -15.289   9.608  -0.749  1.00  0.00     0.060 A 
BRANCH  83  84
ATOM     84  S   UNL     1     -15.520  10.040  -2.489  1.00  0.00     0.124 S 
ATOM     85  O   UNL     1     -16.969   9.953  -2.624  1.00  0.00    -0.237 OA
ATOM     86  O   UNL     1     -14.952  11.383  -2.548  1.00  0.00    -0.237 OA
ATOM     87  O   UNL     1     -14.756   9.014  -3.192  1.00  0.00    -0.744 OA
ENDBRANCH  83  84
ENDBRANCH  51  76
BRANCH  63  88
ATOM     88  C   UNL     1     -19.009   7.794   7.442  1.00  0.00     0.058 A 
ATOM     89  C   UNL     1     -19.780   6.721   6.971  1.00  0.00     0.135 A 
ATOM     90  C   UNL     1     -19.666   8.824   8.134  1.00  0.00     0.135 A 
ATOM     91  F   UNL     1     -19.199   5.715   6.298  1.00  0.00    -0.206 F 
ATOM     92  C   UNL     1     -21.157   6.678   7.165  1.00  0.00     0.059 A 
ATOM     93  C   UNL     1     -21.037   8.790   8.362  1.00  0.00     0.059 A 
ATOM     94  F   UNL     1     -18.970   9.867   8.615  1.00  0.00    -0.206 F 
ATOM     95  C   UNL     1     -21.776   7.717   7.865  1.00  0.00     0.060 A 
BRANCH  95  96
ATOM     96  S   UNL     1     -23.556   7.629   8.149  1.00  0.00     0.124 S 
ATOM     97  O   UNL     1     -24.081   7.978   6.834  1.00  0.00    -0.237 OA
ATOM     98  O   UNL     1     -23.740   6.240   8.558  1.00  0.00    -0.237 OA
ATOM     99  O   UNL     1     -23.781   8.619   9.199  1.00  0.00    -0.744 OA
ENDBRANCH  95  96
ENDBRANCH  63  88
ENDBRANCH  37  38
ENDBRANCH  29  32
ENDBRANCH  27  28
ENDBRANCH   1  27
TORSDOF 18
