REMARK SMILES CN(C)c1cc(C(F)(F)F)cc(-c2cccc(/C=C/C(=O)NCCCCNC(=O)c3ccc(-c4c5nc(c(-c6c(F)cc(S(=O)(=O)[O-])cc6F)c6ccc([nH]6)c(-c6c(F)cc(S(=O)(=O)[O-])cc6F)c6nc(c(-c7c(F)cc(S(=O)(=O)[O-])cc7F)c7ccc4[nH]7)C=C6)C=C5)cc3)c2)n1
REMARK SMILES IDX 24 1 23 2 22 3 20 4 21 5 19 7 18 8 17 9 13 10 14 11 96 12
REMARK SMILES IDX 15 13 16 14 12 15 4 16 5 17 97 18 6 19 11 20 2 21 1 22 3 23
REMARK SMILES IDX 7 24 8 25 9 26 10 27 25 28 26 29 27 30 28 31 29 33 30 34
REMARK SMILES IDX 31 35 95 36 32 37 94 38 33 39 34 40 35 41 88 42 36 43 93 44
REMARK SMILES IDX 87 45 89 46 37 47 92 48 86 49 85 50 38 52 72 53 51 54 71 55
REMARK SMILES IDX 52 56 55 57 70 58 90 59 53 60 54 61 69 63 91 64 56 65 39 66
REMARK SMILES IDX 40 67 49 68 41 69 42 70 48 71 50 72 43 73 44 74 45 75 46 76
REMARK SMILES IDX 47 77 73 78 74 79 83 80 75 81 76 82 82 83 84 84 77 85 78 86
REMARK SMILES IDX 79 87 80 88 81 89 57 90 58 91 67 92 59 93 60 94 66 95 68 96
REMARK SMILES IDX 61 97 62 98 63 99 64 100 65 101
REMARK H PARENT 22 6 27 32 89 51 55 62
REMARK Flexibility Score: inf
ROOT
ATOM      1  C   UNL     1       0.014   5.057  -9.438  1.00  0.00     0.023 C 
ENDROOT
BRANCH   1   2
ATOM      2  C   UNL     1      -0.112   6.501  -8.951  1.00  0.00     0.116 C 
BRANCH   2   3
ATOM      3  N   UNL     1      -1.421   7.051  -9.256  1.00  0.00    -0.353 N 
ATOM      4  C   UNL     1      -2.469   7.328  -8.434  1.00  0.00     0.243 C 
ATOM      5  O   UNL     1      -3.458   7.911  -8.873  1.00  0.00    -0.270 OA
ATOM      6  H   UNL     1      -1.573   7.256 -10.207  1.00  0.00     0.163 HD
BRANCH   4   7
ATOM      7  C   UNL     1      -2.403   7.012  -6.990  1.00  0.00     0.072 C 
ATOM      8  C   UNL     1      -2.041   5.816  -6.505  1.00  0.00     0.014 C 
BRANCH   8   9
ATOM      9  C   UNL     1      -2.007   5.484  -5.077  1.00  0.00    -0.025 A 
ATOM     10  C   UNL     1      -0.882   4.323  -3.239  1.00  0.00     0.001 A 
ATOM     11  C   UNL     1      -1.953   4.666  -2.401  1.00  0.00     0.010 A 
ATOM     12  C   UNL     1      -0.928   4.736  -4.581  1.00  0.00     0.018 A 
ATOM     13  C   UNL     1      -3.028   5.416  -2.881  1.00  0.00     0.001 A 
ATOM     14  C   UNL     1      -3.055   5.822  -4.215  1.00  0.00     0.008 A 
BRANCH  10  15
ATOM     15  C   UNL     1       0.248   3.542  -2.724  1.00  0.00     0.073 A 
ATOM     16  C   UNL     1       0.929   1.508  -1.798  1.00  0.00     0.129 A 
ATOM     17  C   UNL     1       2.234   1.980  -1.694  1.00  0.00     0.060 A 
ATOM     18  N   UNL     1      -0.047   2.288  -2.308  1.00  0.00    -0.231 NA
ATOM     19  C   UNL     1       2.553   3.271  -2.130  1.00  0.00     0.061 A 
ATOM     20  C   UNL     1       1.532   4.065  -2.655  1.00  0.00     0.042 A 
BRANCH  16  21
ATOM     21  N   UNL     1       0.620   0.209  -1.396  1.00  0.00    -0.363 N 
ATOM     22  C   UNL     1       0.918  -0.132  -0.015  1.00  0.00     0.144 C 
ATOM     23  C   UNL     1      -0.585  -0.357  -1.985  1.00  0.00     0.144 C 
ENDBRANCH  16  21
BRANCH  19  24
ATOM     24  C   UNL     1       3.957   3.798  -2.046  1.00  0.00     0.416 C 
ATOM     25  F   UNL     1       4.452   4.160  -3.260  1.00  0.00    -0.166 F 
ATOM     26  F   UNL     1       4.045   4.906  -1.259  1.00  0.00    -0.166 F 
ATOM     27  F   UNL     1       4.845   2.905  -1.528  1.00  0.00    -0.166 F 
ENDBRANCH  19  24
ENDBRANCH  10  15
ENDBRANCH   8   9
ENDBRANCH   4   7
ENDBRANCH   2   3
ENDBRANCH   1   2
BRANCH   1  28
ATOM     28  C   UNL     1       0.239   4.909 -10.945  1.00  0.00     0.023 C 
BRANCH  28  29
ATOM     29  C   UNL     1       1.524   5.536 -11.476  1.00  0.00     0.116 C 
BRANCH  29  30
ATOM     30  N   UNL     1       2.727   5.023 -10.837  1.00  0.00    -0.352 N 
ATOM     31  C   UNL     1       3.987   4.888 -11.376  1.00  0.00     0.251 C 
ATOM     32  H   UNL     1       2.626   4.735  -9.901  1.00  0.00     0.163 HD
ATOM     33  O   UNL     1       4.879   4.348 -10.736  1.00  0.00    -0.269 OA
BRANCH  31  34
ATOM     34  C   UNL     1       4.230   5.362 -12.755  1.00  0.00     0.039 A 
ATOM     35  C   UNL     1       4.800   4.482 -13.678  1.00  0.00     0.014 A 
ATOM     36  C   UNL     1       3.848   6.648 -13.143  1.00  0.00     0.014 A 
ATOM     37  C   UNL     1       4.914   4.867 -15.015  1.00  0.00     0.010 A 
ATOM     38  C   UNL     1       3.907   7.007 -14.486  1.00  0.00     0.010 A 
ATOM     39  C   UNL     1       4.431   6.116 -15.436  1.00  0.00    -0.014 A 
BRANCH  39  40
ATOM     40  C   UNL     1       4.439   6.504 -16.869  1.00  0.00     0.031 A 
ATOM     41  C   UNL     1       5.276   7.663 -17.331  1.00  0.00     0.074 A 
ATOM     42  C   UNL     1       3.623   5.869 -17.733  1.00  0.00     0.049 A 
ATOM     43  N   UNL     1       5.340   8.215 -18.515  1.00  0.00    -0.248 NA
ATOM     44  C   UNL     1       6.133   8.305 -16.321  1.00  0.00     0.031 C 
ATOM     45  C   UNL     1       2.719   4.768 -17.391  1.00  0.00     0.029 A 
ATOM     46  N   UNL     1       3.406   6.070 -19.073  1.00  0.00    -0.354 N 
ATOM     47  C   UNL     1       6.223   9.280 -18.389  1.00  0.00     0.074 A 
ATOM     48  C   UNL     1       6.638   9.323 -17.003  1.00  0.00     0.031 C 
ATOM     49  C   UNL     1       2.056   4.383 -18.494  1.00  0.00     0.029 A 
ATOM     50  C   UNL     1       2.462   5.229 -19.613  1.00  0.00     0.049 A 
ATOM     51  H   UNL     1       3.883   6.752 -19.599  1.00  0.00     0.167 HD
ATOM     52  C   UNL     1       6.661  10.133 -19.346  1.00  0.00     0.037 A 
ATOM     53  C   UNL     1       1.971   5.153 -20.865  1.00  0.00     0.037 A 
ATOM     54  C   UNL     1       6.271  10.063 -20.729  1.00  0.00     0.049 A 
ATOM     55  C   UNL     1       2.498   6.089 -21.917  1.00  0.00     0.074 A 
ATOM     56  C   UNL     1       6.711  10.838 -21.788  1.00  0.00     0.029 A 
ATOM     57  N   UNL     1       5.349   9.165 -21.247  1.00  0.00    -0.354 N 
ATOM     58  N   UNL     1       3.382   7.050 -21.795  1.00  0.00    -0.248 NA
ATOM     59  C   UNL     1       1.967   5.928 -23.278  1.00  0.00     0.031 C 
ATOM     60  C   UNL     1       6.034  10.428 -22.942  1.00  0.00     0.029 A 
ATOM     61  C   UNL     1       5.198   9.373 -22.608  1.00  0.00     0.049 A 
ATOM     62  H   UNL     1       4.872   8.481 -20.724  1.00  0.00     0.167 HD
ATOM     63  C   UNL     1       3.532   7.592 -23.066  1.00  0.00     0.074 A 
ATOM     64  C   UNL     1       2.654   6.846 -23.944  1.00  0.00     0.031 C 
ATOM     65  C   UNL     1       4.327   8.614 -23.469  1.00  0.00     0.037 A 
BRANCH  52  66
ATOM     66  C   UNL     1       7.620  11.212 -18.925  1.00  0.00     0.058 A 
ATOM     67  C   UNL     1       8.949  10.920 -18.580  1.00  0.00     0.135 A 
ATOM     68  C   UNL     1       7.213  12.555 -18.888  1.00  0.00     0.135 A 
ATOM     69  F   UNL     1       9.385   9.650 -18.584  1.00  0.00    -0.206 F 
ATOM     70  C   UNL     1       9.832  11.916 -18.179  1.00  0.00     0.059 A 
ATOM     71  C   UNL     1       8.087  13.572 -18.515  1.00  0.00     0.059 A 
ATOM     72  F   UNL     1       5.953  12.889 -19.209  1.00  0.00    -0.206 F 
ATOM     73  C   UNL     1       9.390  13.240 -18.146  1.00  0.00     0.060 A 
BRANCH  73  74
ATOM     74  S   UNL     1      10.545  14.524 -17.619  1.00  0.00     0.124 S 
ATOM     75  O   UNL     1      10.566  14.318 -16.174  1.00  0.00    -0.237 OA
ATOM     76  O   UNL     1      11.767  14.158 -18.328  1.00  0.00    -0.237 OA
ATOM     77  O   UNL     1       9.909  15.758 -18.069  1.00  0.00    -0.744 OA
ENDBRANCH  73  74
ENDBRANCH  52  66
BRANCH  53  78
ATOM     78  C   UNL     1       0.944   4.131 -21.197  1.00  0.00     0.058 A 
ATOM     79  C   UNL     1       1.273   3.004 -21.963  1.00  0.00     0.135 A 
ATOM     80  C   UNL     1      -0.377   4.249 -20.737  1.00  0.00     0.135 A 
ATOM     81  F   UNL     1       2.522   2.851 -22.428  1.00  0.00    -0.206 F 
ATOM     82  C   UNL     1       0.326   2.033 -22.274  1.00  0.00     0.059 A 
ATOM     83  C   UNL     1      -1.336   3.281 -21.017  1.00  0.00     0.059 A 
ATOM     84  F   UNL     1      -0.736   5.301 -19.985  1.00  0.00    -0.206 F 
ATOM     85  C   UNL     1      -0.976   2.180 -21.794  1.00  0.00     0.060 A 
BRANCH  85  86
ATOM     86  S   UNL     1      -2.184   0.886 -22.155  1.00  0.00     0.124 S 
ATOM     87  O   UNL     1      -2.500   1.161 -23.552  1.00  0.00    -0.237 OA
ATOM     88  O   UNL     1      -1.419  -0.330 -21.900  1.00  0.00    -0.237 OA
ATOM     89  O   UNL     1      -3.255   1.155 -21.199  1.00  0.00    -0.744 OA
ENDBRANCH  85  86
ENDBRANCH  53  78
BRANCH  65  90
ATOM     90  C   UNL     1       4.311   8.967 -24.929  1.00  0.00     0.058 A 
ATOM     91  C   UNL     1       3.240   9.668 -25.504  1.00  0.00     0.135 A 
ATOM     92  C   UNL     1       5.406   8.649 -25.748  1.00  0.00     0.135 A 
ATOM     93  F   UNL     1       2.167   9.988 -24.765  1.00  0.00    -0.206 F 
ATOM     94  C   UNL     1       3.249  10.029 -26.848  1.00  0.00     0.059 A 
ATOM     95  C   UNL     1       5.446   9.020 -27.088  1.00  0.00     0.059 A 
ATOM     96  F   UNL     1       6.458   7.987 -25.242  1.00  0.00    -0.206 F 
ATOM     97  C   UNL     1       4.358   9.702 -27.631  1.00  0.00     0.060 A 
BRANCH  97  98
ATOM     98  S   UNL     1       4.378  10.212 -29.363  1.00  0.00     0.124 S 
ATOM     99  O   UNL     1       3.482   9.232 -29.968  1.00  0.00    -0.237 OA
ATOM    100  O   UNL     1       3.870  11.578 -29.295  1.00  0.00    -0.237 OA
ATOM    101  O   UNL     1       5.785  10.092 -29.735  1.00  0.00    -0.744 OA
ENDBRANCH  97  98
ENDBRANCH  65  90
ENDBRANCH  39  40
ENDBRANCH  31  34
ENDBRANCH  29  30
ENDBRANCH  28  29
ENDBRANCH   1  28
TORSDOF 18
