REMARK SMILES O=C(NCCCCNC(=O)C1(Cc2ccccc2Cl)CCN(c2ncnc3[nH]ccc23)CC1)c1ccc(-c2c3nc(c(-c4c(F)cc(S(=O)(=O)[O-])cc4F)c4ccc([nH]4)c(-c4c(F)cc(S(=O)(=O)[O-])cc4F)c4nc(c(-c5c(F)cc(S(=O)(=O)[O-])cc5F)c5ccc2[nH]5)C=C4)C=C3)cc1
REMARK SMILES IDX 5 1 4 2 3 3 1 4 2 5 34 7 35 8 99 9 36 10 98 11 37 12 38 13
REMARK SMILES IDX 39 14 92 15 40 16 97 17 91 18 93 19 41 20 96 21 90 22 89 23
REMARK SMILES IDX 42 25 76 26 55 27 75 28 56 29 59 30 74 31 94 32 57 33 58 34
REMARK SMILES IDX 73 36 95 37 60 38 43 39 44 40 53 41 45 42 46 43 52 44 54 45
REMARK SMILES IDX 47 46 48 47 49 48 50 49 51 50 77 51 78 52 87 53 79 54 80 55
REMARK SMILES IDX 86 56 88 57 81 58 82 59 83 60 84 61 85 62 61 63 62 64 71 65
REMARK SMILES IDX 63 66 64 67 70 68 72 69 65 70 66 71 67 72 68 73 69 74 6 75
REMARK SMILES IDX 7 76 8 77 9 78 10 80 11 81 20 82 33 83 21 84 32 85 22 86
REMARK SMILES IDX 12 87 13 88 14 89 18 90 15 91 17 92 19 93 16 94 23 95 24 96
REMARK SMILES IDX 31 97 25 98 27 99 30 100 26 101 28 102 29 103
REMARK H PARENT 3 6 93 24 59 35 8 79 28 104
REMARK Flexibility Score: inf
ROOT
ATOM      1  C   UNL     1       5.285   0.530   2.334  1.00  0.00     0.023 C 
ENDROOT
BRANCH   1   2
ATOM      2  C   UNL     1       4.806  -0.265   1.125  1.00  0.00     0.116 C 
BRANCH   2   3
ATOM      3  N   UNL     1       3.358  -0.409   1.055  1.00  0.00    -0.352 N 
ATOM      4  O   UNL     1       1.263  -0.094   0.288  1.00  0.00    -0.269 OA
ATOM      5  C   UNL     1       2.465   0.054   0.116  1.00  0.00     0.251 C 
ATOM      6  H   UNL     1       2.955  -0.918   1.796  1.00  0.00     0.163 HD
BRANCH   5   7
ATOM      7  C   UNL     1       2.966   0.768  -1.075  1.00  0.00     0.039 A 
ATOM      8  C   UNL     1       4.005   0.235  -1.842  1.00  0.00     0.014 A 
ATOM      9  C   UNL     1       2.405   2.004  -1.403  1.00  0.00     0.014 A 
ATOM     10  C   UNL     1       4.597   1.012  -2.830  1.00  0.00     0.010 A 
ATOM     11  C   UNL     1       2.949   2.749  -2.450  1.00  0.00     0.010 A 
ATOM     12  C   UNL     1       4.076   2.278  -3.142  1.00  0.00    -0.014 A 
BRANCH  12  13
ATOM     13  C   UNL     1       4.696   3.093  -4.214  1.00  0.00     0.031 A 
ATOM     14  C   UNL     1       5.349   4.409  -3.897  1.00  0.00     0.074 A 
ATOM     15  C   UNL     1       4.646   2.645  -5.482  1.00  0.00     0.049 A 
ATOM     16  N   UNL     1       5.858   5.294  -4.714  1.00  0.00    -0.248 NA
ATOM     17  C   UNL     1       5.430   4.785  -2.477  1.00  0.00     0.031 C 
ATOM     18  C   UNL     1       4.035   1.383  -5.904  1.00  0.00     0.029 A 
ATOM     19  N   UNL     1       5.103   3.202  -6.648  1.00  0.00    -0.354 N 
ATOM     20  C   UNL     1       6.290   6.346  -3.915  1.00  0.00     0.074 A 
ATOM     21  C   UNL     1       5.972   5.993  -2.547  1.00  0.00     0.031 C 
ATOM     22  C   UNL     1       4.159   1.259  -7.232  1.00  0.00     0.029 A 
ATOM     23  C   UNL     1       4.801   2.457  -7.761  1.00  0.00     0.049 A 
ATOM     24  H   UNL     1       5.599   4.052  -6.684  1.00  0.00     0.167 HD
ATOM     25  C   UNL     1       6.895   7.499  -4.293  1.00  0.00     0.037 A 
ATOM     26  C   UNL     1       4.982   2.723  -9.069  1.00  0.00     0.037 A 
ATOM     27  C   UNL     1       7.221   7.826  -5.657  1.00  0.00     0.049 A 
ATOM     28  C   UNL     1       5.643   4.007  -9.468  1.00  0.00     0.074 A 
ATOM     29  C   UNL     1       7.876   8.945  -6.141  1.00  0.00     0.029 A 
ATOM     30  N   UNL     1       6.910   7.038  -6.756  1.00  0.00    -0.354 N 
ATOM     31  N   UNL     1       6.073   4.979  -8.699  1.00  0.00    -0.248 NA
ATOM     32  C   UNL     1       5.844   4.236 -10.903  1.00  0.00     0.031 C 
ATOM     33  C   UNL     1       7.925   8.852  -7.537  1.00  0.00     0.029 A 
ATOM     34  C   UNL     1       7.339   7.655  -7.920  1.00  0.00     0.049 A 
ATOM     35  H   UNL     1       6.452   6.167  -6.715  1.00  0.00     0.167 HD
ATOM     36  C   UNL     1       6.608   5.932  -9.556  1.00  0.00     0.074 A 
ATOM     37  C   UNL     1       6.453   5.416 -10.902  1.00  0.00     0.031 C 
ATOM     38  C   UNL     1       7.178   7.124  -9.252  1.00  0.00     0.037 A 
BRANCH  25  39
ATOM     39  C   UNL     1       7.206   8.503  -3.217  1.00  0.00     0.058 A 
ATOM     40  C   UNL     1       8.234   8.298  -2.283  1.00  0.00     0.135 A 
ATOM     41  C   UNL     1       6.463   9.691  -3.120  1.00  0.00     0.135 A 
ATOM     42  F   UNL     1       8.969   7.175  -2.322  1.00  0.00    -0.206 F 
ATOM     43  C   UNL     1       8.485   9.213  -1.265  1.00  0.00     0.059 A 
ATOM     44  C   UNL     1       6.712  10.631  -2.124  1.00  0.00     0.059 A 
ATOM     45  F   UNL     1       5.472   9.941  -3.990  1.00  0.00    -0.206 F 
ATOM     46  C   UNL     1       7.710  10.372  -1.187  1.00  0.00     0.060 A 
BRANCH  46  47
ATOM     47  S   UNL     1       8.013  11.530   0.165  1.00  0.00     0.124 S 
ATOM     48  O   UNL     1       7.370  10.845   1.282  1.00  0.00    -0.237 OA
ATOM     49  O   UNL     1       9.471  11.587   0.213  1.00  0.00    -0.237 OA
ATOM     50  O   UNL     1       7.357  12.754  -0.284  1.00  0.00    -0.744 OA
ENDBRANCH  46  47
ENDBRANCH  25  39
BRANCH  26  51
ATOM     51  C   UNL     1       4.500   1.738 -10.068  1.00  0.00     0.058 A 
ATOM     52  C   UNL     1       5.392   0.891 -10.737  1.00  0.00     0.135 A 
ATOM     53  C   UNL     1       3.124   1.548 -10.282  1.00  0.00     0.135 A 
ATOM     54  F   UNL     1       6.714   1.037 -10.563  1.00  0.00    -0.206 F 
ATOM     55  C   UNL     1       4.939  -0.126 -11.571  1.00  0.00     0.059 A 
ATOM     56  C   UNL     1       2.647   0.525 -11.094  1.00  0.00     0.059 A 
ATOM     57  F   UNL     1       2.232   2.322  -9.646  1.00  0.00    -0.206 F 
ATOM     58  C   UNL     1       3.563  -0.309 -11.732  1.00  0.00     0.060 A 
BRANCH  58  59
ATOM     59  S   UNL     1       2.983  -1.705 -12.721  1.00  0.00     0.124 S 
ATOM     60  O   UNL     1       3.225  -1.225 -14.076  1.00  0.00    -0.237 OA
ATOM     61  O   UNL     1       3.848  -2.788 -12.263  1.00  0.00    -0.237 OA
ATOM     62  O   UNL     1       1.581  -1.829 -12.334  1.00  0.00    -0.744 OA
ENDBRANCH  58  59
ENDBRANCH  26  51
BRANCH  38  63
ATOM     63  C   UNL     1       7.701   7.950 -10.390  1.00  0.00     0.058 A 
ATOM     64  C   UNL     1       6.842   8.703 -11.204  1.00  0.00     0.135 A 
ATOM     65  C   UNL     1       9.084   8.060 -10.609  1.00  0.00     0.135 A 
ATOM     66  F   UNL     1       5.513   8.623 -11.040  1.00  0.00    -0.206 F 
ATOM     67  C   UNL     1       7.337   9.540 -12.198  1.00  0.00     0.059 A 
ATOM     68  C   UNL     1       9.601   8.905 -11.585  1.00  0.00     0.059 A 
ATOM     69  F   UNL     1       9.945   7.362  -9.852  1.00  0.00    -0.206 F 
ATOM     70  C   UNL     1       8.719   9.640 -12.376  1.00  0.00     0.060 A 
BRANCH  70  71
ATOM     71  S   UNL     1       9.354  10.787 -13.618  1.00  0.00     0.124 S 
ATOM     72  O   UNL     1       9.092  10.057 -14.853  1.00  0.00    -0.237 OA
ATOM     73  O   UNL     1       8.533  11.974 -13.397  1.00  0.00    -0.237 OA
ATOM     74  O   UNL     1      10.761  10.931 -13.258  1.00  0.00    -0.744 OA
ENDBRANCH  70  71
ENDBRANCH  38  63
ENDBRANCH  12  13
ENDBRANCH   5   7
ENDBRANCH   2   3
ENDBRANCH   1   2
BRANCH   1  75
ATOM     75  C   UNL     1       4.829   0.018   3.696  1.00  0.00     0.023 C 
BRANCH  75  76
ATOM     76  C   UNL     1       4.934  -1.483   3.922  1.00  0.00     0.116 C 
BRANCH  76  77
ATOM     77  N   UNL     1       6.279  -2.022   3.877  1.00  0.00    -0.356 N 
ATOM     78  C   UNL     1       6.749  -3.250   4.237  1.00  0.00     0.226 C 
ATOM     79  H   UNL     1       6.961  -1.403   3.530  1.00  0.00     0.163 HD
ATOM     80  O   UNL     1       7.683  -3.677   3.546  1.00  0.00    -0.274 OA
BRANCH  78  81
ATOM     81  C   UNL     1       6.306  -4.030   5.503  1.00  0.00     0.057 C 
ATOM     82  C   UNL     1       6.635  -5.547   5.274  1.00  0.00     0.039 C 
ATOM     83  C   UNL     1       4.807  -3.972   5.868  1.00  0.00     0.039 C 
ATOM     84  C   UNL     1       5.700  -6.211   4.247  1.00  0.00     0.119 C 
ATOM     85  C   UNL     1       3.932  -4.565   4.773  1.00  0.00     0.119 C 
ATOM     86  N   UNL     1       4.329  -5.950   4.650  1.00  0.00    -0.356 N 
BRANCH  81  87
ATOM     87  C   UNL     1       7.085  -3.434   6.725  1.00  0.00     0.054 C 
BRANCH  87  88
ATOM     88  C   UNL     1       8.537  -3.837   6.901  1.00  0.00    -0.028 A 
ATOM     89  C   UNL     1       8.822  -5.014   7.623  1.00  0.00     0.005 A 
ATOM     90  C   UNL     1       9.616  -3.101   6.387  1.00  0.00     0.044 A 
ATOM     91  C   UNL     1      10.132  -5.466   7.785  1.00  0.00     0.000 A 
ATOM     92  C   UNL     1      10.929  -3.561   6.547  1.00  0.00     0.021 A 
ATOM     93  Cl  UNL     1       9.405  -1.582   5.592  1.00  0.00    -0.084 Cl
ATOM     94  C   UNL     1      11.186  -4.745   7.237  1.00  0.00     0.002 A 
ENDBRANCH  87  88
ENDBRANCH  81  87
BRANCH  86  95
ATOM     95  C   UNL     1       3.328  -6.806   4.246  1.00  0.00     0.141 A 
ATOM     96  N   UNL     1       2.563  -6.517   3.167  1.00  0.00    -0.219 NA
ATOM     97  C   UNL     1       2.929  -7.863   5.077  1.00  0.00     0.061 A 
ATOM     98  C   UNL     1       1.471  -7.273   2.932  1.00  0.00     0.226 A 
ATOM     99  C   UNL     1       1.765  -8.527   4.734  1.00  0.00     0.142 A 
ATOM    100  C   UNL     1       3.383  -8.425   6.304  1.00  0.00     0.033 A 
ATOM    101  N   UNL     1       0.988  -8.294   3.667  1.00  0.00    -0.218 NA
ATOM    102  N   UNL     1       1.506  -9.452   5.709  1.00  0.00    -0.346 N 
ATOM    103  C   UNL     1       2.481  -9.399   6.674  1.00  0.00     0.085 A 
ATOM    104  H   UNL     1       0.735 -10.064   5.717  1.00  0.00     0.167 HD
ENDBRANCH  86  95
ENDBRANCH  78  81
ENDBRANCH  76  77
ENDBRANCH  75  76
ENDBRANCH   1  75
TORSDOF 17
