REMARK SMILES CCOc1ccccc1N1CCN(c2ccc(NC(=O)C(C)(C)C)c(C(=O)NCCCCNC(=O)c3ccc(-c4c5nc(c(-c6c(F)cc(S(=O)(=O)[O-])cc6F)c6ccc([nH]6)c(-c6c(F)cc(S(=O)(=O)[O-])cc6F)c6nc(c(-c7c(F)cc(S(=O)(=O)[O-])cc7F)c7ccc4[nH]7)C=C6)C=C5)cc3)c2)CC1
REMARK SMILES IDX 30 1 29 2 28 3 26 4 27 5 25 7 14 8 15 9 102 10 16 11 17 12
REMARK SMILES IDX 13 13 10 14 11 15 104 16 12 17 103 18 9 19 4 20 5 21 6 22
REMARK SMILES IDX 8 23 7 24 3 25 2 26 1 27 18 28 19 29 20 31 21 32 22 33 23 34
REMARK SMILES IDX 24 35 31 36 32 37 33 38 34 39 35 41 36 42 37 43 101 44 38 45
REMARK SMILES IDX 100 46 39 47 40 48 41 49 94 50 42 51 99 52 93 53 95 54 43 55
REMARK SMILES IDX 98 56 92 57 91 58 44 60 78 61 57 62 77 63 58 64 61 65 76 66
REMARK SMILES IDX 96 67 59 68 60 69 75 71 97 72 62 73 45 74 46 75 55 76 47 77
REMARK SMILES IDX 48 78 54 79 56 80 49 81 50 82 51 83 52 84 53 85 79 86 80 87
REMARK SMILES IDX 89 88 81 89 82 90 88 91 90 92 83 93 84 94 85 95 86 96 87 97
REMARK SMILES IDX 63 98 64 99 73 100 65 101 66 102 72 103 74 104 67 105 68 106
REMARK SMILES IDX 69 107 70 108 71 109
REMARK H PARENT 28 6 18 30 33 40 95 59 61 70
REMARK Flexibility Score: inf
ROOT
ATOM      1  C   UNL     1       2.759  -2.247   5.494  1.00  0.00     0.023 C 
ENDROOT
BRANCH   1   2
ATOM      2  C   UNL     1       1.372  -1.691   5.208  1.00  0.00     0.116 C 
BRANCH   2   3
ATOM      3  N   UNL     1       0.617  -1.123   6.325  1.00  0.00    -0.352 N 
ATOM      4  C   UNL     1      -0.274  -0.047   6.354  1.00  0.00     0.253 C 
ATOM      5  O   UNL     1      -0.822   0.254   7.412  1.00  0.00    -0.269 OA
ATOM      6  H   UNL     1       0.759  -1.569   7.191  1.00  0.00     0.163 HD
BRANCH   4   7
ATOM      7  C   UNL     1      -0.506   0.813   5.147  1.00  0.00     0.065 A 
ATOM      8  C   UNL     1       0.155   0.905   2.843  1.00  0.00     0.038 A 
ATOM      9  C   UNL     1       0.058   2.290   2.910  1.00  0.00     0.028 A 
ATOM     10  C   UNL     1      -0.398   0.199   3.898  1.00  0.00     0.042 A 
ATOM     11  C   UNL     1      -0.405   2.928   4.060  1.00  0.00     0.029 A 
ATOM     12  C   UNL     1      -0.649   2.217   5.231  1.00  0.00     0.054 A 
BRANCH   8  13
ATOM     13  N   UNL     1       0.951   0.267   1.906  1.00  0.00    -0.368 N 
ATOM     14  N   UNL     1       2.570  -0.812  -0.146  1.00  0.00    -0.365 N 
ATOM     15  C   UNL     1       3.199   0.153   0.741  1.00  0.00     0.138 C 
ATOM     16  C   UNL     1       1.685  -1.760   0.528  1.00  0.00     0.138 C 
ATOM     17  C   UNL     1       2.113   1.020   1.386  1.00  0.00     0.138 C 
ATOM     18  C   UNL     1       0.578  -1.044   1.332  1.00  0.00     0.138 C 
BRANCH  14  19
ATOM     19  C   UNL     1       3.134  -1.161  -1.356  1.00  0.00     0.079 A 
ATOM     20  C   UNL     1       2.343  -1.334  -2.510  1.00  0.00     0.142 A 
ATOM     21  C   UNL     1       2.913  -1.677  -3.738  1.00  0.00     0.048 A 
ATOM     22  C   UNL     1       4.294  -1.838  -3.840  1.00  0.00     0.004 A 
ATOM     23  C   UNL     1       4.519  -1.335  -1.487  1.00  0.00     0.030 A 
ATOM     24  C   UNL     1       5.096  -1.673  -2.713  1.00  0.00     0.002 A 
BRANCH  20  25
ATOM     25  O   UNL     1       0.973  -1.224  -2.426  1.00  0.00    -0.492 OA
BRANCH  25  26
ATOM     26  C   UNL     1       0.497   0.032  -2.920  1.00  0.00     0.226 C 
ATOM     27  C   UNL     1       0.021   0.899  -1.770  1.00  0.00     0.049 C 
ENDBRANCH  25  26
ENDBRANCH  20  25
ENDBRANCH  14  19
ENDBRANCH   8  13
BRANCH  12  28
ATOM     28  N   UNL     1      -1.017   2.818   6.460  1.00  0.00    -0.325 N 
ATOM     29  C   UNL     1      -1.403   4.056   6.899  1.00  0.00     0.229 C 
ATOM     30  H   UNL     1      -0.988   2.169   7.199  1.00  0.00     0.169 HD
ATOM     31  O   UNL     1      -1.627   4.148   8.115  1.00  0.00    -0.274 OA
BRANCH  29  32
ATOM     32  C   UNL     1      -1.572   5.313   6.013  1.00  0.00     0.041 C 
ATOM     33  C   UNL     1      -0.184   5.816   5.554  1.00  0.00     0.021 C 
ATOM     34  C   UNL     1      -2.582   5.062   4.869  1.00  0.00     0.021 C 
ATOM     35  C   UNL     1      -2.180   6.474   6.844  1.00  0.00     0.021 C 
ENDBRANCH  29  32
ENDBRANCH  12  28
ENDBRANCH   4   7
ENDBRANCH   2   3
ENDBRANCH   1   2
BRANCH   1  36
ATOM     36  C   UNL     1       2.841  -3.494   6.356  1.00  0.00     0.023 C 
BRANCH  36  37
ATOM     37  C   UNL     1       1.955  -4.665   5.950  1.00  0.00     0.116 C 
BRANCH  37  38
ATOM     38  N   UNL     1       2.197  -5.172   4.605  1.00  0.00    -0.352 N 
ATOM     39  C   UNL     1       2.407  -6.468   4.184  1.00  0.00     0.251 C 
ATOM     40  H   UNL     1       2.213  -4.490   3.895  1.00  0.00     0.163 HD
ATOM     41  O   UNL     1       2.649  -6.692   2.999  1.00  0.00    -0.269 OA
BRANCH  39  42
ATOM     42  C   UNL     1       2.390  -7.579   5.162  1.00  0.00     0.039 A 
ATOM     43  C   UNL     1       3.426  -8.517   5.144  1.00  0.00     0.014 A 
ATOM     44  C   UNL     1       1.383  -7.672   6.126  1.00  0.00     0.014 A 
ATOM     45  C   UNL     1       3.504  -9.485   6.150  1.00  0.00     0.010 A 
ATOM     46  C   UNL     1       1.513  -8.575   7.177  1.00  0.00     0.010 A 
ATOM     47  C   UNL     1       2.576  -9.491   7.205  1.00  0.00    -0.014 A 
BRANCH  47  48
ATOM     48  C   UNL     1       2.698 -10.439   8.345  1.00  0.00     0.031 A 
ATOM     49  C   UNL     1       1.599 -11.432   8.620  1.00  0.00     0.074 A 
ATOM     50  C   UNL     1       3.755 -10.357   9.178  1.00  0.00     0.049 A 
ATOM     51  N   UNL     1       1.480 -12.281   9.607  1.00  0.00    -0.248 NA
ATOM     52  C   UNL     1       0.467 -11.448   7.679  1.00  0.00     0.031 C 
ATOM     53  C   UNL     1       4.857  -9.398   9.058  1.00  0.00     0.029 A 
ATOM     54  N   UNL     1       4.073 -11.082  10.300  1.00  0.00    -0.354 N 
ATOM     55  C   UNL     1       0.258 -12.916   9.418  1.00  0.00     0.074 A 
ATOM     56  C   UNL     1      -0.354 -12.313   8.255  1.00  0.00     0.031 C 
ATOM     57  C   UNL     1       5.737  -9.611  10.050  1.00  0.00     0.029 A 
ATOM     58  C   UNL     1       5.249 -10.693  10.898  1.00  0.00     0.049 A 
ATOM     59  H   UNL     1       3.511 -11.813  10.645  1.00  0.00     0.167 HD
ATOM     60  C   UNL     1      -0.294 -13.927  10.131  1.00  0.00     0.037 A 
ATOM     61  C   UNL     1       5.864 -11.152  12.007  1.00  0.00     0.037 A 
ATOM     62  C   UNL     1       0.336 -14.547  11.268  1.00  0.00     0.049 A 
ATOM     63  C   UNL     1       5.244 -12.292  12.770  1.00  0.00     0.074 A 
ATOM     64  C   UNL     1      -0.111 -15.620  12.019  1.00  0.00     0.029 A 
ATOM     65  N   UNL     1       1.548 -14.152  11.815  1.00  0.00    -0.354 N 
ATOM     66  N   UNL     1       4.119 -12.925  12.535  1.00  0.00    -0.248 NA
ATOM     67  C   UNL     1       5.980 -12.789  13.940  1.00  0.00     0.031 C 
ATOM     68  C   UNL     1       0.811 -15.848  13.046  1.00  0.00     0.029 A 
ATOM     69  C   UNL     1       1.858 -14.952  12.903  1.00  0.00     0.049 A 
ATOM     70  H   UNL     1       2.105 -13.413  11.480  1.00  0.00     0.167 HD
ATOM     71  C   UNL     1       4.029 -13.916  13.507  1.00  0.00     0.074 A 
ATOM     72  C   UNL     1       5.218 -13.803  14.328  1.00  0.00     0.031 C 
ATOM     73  C   UNL     1       3.054 -14.837  13.700  1.00  0.00     0.037 A 
BRANCH  60  74
ATOM     74  C   UNL     1      -1.642 -14.433   9.696  1.00  0.00     0.058 A 
ATOM     75  C   UNL     1      -1.809 -15.149   8.499  1.00  0.00     0.135 A 
ATOM     76  C   UNL     1      -2.776 -14.230  10.500  1.00  0.00     0.135 A 
ATOM     77  F   UNL     1      -0.763 -15.359   7.684  1.00  0.00    -0.206 F 
ATOM     78  C   UNL     1      -3.056 -15.619   8.100  1.00  0.00     0.059 A 
ATOM     79  C   UNL     1      -4.028 -14.717  10.134  1.00  0.00     0.059 A 
ATOM     80  F   UNL     1      -2.674 -13.553  11.654  1.00  0.00    -0.206 F 
ATOM     81  C   UNL     1      -4.160 -15.398   8.924  1.00  0.00     0.060 A 
BRANCH  81  82
ATOM     82  S   UNL     1      -5.769 -16.020   8.393  1.00  0.00     0.124 S 
ATOM     83  O   UNL     1      -6.100 -15.089   7.319  1.00  0.00    -0.237 OA
ATOM     84  O   UNL     1      -5.455 -17.382   7.977  1.00  0.00    -0.237 OA
ATOM     85  O   UNL     1      -6.590 -15.908   9.595  1.00  0.00    -0.744 OA
ENDBRANCH  81  82
ENDBRANCH  60  74
BRANCH  61  86
ATOM     86  C   UNL     1       7.156 -10.556  12.444  1.00  0.00     0.058 A 
ATOM     87  C   UNL     1       8.356 -11.275  12.335  1.00  0.00     0.135 A 
ATOM     88  C   UNL     1       7.220  -9.256  12.969  1.00  0.00     0.135 A 
ATOM     89  F   UNL     1       8.347 -12.524  11.845  1.00  0.00    -0.206 F 
ATOM     90  C   UNL     1       9.570 -10.735  12.747  1.00  0.00     0.059 A 
ATOM     91  C   UNL     1       8.426  -8.685  13.363  1.00  0.00     0.059 A 
ATOM     92  F   UNL     1       6.104  -8.519  13.078  1.00  0.00    -0.206 F 
ATOM     93  C   UNL     1       9.595  -9.437  13.258  1.00  0.00     0.060 A 
BRANCH  93  94
ATOM     94  S   UNL     1      11.184  -8.728  13.745  1.00  0.00     0.124 S 
ATOM     95  O   UNL     1      11.460  -9.447  14.983  1.00  0.00    -0.237 OA
ATOM     96  O   UNL     1      12.032  -9.067  12.606  1.00  0.00    -0.237 OA
ATOM     97  O   UNL     1      10.885  -7.306  13.892  1.00  0.00    -0.744 OA
ENDBRANCH  93  94
ENDBRANCH  61  86
BRANCH  73  98
ATOM     98  C   UNL     1       3.248 -15.833  14.810  1.00  0.00     0.058 A 
ATOM     99  C   UNL     1       3.126 -15.472  16.161  1.00  0.00     0.135 A 
ATOM    100  C   UNL     1       3.507 -17.181  14.512  1.00  0.00     0.135 A 
ATOM    101  F   UNL     1       2.884 -14.196  16.500  1.00  0.00    -0.206 F 
ATOM    102  C   UNL     1       3.278 -16.409  17.179  1.00  0.00     0.059 A 
ATOM    103  C   UNL     1       3.635 -18.139  15.512  1.00  0.00     0.059 A 
ATOM    104  F   UNL     1       3.622 -17.581  13.236  1.00  0.00    -0.206 F 
ATOM    105  C   UNL     1       3.531 -17.741  16.844  1.00  0.00     0.060 A 
BRANCH 105 106
ATOM    106  S   UNL     1       3.695 -18.952  18.172  1.00  0.00     0.124 S 
ATOM    107  O   UNL     1       5.016 -18.631  18.701  1.00  0.00    -0.237 OA
ATOM    108  O   UNL     1       2.567 -18.621  19.039  1.00  0.00    -0.237 OA
ATOM    109  O   UNL     1       3.589 -20.233  17.479  1.00  0.00    -0.744 OA
ENDBRANCH 105 106
ENDBRANCH  73  98
ENDBRANCH  47  48
ENDBRANCH  39  42
ENDBRANCH  37  38
ENDBRANCH  36  37
ENDBRANCH   1  36
TORSDOF 20
