REMARK SMILES CC[NH+]1CC[NH+]([C@@H]2CC(=O)N(c3ccc(C(=O)NCCCCNC(=O)c4ccc(-c5c6nc(c(-c7c(F)cc(S(=O)(=O)[O-])cc7F)c7ccc([nH]7)c(-c7c(F)cc(S(=O)(=O)[O-])cc7F)c7nc(c(-c8c(F)cc(S(=O)(=O)[O-])cc8F)c8ccc5[nH]8)C=C7)C=C6)cc4)cc3)C2=O)CC1
REMARK SMILES IDX 20 1 19 2 18 3 16 4 17 5 15 7 12 8 13 9 93 10 14 11 92 12
REMARK SMILES IDX 11 13 7 14 8 15 94 16 9 17 95 18 10 19 6 20 3 21 4 22 97 23
REMARK SMILES IDX 5 25 96 26 2 28 1 29 21 30 22 31 23 32 24 33 25 35 26 36
REMARK SMILES IDX 27 37 91 38 28 39 90 40 29 41 30 42 31 43 84 44 32 45 89 46
REMARK SMILES IDX 83 47 85 48 33 49 88 50 82 51 81 52 34 54 68 55 47 56 67 57
REMARK SMILES IDX 48 58 51 59 66 60 86 61 49 62 50 63 65 65 87 66 52 67 35 68
REMARK SMILES IDX 36 69 45 70 37 71 38 72 44 73 46 74 39 75 40 76 41 77 42 78
REMARK SMILES IDX 43 79 69 80 70 81 79 82 71 83 72 84 78 85 80 86 73 87 74 88
REMARK SMILES IDX 75 89 76 90 77 91 53 92 54 93 63 94 55 95 56 96 62 97 64 98
REMARK SMILES IDX 57 99 58 100 59 101 60 102 61 103
REMARK H PARENT 18 6 3 24 6 27 23 34 85 53 51 64
REMARK Flexibility Score: inf
ROOT
ATOM      1  C   UNL     1      11.000   7.098  -2.963  1.00  0.00     0.023 C 
ENDROOT
BRANCH   1   2
ATOM      2  C   UNL     1      10.884   5.580  -3.139  1.00  0.00     0.116 C 
BRANCH   2   3
ATOM      3  N   UNL     1      11.245   4.887  -1.918  1.00  0.00    -0.352 N 
ATOM      4  C   UNL     1      10.503   4.464  -0.844  1.00  0.00     0.251 C 
ATOM      5  O   UNL     1      11.091   3.842   0.042  1.00  0.00    -0.269 OA
ATOM      6  H   UNL     1      12.205   4.679  -1.846  1.00  0.00     0.163 HD
BRANCH   4   7
ATOM      7  C   UNL     1       9.031   4.688  -0.709  1.00  0.00     0.039 A 
ATOM      8  C   UNL     1       6.238   4.963  -0.345  1.00  0.00     0.052 A 
ATOM      9  C   UNL     1       6.961   4.036   0.412  1.00  0.00     0.027 A 
ATOM     10  C   UNL     1       6.922   5.766  -1.254  1.00  0.00     0.027 A 
ATOM     11  C   UNL     1       8.339   3.882   0.209  1.00  0.00     0.016 A 
ATOM     12  C   UNL     1       8.305   5.660  -1.395  1.00  0.00     0.016 A 
BRANCH   8  13
ATOM     13  N   UNL     1       4.844   5.104  -0.203  1.00  0.00    -0.245 N 
ATOM     14  C   UNL     1       2.696   5.167   0.744  1.00  0.00     0.285 C 
ATOM     15  C   UNL     1       2.596   5.437  -0.750  1.00  0.00     0.176 C 
ATOM     16  C   UNL     1       4.195   5.090   1.008  1.00  0.00     0.292 C 
ATOM     17  C   UNL     1       3.994   5.308  -1.260  1.00  0.00     0.240 C 
ATOM     18  O   UNL     1       4.699   5.041   2.124  1.00  0.00    -0.267 OA
ATOM     19  O   UNL     1       4.261   5.359  -2.453  1.00  0.00    -0.274 OA
BRANCH  14  20
ATOM     20  N   UNL     1       1.991   4.012   1.330  1.00  0.00    -0.315 N 
ATOM     21  N   UNL     1       0.589   1.926  -0.339  1.00  0.00    -0.326 N 
ATOM     22  C   UNL     1      -0.018   3.247  -0.071  1.00  0.00     0.324 C 
ATOM     23  C   UNL     1       2.057   2.018  -0.231  1.00  0.00     0.324 C 
ATOM     24  H   UNL     1       0.373   1.639  -1.293  1.00  0.00     0.348 HD
ATOM     25  C   UNL     1       0.532   4.018   1.157  1.00  0.00     0.325 C 
ATOM     26  C   UNL     1       2.555   2.681   1.067  1.00  0.00     0.325 C 
ATOM     27  H   UNL     1       2.179   4.182   2.318  1.00  0.00     0.349 HD
BRANCH  21  28
ATOM     28  C   UNL     1       0.011   0.894   0.535  1.00  0.00     0.259 C 
ATOM     29  C   UNL     1       0.426  -0.518   0.131  1.00  0.00     0.071 C 
ENDBRANCH  21  28
ENDBRANCH  14  20
ENDBRANCH   8  13
ENDBRANCH   4   7
ENDBRANCH   2   3
ENDBRANCH   1   2
BRANCH   1  30
ATOM     30  C   UNL     1      12.416   7.646  -3.130  1.00  0.00     0.023 C 
BRANCH  30  31
ATOM     31  C   UNL     1      13.002   7.472  -4.524  1.00  0.00     0.116 C 
BRANCH  31  32
ATOM     32  N   UNL     1      12.204   8.098  -5.567  1.00  0.00    -0.352 N 
ATOM     33  C   UNL     1      12.633   8.596  -6.777  1.00  0.00     0.251 C 
ATOM     34  H   UNL     1      11.240   8.176  -5.385  1.00  0.00     0.163 HD
ATOM     35  O   UNL     1      11.862   9.190  -7.512  1.00  0.00    -0.269 OA
BRANCH  33  36
ATOM     36  C   UNL     1      14.057   8.438  -7.141  1.00  0.00     0.039 A 
ATOM     37  C   UNL     1      14.783   9.571  -7.516  1.00  0.00     0.014 A 
ATOM     38  C   UNL     1      14.681   7.191  -7.051  1.00  0.00     0.014 A 
ATOM     39  C   UNL     1      16.156   9.463  -7.736  1.00  0.00     0.010 A 
ATOM     40  C   UNL     1      16.060   7.099  -7.207  1.00  0.00     0.010 A 
ATOM     41  C   UNL     1      16.811   8.235  -7.548  1.00  0.00    -0.014 A 
BRANCH  41  42
ATOM     42  C   UNL     1      18.282   8.116  -7.696  1.00  0.00     0.031 A 
ATOM     43  C   UNL     1      18.858   7.260  -8.790  1.00  0.00     0.074 A 
ATOM     44  C   UNL     1      19.091   8.718  -6.802  1.00  0.00     0.049 A 
ATOM     45  N   UNL     1      20.108   6.968  -9.035  1.00  0.00    -0.248 NA
ATOM     46  C   UNL     1      17.902   6.625  -9.713  1.00  0.00     0.031 C 
ATOM     47  C   UNL     1      18.646   9.527  -5.664  1.00  0.00     0.029 A 
ATOM     48  N   UNL     1      20.460   8.731  -6.700  1.00  0.00    -0.354 N 
ATOM     49  C   UNL     1      20.089   6.099 -10.120  1.00  0.00     0.074 A 
ATOM     50  C   UNL     1      18.702   5.880 -10.464  1.00  0.00     0.031 C 
ATOM     51  C   UNL     1      19.721   9.972  -4.992  1.00  0.00     0.029 A 
ATOM     52  C   UNL     1      20.928   9.455  -5.629  1.00  0.00     0.049 A 
ATOM     53  H   UNL     1      21.051   8.266  -7.335  1.00  0.00     0.167 HD
ATOM     54  C   UNL     1      21.136   5.551 -10.780  1.00  0.00     0.037 A 
ATOM     55  C   UNL     1      22.189   9.672  -5.206  1.00  0.00     0.037 A 
ATOM     56  C   UNL     1      22.515   5.815 -10.465  1.00  0.00     0.049 A 
ATOM     57  C   UNL     1      23.333   9.071  -5.978  1.00  0.00     0.074 A 
ATOM     58  C   UNL     1      23.646   5.380 -11.132  1.00  0.00     0.029 A 
ATOM     59  N   UNL     1      22.950   6.585  -9.398  1.00  0.00    -0.354 N 
ATOM     60  N   UNL     1      23.297   8.318  -7.051  1.00  0.00    -0.248 NA
ATOM     61  C   UNL     1      24.689   9.355  -5.486  1.00  0.00     0.031 C 
ATOM     62  C   UNL     1      24.768   5.858 -10.447  1.00  0.00     0.029 A 
ATOM     63  C   UNL     1      24.334   6.623  -9.377  1.00  0.00     0.049 A 
ATOM     64  H   UNL     1      22.362   7.037  -8.751  1.00  0.00     0.167 HD
ATOM     65  C   UNL     1      24.624   8.065  -7.380  1.00  0.00     0.074 A 
ATOM     66  C   UNL     1      25.438   8.751  -6.399  1.00  0.00     0.031 C 
ATOM     67  C   UNL     1      25.125   7.330  -8.403  1.00  0.00     0.037 A 
BRANCH  54  68
ATOM     68  C   UNL     1      20.839   4.622 -11.923  1.00  0.00     0.058 A 
ATOM     69  C   UNL     1      20.363   5.099 -13.154  1.00  0.00     0.135 A 
ATOM     70  C   UNL     1      21.100   3.247 -11.808  1.00  0.00     0.135 A 
ATOM     71  F   UNL     1      20.081   6.402 -13.310  1.00  0.00    -0.206 F 
ATOM     72  C   UNL     1      20.146   4.244 -14.229  1.00  0.00     0.059 A 
ATOM     73  C   UNL     1      20.912   2.377 -12.877  1.00  0.00     0.059 A 
ATOM     74  F   UNL     1      21.552   2.739 -10.650  1.00  0.00    -0.206 F 
ATOM     75  C   UNL     1      20.427   2.884 -14.082  1.00  0.00     0.060 A 
BRANCH  75  76
ATOM     76  S   UNL     1      20.177   1.794 -15.499  1.00  0.00     0.124 S 
ATOM     77  O   UNL     1      18.722   1.692 -15.534  1.00  0.00    -0.237 OA
ATOM     78  O   UNL     1      20.785   2.552 -16.588  1.00  0.00    -0.237 OA
ATOM     79  O   UNL     1      20.883   0.575 -15.118  1.00  0.00    -0.744 OA
ENDBRANCH  75  76
ENDBRANCH  54  68
BRANCH  55  80
ATOM     80  C   UNL     1      22.448  10.508  -4.004  1.00  0.00     0.058 A 
ATOM     81  C   UNL     1      23.037  11.776  -4.124  1.00  0.00     0.135 A 
ATOM     82  C   UNL     1      22.140  10.050  -2.714  1.00  0.00     0.135 A 
ATOM     83  F   UNL     1      23.352  12.255  -5.337  1.00  0.00    -0.206 F 
ATOM     84  C   UNL     1      23.343  12.546  -3.007  1.00  0.00     0.059 A 
ATOM     85  C   UNL     1      22.415  10.812  -1.583  1.00  0.00     0.059 A 
ATOM     86  F   UNL     1      21.557   8.852  -2.547  1.00  0.00    -0.206 F 
ATOM     87  C   UNL     1      23.034  12.052  -1.740  1.00  0.00     0.060 A 
BRANCH  87  88
ATOM     88  S   UNL     1      23.426  13.061  -0.294  1.00  0.00     0.124 S 
ATOM     89  O   UNL     1      24.865  12.859  -0.178  1.00  0.00    -0.237 OA
ATOM     90  O   UNL     1      23.000  14.391  -0.720  1.00  0.00    -0.237 OA
ATOM     91  O   UNL     1      22.615  12.460   0.761  1.00  0.00    -0.744 OA
ENDBRANCH  87  88
ENDBRANCH  55  80
BRANCH  67  92
ATOM     92  C   UNL     1      26.619   7.266  -8.542  1.00  0.00     0.058 A 
ATOM     93  C   UNL     1      27.406   6.488  -7.679  1.00  0.00     0.135 A 
ATOM     94  C   UNL     1      27.264   7.950  -9.585  1.00  0.00     0.135 A 
ATOM     95  F   UNL     1      26.837   5.821  -6.663  1.00  0.00    -0.206 F 
ATOM     96  C   UNL     1      28.785   6.406  -7.834  1.00  0.00     0.059 A 
ATOM     97  C   UNL     1      28.639   7.863  -9.773  1.00  0.00     0.059 A 
ATOM     98  F   UNL     1      26.553   8.700 -10.443  1.00  0.00    -0.206 F 
ATOM     99  C   UNL     1      29.393   7.097  -8.884  1.00  0.00     0.060 A 
BRANCH  99 100
ATOM    100  S   UNL     1      31.180   6.954  -9.099  1.00  0.00     0.124 S 
ATOM    101  O   UNL     1      31.673   7.834  -8.045  1.00  0.00    -0.237 OA
ATOM    102  O   UNL     1      31.408   5.527  -8.892  1.00  0.00    -0.237 OA
ATOM    103  O   UNL     1      31.396   7.425 -10.464  1.00  0.00    -0.744 OA
ENDBRANCH  99 100
ENDBRANCH  67  92
ENDBRANCH  41  42
ENDBRANCH  33  36
ENDBRANCH  31  32
ENDBRANCH  30  31
ENDBRANCH   1  30
TORSDOF 17
