REMARK SMILES C[C@]12CCC(=O)N1[C@@H](C(=O)N1C[C@H](O)C[C@@H]1C(=O)NCCCCNC(=O)c1ccc(-c3c4nc(c(-c5c(F)cc(S(=O)(=O)[O-])cc5F)c5ccc([nH]5)c(-c5c(F)cc(S(=O)(=O)[O-])cc5F)c5nc(c(-c6c(F)cc(S(=O)(=O)[O-])cc6F)c6ccc3[nH]6)C=C5)C=C4)cc1)CS2
REMARK SMILES IDX 22 1 21 2 20 3 19 4 17 5 18 6 16 8 11 9 12 10 13 11 15 12
REMARK SMILES IDX 9 13 10 14 8 15 1 16 2 17 3 18 7 19 94 20 4 21 5 22 93 23
REMARK SMILES IDX 6 24 14 25 23 27 24 28 25 29 26 31 27 32 28 33 92 34 29 35
REMARK SMILES IDX 91 36 30 37 31 38 32 39 85 40 33 41 90 42 84 43 86 44 34 45
REMARK SMILES IDX 89 46 83 47 82 48 35 50 69 51 48 52 68 53 49 54 52 55 67 56
REMARK SMILES IDX 87 57 50 58 51 59 66 61 88 62 53 63 36 64 37 65 46 66 38 67
REMARK SMILES IDX 39 68 45 69 47 70 40 71 41 72 42 73 43 74 44 75 70 76 71 77
REMARK SMILES IDX 80 78 72 79 73 80 79 81 81 82 74 83 75 84 76 85 77 86 78 87
REMARK SMILES IDX 54 88 55 89 64 90 56 91 57 92 63 93 65 94 58 95 59 96 60 97
REMARK SMILES IDX 61 98 62 99
REMARK H PARENT 19 7 14 26 24 30 86 49 52 60
REMARK Flexibility Score: inf
ROOT
ATOM      1  C   UNL     1       3.008   1.231   7.745  1.00  0.00     0.023 C 
ENDROOT
BRANCH   1   2
ATOM      2  C   UNL     1       2.031   0.189   7.191  1.00  0.00     0.023 C 
BRANCH   2   3
ATOM      3  C   UNL     1       0.568   0.363   7.594  1.00  0.00     0.116 C 
BRANCH   3   4
ATOM      4  N   UNL     1      -0.018   1.605   7.118  1.00  0.00    -0.354 N 
ATOM      5  C   UNL     1      -1.067   1.795   6.260  1.00  0.00     0.242 C 
ATOM      6  O   UNL     1      -1.474   2.943   6.069  1.00  0.00    -0.273 OA
ATOM      7  H   UNL     1       0.400   2.427   7.462  1.00  0.00     0.163 HD
BRANCH   5   8
ATOM      8  C   UNL     1      -1.698   0.579   5.546  1.00  0.00     0.177 C 
ATOM      9  N   UNL     1      -2.593   0.988   4.446  1.00  0.00    -0.326 N 
ATOM     10  C   UNL     1      -3.988   0.763   4.809  1.00  0.00     0.152 C 
ATOM     11  C   UNL     1      -3.973   0.460   6.300  1.00  0.00     0.136 C 
ATOM     12  C   UNL     1      -2.609  -0.183   6.516  1.00  0.00     0.069 C 
BRANCH   9  13
ATOM     13  C   UNL     1      -2.318   1.314   3.135  1.00  0.00     0.247 C 
ATOM     14  O   UNL     1      -3.248   1.606   2.367  1.00  0.00    -0.272 OA
BRANCH  13  15
ATOM     15  C   UNL     1      -0.904   1.172   2.531  1.00  0.00     0.186 C 
ATOM     16  C   UNL     1       0.789   0.162  -0.013  1.00  0.00     0.047 C 
ATOM     17  C   UNL     1       0.795  -0.214   1.470  1.00  0.00     0.087 C 
ATOM     18  C   UNL     1       1.287  -1.644   1.675  1.00  0.00     0.049 C 
ATOM     19  N   UNL     1      -0.518  -0.165   2.062  1.00  0.00    -0.315 N 
ATOM     20  S   UNL     1       1.758   1.038   2.403  1.00  0.00    -0.131 SA
ATOM     21  C   UNL     1       0.342  -2.262   2.689  1.00  0.00     0.103 C 
ATOM     22  C   UNL     1      -0.833  -1.332   2.736  1.00  0.00     0.224 C 
ATOM     23  C   UNL     1       0.299   1.755   3.255  1.00  0.00     0.107 C 
ATOM     24  O   UNL     1      -1.847  -1.568   3.375  1.00  0.00    -0.275 OA
ENDBRANCH  13  15
ENDBRANCH   9  13
BRANCH  11  25
ATOM     25  O   UNL     1      -4.079   1.649   7.079  1.00  0.00    -0.391 OA
ATOM     26  H   UNL     1      -3.353   2.251   6.849  1.00  0.00     0.211 HD
ENDBRANCH  11  25
ENDBRANCH   5   8
ENDBRANCH   3   4
ENDBRANCH   2   3
ENDBRANCH   1   2
BRANCH   1  27
ATOM     27  C   UNL     1       3.007   1.430   9.260  1.00  0.00     0.116 C 
BRANCH  27  28
ATOM     28  N   UNL     1       3.314   0.222  10.008  1.00  0.00    -0.352 N 
ATOM     29  C   UNL     1       4.116   0.055  11.114  1.00  0.00     0.251 C 
ATOM     30  H   UNL     1       2.884  -0.598   9.674  1.00  0.00     0.163 HD
ATOM     31  O   UNL     1       4.312  -1.078  11.547  1.00  0.00    -0.269 OA
BRANCH  29  32
ATOM     32  C   UNL     1       4.777   1.216  11.758  1.00  0.00     0.039 A 
ATOM     33  C   UNL     1       6.124   1.103  12.119  1.00  0.00     0.014 A 
ATOM     34  C   UNL     1       4.088   2.405  12.012  1.00  0.00     0.014 A 
ATOM     35  C   UNL     1       6.801   2.204  12.653  1.00  0.00     0.010 A 
ATOM     36  C   UNL     1       4.777   3.520  12.494  1.00  0.00     0.010 A 
ATOM     37  C   UNL     1       6.143   3.435  12.804  1.00  0.00    -0.014 A 
BRANCH  37  38
ATOM     38  C   UNL     1       6.877   4.653  13.238  1.00  0.00     0.031 A 
ATOM     39  C   UNL     1       6.560   5.314  14.550  1.00  0.00     0.074 A 
ATOM     40  C   UNL     1       7.775   5.216  12.405  1.00  0.00     0.049 A 
ATOM     41  N   UNL     1       7.030   6.430  15.046  1.00  0.00    -0.248 NA
ATOM     42  C   UNL     1       5.568   4.644  15.404  1.00  0.00     0.031 C 
ATOM     43  C   UNL     1       8.135   4.705  11.081  1.00  0.00     0.029 A 
ATOM     44  N   UNL     1       8.533   6.352  12.541  1.00  0.00    -0.354 N 
ATOM     45  C   UNL     1       6.381   6.608  16.261  1.00  0.00     0.074 A 
ATOM     46  C   UNL     1       5.458   5.501  16.410  1.00  0.00     0.031 C 
ATOM     47  C   UNL     1       9.046   5.522  10.528  1.00  0.00     0.029 A 
ATOM     48  C   UNL     1       9.313   6.628  11.444  1.00  0.00     0.049 A 
ATOM     49  H   UNL     1       8.518   6.917  13.347  1.00  0.00     0.167 HD
ATOM     50  C   UNL     1       6.547   7.594  17.177  1.00  0.00     0.037 A 
ATOM     51  C   UNL     1      10.143   7.659  11.193  1.00  0.00     0.037 A 
ATOM     52  C   UNL     1       7.479   8.683  17.041  1.00  0.00     0.049 A 
ATOM     53  C   UNL     1      10.331   8.728  12.230  1.00  0.00     0.074 A 
ATOM     54  C   UNL     1       7.760   9.695  17.944  1.00  0.00     0.029 A 
ATOM     55  N   UNL     1       8.280   8.906  15.931  1.00  0.00    -0.354 N 
ATOM     56  N   UNL     1       9.749   8.850  13.399  1.00  0.00    -0.248 NA
ATOM     57  C   UNL     1      11.290   9.796  11.918  1.00  0.00     0.031 C 
ATOM     58  C   UNL     1       8.714  10.543  17.369  1.00  0.00     0.029 A 
ATOM     59  C   UNL     1       9.046  10.045  16.119  1.00  0.00     0.049 A 
ATOM     60  H   UNL     1       8.301   8.338  15.128  1.00  0.00     0.167 HD
ATOM     61  C   UNL     1      10.277  10.003  13.966  1.00  0.00     0.074 A 
ATOM     62  C   UNL     1      11.236  10.535  13.019  1.00  0.00     0.031 C 
ATOM     63  C   UNL     1       9.991  10.569  15.165  1.00  0.00     0.037 A 
BRANCH  50  64
ATOM     64  C   UNL     1       5.692   7.529  18.410  1.00  0.00     0.058 A 
ATOM     65  C   UNL     1       5.934   6.582  19.419  1.00  0.00     0.135 A 
ATOM     66  C   UNL     1       4.616   8.413  18.583  1.00  0.00     0.135 A 
ATOM     67  F   UNL     1       6.943   5.706  19.295  1.00  0.00    -0.206 F 
ATOM     68  C   UNL     1       5.112   6.486  20.536  1.00  0.00     0.059 A 
ATOM     69  C   UNL     1       3.793   8.348  19.704  1.00  0.00     0.059 A 
ATOM     70  F   UNL     1       4.344   9.338  17.649  1.00  0.00    -0.206 F 
ATOM     71  C   UNL     1       4.035   7.365  20.663  1.00  0.00     0.060 A 
BRANCH  71  72
ATOM     72  S   UNL     1       2.949   7.208  22.097  1.00  0.00     0.124 S 
ATOM     73  O   UNL     1       2.098   6.094  21.692  1.00  0.00    -0.237 OA
ATOM     74  O   UNL     1       3.887   6.927  23.179  1.00  0.00    -0.237 OA
ATOM     75  O   UNL     1       2.292   8.510  22.165  1.00  0.00    -0.744 OA
ENDBRANCH  71  72
ENDBRANCH  50  64
BRANCH  51  76
ATOM     76  C   UNL     1      10.872   7.707   9.901  1.00  0.00     0.058 A 
ATOM     77  C   UNL     1      12.228   7.359   9.829  1.00  0.00     0.135 A 
ATOM     78  C   UNL     1      10.213   8.044   8.709  1.00  0.00     0.135 A 
ATOM     79  F   UNL     1      12.898   7.036  10.945  1.00  0.00    -0.206 F 
ATOM     80  C   UNL     1      12.908   7.337   8.616  1.00  0.00     0.059 A 
ATOM     81  C   UNL     1      10.868   8.014   7.482  1.00  0.00     0.059 A 
ATOM     82  F   UNL     1       8.911   8.370   8.730  1.00  0.00    -0.206 F 
ATOM     83  C   UNL     1      12.216   7.659   7.446  1.00  0.00     0.060 A 
BRANCH  83  84
ATOM     84  S   UNL     1      13.078   7.535   5.864  1.00  0.00     0.124 S 
ATOM     85  O   UNL     1      13.855   8.768   5.855  1.00  0.00    -0.237 OA
ATOM     86  O   UNL     1      13.841   6.300   6.022  1.00  0.00    -0.237 OA
ATOM     87  O   UNL     1      11.987   7.466   4.896  1.00  0.00    -0.744 OA
ENDBRANCH  83  84
ENDBRANCH  51  76
BRANCH  63  88
ATOM     88  C   UNL     1      10.728  11.827  15.523  1.00  0.00     0.058 A 
ATOM     89  C   UNL     1      10.374  13.065  14.963  1.00  0.00     0.135 A 
ATOM     90  C   UNL     1      11.769  11.803  16.464  1.00  0.00     0.135 A 
ATOM     91  F   UNL     1       9.391  13.137  14.052  1.00  0.00    -0.206 F 
ATOM     92  C   UNL     1      11.039  14.236  15.313  1.00  0.00     0.059 A 
ATOM     93  C   UNL     1      12.435  12.965  16.841  1.00  0.00     0.059 A 
ATOM     94  F   UNL     1      12.140  10.645  17.032  1.00  0.00    -0.206 F 
ATOM     95  C   UNL     1      12.070  14.175  16.252  1.00  0.00     0.060 A 
BRANCH  95  96
ATOM     96  S   UNL     1      12.906  15.704  16.728  1.00  0.00     0.124 S 
ATOM     97  O   UNL     1      13.818  15.900  15.606  1.00  0.00    -0.237 OA
ATOM     98  O   UNL     1      11.802  16.654  16.820  1.00  0.00    -0.237 OA
ATOM     99  O   UNL     1      13.536  15.362  18.000  1.00  0.00    -0.744 OA
ENDBRANCH  95  96
ENDBRANCH  63  88
ENDBRANCH  37  38
ENDBRANCH  29  32
ENDBRANCH  27  28
ENDBRANCH   1  27
TORSDOF 17
