REMARK SMILES C[C@@H]1[C@H](C(=O)NCCCCNC(=O)c2ccc(-c3c4nc(c(-c5c(F)cc(S(=O)(=O)[O-])cc5F)c5ccc([nH]5)c(-c5c(F)cc(S(=O)(=O)[O-])cc5F)c5nc(c(-c6c(F)cc(S(=O)(=O)[O-])cc6F)c6ccc3[nH]6)C=C5)C=C4)cc2)CC[N@@H+]1Cc1cnn(-c2ccccc2)c1
REMARK SMILES IDX 8 1 7 2 6 3 4 4 5 5 3 7 1 8 2 9 82 10 80 11 81 12 83 14
REMARK SMILES IDX 84 15 85 16 94 17 86 18 87 19 88 20 89 21 93 22 90 23 92 24
REMARK SMILES IDX 91 25 9 26 10 27 11 28 12 29 13 31 14 32 15 33 79 34 16 35
REMARK SMILES IDX 78 36 17 37 18 38 19 39 72 40 20 41 77 42 71 43 73 44 21 45
REMARK SMILES IDX 76 46 70 47 69 48 22 50 56 51 35 52 55 53 36 54 39 55 54 56
REMARK SMILES IDX 74 57 37 58 38 59 53 61 75 62 40 63 23 64 24 65 33 66 25 67
REMARK SMILES IDX 26 68 32 69 34 70 27 71 28 72 29 73 30 74 31 75 57 76 58 77
REMARK SMILES IDX 67 78 59 79 60 80 66 81 68 82 61 83 62 84 63 85 64 86 65 87
REMARK SMILES IDX 41 88 42 89 51 90 43 91 44 92 50 93 52 94 45 95 46 96 47 97
REMARK SMILES IDX 48 98 49 99
REMARK H PARENT 6 6 82 13 11 30 73 49 39 60
REMARK Flexibility Score: inf
ROOT
ATOM      1  C   UNL     1       2.799   1.532   2.331  1.00  0.00     0.023 C 
ENDROOT
BRANCH   1   2
ATOM      2  C   UNL     1       1.353   1.871   1.988  1.00  0.00     0.116 C 
BRANCH   2   3
ATOM      3  N   UNL     1       1.264   2.663   0.782  1.00  0.00    -0.356 N 
ATOM      4  C   UNL     1       0.698   2.380  -0.418  1.00  0.00     0.229 C 
ATOM      5  O   UNL     1       0.843   3.216  -1.316  1.00  0.00    -0.275 OA
ATOM      6  H   UNL     1       1.683   3.552   0.841  1.00  0.00     0.163 HD
BRANCH   4   7
ATOM      7  C   UNL     1      -0.107   1.117  -0.697  1.00  0.00     0.142 C 
ATOM      8  C   UNL     1       2.098  -0.316  -0.516  1.00  0.00     0.076 C 
ATOM      9  C   UNL     1       0.605  -0.249  -0.789  1.00  0.00     0.193 C 
ATOM     10  N   UNL     1      -0.246  -1.131  -0.005  1.00  0.00    -0.328 N 
ATOM     11  C   UNL     1      -1.331   0.905   0.200  1.00  0.00     0.081 C 
ATOM     12  C   UNL     1      -1.577  -0.593   0.142  1.00  0.00     0.263 C 
ATOM     13  H   UNL     1      -0.066  -2.048  -0.415  1.00  0.00     0.348 HD
BRANCH  10  14
ATOM     14  C   UNL     1       0.188  -2.285   0.738  1.00  0.00     0.302 C 
BRANCH  14  15
ATOM     15  C   UNL     1       0.564  -1.947   2.144  1.00  0.00     0.045 A 
ATOM     16  C   UNL     1      -0.283  -1.586   3.213  1.00  0.00     0.145 A 
ATOM     17  C   UNL     1       1.815  -1.980   2.734  1.00  0.00     0.124 A 
ATOM     18  N   UNL     1       0.362  -1.432   4.368  1.00  0.00    -0.176 NA
ATOM     19  N   UNL     1       1.667  -1.641   4.064  1.00  0.00    -0.240 N 
BRANCH  19  20
ATOM     20  C   UNL     1       2.685  -1.455   5.038  1.00  0.00     0.065 A 
ATOM     21  C   UNL     1       2.346  -1.457   6.397  1.00  0.00     0.028 A 
ATOM     22  C   UNL     1       4.014  -1.211   4.658  1.00  0.00     0.028 A 
ATOM     23  C   UNL     1       3.327  -1.228   7.364  1.00  0.00     0.002 A 
ATOM     24  C   UNL     1       4.978  -0.931   5.631  1.00  0.00     0.002 A 
ATOM     25  C   UNL     1       4.637  -0.948   6.982  1.00  0.00     0.000 A 
ENDBRANCH  19  20
ENDBRANCH  14  15
ENDBRANCH  10  14
ENDBRANCH   4   7
ENDBRANCH   2   3
ENDBRANCH   1   2
BRANCH   1  26
ATOM     26  C   UNL     1       3.626   2.635   2.962  1.00  0.00     0.023 C 
BRANCH  26  27
ATOM     27  C   UNL     1       3.012   3.278   4.189  1.00  0.00     0.116 C 
BRANCH  27  28
ATOM     28  N   UNL     1       2.624   2.345   5.240  1.00  0.00    -0.352 N 
ATOM     29  C   UNL     1       2.887   2.439   6.590  1.00  0.00     0.251 C 
ATOM     30  H   UNL     1       2.115   1.553   4.951  1.00  0.00     0.163 HD
ATOM     31  O   UNL     1       2.411   1.670   7.407  1.00  0.00    -0.269 OA
BRANCH  29  32
ATOM     32  C   UNL     1       3.769   3.522   7.041  1.00  0.00     0.039 A 
ATOM     33  C   UNL     1       4.982   3.217   7.663  1.00  0.00     0.014 A 
ATOM     34  C   UNL     1       3.400   4.838   6.767  1.00  0.00     0.014 A 
ATOM     35  C   UNL     1       5.853   4.254   7.993  1.00  0.00     0.010 A 
ATOM     36  C   UNL     1       4.310   5.852   6.999  1.00  0.00     0.010 A 
ATOM     37  C   UNL     1       5.524   5.574   7.650  1.00  0.00    -0.014 A 
BRANCH  37  38
ATOM     38  C   UNL     1       6.346   6.731   8.066  1.00  0.00     0.031 A 
ATOM     39  C   UNL     1       5.722   7.729   9.003  1.00  0.00     0.074 A 
ATOM     40  C   UNL     1       7.562   6.939   7.531  1.00  0.00     0.049 A 
ATOM     41  N   UNL     1       6.121   8.930   9.323  1.00  0.00    -0.248 NA
ATOM     42  C   UNL     1       4.438   7.339   9.614  1.00  0.00     0.031 C 
ATOM     43  C   UNL     1       8.246   6.044   6.596  1.00  0.00     0.029 A 
ATOM     44  N   UNL     1       8.426   7.991   7.679  1.00  0.00    -0.354 N 
ATOM     45  C   UNL     1       5.117   9.452  10.130  1.00  0.00     0.074 A 
ATOM     46  C   UNL     1       4.064   8.465  10.200  1.00  0.00     0.031 C 
ATOM     47  C   UNL     1       9.429   6.585   6.258  1.00  0.00     0.029 A 
ATOM     48  C   UNL     1       9.564   7.881   6.915  1.00  0.00     0.049 A 
ATOM     49  H   UNL     1       8.249   8.754   8.275  1.00  0.00     0.167 HD
ATOM     50  C   UNL     1       5.088  10.641  10.775  1.00  0.00     0.037 A 
ATOM     51  C   UNL     1      10.586   8.744   6.757  1.00  0.00     0.037 A 
ATOM     52  C   UNL     1       6.173  11.584  10.732  1.00  0.00     0.049 A 
ATOM     53  C   UNL     1      10.548  10.051   7.505  1.00  0.00     0.074 A 
ATOM     54  C   UNL     1       6.290  12.794  11.388  1.00  0.00     0.029 A 
ATOM     55  N   UNL     1       7.338  11.409   9.997  1.00  0.00    -0.354 N 
ATOM     56  N   UNL     1       9.607  10.527   8.288  1.00  0.00    -0.248 NA
ATOM     57  C   UNL     1      11.710  10.935   7.356  1.00  0.00     0.031 C 
ATOM     58  C   UNL     1       7.511  13.369  11.022  1.00  0.00     0.029 A 
ATOM     59  C   UNL     1       8.178  12.492  10.179  1.00  0.00     0.049 A 
ATOM     60  H   UNL     1       7.536  10.629   9.430  1.00  0.00     0.167 HD
ATOM     61  C   UNL     1      10.080  11.748   8.754  1.00  0.00     0.074 A 
ATOM     62  C   UNL     1      11.392  11.934   8.168  1.00  0.00     0.031 C 
ATOM     63  C   UNL     1       9.488  12.636   9.593  1.00  0.00     0.037 A 
BRANCH  50  64
ATOM     64  C   UNL     1       3.857  10.971  11.574  1.00  0.00     0.058 A 
ATOM     65  C   UNL     1       3.513  10.258  12.735  1.00  0.00     0.135 A 
ATOM     66  C   UNL     1       3.006  12.013  11.175  1.00  0.00     0.135 A 
ATOM     67  F   UNL     1       4.277   9.236  13.154  1.00  0.00    -0.206 F 
ATOM     68  C   UNL     1       2.351  10.539  13.447  1.00  0.00     0.059 A 
ATOM     69  C   UNL     1       1.856  12.335  11.891  1.00  0.00     0.059 A 
ATOM     70  F   UNL     1       3.281  12.726  10.071  1.00  0.00    -0.206 F 
ATOM     71  C   UNL     1       1.528  11.580  13.016  1.00  0.00     0.060 A 
BRANCH  71  72
ATOM     72  S   UNL     1       0.027  11.934  13.953  1.00  0.00     0.124 S 
ATOM     73  O   UNL     1      -0.823  10.808  13.578  1.00  0.00    -0.237 OA
ATOM     74  O   UNL     1       0.511  11.932  15.330  1.00  0.00    -0.237 OA
ATOM     75  O   UNL     1      -0.394  13.235  13.442  1.00  0.00    -0.744 OA
ENDBRANCH  71  72
ENDBRANCH  50  64
BRANCH  51  76
ATOM     76  C   UNL     1      11.737   8.384   5.886  1.00  0.00     0.058 A 
ATOM     77  C   UNL     1      12.989   8.082   6.443  1.00  0.00     0.135 A 
ATOM     78  C   UNL     1      11.609   8.305   4.491  1.00  0.00     0.135 A 
ATOM     79  F   UNL     1      13.163   8.147   7.772  1.00  0.00    -0.206 F 
ATOM     80  C   UNL     1      14.075   7.728   5.651  1.00  0.00     0.059 A 
ATOM     81  C   UNL     1      12.675   7.929   3.678  1.00  0.00     0.059 A 
ATOM     82  F   UNL     1      10.428   8.566   3.908  1.00  0.00    -0.206 F 
ATOM     83  C   UNL     1      13.907   7.650   4.267  1.00  0.00     0.060 A 
BRANCH  83  84
ATOM     84  S   UNL     1      15.310   7.131   3.255  1.00  0.00     0.124 S 
ATOM     85  O   UNL     1      16.173   8.305   3.325  1.00  0.00    -0.237 OA
ATOM     86  O   UNL     1      15.781   5.948   3.969  1.00  0.00    -0.237 OA
ATOM     87  O   UNL     1      14.705   6.868   1.953  1.00  0.00    -0.744 OA
ENDBRANCH  83  84
ENDBRANCH  51  76
BRANCH  63  88
ATOM     88  C   UNL     1      10.278  13.857   9.972  1.00  0.00     0.058 A 
ATOM     89  C   UNL     1      10.494  14.910   9.071  1.00  0.00     0.135 A 
ATOM     90  C   UNL     1      10.774  13.995  11.279  1.00  0.00     0.135 A 
ATOM     91  F   UNL     1      10.043  14.823   7.809  1.00  0.00    -0.206 F 
ATOM     92  C   UNL     1      11.198  16.049   9.445  1.00  0.00     0.059 A 
ATOM     93  C   UNL     1      11.455  15.138  11.683  1.00  0.00     0.059 A 
ATOM     94  F   UNL     1      10.581  13.021  12.183  1.00  0.00    -0.206 F 
ATOM     95  C   UNL     1      11.674  16.154  10.754  1.00  0.00     0.060 A 
BRANCH  95  96
ATOM     96  S   UNL     1      12.560  17.650  11.235  1.00  0.00     0.124 S 
ATOM     97  O   UNL     1      13.843  17.458  10.567  1.00  0.00    -0.237 OA
ATOM     98  O   UNL     1      11.712  18.705  10.688  1.00  0.00    -0.237 OA
ATOM     99  O   UNL     1      12.593  17.572  12.692  1.00  0.00    -0.744 OA
ENDBRANCH  95  96
ENDBRANCH  63  88
ENDBRANCH  37  38
ENDBRANCH  29  32
ENDBRANCH  27  28
ENDBRANCH  26  27
ENDBRANCH   1  26
TORSDOF 17
