REMARK SMILES CC1(C)S[C@H](c2ccc(-c3ccccc3)o2)[NH2+][C@H]1C(=O)NCCCCNC(=O)c1ccc(-c2c3nc(c(-c4c(F)cc(S(=O)(=O)[O-])cc4F)c4ccc([nH]4)c(-c4c(F)cc(S(=O)(=O)[O-])cc4F)c4nc(c(-c5c(F)cc(S(=O)(=O)[O-])cc5F)c5ccc2[nH]5)C=C4)C=C3)cc1
REMARK SMILES IDX 24 1 23 2 22 3 21 4 19 5 20 6 18 8 1 9 2 10 3 11 4 12 5 13
REMARK SMILES IDX 17 14 6 17 7 18 16 19 8 20 9 21 10 22 11 23 15 24 12 25
REMARK SMILES IDX 14 26 13 27 25 28 26 29 27 30 28 32 29 33 30 34 94 35 31 36
REMARK SMILES IDX 93 37 32 38 33 39 34 40 87 41 35 42 92 43 86 44 88 45 36 46
REMARK SMILES IDX 91 47 85 48 84 49 37 51 71 52 50 53 70 54 51 55 54 56 69 57
REMARK SMILES IDX 89 58 52 59 53 60 68 62 90 63 55 64 38 65 39 66 48 67 40 68
REMARK SMILES IDX 41 69 47 70 49 71 42 72 43 73 44 74 45 75 46 76 72 77 73 78
REMARK SMILES IDX 82 79 74 80 75 81 81 82 83 83 76 84 77 85 78 86 79 87 80 88
REMARK SMILES IDX 56 89 57 90 66 91 58 92 59 93 65 94 67 95 60 96 61 97 62 98
REMARK SMILES IDX 63 99 64 100
REMARK H PARENT 21 7 17 15 17 16 26 31 88 50 54 61
REMARK Flexibility Score: inf
ROOT
ATOM      1  C   UNL     1       2.134   3.196   3.868  1.00  0.00     0.023 C 
ENDROOT
BRANCH   1   2
ATOM      2  C   UNL     1       1.524   1.958   3.225  1.00  0.00     0.023 C 
BRANCH   2   3
ATOM      3  C   UNL     1       0.305   2.214   2.337  1.00  0.00     0.116 C 
BRANCH   3   4
ATOM      4  N   UNL     1       0.666   2.831   1.073  1.00  0.00    -0.351 N 
ATOM      5  C   UNL     1       0.610   2.421  -0.226  1.00  0.00     0.279 C 
ATOM      6  O   UNL     1       1.121   3.185  -1.055  1.00  0.00    -0.268 OA
ATOM      7  H   UNL     1       1.029   3.740   1.176  1.00  0.00     0.163 HD
BRANCH   5   8
ATOM      8  C   UNL     1       0.011   1.076  -0.697  1.00  0.00     0.289 C 
ATOM      9  C   UNL     1       1.768  -0.269   0.736  1.00  0.00     0.030 C 
ATOM     10  C   UNL     1       0.948  -0.143  -0.542  1.00  0.00     0.078 C 
ATOM     11  C   UNL     1       1.897  -0.256  -1.740  1.00  0.00     0.030 C 
ATOM     12  S   UNL     1      -0.191  -1.562  -0.540  1.00  0.00    -0.078 SA
ATOM     13  C   UNL     1      -1.691  -0.564  -0.333  1.00  0.00     0.311 C 
ATOM     14  N   UNL     1      -1.350   0.845  -0.167  1.00  0.00    -0.317 N 
ATOM     15  H   UNL     1      -1.378   1.089   0.823  1.00  0.00     0.348 HD
ATOM     16  H   UNL     1      -2.020   1.424  -0.673  1.00  0.00     0.348 HD
BRANCH  13  17
ATOM     17  C   UNL     1      -2.635  -0.873  -1.451  1.00  0.00     0.172 A 
ATOM     18  C   UNL     1      -3.418  -1.990  -1.680  1.00  0.00     0.054 A 
ATOM     19  O   UNL     1      -2.782   0.013  -2.486  1.00  0.00    -0.454 OA
ATOM     20  C   UNL     1      -4.087  -1.773  -2.900  1.00  0.00     0.051 A 
ATOM     21  C   UNL     1      -3.684  -0.535  -3.355  1.00  0.00     0.134 A 
BRANCH  21  22
ATOM     22  C   UNL     1      -4.042   0.245  -4.529  1.00  0.00     0.017 A 
ATOM     23  C   UNL     1      -3.074   0.925  -5.276  1.00  0.00     0.012 A 
ATOM     24  C   UNL     1      -5.376   0.276  -4.962  1.00  0.00     0.012 A 
ATOM     25  C   UNL     1      -3.431   1.605  -6.445  1.00  0.00     0.001 A 
ATOM     26  C   UNL     1      -5.736   0.965  -6.121  1.00  0.00     0.001 A 
ATOM     27  C   UNL     1      -4.761   1.622  -6.867  1.00  0.00     0.000 A 
ENDBRANCH  21  22
ENDBRANCH  13  17
ENDBRANCH   5   8
ENDBRANCH   3   4
ENDBRANCH   2   3
ENDBRANCH   1   2
BRANCH   1  28
ATOM     28  C   UNL     1       1.207   3.931   4.821  1.00  0.00     0.116 C 
BRANCH  28  29
ATOM     29  N   UNL     1       0.701   3.082   5.891  1.00  0.00    -0.352 N 
ATOM     30  C   UNL     1       0.683   3.321   7.246  1.00  0.00     0.251 C 
ATOM     31  H   UNL     1       0.319   2.220   5.606  1.00  0.00     0.163 HD
ATOM     32  O   UNL     1       0.350   2.439   8.025  1.00  0.00    -0.269 OA
BRANCH  30  33
ATOM     33  C   UNL     1       1.102   4.649   7.738  1.00  0.00     0.039 A 
ATOM     34  C   UNL     1       2.010   4.731   8.795  1.00  0.00     0.014 A 
ATOM     35  C   UNL     1       0.635   5.805   7.109  1.00  0.00     0.014 A 
ATOM     36  C   UNL     1       2.500   5.980   9.179  1.00  0.00     0.010 A 
ATOM     37  C   UNL     1       1.202   7.031   7.422  1.00  0.00     0.010 A 
ATOM     38  C   UNL     1       2.125   7.135   8.473  1.00  0.00    -0.014 A 
BRANCH  38  39
ATOM     39  C   UNL     1       2.638   8.476   8.841  1.00  0.00     0.031 A 
ATOM     40  C   UNL     1       1.667   9.538   9.284  1.00  0.00     0.074 A 
ATOM     41  C   UNL     1       3.948   8.760   8.703  1.00  0.00     0.049 A 
ATOM     42  N   UNL     1       1.883  10.801   9.542  1.00  0.00    -0.248 NA
ATOM     43  C   UNL     1       0.256   9.134   9.410  1.00  0.00     0.031 C 
ATOM     44  C   UNL     1       4.973   7.831   8.222  1.00  0.00     0.029 A 
ATOM     45  N   UNL     1       4.640   9.919   8.943  1.00  0.00    -0.354 N 
ATOM     46  C   UNL     1       0.636  11.345   9.828  1.00  0.00     0.074 A 
ATOM     47  C   UNL     1      -0.339  10.292   9.650  1.00  0.00     0.031 C 
ATOM     48  C   UNL     1       6.166   8.449   8.229  1.00  0.00     0.029 A 
ATOM     49  C   UNL     1       5.986   9.824   8.683  1.00  0.00     0.049 A 
ATOM     50  H   UNL     1       4.212  10.743   9.271  1.00  0.00     0.167 HD
ATOM     51  C   UNL     1       0.332  12.600  10.234  1.00  0.00     0.037 A 
ATOM     52  C   UNL     1       6.963  10.745   8.801  1.00  0.00     0.037 A 
ATOM     53  C   UNL     1       1.315  13.624  10.462  1.00  0.00     0.049 A 
ATOM     54  C   UNL     1       6.610  12.118   9.306  1.00  0.00     0.074 A 
ATOM     55  C   UNL     1       1.127  14.911  10.933  1.00  0.00     0.029 A 
ATOM     56  N   UNL     1       2.678  13.469  10.248  1.00  0.00    -0.354 N 
ATOM     57  N   UNL     1       5.431  12.602   9.622  1.00  0.00    -0.248 NA
ATOM     58  C   UNL     1       7.718  13.065   9.485  1.00  0.00     0.031 C 
ATOM     59  C   UNL     1       2.375  15.543  10.981  1.00  0.00     0.029 A 
ATOM     60  C   UNL     1       3.343  14.636  10.577  1.00  0.00     0.049 A 
ATOM     61  H   UNL     1       3.107  12.649   9.912  1.00  0.00     0.167 HD
ATOM     62  C   UNL     1       5.660  13.899  10.067  1.00  0.00     0.074 A 
ATOM     63  C   UNL     1       7.090  14.120   9.987  1.00  0.00     0.031 C 
ATOM     64  C   UNL     1       4.771  14.824  10.505  1.00  0.00     0.037 A 
BRANCH  51  65
ATOM     65  C   UNL     1      -1.118  12.918  10.474  1.00  0.00     0.058 A 
ATOM     66  C   UNL     1      -1.826  12.360  11.551  1.00  0.00     0.135 A 
ATOM     67  C   UNL     1      -1.808  13.795   9.622  1.00  0.00     0.135 A 
ATOM     68  F   UNL     1      -1.220  11.499  12.385  1.00  0.00    -0.206 F 
ATOM     69  C   UNL     1      -3.175  12.628  11.752  1.00  0.00     0.059 A 
ATOM     70  C   UNL     1      -3.152  14.101   9.822  1.00  0.00     0.059 A 
ATOM     71  F   UNL     1      -1.182  14.355   8.575  1.00  0.00    -0.206 F 
ATOM     72  C   UNL     1      -3.831  13.497  10.880  1.00  0.00     0.060 A 
BRANCH  72  73
ATOM     73  S   UNL     1      -5.584  13.832  11.151  1.00  0.00     0.124 S 
ATOM     74  O   UNL     1      -6.193  12.596  10.668  1.00  0.00    -0.237 OA
ATOM     75  O   UNL     1      -5.643  14.044  12.594  1.00  0.00    -0.237 OA
ATOM     76  O   UNL     1      -5.833  15.016  10.335  1.00  0.00    -0.744 OA
ENDBRANCH  72  73
ENDBRANCH  51  65
BRANCH  52  77
ATOM     77  C   UNL     1       8.369  10.384   8.482  1.00  0.00     0.058 A 
ATOM     78  C   UNL     1       9.320  10.229   9.502  1.00  0.00     0.135 A 
ATOM     79  C   UNL     1       8.790  10.173   7.160  1.00  0.00     0.135 A 
ATOM     80  F   UNL     1       8.966  10.423  10.782  1.00  0.00    -0.206 F 
ATOM     81  C   UNL     1      10.641   9.897   9.225  1.00  0.00     0.059 A 
ATOM     82  C   UNL     1      10.101   9.817   6.858  1.00  0.00     0.059 A 
ATOM     83  F   UNL     1       7.915  10.289   6.149  1.00  0.00    -0.206 F 
ATOM     84  C   UNL     1      11.023   9.693   7.898  1.00  0.00     0.060 A 
BRANCH  84  85
ATOM     85  S   UNL     1      12.730   9.216   7.551  1.00  0.00     0.124 S 
ATOM     86  O   UNL     1      13.434  10.477   7.752  1.00  0.00    -0.237 OA
ATOM     87  O   UNL     1      12.971   8.183   8.554  1.00  0.00    -0.237 OA
ATOM     88  O   UNL     1      12.670   8.737   6.173  1.00  0.00    -0.744 OA
ENDBRANCH  84  85
ENDBRANCH  52  77
BRANCH  64  89
ATOM     89  C   UNL     1       5.322  16.139  10.978  1.00  0.00     0.058 A 
ATOM     90  C   UNL     1       5.805  17.102  10.080  1.00  0.00     0.135 A 
ATOM     91  C   UNL     1       5.320  16.454  12.346  1.00  0.00     0.135 A 
ATOM     92  F   UNL     1       5.831  16.846   8.763  1.00  0.00    -0.206 F 
ATOM     93  C   UNL     1       6.295  18.325  10.526  1.00  0.00     0.059 A 
ATOM     94  C   UNL     1       5.781  17.680  12.812  1.00  0.00     0.059 A 
ATOM     95  F   UNL     1       4.855  15.570  13.243  1.00  0.00    -0.206 F 
ATOM     96  C   UNL     1       6.280  18.604  11.894  1.00  0.00     0.060 A 
BRANCH  96  97
ATOM     97  S   UNL     1       6.894  20.204  12.460  1.00  0.00     0.124 S 
ATOM     98  O   UNL     1       8.338  20.014  12.362  1.00  0.00    -0.237 OA
ATOM     99  O   UNL     1       6.308  21.126  11.493  1.00  0.00    -0.237 OA
ATOM    100  O   UNL     1       6.365  20.309  13.817  1.00  0.00    -0.744 OA
ENDBRANCH  96  97
ENDBRANCH  64  89
ENDBRANCH  38  39
ENDBRANCH  30  33
ENDBRANCH  28  29
ENDBRANCH   1  28
TORSDOF 16
