REMARK SMILES Cc1ccc(NC(=O)C[C@H]2SC[C@H](C(=O)NCCCCNC(=O)c3ccc(-c4c5nc(c(-c6c(F)cc(S(=O)(=O)[O-])cc6F)c6ccc([nH]6)c(-c6c(F)cc(S(=O)(=O)[O-])cc6F)c6nc(c(-c7c(F)cc(S(=O)(=O)[O-])cc7F)c7ccc4[nH]7)C=C6)C=C5)cc3)NC2=O)cc1
REMARK SMILES IDX 18 1 17 2 16 3 14 4 15 5 13 7 10 8 11 9 91 10 12 11 90 12
REMARK SMILES IDX 92 13 9 15 7 16 6 17 8 19 5 20 1 21 2 22 3 23 94 24 4 25
REMARK SMILES IDX 93 26 19 27 20 28 21 29 22 30 23 32 24 33 25 34 89 35 26 36
REMARK SMILES IDX 88 37 27 38 28 39 29 40 82 41 30 42 87 43 81 44 83 45 31 46
REMARK SMILES IDX 86 47 80 48 79 49 32 51 66 52 45 53 65 54 46 55 49 56 64 57
REMARK SMILES IDX 84 58 47 59 48 60 63 62 85 63 50 64 33 65 34 66 43 67 35 68
REMARK SMILES IDX 36 69 42 70 44 71 37 72 38 73 39 74 40 75 41 76 67 77 68 78
REMARK SMILES IDX 77 79 69 80 70 81 76 82 78 83 71 84 72 85 73 86 74 87 75 88
REMARK SMILES IDX 51 89 52 90 61 91 53 92 54 93 60 94 62 95 55 96 56 97 57 98
REMARK SMILES IDX 58 99 59 100
REMARK H PARENT 16 6 90 14 6 18 21 31 83 50 49 61
REMARK Flexibility Score: inf
ROOT
ATOM      1  C   UNL     1      -7.366  -2.730  -1.087  1.00  0.00     0.023 C 
ENDROOT
BRANCH   1   2
ATOM      2  C   UNL     1      -6.522  -3.984  -1.335  1.00  0.00     0.116 C 
BRANCH   2   3
ATOM      3  N   UNL     1      -6.573  -4.422  -2.717  1.00  0.00    -0.354 N 
ATOM      4  C   UNL     1      -5.684  -4.258  -3.733  1.00  0.00     0.243 C 
ATOM      5  O   UNL     1      -6.024  -4.659  -4.852  1.00  0.00    -0.273 OA
ATOM      6  H   UNL     1      -7.387  -4.921  -2.960  1.00  0.00     0.163 HD
BRANCH   4   7
ATOM      7  C   UNL     1      -4.296  -3.622  -3.531  1.00  0.00     0.181 C 
ATOM      8  C   UNL     1      -1.948  -2.628  -1.885  1.00  0.00     0.145 C 
ATOM      9  S   UNL     1      -2.683  -1.417  -3.081  1.00  0.00    -0.145 SA
ATOM     10  C   UNL     1      -2.132  -4.053  -2.430  1.00  0.00     0.234 C 
ATOM     11  C   UNL     1      -4.360  -2.143  -3.161  1.00  0.00     0.105 C 
ATOM     12  N   UNL     1      -3.432  -4.442  -2.684  1.00  0.00    -0.343 N 
ATOM     13  O   UNL     1      -1.233  -4.869  -2.599  1.00  0.00    -0.274 OA
ATOM     14  H   UNL     1      -3.779  -5.277  -2.294  1.00  0.00     0.164 HD
BRANCH   8  15
ATOM     15  C   UNL     1      -0.544  -2.162  -1.456  1.00  0.00     0.124 C 
BRANCH  15  16
ATOM     16  C   UNL     1       0.600  -3.161  -1.303  1.00  0.00     0.226 C 
ATOM     17  N   UNL     1       0.578  -4.200  -0.414  1.00  0.00    -0.326 N 
ATOM     18  H   UNL     1       1.415  -4.712  -0.328  1.00  0.00     0.169 HD
ATOM     19  O   UNL     1       1.618  -3.024  -1.994  1.00  0.00    -0.275 OA
BRANCH  17  20
ATOM     20  C   UNL     1      -0.486  -4.624   0.384  1.00  0.00     0.041 A 
ATOM     21  C   UNL     1      -4.460  -5.718   1.249  1.00  0.00     0.044 C 
ATOM     22  C   UNL     1      -3.014  -5.405   1.123  1.00  0.00    -0.051 A 
ATOM     23  C   UNL     1      -2.572  -4.120   1.443  1.00  0.00     0.005 A 
ATOM     24  C   UNL     1      -2.112  -6.366   0.666  1.00  0.00     0.005 A 
ATOM     25  C   UNL     1      -1.294  -3.731   1.079  1.00  0.00     0.026 A 
ATOM     26  C   UNL     1      -0.827  -5.976   0.312  1.00  0.00     0.026 A 
ENDBRANCH  17  20
ENDBRANCH  15  16
ENDBRANCH   8  15
ENDBRANCH   4   7
ENDBRANCH   2   3
ENDBRANCH   1   2
BRANCH   1  27
ATOM     27  C   UNL     1      -8.866  -2.867  -1.340  1.00  0.00     0.023 C 
BRANCH  27  28
ATOM     28  C   UNL     1      -9.597  -3.832  -0.417  1.00  0.00     0.116 C 
BRANCH  28  29
ATOM     29  N   UNL     1     -10.350  -3.212   0.671  1.00  0.00    -0.352 N 
ATOM     30  C   UNL     1     -11.383  -3.744   1.433  1.00  0.00     0.251 C 
ATOM     31  H   UNL     1     -10.090  -2.289   0.895  1.00  0.00     0.163 HD
ATOM     32  O   UNL     1     -12.147  -3.055   2.103  1.00  0.00    -0.269 OA
BRANCH  30  33
ATOM     33  C   UNL     1     -11.455  -5.210   1.581  1.00  0.00     0.039 A 
ATOM     34  C   UNL     1     -11.309  -5.706   2.886  1.00  0.00     0.014 A 
ATOM     35  C   UNL     1     -11.210  -6.007   0.473  1.00  0.00     0.014 A 
ATOM     36  C   UNL     1     -10.627  -6.889   3.069  1.00  0.00     0.010 A 
ATOM     37  C   UNL     1     -10.348  -7.048   0.644  1.00  0.00     0.010 A 
ATOM     38  C   UNL     1     -10.044  -7.452   1.942  1.00  0.00    -0.014 A 
BRANCH  38  39
ATOM     39  C   UNL     1      -9.196  -8.609   1.990  1.00  0.00     0.031 A 
ATOM     40  C   UNL     1      -9.931  -9.870   1.892  1.00  0.00     0.074 A 
ATOM     41  C   UNL     1      -7.870  -8.385   2.022  1.00  0.00     0.049 A 
ATOM     42  N   UNL     1      -9.642 -10.949   2.515  1.00  0.00    -0.248 NA
ATOM     43  C   UNL     1     -11.214  -9.955   1.181  1.00  0.00     0.031 C 
ATOM     44  C   UNL     1      -6.760  -9.307   1.867  1.00  0.00     0.029 A 
ATOM     45  N   UNL     1      -7.281  -7.199   2.469  1.00  0.00    -0.354 N 
ATOM     46  C   UNL     1     -10.408 -11.932   1.922  1.00  0.00     0.074 A 
ATOM     47  C   UNL     1     -11.517 -11.243   1.327  1.00  0.00     0.031 C 
ATOM     48  C   UNL     1      -5.691  -8.790   2.502  1.00  0.00     0.029 A 
ATOM     49  C   UNL     1      -6.122  -7.557   3.157  1.00  0.00     0.049 A 
ATOM     50  H   UNL     1      -7.619  -6.286   2.325  1.00  0.00     0.167 HD
ATOM     51  C   UNL     1      -9.848 -13.159   1.733  1.00  0.00     0.037 A 
ATOM     52  C   UNL     1      -6.020  -7.292   4.489  1.00  0.00     0.037 A 
ATOM     53  C   UNL     1      -8.482 -13.133   2.276  1.00  0.00     0.049 A 
ATOM     54  C   UNL     1      -6.035  -8.603   5.229  1.00  0.00     0.074 A 
ATOM     55  C   UNL     1      -7.247 -12.957   1.670  1.00  0.00     0.029 A 
ATOM     56  N   UNL     1      -8.296 -12.842   3.626  1.00  0.00    -0.354 N 
ATOM     57  N   UNL     1      -6.722  -9.652   4.841  1.00  0.00    -0.248 NA
ATOM     58  C   UNL     1      -5.086  -8.900   6.295  1.00  0.00     0.031 C 
ATOM     59  C   UNL     1      -6.334 -12.497   2.661  1.00  0.00     0.029 A 
ATOM     60  C   UNL     1      -7.019 -12.363   3.860  1.00  0.00     0.049 A 
ATOM     61  H   UNL     1      -8.982 -12.963   4.322  1.00  0.00     0.167 HD
ATOM     62  C   UNL     1      -6.241 -10.760   5.497  1.00  0.00     0.074 A 
ATOM     63  C   UNL     1      -5.239 -10.230   6.409  1.00  0.00     0.031 C 
ATOM     64  C   UNL     1      -6.590 -12.054   5.216  1.00  0.00     0.037 A 
BRANCH  51  65
ATOM     65  C   UNL     1     -10.375 -14.207   0.768  1.00  0.00     0.058 A 
ATOM     66  C   UNL     1      -9.513 -15.198   0.252  1.00  0.00     0.135 A 
ATOM     67  C   UNL     1     -11.708 -14.304   0.307  1.00  0.00     0.135 A 
ATOM     68  F   UNL     1      -8.232 -15.278   0.633  1.00  0.00    -0.206 F 
ATOM     69  C   UNL     1      -9.924 -16.166  -0.668  1.00  0.00     0.059 A 
ATOM     70  C   UNL     1     -12.131 -15.229  -0.652  1.00  0.00     0.059 A 
ATOM     71  F   UNL     1     -12.691 -13.554   0.816  1.00  0.00    -0.206 F 
ATOM     72  C   UNL     1     -11.233 -16.170  -1.124  1.00  0.00     0.060 A 
BRANCH  72  73
ATOM     73  S   UNL     1     -11.760 -17.461  -2.265  1.00  0.00     0.124 S 
ATOM     74  O   UNL     1     -10.854 -17.261  -3.392  1.00  0.00    -0.237 OA
ATOM     75  O   UNL     1     -11.539 -18.668  -1.476  1.00  0.00    -0.237 OA
ATOM     76  O   UNL     1     -13.159 -17.134  -2.528  1.00  0.00    -0.744 OA
ENDBRANCH  72  73
ENDBRANCH  51  65
BRANCH  52  77
ATOM     77  C   UNL     1      -6.500  -5.925   4.880  1.00  0.00     0.058 A 
ATOM     78  C   UNL     1      -5.641  -4.847   4.575  1.00  0.00     0.135 A 
ATOM     79  C   UNL     1      -7.856  -5.602   5.039  1.00  0.00     0.135 A 
ATOM     80  F   UNL     1      -4.320  -5.058   4.462  1.00  0.00    -0.206 F 
ATOM     81  C   UNL     1      -6.116  -3.576   4.246  1.00  0.00     0.059 A 
ATOM     82  C   UNL     1      -8.361  -4.328   4.716  1.00  0.00     0.059 A 
ATOM     83  F   UNL     1      -8.725  -6.551   5.413  1.00  0.00    -0.206 F 
ATOM     84  C   UNL     1      -7.486  -3.340   4.263  1.00  0.00     0.060 A 
BRANCH  84  85
ATOM     85  S   UNL     1      -8.071  -1.774   3.569  1.00  0.00     0.124 S 
ATOM     86  O   UNL     1      -7.483  -0.795   4.473  1.00  0.00    -0.237 OA
ATOM     87  O   UNL     1      -7.500  -1.812   2.225  1.00  0.00    -0.237 OA
ATOM     88  O   UNL     1      -9.522  -1.892   3.612  1.00  0.00    -0.744 OA
ENDBRANCH  84  85
ENDBRANCH  52  77
BRANCH  64  89
ATOM     89  C   UNL     1      -6.477 -13.206   6.195  1.00  0.00     0.058 A 
ATOM     90  C   UNL     1      -6.352 -13.035   7.584  1.00  0.00     0.135 A 
ATOM     91  C   UNL     1      -6.699 -14.543   5.769  1.00  0.00     0.135 A 
ATOM     92  F   UNL     1      -6.261 -11.822   8.145  1.00  0.00    -0.206 F 
ATOM     93  C   UNL     1      -6.370 -14.106   8.472  1.00  0.00     0.059 A 
ATOM     94  C   UNL     1      -6.813 -15.612   6.647  1.00  0.00     0.059 A 
ATOM     95  F   UNL     1      -6.847 -14.868   4.477  1.00  0.00    -0.206 F 
ATOM     96  C   UNL     1      -6.611 -15.388   7.996  1.00  0.00     0.060 A 
BRANCH  96  97
ATOM     97  S   UNL     1      -6.700 -16.751   9.160  1.00  0.00     0.124 S 
ATOM     98  O   UNL     1      -5.286 -17.058   9.347  1.00  0.00    -0.237 OA
ATOM     99  O   UNL     1      -7.374 -16.145  10.305  1.00  0.00    -0.237 OA
ATOM    100  O   UNL     1      -7.478 -17.757   8.444  1.00  0.00    -0.744 OA
ENDBRANCH  96  97
ENDBRANCH  64  89
ENDBRANCH  38  39
ENDBRANCH  30  33
ENDBRANCH  28  29
ENDBRANCH  27  28
ENDBRANCH   1  27
TORSDOF 17
