REMARK SMILES Cc1ccccc1-c1nc(CC(=O)NCCCCNC(=O)c2ccc(-c3c4nc(c(-c5c(F)cc(S(=O)(=O)[O-])cc5F)c5ccc([nH]5)c(-c5c(F)cc(S(=O)(=O)[O-])cc5F)c5nc(c(-c6c(F)cc(S(=O)(=O)[O-])cc6F)c6ccc3[nH]6)C=C5)C=C4)cc2)cs1
REMARK SMILES IDX 17 1 16 2 15 3 14 4 12 5 13 6 11 8 10 9 8 10 9 11 89 12
REMARK SMILES IDX 88 13 7 14 1 15 2 16 3 17 4 18 6 19 5 20 18 21 19 22 20 23
REMARK SMILES IDX 21 25 22 26 23 27 87 28 24 29 86 30 25 31 26 32 27 33 80 34
REMARK SMILES IDX 28 35 85 36 79 37 81 38 29 39 84 40 78 41 77 42 30 44 64 45
REMARK SMILES IDX 43 46 63 47 44 48 47 49 62 50 82 51 45 52 46 53 61 55 83 56
REMARK SMILES IDX 48 57 31 58 32 59 41 60 33 61 34 62 40 63 42 64 35 65 36 66
REMARK SMILES IDX 37 67 38 68 39 69 65 70 66 71 75 72 67 73 68 74 74 75 76 76
REMARK SMILES IDX 69 77 70 78 71 79 72 80 73 81 49 82 50 83 59 84 51 85 52 86
REMARK SMILES IDX 58 87 60 88 53 89 54 90 55 91 56 92 57 93
REMARK H PARENT 14 7 19 24 81 43 47 54
REMARK Flexibility Score: inf
ROOT
ATOM      1  C   UNL     1      -1.405   5.739  -2.343  1.00  0.00     0.023 C 
ENDROOT
BRANCH   1   2
ATOM      2  C   UNL     1      -0.471   4.529  -2.430  1.00  0.00     0.023 C 
BRANCH   2   3
ATOM      3  C   UNL     1       0.777   4.711  -3.306  1.00  0.00     0.116 C 
BRANCH   3   4
ATOM      4  N   UNL     1       1.575   5.871  -2.929  1.00  0.00    -0.356 N 
ATOM      5  C   UNL     1       2.685   5.942  -2.137  1.00  0.00     0.226 C 
ATOM      6  O   UNL     1       3.162   7.053  -1.886  1.00  0.00    -0.275 OA
ATOM      7  H   UNL     1       1.268   6.730  -3.300  1.00  0.00     0.163 HD
BRANCH   5   8
ATOM      8  C   UNL     1       3.328   4.681  -1.597  1.00  0.00     0.157 C 
BRANCH   8   9
ATOM      9  C   UNL     1       2.502   4.047  -0.533  1.00  0.00     0.061 A 
ATOM     10  C   UNL     1       1.203   2.402   0.199  1.00  0.00     0.123 A 
ATOM     11  N   UNL     1       2.033   2.763  -0.757  1.00  0.00    -0.241 NA
ATOM     12  S   UNL     1       1.061   3.522   1.499  1.00  0.00    -0.122 S 
ATOM     13  C   UNL     1       2.105   4.601   0.670  1.00  0.00     0.091 A 
BRANCH  10  14
ATOM     14  C   UNL     1       0.433   1.156   0.193  1.00  0.00     0.013 A 
ATOM     15  C   UNL     1       2.561  -0.265   0.150  1.00  0.00     0.045 C 
ATOM     16  C   UNL     1       1.064  -0.104   0.167  1.00  0.00    -0.041 A 
ATOM     17  C   UNL     1       0.274  -1.264   0.076  1.00  0.00     0.004 A 
ATOM     18  C   UNL     1      -1.118  -1.180   0.017  1.00  0.00     0.000 A 
ATOM     19  C   UNL     1      -0.972   1.222   0.127  1.00  0.00     0.011 A 
ATOM     20  C   UNL     1      -1.741   0.062   0.040  1.00  0.00     0.001 A 
ENDBRANCH  10  14
ENDBRANCH   8   9
ENDBRANCH   5   8
ENDBRANCH   3   4
ENDBRANCH   2   3
ENDBRANCH   1   2
BRANCH   1  21
ATOM     21  C   UNL     1      -2.055   6.092  -3.673  1.00  0.00     0.116 C 
BRANCH  21  22
ATOM     22  N   UNL     1      -3.501   5.941  -3.684  1.00  0.00    -0.352 N 
ATOM     23  C   UNL     1      -4.370   6.234  -4.728  1.00  0.00     0.251 C 
ATOM     24  H   UNL     1      -3.910   5.593  -2.859  1.00  0.00     0.163 HD
ATOM     25  O   UNL     1      -5.571   6.223  -4.598  1.00  0.00    -0.269 OA
BRANCH  23  26
ATOM     26  C   UNL     1      -3.747   6.474  -6.052  1.00  0.00     0.039 A 
ATOM     27  C   UNL     1      -3.918   5.490  -7.031  1.00  0.00     0.014 A 
ATOM     28  C   UNL     1      -2.804   7.487  -6.206  1.00  0.00     0.014 A 
ATOM     29  C   UNL     1      -3.018   5.418  -8.092  1.00  0.00     0.010 A 
ATOM     30  C   UNL     1      -1.864   7.365  -7.214  1.00  0.00     0.010 A 
ATOM     31  C   UNL     1      -1.940   6.303  -8.129  1.00  0.00    -0.014 A 
BRANCH  31  32
ATOM     32  C   UNL     1      -0.795   6.145  -9.027  1.00  0.00     0.031 A 
ATOM     33  C   UNL     1      -0.584   7.090 -10.149  1.00  0.00     0.074 A 
ATOM     34  C   UNL     1       0.129   5.192  -8.777  1.00  0.00     0.049 A 
ATOM     35  N   UNL     1       0.241   6.907 -11.125  1.00  0.00    -0.248 NA
ATOM     36  C   UNL     1      -1.347   8.325 -10.271  1.00  0.00     0.031 C 
ATOM     37  C   UNL     1       1.478   5.104  -9.329  1.00  0.00     0.029 A 
ATOM     38  N   UNL     1      -0.065   3.966  -8.136  1.00  0.00    -0.354 N 
ATOM     39  C   UNL     1       0.311   8.076 -11.852  1.00  0.00     0.074 A 
ATOM     40  C   UNL     1      -0.730   8.912 -11.300  1.00  0.00     0.031 C 
ATOM     41  C   UNL     1       1.896   3.833  -9.249  1.00  0.00     0.029 A 
ATOM     42  C   UNL     1       0.776   3.035  -8.784  1.00  0.00     0.049 A 
ATOM     43  H   UNL     1      -0.670   3.786  -7.380  1.00  0.00     0.167 HD
ATOM     44  C   UNL     1       1.314   8.242 -12.766  1.00  0.00     0.037 A 
ATOM     45  C   UNL     1       0.243   1.970  -9.454  1.00  0.00     0.037 A 
ATOM     46  C   UNL     1       2.067   7.003 -12.966  1.00  0.00     0.049 A 
ATOM     47  C   UNL     1       0.490   1.973 -10.950  1.00  0.00     0.074 A 
ATOM     48  C   UNL     1       3.268   6.502 -12.489  1.00  0.00     0.029 A 
ATOM     49  N   UNL     1       1.428   5.936 -13.574  1.00  0.00    -0.354 N 
ATOM     50  N   UNL     1       1.148   2.900 -11.591  1.00  0.00    -0.248 NA
ATOM     51  C   UNL     1      -0.055   0.956 -11.854  1.00  0.00     0.031 C 
ATOM     52  C   UNL     1       3.312   5.105 -12.769  1.00  0.00     0.029 A 
ATOM     53  C   UNL     1       2.141   4.762 -13.418  1.00  0.00     0.049 A 
ATOM     54  H   UNL     1       0.572   6.005 -14.056  1.00  0.00     0.167 HD
ATOM     55  C   UNL     1       1.061   2.666 -12.937  1.00  0.00     0.074 A 
ATOM     56  C   UNL     1       0.325   1.423 -13.055  1.00  0.00     0.031 C 
ATOM     57  C   UNL     1       1.550   3.520 -13.879  1.00  0.00     0.037 A 
BRANCH  44  58
ATOM     58  C   UNL     1       1.753   9.593 -13.299  1.00  0.00     0.058 A 
ATOM     59  C   UNL     1       3.104   9.827 -13.639  1.00  0.00     0.135 A 
ATOM     60  C   UNL     1       0.918  10.720 -13.428  1.00  0.00     0.135 A 
ATOM     61  F   UNL     1       4.001   8.832 -13.675  1.00  0.00    -0.206 F 
ATOM     62  C   UNL     1       3.605  11.095 -13.946  1.00  0.00     0.059 A 
ATOM     63  C   UNL     1       1.403  12.010 -13.668  1.00  0.00     0.059 A 
ATOM     64  F   UNL     1      -0.415  10.608 -13.384  1.00  0.00    -0.206 F 
ATOM     65  C   UNL     1       2.756  12.191 -13.912  1.00  0.00     0.060 A 
BRANCH  65  66
ATOM     66  S   UNL     1       3.437  13.837 -14.191  1.00  0.00     0.124 S 
ATOM     67  O   UNL     1       4.533  13.885 -13.228  1.00  0.00    -0.237 OA
ATOM     68  O   UNL     1       3.826  13.770 -15.595  1.00  0.00    -0.237 OA
ATOM     69  O   UNL     1       2.315  14.723 -13.893  1.00  0.00    -0.744 OA
ENDBRANCH  65  66
ENDBRANCH  44  58
BRANCH  45  70
ATOM     70  C   UNL     1      -0.956   1.411  -8.772  1.00  0.00     0.058 A 
ATOM     71  C   UNL     1      -0.774   0.851  -7.492  1.00  0.00     0.135 A 
ATOM     72  C   UNL     1      -2.253   1.794  -9.137  1.00  0.00     0.135 A 
ATOM     73  F   UNL     1       0.448   0.454  -7.100  1.00  0.00    -0.206 F 
ATOM     74  C   UNL     1      -1.796   0.835  -6.551  1.00  0.00     0.059 A 
ATOM     75  C   UNL     1      -3.298   1.770  -8.213  1.00  0.00     0.059 A 
ATOM     76  F   UNL     1      -2.487   2.329 -10.344  1.00  0.00    -0.206 F 
ATOM     77  C   UNL     1      -3.036   1.360  -6.904  1.00  0.00     0.060 A 
BRANCH  77  78
ATOM     78  S   UNL     1      -4.223   1.676  -5.577  1.00  0.00     0.124 S 
ATOM     79  O   UNL     1      -4.432   0.339  -5.032  1.00  0.00    -0.237 OA
ATOM     80  O   UNL     1      -3.472   2.596  -4.725  1.00  0.00    -0.237 OA
ATOM     81  O   UNL     1      -5.361   2.256  -6.279  1.00  0.00    -0.744 OA
ENDBRANCH  77  78
ENDBRANCH  45  70
BRANCH  57  82
ATOM     82  C   UNL     1       1.487   3.214 -15.340  1.00  0.00     0.058 A 
ATOM     83  C   UNL     1       2.051   2.041 -15.865  1.00  0.00     0.135 A 
ATOM     84  C   UNL     1       0.978   4.146 -16.263  1.00  0.00     0.135 A 
ATOM     85  F   UNL     1       2.579   1.115 -15.048  1.00  0.00    -0.206 F 
ATOM     86  C   UNL     1       2.097   1.796 -17.235  1.00  0.00     0.059 A 
ATOM     87  C   UNL     1       1.043   3.939 -17.638  1.00  0.00     0.059 A 
ATOM     88  F   UNL     1       0.385   5.276 -15.845  1.00  0.00    -0.206 F 
ATOM     89  C   UNL     1       1.593   2.753 -18.115  1.00  0.00     0.060 A 
BRANCH  89  90
ATOM     90  S   UNL     1       1.692   2.468 -19.894  1.00  0.00     0.124 S 
ATOM     91  O   UNL     1       2.896   1.653 -20.026  1.00  0.00    -0.237 OA
ATOM     92  O   UNL     1       0.432   1.776 -20.147  1.00  0.00    -0.237 OA
ATOM     93  O   UNL     1       1.795   3.817 -20.441  1.00  0.00    -0.744 OA
ENDBRANCH  89  90
ENDBRANCH  57  82
ENDBRANCH  31  32
ENDBRANCH  23  26
ENDBRANCH  21  22
ENDBRANCH   1  21
TORSDOF 16
