REMARK SMILES O=C(NCCCCNC(=O)c1ccccc1C(=O)Nc1ccc(N2C(=O)[C@H]3[C@@H]4CC[C@@H](C4)[C@@H]3C2=O)cc1)c1ccc(-c2c3nc(c(-c4c(F)cc(S(=O)(=O)[O-])cc4F)c4ccc([nH]4)c(-c4c(F)cc(S(=O)(=O)[O-])cc4F)c4nc(c(-c5c(F)cc(S(=O)(=O)[O-])cc5F)c5ccc2[nH]5)C=C4)C=C3)cc1
REMARK SMILES IDX 5 1 4 2 3 3 1 4 2 5 38 7 39 8 103 9 40 10 102 11 41 12 42 13
REMARK SMILES IDX 43 14 96 15 44 16 101 17 95 18 97 19 45 20 100 21 94 22
REMARK SMILES IDX 93 23 46 25 80 26 59 27 79 28 60 29 63 30 78 31 98 32 61 33
REMARK SMILES IDX 62 34 77 36 99 37 64 38 47 39 48 40 57 41 49 42 50 43 56 44
REMARK SMILES IDX 58 45 51 46 52 47 53 48 54 49 55 50 81 51 82 52 91 53 83 54
REMARK SMILES IDX 84 55 90 56 92 57 85 58 86 59 87 60 88 61 89 62 65 63 66 64
REMARK SMILES IDX 75 65 67 66 68 67 74 68 76 69 69 70 70 71 71 72 72 73 73 74
REMARK SMILES IDX 6 75 7 76 8 77 9 78 10 80 11 81 12 82 16 83 13 84 15 85
REMARK SMILES IDX 14 86 17 87 18 88 19 89 20 91 21 92 37 93 22 94 36 95 23 96
REMARK SMILES IDX 24 97 25 98 34 99 26 100 27 101 33 102 35 103 28 104 31 105
REMARK SMILES IDX 29 106 32 107 30 108
REMARK H PARENT 3 6 97 24 63 35 8 79 19 90
REMARK Flexibility Score: inf
ROOT
ATOM      1  C   UNL     1       4.308  -2.332   1.408  1.00  0.00     0.023 C 
ENDROOT
BRANCH   1   2
ATOM      2  C   UNL     1       4.112  -1.531   0.123  1.00  0.00     0.116 C 
BRANCH   2   3
ATOM      3  N   UNL     1       2.729  -1.152  -0.101  1.00  0.00    -0.352 N 
ATOM      4  O   UNL     1       0.884   0.128  -0.069  1.00  0.00    -0.269 OA
ATOM      5  C   UNL     1       2.110   0.070   0.007  1.00  0.00     0.251 C 
ATOM      6  H   UNL     1       2.138  -1.890  -0.376  1.00  0.00     0.163 HD
BRANCH   5   7
ATOM      7  C   UNL     1       2.888   1.310   0.238  1.00  0.00     0.039 A 
ATOM      8  C   UNL     1       4.050   1.595  -0.483  1.00  0.00     0.014 A 
ATOM      9  C   UNL     1       2.401   2.242   1.160  1.00  0.00     0.014 A 
ATOM     10  C   UNL     1       4.789   2.743  -0.193  1.00  0.00     0.010 A 
ATOM     11  C   UNL     1       3.105   3.428   1.399  1.00  0.00     0.010 A 
ATOM     12  C   UNL     1       4.322   3.676   0.747  1.00  0.00    -0.014 A 
BRANCH  12  13
ATOM     13  C   UNL     1       5.087   4.926   1.004  1.00  0.00     0.031 A 
ATOM     14  C   UNL     1       5.712   5.190   2.348  1.00  0.00     0.074 A 
ATOM     15  C   UNL     1       5.216   5.833   0.016  1.00  0.00     0.049 A 
ATOM     16  N   UNL     1       6.407   6.226   2.745  1.00  0.00    -0.248 NA
ATOM     17  C   UNL     1       5.525   4.162   3.383  1.00  0.00     0.031 C 
ATOM     18  C   UNL     1       4.643   5.704  -1.325  1.00  0.00     0.029 A 
ATOM     19  N   UNL     1       5.872   7.038  -0.018  1.00  0.00    -0.354 N 
ATOM     20  C   UNL     1       6.725   5.987   4.077  1.00  0.00     0.074 A 
ATOM     21  C   UNL     1       6.123   4.718   4.428  1.00  0.00     0.031 C 
ATOM     22  C   UNL     1       5.001   6.768  -2.060  1.00  0.00     0.029 A 
ATOM     23  C   UNL     1       5.785   7.677  -1.231  1.00  0.00     0.049 A 
ATOM     24  H   UNL     1       6.358   7.409   0.754  1.00  0.00     0.167 HD
ATOM     25  C   UNL     1       7.457   6.750   4.926  1.00  0.00     0.037 A 
ATOM     26  C   UNL     1       6.271   8.867  -1.633  1.00  0.00     0.037 A 
ATOM     27  C   UNL     1       8.063   8.008   4.571  1.00  0.00     0.049 A 
ATOM     28  C   UNL     1       7.063   9.704  -0.670  1.00  0.00     0.074 A 
ATOM     29  C   UNL     1       8.859   8.831   5.350  1.00  0.00     0.029 A 
ATOM     30  N   UNL     1       7.935   8.631   3.338  1.00  0.00    -0.354 N 
ATOM     31  N   UNL     1       7.387   9.442   0.574  1.00  0.00    -0.248 NA
ATOM     32  C   UNL     1       7.555  10.997  -1.163  1.00  0.00     0.031 C 
ATOM     33  C   UNL     1       9.178   9.970   4.601  1.00  0.00     0.029 A 
ATOM     34  C   UNL     1       8.618   9.837   3.341  1.00  0.00     0.049 A 
ATOM     35  H   UNL     1       7.433   8.269   2.572  1.00  0.00     0.167 HD
ATOM     36  C   UNL     1       8.135  10.530   1.008  1.00  0.00     0.074 A 
ATOM     37  C   UNL     1       8.226  11.447  -0.111  1.00  0.00     0.031 C 
ATOM     38  C   UNL     1       8.698  10.745   2.223  1.00  0.00     0.037 A 
BRANCH  25  39
ATOM     39  C   UNL     1       7.626   6.249   6.336  1.00  0.00     0.058 A 
ATOM     40  C   UNL     1       8.443   5.148   6.636  1.00  0.00     0.135 A 
ATOM     41  C   UNL     1       6.972   6.888   7.402  1.00  0.00     0.135 A 
ATOM     42  F   UNL     1       9.083   4.493   5.655  1.00  0.00    -0.206 F 
ATOM     43  C   UNL     1       8.575   4.672   7.938  1.00  0.00     0.059 A 
ATOM     44  C   UNL     1       7.109   6.445   8.715  1.00  0.00     0.059 A 
ATOM     45  F   UNL     1       6.182   7.949   7.173  1.00  0.00    -0.206 F 
ATOM     46  C   UNL     1       7.896   5.323   8.970  1.00  0.00     0.060 A 
BRANCH  46  47
ATOM     47  S   UNL     1       8.052   4.678  10.649  1.00  0.00     0.124 S 
ATOM     48  O   UNL     1       7.189   3.502  10.588  1.00  0.00    -0.237 OA
ATOM     49  O   UNL     1       9.482   4.408  10.752  1.00  0.00    -0.237 OA
ATOM     50  O   UNL     1       7.562   5.774  11.480  1.00  0.00    -0.744 OA
ENDBRANCH  46  47
ENDBRANCH  25  39
BRANCH  26  51
ATOM     51  C   UNL     1       6.029   9.320  -3.027  1.00  0.00     0.058 A 
ATOM     52  C   UNL     1       7.064   9.319  -3.972  1.00  0.00     0.135 A 
ATOM     53  C   UNL     1       4.749   9.708  -3.454  1.00  0.00     0.135 A 
ATOM     54  F   UNL     1       8.305   8.963  -3.608  1.00  0.00    -0.206 F 
ATOM     55  C   UNL     1       6.840   9.684  -5.295  1.00  0.00     0.059 A 
ATOM     56  C   UNL     1       4.496  10.055  -4.777  1.00  0.00     0.059 A 
ATOM     57  F   UNL     1       3.724   9.711  -2.588  1.00  0.00    -0.206 F 
ATOM     58  C   UNL     1       5.549  10.042  -5.690  1.00  0.00     0.060 A 
BRANCH  58  59
ATOM     59  S   UNL     1       5.252  10.431  -7.428  1.00  0.00     0.124 S 
ATOM     60  O   UNL     1       5.841  11.760  -7.537  1.00  0.00    -0.237 OA
ATOM     61  O   UNL     1       5.967   9.357  -8.111  1.00  0.00    -0.237 OA
ATOM     62  O   UNL     1       3.797  10.373  -7.540  1.00  0.00    -0.744 OA
ENDBRANCH  58  59
ENDBRANCH  26  51
BRANCH  38  63
ATOM     63  C   UNL     1       9.484  12.014   2.400  1.00  0.00     0.058 A 
ATOM     64  C   UNL     1       8.851  13.261   2.529  1.00  0.00     0.135 A 
ATOM     65  C   UNL     1      10.885  11.978   2.479  1.00  0.00     0.135 A 
ATOM     66  F   UNL     1       7.514  13.351   2.452  1.00  0.00    -0.206 F 
ATOM     67  C   UNL     1       9.582  14.431   2.709  1.00  0.00     0.059 A 
ATOM     68  C   UNL     1      11.635  13.133   2.681  1.00  0.00     0.059 A 
ATOM     69  F   UNL     1      11.538  10.810   2.369  1.00  0.00    -0.206 F 
ATOM     70  C   UNL     1      10.975  14.357   2.783  1.00  0.00     0.060 A 
BRANCH  70  71
ATOM     71  S   UNL     1      11.913  15.877   3.045  1.00  0.00     0.124 S 
ATOM     72  O   UNL     1      11.864  16.484   1.720  1.00  0.00    -0.237 OA
ATOM     73  O   UNL     1      11.136  16.552   4.081  1.00  0.00    -0.237 OA
ATOM     74  O   UNL     1      13.225  15.396   3.469  1.00  0.00    -0.744 OA
ENDBRANCH  70  71
ENDBRANCH  38  63
ENDBRANCH  12  13
ENDBRANCH   5   7
ENDBRANCH   2   3
ENDBRANCH   1   2
BRANCH   1  75
ATOM     75  C   UNL     1       3.725  -3.750   1.384  1.00  0.00     0.023 C 
BRANCH  75  76
ATOM     76  C   UNL     1       4.348  -4.688   0.349  1.00  0.00     0.116 C 
BRANCH  76  77
ATOM     77  N   UNL     1       5.755  -4.928   0.597  1.00  0.00    -0.352 N 
ATOM     78  C   UNL     1       6.572  -5.892   0.075  1.00  0.00     0.252 C 
ATOM     79  H   UNL     1       6.184  -4.309   1.231  1.00  0.00     0.163 HD
ATOM     80  O   UNL     1       7.690  -6.075   0.556  1.00  0.00    -0.269 OA
BRANCH  78  81
ATOM     81  C   UNL     1       6.112  -6.823  -0.971  1.00  0.00     0.052 A 
ATOM     82  C   UNL     1       6.229  -8.177  -0.574  1.00  0.00     0.014 A 
ATOM     83  C   UNL     1       5.612  -6.511  -2.244  1.00  0.00     0.052 A 
ATOM     84  C   UNL     1       5.790  -9.215  -1.390  1.00  0.00     0.001 A 
ATOM     85  C   UNL     1       5.156  -7.586  -3.046  1.00  0.00     0.014 A 
ATOM     86  C   UNL     1       5.235  -8.917  -2.624  1.00  0.00     0.001 A 
BRANCH  83  87
ATOM     87  C   UNL     1       5.354  -5.170  -2.845  1.00  0.00     0.256 C 
ATOM     88  O   UNL     1       4.306  -5.043  -3.490  1.00  0.00    -0.269 OA
ATOM     89  N   UNL     1       6.109  -4.035  -2.678  1.00  0.00    -0.322 N 
ATOM     90  H   UNL     1       5.694  -3.222  -3.046  1.00  0.00     0.170 HD
BRANCH  89  91
ATOM     91  C   UNL     1       7.351  -3.819  -2.087  1.00  0.00     0.041 A 
ATOM     92  C   UNL     1       7.454  -2.698  -1.258  1.00  0.00     0.028 A 
ATOM     93  C   UNL     1       8.427  -4.687  -2.224  1.00  0.00     0.028 A 
ATOM     94  C   UNL     1       8.510  -2.603  -0.359  1.00  0.00     0.029 A 
ATOM     95  C   UNL     1       9.551  -4.514  -1.411  1.00  0.00     0.029 A 
ATOM     96  C   UNL     1       9.540  -3.541  -0.401  1.00  0.00     0.052 A 
BRANCH  96  97
ATOM     97  N   UNL     1      10.452  -3.636   0.665  1.00  0.00    -0.250 N 
ATOM     98  C   UNL     1      11.799  -3.983   0.514  1.00  0.00     0.237 C 
ATOM     99  C   UNL     1      10.031  -3.687   2.013  1.00  0.00     0.237 C 
ATOM    100  O   UNL     1      12.523  -3.933  -0.464  1.00  0.00    -0.274 OA
ATOM    101  C   UNL     1      12.111  -4.649   1.808  1.00  0.00     0.095 C 
ATOM    102  C   UNL     1      11.323  -3.769   2.764  1.00  0.00     0.095 C 
ATOM    103  O   UNL     1       8.921  -3.611   2.500  1.00  0.00    -0.274 OA
ATOM    104  C   UNL     1      13.378  -4.947   2.610  1.00  0.00     0.002 C 
ATOM    105  C   UNL     1      11.792  -4.321   4.104  1.00  0.00     0.002 C 
ATOM    106  C   UNL     1      13.054  -6.279   3.325  1.00  0.00     0.005 C 
ATOM    107  C   UNL     1      13.295  -4.034   3.857  1.00  0.00     0.009 C 
ATOM    108  C   UNL     1      11.830  -5.873   4.198  1.00  0.00     0.005 C 
ENDBRANCH  96  97
ENDBRANCH  89  91
ENDBRANCH  83  87
ENDBRANCH  78  81
ENDBRANCH  76  77
ENDBRANCH  75  76
ENDBRANCH   1  75
TORSDOF 17
