REMARK SMILES COc1cc([C@H]2c3c(-c4ccccc4)n[nH]c3C(=O)N2c2ccc(C(=O)NCCCCNC(=O)c3ccc(-c4c5nc(c(-c6c(F)cc(S(=O)(=O)[O-])cc6F)c6ccc([nH]6)c(-c6c(F)cc(S(=O)(=O)[O-])cc6F)c6nc(c(-c7c(F)cc(S(=O)(=O)[O-])cc7F)c7ccc4[nH]7)C=C6)C=C5)cc3)cc2)ccc1O
REMARK SMILES IDX 29 1 28 2 27 3 25 4 26 5 24 7 21 8 22 9 102 10 23 11 101 12
REMARK SMILES IDX 20 13 6 14 7 15 8 16 17 17 18 18 15 19 16 20 19 21 5 23 3 24
REMARK SMILES IDX 4 25 105 26 104 27 103 28 2 29 1 30 106 31 9 33 10 34 14 35
REMARK SMILES IDX 11 36 13 37 12 38 30 39 31 40 32 41 33 42 34 44 35 45 36 46
REMARK SMILES IDX 100 47 37 48 99 49 38 50 39 51 40 52 93 53 41 54 98 55 92 56
REMARK SMILES IDX 94 57 42 58 97 59 91 60 90 61 43 63 77 64 56 65 76 66 57 67
REMARK SMILES IDX 60 68 75 69 95 70 58 71 59 72 74 74 96 75 61 76 44 77 45 78
REMARK SMILES IDX 54 79 46 80 47 81 53 82 55 83 48 84 49 85 50 86 51 87 52 88
REMARK SMILES IDX 78 89 79 90 88 91 80 92 81 93 87 94 89 95 82 96 83 97 84 98
REMARK SMILES IDX 85 99 86 100 62 101 63 102 72 103 64 104 65 105 71 106
REMARK SMILES IDX 73 107 66 108 67 109 68 110 69 111 70 112
REMARK H PARENT 27 6 16 22 106 32 32 43 94 62 60 73
REMARK Flexibility Score: inf
ROOT
ATOM      1  C   UNL     1       4.695  -1.906   9.469  1.00  0.00     0.023 C 
ENDROOT
BRANCH   1   2
ATOM      2  C   UNL     1       5.092  -1.410   8.072  1.00  0.00     0.116 C 
BRANCH   2   3
ATOM      3  N   UNL     1       6.110  -2.255   7.480  1.00  0.00    -0.352 N 
ATOM      4  C   UNL     1       6.072  -3.349   6.654  1.00  0.00     0.251 C 
ATOM      5  O   UNL     1       7.155  -3.853   6.352  1.00  0.00    -0.269 OA
ATOM      6  H   UNL     1       7.026  -1.984   7.721  1.00  0.00     0.163 HD
BRANCH   4   7
ATOM      7  C   UNL     1       4.824  -3.947   6.089  1.00  0.00     0.039 A 
ATOM      8  C   UNL     1       2.585  -5.147   4.857  1.00  0.00     0.045 A 
ATOM      9  C   UNL     1       3.866  -5.425   4.388  1.00  0.00     0.027 A 
ATOM     10  C   UNL     1       2.422  -4.307   5.958  1.00  0.00     0.027 A 
ATOM     11  C   UNL     1       4.972  -4.802   4.981  1.00  0.00     0.016 A 
ATOM     12  C   UNL     1       3.537  -3.754   6.596  1.00  0.00     0.016 A 
BRANCH   8  13
ATOM     13  N   UNL     1       1.460  -5.728   4.257  1.00  0.00    -0.295 N 
ATOM     14  C   UNL     1       0.334  -4.907   3.726  1.00  0.00     0.156 C 
ATOM     15  C   UNL     1      -0.634  -5.987   3.417  1.00  0.00     0.038 A 
ATOM     16  C   UNL     1      -1.936  -6.261   2.966  1.00  0.00     0.099 A 
ATOM     17  C   UNL     1      -0.096  -7.202   3.724  1.00  0.00     0.129 A 
ATOM     18  C   UNL     1       1.233  -7.118   4.222  1.00  0.00     0.277 C 
ATOM     19  N   UNL     1      -2.187  -7.589   3.061  1.00  0.00    -0.174 NA
ATOM     20  N   UNL     1      -1.030  -8.137   3.509  1.00  0.00    -0.272 N 
ATOM     21  O   UNL     1       1.934  -8.034   4.578  1.00  0.00    -0.267 OA
ATOM     22  H   UNL     1      -0.894  -9.101   3.659  1.00  0.00     0.190 HD
BRANCH  14  23
ATOM     23  C   UNL     1       0.678  -4.197   2.433  1.00  0.00    -0.016 A 
ATOM     24  C   UNL     1       0.749  -2.094   1.155  1.00  0.00     0.160 A 
ATOM     25  C   UNL     1       0.445  -2.812   2.324  1.00  0.00     0.056 A 
ATOM     26  C   UNL     1       1.293  -2.787   0.074  1.00  0.00     0.157 A 
ATOM     27  C   UNL     1       1.532  -4.159   0.156  1.00  0.00     0.050 A 
ATOM     28  C   UNL     1       1.241  -4.856   1.329  1.00  0.00     0.010 A 
BRANCH  24  29
ATOM     29  O   UNL     1       0.431  -0.768   1.250  1.00  0.00    -0.493 OA
ATOM     30  C   UNL     1       0.780   0.103   0.185  1.00  0.00     0.278 C 
ENDBRANCH  24  29
BRANCH  26  31
ATOM     31  O   UNL     1       1.625  -2.204  -1.114  1.00  0.00    -0.504 OA
ATOM     32  H   UNL     1       1.491  -1.285  -1.238  1.00  0.00     0.293 HD
ENDBRANCH  26  31
ENDBRANCH  14  23
BRANCH  16  33
ATOM     33  C   UNL     1      -2.947  -5.340   2.466  1.00  0.00     0.002 A 
ATOM     34  C   UNL     1      -4.221  -5.304   3.047  1.00  0.00     0.010 A 
ATOM     35  C   UNL     1      -2.673  -4.509   1.374  1.00  0.00     0.010 A 
ATOM     36  C   UNL     1      -5.198  -4.436   2.553  1.00  0.00     0.001 A 
ATOM     37  C   UNL     1      -3.648  -3.640   0.882  1.00  0.00     0.001 A 
ATOM     38  C   UNL     1      -4.910  -3.603   1.472  1.00  0.00     0.000 A 
ENDBRANCH  16  33
ENDBRANCH   8  13
ENDBRANCH   4   7
ENDBRANCH   2   3
ENDBRANCH   1   2
BRANCH   1  39
ATOM     39  C   UNL     1       5.704  -1.594  10.585  1.00  0.00     0.023 C 
BRANCH  39  40
ATOM     40  C   UNL     1       5.806  -0.122  10.974  1.00  0.00     0.116 C 
BRANCH  40  41
ATOM     41  N   UNL     1       4.549   0.424  11.496  1.00  0.00    -0.352 N 
ATOM     42  C   UNL     1       4.163   1.751  11.588  1.00  0.00     0.251 C 
ATOM     43  H   UNL     1       3.896  -0.236  11.822  1.00  0.00     0.163 HD
ATOM     44  O   UNL     1       3.288   2.104  12.368  1.00  0.00    -0.269 OA
BRANCH  42  45
ATOM     45  C   UNL     1       4.821   2.726  10.704  1.00  0.00     0.039 A 
ATOM     46  C   UNL     1       5.290   3.960  11.162  1.00  0.00     0.014 A 
ATOM     47  C   UNL     1       5.032   2.321   9.392  1.00  0.00     0.014 A 
ATOM     48  C   UNL     1       6.059   4.745  10.303  1.00  0.00     0.010 A 
ATOM     49  C   UNL     1       5.938   2.999   8.623  1.00  0.00     0.010 A 
ATOM     50  C   UNL     1       6.398   4.247   9.037  1.00  0.00    -0.014 A 
BRANCH  50  51
ATOM     51  C   UNL     1       7.287   4.974   8.136  1.00  0.00     0.031 A 
ATOM     52  C   UNL     1       8.625   5.342   8.685  1.00  0.00     0.074 A 
ATOM     53  C   UNL     1       7.027   5.068   6.813  1.00  0.00     0.049 A 
ATOM     54  N   UNL     1       9.099   6.527   8.893  1.00  0.00    -0.248 NA
ATOM     55  C   UNL     1       9.509   4.265   9.161  1.00  0.00     0.031 C 
ATOM     56  C   UNL     1       5.919   4.477   6.048  1.00  0.00     0.029 A 
ATOM     57  N   UNL     1       7.797   5.605   5.835  1.00  0.00    -0.354 N 
ATOM     58  C   UNL     1      10.416   6.354   9.317  1.00  0.00     0.074 A 
ATOM     59  C   UNL     1      10.550   4.955   9.634  1.00  0.00     0.031 C 
ATOM     60  C   UNL     1       6.239   4.449   4.737  1.00  0.00     0.029 A 
ATOM     61  C   UNL     1       7.473   5.186   4.551  1.00  0.00     0.049 A 
ATOM     62  H   UNL     1       8.526   6.240   6.019  1.00  0.00     0.167 HD
ATOM     63  C   UNL     1      11.356   7.332   9.163  1.00  0.00     0.037 A 
ATOM     64  C   UNL     1       8.200   5.396   3.426  1.00  0.00     0.037 A 
ATOM     65  C   UNL     1      10.747   8.597   8.836  1.00  0.00     0.049 A 
ATOM     66  C   UNL     1       9.091   6.557   3.711  1.00  0.00     0.074 A 
ATOM     67  C   UNL     1       9.794   9.396   9.441  1.00  0.00     0.029 A 
ATOM     68  N   UNL     1      10.809   9.026   7.530  1.00  0.00    -0.354 N 
ATOM     69  N   UNL     1       8.649   7.768   3.935  1.00  0.00    -0.248 NA
ATOM     70  C   UNL     1      10.421   6.277   4.234  1.00  0.00     0.031 C 
ATOM     71  C   UNL     1       8.976   9.858   8.367  1.00  0.00     0.029 A 
ATOM     72  C   UNL     1       9.531   9.384   7.176  1.00  0.00     0.049 A 
ATOM     73  H   UNL     1      11.611   9.069   6.961  1.00  0.00     0.167 HD
ATOM     74  C   UNL     1       9.438   8.254   4.969  1.00  0.00     0.074 A 
ATOM     75  C   UNL     1      10.563   7.321   5.055  1.00  0.00     0.031 C 
ATOM     76  C   UNL     1       8.973   9.186   5.855  1.00  0.00     0.037 A 
BRANCH  63  77
ATOM     77  C   UNL     1      12.836   7.092   8.967  1.00  0.00     0.058 A 
ATOM     78  C   UNL     1      13.731   8.183   9.029  1.00  0.00     0.135 A 
ATOM     79  C   UNL     1      13.373   5.896   8.444  1.00  0.00     0.135 A 
ATOM     80  F   UNL     1      13.328   9.372   9.506  1.00  0.00    -0.206 F 
ATOM     81  C   UNL     1      15.033   8.112   8.533  1.00  0.00     0.059 A 
ATOM     82  C   UNL     1      14.685   5.787   7.995  1.00  0.00     0.059 A 
ATOM     83  F   UNL     1      12.622   4.806   8.244  1.00  0.00    -0.206 F 
ATOM     84  C   UNL     1      15.494   6.912   7.999  1.00  0.00     0.060 A 
BRANCH  84  85
ATOM     85  S   UNL     1      17.126   6.850   7.239  1.00  0.00     0.124 S 
ATOM     86  O   UNL     1      16.916   7.653   6.040  1.00  0.00    -0.237 OA
ATOM     87  O   UNL     1      17.965   7.450   8.272  1.00  0.00    -0.237 OA
ATOM     88  O   UNL     1      17.338   5.423   7.017  1.00  0.00    -0.744 OA
ENDBRANCH  84  85
ENDBRANCH  63  77
BRANCH  64  89
ATOM     89  C   UNL     1       8.408   4.444   2.301  1.00  0.00     0.058 A 
ATOM     90  C   UNL     1       9.019   4.853   1.103  1.00  0.00     0.135 A 
ATOM     91  C   UNL     1       8.248   3.051   2.467  1.00  0.00     0.135 A 
ATOM     92  F   UNL     1       9.228   6.157   0.866  1.00  0.00    -0.206 F 
ATOM     93  C   UNL     1       9.487   3.938   0.152  1.00  0.00     0.059 A 
ATOM     94  C   UNL     1       8.694   2.121   1.528  1.00  0.00     0.059 A 
ATOM     95  F   UNL     1       7.730   2.538   3.593  1.00  0.00    -0.206 F 
ATOM     96  C   UNL     1       9.337   2.571   0.384  1.00  0.00     0.060 A 
BRANCH  96  97
ATOM     97  S   UNL     1      10.091   1.383  -0.753  1.00  0.00     0.124 S 
ATOM     98  O   UNL     1       9.265   1.542  -1.945  1.00  0.00    -0.237 OA
ATOM     99  O   UNL     1      11.459   1.879  -0.853  1.00  0.00    -0.237 OA
ATOM    100  O   UNL     1       9.942   0.107  -0.058  1.00  0.00    -0.744 OA
ENDBRANCH  96  97
ENDBRANCH  64  89
BRANCH  76 101
ATOM    101  C   UNL     1       7.662   9.881   5.574  1.00  0.00     0.058 A 
ATOM    102  C   UNL     1       6.419   9.227   5.491  1.00  0.00     0.135 A 
ATOM    103  C   UNL     1       7.638  11.284   5.582  1.00  0.00     0.135 A 
ATOM    104  F   UNL     1       6.331   7.895   5.588  1.00  0.00    -0.206 F 
ATOM    105  C   UNL     1       5.217   9.930   5.384  1.00  0.00     0.059 A 
ATOM    106  C   UNL     1       6.449  12.007   5.508  1.00  0.00     0.059 A 
ATOM    107  F   UNL     1       8.781  11.975   5.727  1.00  0.00    -0.206 F 
ATOM    108  C   UNL     1       5.241  11.322   5.397  1.00  0.00     0.060 A 
BRANCH 108 109
ATOM    109  S   UNL     1       3.679  12.227   5.340  1.00  0.00     0.124 S 
ATOM    110  O   UNL     1       3.247  12.004   3.965  1.00  0.00    -0.237 OA
ATOM    111  O   UNL     1       2.887  11.560   6.369  1.00  0.00    -0.237 OA
ATOM    112  O   UNL     1       4.068  13.599   5.658  1.00  0.00    -0.744 OA
ENDBRANCH 108 109
ENDBRANCH  76 101
ENDBRANCH  50  51
ENDBRANCH  42  45
ENDBRANCH  40  41
ENDBRANCH  39  40
ENDBRANCH   1  39
TORSDOF 19
