REMARK SMILES Cc1ccc([C@@H]2[C@H](C(=O)NCCCCNC(=O)c3ccc(-c4c5nc(c(-c6c(F)cc(S(=O)(=O)[O-])cc6F)c6ccc([nH]6)c(-c6c(F)cc(S(=O)(=O)[O-])cc6F)c6nc(c(-c7c(F)cc(S(=O)(=O)[O-])cc7F)c7ccc4[nH]7)C=C6)C=C5)cc3)c3ccccc3C(=O)N2c2ccccc2)cc1
REMARK SMILES IDX 13 1 12 2 11 3 10 4 8 5 9 6 7 8 6 9 92 10 84 11 90 12 85 13
REMARK SMILES IDX 89 14 91 15 86 16 88 17 87 18 5 19 1 20 2 21 3 22 100 23
REMARK SMILES IDX 4 24 99 25 93 26 94 27 98 28 95 29 97 30 96 31 14 32 15 33
REMARK SMILES IDX 16 34 17 36 18 37 19 38 83 39 20 40 82 41 21 42 22 43 23 44
REMARK SMILES IDX 76 45 24 46 81 47 75 48 77 49 25 50 80 51 74 52 73 53 26 55
REMARK SMILES IDX 60 56 39 57 59 58 40 59 43 60 58 61 78 62 41 63 42 64 57 66
REMARK SMILES IDX 79 67 44 68 27 69 28 70 37 71 29 72 30 73 36 74 38 75 31 76
REMARK SMILES IDX 32 77 33 78 34 79 35 80 61 81 62 82 71 83 63 84 64 85 70 86
REMARK SMILES IDX 72 87 65 88 66 89 67 90 68 91 69 92 45 93 46 94 55 95 47 96
REMARK SMILES IDX 48 97 54 98 56 99 49 100 50 101 51 102 52 103 53 104
REMARK H PARENT 10 7 15 35 77 54 43 65
REMARK Flexibility Score: inf
ROOT
ATOM      1  C   UNL     1      -4.601  -5.329   5.987  1.00  0.00     0.023 C 
ENDROOT
BRANCH   1   2
ATOM      2  C   UNL     1      -4.227  -3.894   6.360  1.00  0.00     0.023 C 
BRANCH   2   3
ATOM      3  C   UNL     1      -2.870  -3.432   5.810  1.00  0.00     0.116 C 
BRANCH   3   4
ATOM      4  N   UNL     1      -2.963  -3.049   4.409  1.00  0.00    -0.355 N 
ATOM      5  C   UNL     1      -2.184  -2.030   3.905  1.00  0.00     0.230 C 
ATOM      6  O   UNL     1      -0.962  -2.144   3.841  1.00  0.00    -0.274 OA
ATOM      7  H   UNL     1      -3.589  -3.523   3.815  1.00  0.00     0.163 HD
BRANCH   5   8
ATOM      8  C   UNL     1      -2.909  -0.773   3.401  1.00  0.00     0.137 C 
ATOM      9  C   UNL     1      -2.862  -0.615   1.849  1.00  0.00     0.138 C 
ATOM     10  N   UNL     1      -3.893  -1.475   1.241  1.00  0.00    -0.300 N 
ATOM     11  C   UNL     1      -4.365  -0.638   3.866  1.00  0.00    -0.020 A 
ATOM     12  C   UNL     1      -5.178  -0.958   1.485  1.00  0.00     0.259 C 
ATOM     13  C   UNL     1      -4.661  -0.483   5.229  1.00  0.00     0.005 A 
ATOM     14  C   UNL     1      -5.433  -0.683   2.941  1.00  0.00     0.044 A 
ATOM     15  O   UNL     1      -6.061  -0.840   0.643  1.00  0.00    -0.269 OA
ATOM     16  C   UNL     1      -5.986  -0.435   5.663  1.00  0.00     0.000 A 
ATOM     17  C   UNL     1      -6.758  -0.589   3.379  1.00  0.00     0.014 A 
ATOM     18  C   UNL     1      -7.032  -0.485   4.742  1.00  0.00     0.001 A 
BRANCH   9  19
ATOM     19  C   UNL     1      -1.530  -0.339   1.155  1.00  0.00    -0.024 A 
ATOM     20  C   UNL     1       2.459   0.389  -0.377  1.00  0.00     0.044 C 
ATOM     21  C   UNL     1       1.036   0.219   0.065  1.00  0.00    -0.051 A 
ATOM     22  C   UNL     1       0.208  -0.750  -0.507  1.00  0.00     0.004 A 
ATOM     23  C   UNL     1       0.540   0.980   1.121  1.00  0.00     0.004 A 
ATOM     24  C   UNL     1      -1.079  -0.986  -0.001  1.00  0.00     0.006 A 
ATOM     25  C   UNL     1      -0.720   0.702   1.658  1.00  0.00     0.006 A 
ENDBRANCH   9  19
BRANCH  10  26
ATOM     26  C   UNL     1      -3.788  -2.920   1.171  1.00  0.00     0.045 A 
ATOM     27  C   UNL     1      -4.959  -3.706   1.188  1.00  0.00     0.026 A 
ATOM     28  C   UNL     1      -2.570  -3.609   1.214  1.00  0.00     0.026 A 
ATOM     29  C   UNL     1      -4.916  -5.097   1.324  1.00  0.00     0.002 A 
ATOM     30  C   UNL     1      -2.522  -5.007   1.305  1.00  0.00     0.002 A 
ATOM     31  C   UNL     1      -3.694  -5.749   1.384  1.00  0.00     0.000 A 
ENDBRANCH  10  26
ENDBRANCH   5   8
ENDBRANCH   3   4
ENDBRANCH   2   3
ENDBRANCH   1   2
BRANCH   1  32
ATOM     32  C   UNL     1      -3.943  -6.370   6.889  1.00  0.00     0.116 C 
BRANCH  32  33
ATOM     33  N   UNL     1      -4.845  -6.959   7.875  1.00  0.00    -0.352 N 
ATOM     34  C   UNL     1      -4.645  -8.088   8.667  1.00  0.00     0.251 C 
ATOM     35  H   UNL     1      -5.706  -6.497   7.997  1.00  0.00     0.163 HD
ATOM     36  O   UNL     1      -5.518  -8.616   9.313  1.00  0.00    -0.269 OA
BRANCH  34  37
ATOM     37  C   UNL     1      -3.242  -8.541   8.810  1.00  0.00     0.039 A 
ATOM     38  C   UNL     1      -2.633  -8.279  10.044  1.00  0.00     0.014 A 
ATOM     39  C   UNL     1      -2.495  -8.820   7.672  1.00  0.00     0.014 A 
ATOM     40  C   UNL     1      -1.266  -8.042  10.077  1.00  0.00     0.010 A 
ATOM     41  C   UNL     1      -1.161  -8.473   7.683  1.00  0.00     0.010 A 
ATOM     42  C   UNL     1      -0.570  -8.020   8.870  1.00  0.00    -0.014 A 
BRANCH  42  43
ATOM     43  C   UNL     1       0.762  -7.445   8.745  1.00  0.00     0.031 A 
ATOM     44  C   UNL     1       1.921  -8.347   8.610  1.00  0.00     0.074 A 
ATOM     45  C   UNL     1       0.910  -6.102   8.711  1.00  0.00     0.049 A 
ATOM     46  N   UNL     1       3.135  -8.036   8.908  1.00  0.00    -0.248 NA
ATOM     47  C   UNL     1       1.772  -9.728   8.169  1.00  0.00     0.031 C 
ATOM     48  C   UNL     1       2.111  -5.353   8.362  1.00  0.00     0.029 A 
ATOM     49  N   UNL     1       0.026  -5.137   9.211  1.00  0.00    -0.354 N 
ATOM     50  C   UNL     1       3.949  -9.053   8.460  1.00  0.00     0.074 A 
ATOM     51  C   UNL     1       3.046 -10.108   8.064  1.00  0.00     0.031 C 
ATOM     52  C   UNL     1       2.018  -4.121   8.887  1.00  0.00     0.029 A 
ATOM     53  C   UNL     1       0.817  -4.083   9.705  1.00  0.00     0.049 A 
ATOM     54  H   UNL     1      -0.957  -5.187   9.217  1.00  0.00     0.167 HD
ATOM     55  C   UNL     1       5.292  -8.835   8.343  1.00  0.00     0.037 A 
ATOM     56  C   UNL     1       0.800  -3.764  11.031  1.00  0.00     0.037 A 
ATOM     57  C   UNL     1       5.648  -7.522   8.882  1.00  0.00     0.049 A 
ATOM     58  C   UNL     1       2.126  -3.985  11.723  1.00  0.00     0.074 A 
ATOM     59  C   UNL     1       5.819  -6.284   8.283  1.00  0.00     0.029 A 
ATOM     60  N   UNL     1       5.512  -7.278  10.248  1.00  0.00    -0.354 N 
ATOM     61  N   UNL     1       3.084  -4.736  11.247  1.00  0.00    -0.248 NA
ATOM     62  C   UNL     1       2.489  -3.361  12.992  1.00  0.00     0.031 C 
ATOM     63  C   UNL     1       5.680  -5.287   9.283  1.00  0.00     0.029 A 
ATOM     64  C   UNL     1       5.466  -5.917  10.497  1.00  0.00     0.049 A 
ATOM     65  H   UNL     1       5.457  -7.977  10.940  1.00  0.00     0.167 HD
ATOM     66  C   UNL     1       4.161  -4.707  12.097  1.00  0.00     0.074 A 
ATOM     67  C   UNL     1       3.743  -3.818  13.167  1.00  0.00     0.031 C 
ATOM     68  C   UNL     1       5.314  -5.402  11.853  1.00  0.00     0.037 A 
BRANCH  55  69
ATOM     69  C   UNL     1       6.162  -9.665   7.416  1.00  0.00     0.058 A 
ATOM     70  C   UNL     1       7.202  -9.068   6.670  1.00  0.00     0.135 A 
ATOM     71  C   UNL     1       5.956 -11.031   7.139  1.00  0.00     0.135 A 
ATOM     72  F   UNL     1       7.601  -7.812   6.907  1.00  0.00    -0.206 F 
ATOM     73  C   UNL     1       7.872  -9.728   5.636  1.00  0.00     0.059 A 
ATOM     74  C   UNL     1       6.564 -11.695   6.068  1.00  0.00     0.059 A 
ATOM     75  F   UNL     1       5.185 -11.789   7.931  1.00  0.00    -0.206 F 
ATOM     76  C   UNL     1       7.513 -11.028   5.308  1.00  0.00     0.060 A 
BRANCH  76  77
ATOM     77  S   UNL     1       8.305 -11.825   3.898  1.00  0.00     0.124 S 
ATOM     78  O   UNL     1       8.109 -10.844   2.835  1.00  0.00    -0.237 OA
ATOM     79  O   UNL     1       9.675 -11.985   4.371  1.00  0.00    -0.237 OA
ATOM     80  O   UNL     1       7.548 -13.065   3.739  1.00  0.00    -0.744 OA
ENDBRANCH  76  77
ENDBRANCH  55  69
BRANCH  56  81
ATOM     81  C   UNL     1      -0.556  -3.826  11.641  1.00  0.00     0.058 A 
ATOM     82  C   UNL     1      -1.483  -2.838  11.253  1.00  0.00     0.135 A 
ATOM     83  C   UNL     1      -1.071  -4.999  12.210  1.00  0.00     0.135 A 
ATOM     84  F   UNL     1      -1.047  -1.684  10.723  1.00  0.00    -0.206 F 
ATOM     85  C   UNL     1      -2.856  -3.061  11.281  1.00  0.00     0.059 A 
ATOM     86  C   UNL     1      -2.449  -5.246  12.246  1.00  0.00     0.059 A 
ATOM     87  F   UNL     1      -0.242  -5.971  12.618  1.00  0.00    -0.206 F 
ATOM     88  C   UNL     1      -3.325  -4.298  11.714  1.00  0.00     0.060 A 
BRANCH  88  89
ATOM     89  S   UNL     1      -5.079  -4.676  11.466  1.00  0.00     0.124 S 
ATOM     90  O   UNL     1      -5.728  -3.462  11.951  1.00  0.00    -0.237 OA
ATOM     91  O   UNL     1      -5.136  -4.877  10.018  1.00  0.00    -0.237 OA
ATOM     92  O   UNL     1      -5.279  -5.864  12.285  1.00  0.00    -0.744 OA
ENDBRANCH  88  89
ENDBRANCH  56  81
BRANCH  68  93
ATOM     93  C   UNL     1       6.463  -5.577  12.822  1.00  0.00     0.058 A 
ATOM     94  C   UNL     1       6.315  -5.612  14.219  1.00  0.00     0.135 A 
ATOM     95  C   UNL     1       7.764  -5.866  12.341  1.00  0.00     0.135 A 
ATOM     96  F   UNL     1       5.115  -5.464  14.797  1.00  0.00    -0.206 F 
ATOM     97  C   UNL     1       7.388  -5.853  15.080  1.00  0.00     0.059 A 
ATOM     98  C   UNL     1       8.834  -6.168  13.179  1.00  0.00     0.059 A 
ATOM     99  F   UNL     1       8.040  -5.881  11.028  1.00  0.00    -0.206 F 
ATOM    100  C   UNL     1       8.644  -6.135  14.552  1.00  0.00     0.060 A 
BRANCH 100 101
ATOM    101  S   UNL     1      10.019  -6.530  15.647  1.00  0.00     0.124 S 
ATOM    102  O   UNL     1      10.648  -5.223  15.809  1.00  0.00    -0.237 OA
ATOM    103  O   UNL     1       9.351  -7.059  16.833  1.00  0.00    -0.237 OA
ATOM    104  O   UNL     1      10.781  -7.509  14.878  1.00  0.00    -0.744 OA
ENDBRANCH 100 101
ENDBRANCH  68  93
ENDBRANCH  42  43
ENDBRANCH  34  37
ENDBRANCH  32  33
ENDBRANCH   1  32
TORSDOF 16
