REMARK SMILES COc1cccc(-c2c(C(=O)NCCCCNC(=O)c3ccc(-c4c5nc(c(-c6c(F)cc(S(=O)(=O)[O-])cc6F)c6ccc([nH]6)c(-c6c(F)cc(S(=O)(=O)[O-])cc6F)c6nc(c(-c7c(F)cc(S(=O)(=O)[O-])cc7F)c7ccc4[nH]7)C=C6)C=C5)cc3)nnn2-c2ccc(OC(F)(F)F)cc2)c1
REMARK SMILES IDX 14 1 13 2 12 3 10 4 11 5 9 7 8 8 88 9 86 10 87 11 7 12 3 13
REMARK SMILES IDX 4 14 100 15 5 16 6 17 2 18 1 19 89 20 90 21 99 22 91 23
REMARK SMILES IDX 98 24 92 25 93 26 94 27 95 28 96 29 97 30 15 31 16 32 17 33
REMARK SMILES IDX 18 34 19 36 20 37 21 38 85 39 22 40 84 41 23 42 24 43 25 44
REMARK SMILES IDX 78 45 26 46 83 47 77 48 79 49 27 50 82 51 76 52 75 53 28 55
REMARK SMILES IDX 62 56 41 57 61 58 42 59 45 60 60 61 80 62 43 63 44 64 59 66
REMARK SMILES IDX 81 67 46 68 29 69 30 70 39 71 31 72 32 73 38 74 40 75 33 76
REMARK SMILES IDX 34 77 35 78 36 79 37 80 63 81 64 82 73 83 65 84 66 85 72 86
REMARK SMILES IDX 74 87 67 88 68 89 69 90 70 91 71 92 47 93 48 94 57 95 49 96
REMARK SMILES IDX 50 97 56 98 58 99 51 100 52 101 53 102 54 103 55 104
REMARK H PARENT 12 6 17 35 79 54 45 65
REMARK Flexibility Score: inf
ROOT
ATOM      1  C   UNL     1       1.252   4.571   1.254  1.00  0.00     0.023 C 
ENDROOT
BRANCH   1   2
ATOM      2  C   UNL     1       1.846   5.178  -0.011  1.00  0.00     0.116 C 
BRANCH   2   3
ATOM      3  N   UNL     1       3.071   5.918   0.117  1.00  0.00    -0.351 N 
ATOM      4  C   UNL     1       4.327   5.719  -0.426  1.00  0.00     0.274 C 
ATOM      5  O   UNL     1       5.152   6.585  -0.118  1.00  0.00    -0.267 OA
ATOM      6  H   UNL     1       3.004   6.711   0.697  1.00  0.00     0.163 HD
BRANCH   4   7
ATOM      7  C   UNL     1       4.748   4.572  -1.259  1.00  0.00     0.178 A 
ATOM      8  C   UNL     1       4.127   3.646  -2.105  1.00  0.00     0.108 A 
ATOM      9  N   UNL     1       5.181   2.854  -2.567  1.00  0.00    -0.212 N 
ATOM     10  N   UNL     1       6.099   4.245  -1.214  1.00  0.00    -0.124 NA
ATOM     11  N   UNL     1       6.313   3.142  -1.908  1.00  0.00    -0.061 NA
BRANCH   8  12
ATOM     12  C   UNL     1       2.737   3.257  -2.359  1.00  0.00     0.006 A 
ATOM     13  C   UNL     1       0.913   1.725  -1.828  1.00  0.00     0.119 A 
ATOM     14  C   UNL     1       0.054   2.521  -2.584  1.00  0.00     0.046 A 
ATOM     15  C   UNL     1       2.255   2.083  -1.733  1.00  0.00     0.056 A 
ATOM     16  C   UNL     1       0.525   3.672  -3.227  1.00  0.00     0.005 A 
ATOM     17  C   UNL     1       1.868   4.043  -3.120  1.00  0.00     0.011 A 
BRANCH  13  18
ATOM     18  O   UNL     1       0.352   0.619  -1.252  1.00  0.00    -0.497 OA
ATOM     19  C   UNL     1       0.948   0.167  -0.040  1.00  0.00     0.278 C 
ENDBRANCH  13  18
ENDBRANCH   8  12
BRANCH   9  20
ATOM     20  C   UNL     1       5.099   1.758  -3.462  1.00  0.00     0.067 A 
ATOM     21  C   UNL     1       5.750   0.561  -3.156  1.00  0.00     0.032 A 
ATOM     22  C   UNL     1       4.274   1.841  -4.589  1.00  0.00     0.032 A 
ATOM     23  C   UNL     1       5.483  -0.573  -3.929  1.00  0.00     0.049 A 
ATOM     24  C   UNL     1       4.035   0.710  -5.369  1.00  0.00     0.049 A 
ATOM     25  C   UNL     1       4.612  -0.511  -5.026  1.00  0.00     0.129 A 
BRANCH  25  26
ATOM     26  O   UNL     1       4.408  -1.701  -5.665  1.00  0.00    -0.406 OA
BRANCH  26  27
ATOM     27  C   UNL     1       3.494  -1.708  -6.751  1.00  0.00     0.573 C 
ATOM     28  F   UNL     1       2.263  -1.312  -6.362  1.00  0.00    -0.132 F 
ATOM     29  F   UNL     1       3.929  -0.920  -7.757  1.00  0.00    -0.132 F 
ATOM     30  F   UNL     1       3.396  -2.971  -7.223  1.00  0.00    -0.132 F 
ENDBRANCH  26  27
ENDBRANCH  25  26
ENDBRANCH   9  20
ENDBRANCH   4   7
ENDBRANCH   2   3
ENDBRANCH   1   2
BRANCH   1  31
ATOM     31  C   UNL     1       0.290   5.435   2.065  1.00  0.00     0.023 C 
BRANCH  31  32
ATOM     32  C   UNL     1      -0.872   6.034   1.282  1.00  0.00     0.116 C 
BRANCH  32  33
ATOM     33  N   UNL     1      -1.752   5.054   0.635  1.00  0.00    -0.352 N 
ATOM     34  C   UNL     1      -2.860   5.319  -0.169  1.00  0.00     0.251 C 
ATOM     35  H   UNL     1      -1.537   4.105   0.786  1.00  0.00     0.163 HD
ATOM     36  O   UNL     1      -3.728   4.489  -0.354  1.00  0.00    -0.269 OA
BRANCH  34  37
ATOM     37  C   UNL     1      -2.929   6.646  -0.813  1.00  0.00     0.039 A 
ATOM     38  C   UNL     1      -4.090   7.425  -0.844  1.00  0.00     0.014 A 
ATOM     39  C   UNL     1      -1.732   7.132  -1.319  1.00  0.00     0.014 A 
ATOM     40  C   UNL     1      -3.999   8.739  -1.308  1.00  0.00     0.010 A 
ATOM     41  C   UNL     1      -1.602   8.471  -1.547  1.00  0.00     0.010 A 
ATOM     42  C   UNL     1      -2.740   9.262  -1.640  1.00  0.00    -0.014 A 
BRANCH  42  43
ATOM     43  C   UNL     1      -2.544  10.656  -2.026  1.00  0.00     0.031 A 
ATOM     44  C   UNL     1      -3.028  11.662  -1.040  1.00  0.00     0.074 A 
ATOM     45  C   UNL     1      -1.735  10.997  -3.056  1.00  0.00     0.049 A 
ATOM     46  N   UNL     1      -3.998  12.505  -1.171  1.00  0.00    -0.248 NA
ATOM     47  C   UNL     1      -2.449  11.637   0.314  1.00  0.00     0.031 C 
ATOM     48  C   UNL     1      -0.911  10.119  -3.904  1.00  0.00     0.029 A 
ATOM     49  N   UNL     1      -1.375  12.232  -3.490  1.00  0.00    -0.354 N 
ATOM     50  C   UNL     1      -3.993  13.280  -0.012  1.00  0.00     0.074 A 
ATOM     51  C   UNL     1      -3.179  12.565   0.935  1.00  0.00     0.031 C 
ATOM     52  C   UNL     1       0.020  10.850  -4.552  1.00  0.00     0.029 A 
ATOM     53  C   UNL     1      -0.265  12.253  -4.328  1.00  0.00     0.049 A 
ATOM     54  H   UNL     1      -1.861  13.048  -3.231  1.00  0.00     0.167 HD
ATOM     55  C   UNL     1      -4.445  14.567  -0.015  1.00  0.00     0.037 A 
ATOM     56  C   UNL     1       0.385  13.349  -4.791  1.00  0.00     0.037 A 
ATOM     57  C   UNL     1      -5.217  14.837  -1.205  1.00  0.00     0.049 A 
ATOM     58  C   UNL     1      -0.559  14.489  -4.655  1.00  0.00     0.074 A 
ATOM     59  C   UNL     1      -6.354  14.290  -1.769  1.00  0.00     0.029 A 
ATOM     60  N   UNL     1      -4.609  15.546  -2.214  1.00  0.00    -0.354 N 
ATOM     61  N   UNL     1      -1.682  14.584  -5.316  1.00  0.00    -0.248 NA
ATOM     62  C   UNL     1      -0.486  15.280  -3.436  1.00  0.00     0.031 C 
ATOM     63  C   UNL     1      -6.097  14.274  -3.172  1.00  0.00     0.029 A 
ATOM     64  C   UNL     1      -4.859  14.883  -3.389  1.00  0.00     0.049 A 
ATOM     65  H   UNL     1      -4.090  16.376  -2.112  1.00  0.00     0.167 HD
ATOM     66  C   UNL     1      -2.594  15.094  -4.402  1.00  0.00     0.074 A 
ATOM     67  C   UNL     1      -1.779  15.582  -3.290  1.00  0.00     0.031 C 
ATOM     68  C   UNL     1      -3.929  14.817  -4.498  1.00  0.00     0.037 A 
BRANCH  55  69
ATOM     69  C   UNL     1      -3.892  15.683   0.849  1.00  0.00     0.058 A 
ATOM     70  C   UNL     1      -4.523  16.947   0.827  1.00  0.00     0.135 A 
ATOM     71  C   UNL     1      -2.623  15.657   1.471  1.00  0.00     0.135 A 
ATOM     72  F   UNL     1      -5.736  17.096   0.270  1.00  0.00    -0.206 F 
ATOM     73  C   UNL     1      -3.902  18.105   1.298  1.00  0.00     0.059 A 
ATOM     74  C   UNL     1      -2.010  16.790   1.997  1.00  0.00     0.059 A 
ATOM     75  F   UNL     1      -1.864  14.557   1.516  1.00  0.00    -0.206 F 
ATOM     76  C   UNL     1      -2.635  18.017   1.862  1.00  0.00     0.060 A 
BRANCH  76  77
ATOM     77  S   UNL     1      -1.775  19.521   2.353  1.00  0.00     0.124 S 
ATOM     78  O   UNL     1      -1.502  20.133   1.058  1.00  0.00    -0.237 OA
ATOM     79  O   UNL     1      -2.777  20.187   3.179  1.00  0.00    -0.237 OA
ATOM     80  O   UNL     1      -0.609  19.020   3.074  1.00  0.00    -0.744 OA
ENDBRANCH  76  77
ENDBRANCH  55  69
BRANCH  56  81
ATOM     81  C   UNL     1       1.846  13.523  -5.006  1.00  0.00     0.058 A 
ATOM     82  C   UNL     1       2.352  14.616  -5.730  1.00  0.00     0.135 A 
ATOM     83  C   UNL     1       2.791  12.778  -4.268  1.00  0.00     0.135 A 
ATOM     84  F   UNL     1       1.522  15.390  -6.447  1.00  0.00    -0.206 F 
ATOM     85  C   UNL     1       3.702  14.982  -5.685  1.00  0.00     0.059 A 
ATOM     86  C   UNL     1       4.142  13.118  -4.214  1.00  0.00     0.059 A 
ATOM     87  F   UNL     1       2.409  11.745  -3.501  1.00  0.00    -0.206 F 
ATOM     88  C   UNL     1       4.587  14.239  -4.905  1.00  0.00     0.060 A 
BRANCH  88  89
ATOM     89  S   UNL     1       6.291  14.814  -4.700  1.00  0.00     0.124 S 
ATOM     90  O   UNL     1       6.852  14.571  -6.024  1.00  0.00    -0.237 OA
ATOM     91  O   UNL     1       6.102  16.214  -4.334  1.00  0.00    -0.237 OA
ATOM     92  O   UNL     1       6.811  13.960  -3.635  1.00  0.00    -0.744 OA
ENDBRANCH  88  89
ENDBRANCH  56  81
BRANCH  68  93
ATOM     93  C   UNL     1      -4.444  14.184  -5.769  1.00  0.00     0.058 A 
ATOM     94  C   UNL     1      -4.104  12.894  -6.215  1.00  0.00     0.135 A 
ATOM     95  C   UNL     1      -5.461  14.849  -6.470  1.00  0.00     0.135 A 
ATOM     96  F   UNL     1      -3.216  12.145  -5.550  1.00  0.00    -0.206 F 
ATOM     97  C   UNL     1      -4.723  12.307  -7.322  1.00  0.00     0.059 A 
ATOM     98  C   UNL     1      -6.113  14.273  -7.557  1.00  0.00     0.059 A 
ATOM     99  F   UNL     1      -5.878  16.059  -6.060  1.00  0.00    -0.206 F 
ATOM    100  C   UNL     1      -5.732  13.003  -7.985  1.00  0.00     0.060 A 
BRANCH 100 101
ATOM    101  S   UNL     1      -6.593  12.210  -9.360  1.00  0.00     0.124 S 
ATOM    102  O   UNL     1      -5.574  12.214 -10.405  1.00  0.00    -0.237 OA
ATOM    103  O   UNL     1      -6.931  10.899  -8.810  1.00  0.00    -0.237 OA
ATOM    104  O   UNL     1      -7.736  13.087  -9.599  1.00  0.00    -0.744 OA
ENDBRANCH 100 101
ENDBRANCH  68  93
ENDBRANCH  42  43
ENDBRANCH  34  37
ENDBRANCH  32  33
ENDBRANCH  31  32
ENDBRANCH   1  31
TORSDOF 19
