REMARK SMILES Cc1coc2c(C)c3oc(=O)c(CCC(=O)N[C@H](CC(C)C)C(=O)NCCCCNC(=O)c4ccc(-c5c6nc(c(-c7c(F)cc(S(=O)(=O)[O-])cc7F)c7ccc([nH]7)c(-c7c(F)cc(S(=O)(=O)[O-])cc7F)c7nc(c(-c8c(F)cc(S(=O)(=O)[O-])cc8F)c8ccc5[nH]8)C=C7)C=C6)cc4)c(C)c3cc12
REMARK SMILES IDX 27 1 26 2 25 3 23 4 24 5 18 7 17 8 15 9 16 10 14 12 13 13
REMARK SMILES IDX 12 14 1 15 2 16 3 17 103 18 4 19 5 20 102 21 6 22 101 23
REMARK SMILES IDX 7 24 8 25 99 26 9 27 100 28 10 29 11 30 19 31 20 32 21 33
REMARK SMILES IDX 22 34 28 35 29 36 30 37 31 38 32 40 33 41 34 42 98 43 35 44
REMARK SMILES IDX 97 45 36 46 37 47 38 48 91 49 39 50 96 51 90 52 92 53 40 54
REMARK SMILES IDX 95 55 89 56 88 57 41 59 75 60 54 61 74 62 55 63 58 64 73 65
REMARK SMILES IDX 93 66 56 67 57 68 72 70 94 71 59 72 42 73 43 74 52 75 44 76
REMARK SMILES IDX 45 77 51 78 53 79 46 80 47 81 48 82 49 83 50 84 76 85 77 86
REMARK SMILES IDX 86 87 78 88 79 89 85 90 87 91 80 92 81 93 82 94 83 95 84 96
REMARK SMILES IDX 60 97 61 98 70 99 62 100 63 101 69 102 71 103 64 104 65 105
REMARK SMILES IDX 66 106 67 107 68 108
REMARK H PARENT 25 6 17 11 30 39 92 58 58 69
REMARK Flexibility Score: inf
ROOT
ATOM      1  C   UNL     1      -2.462   1.798   0.744  1.00  0.00     0.023 C 
ENDROOT
BRANCH   1   2
ATOM      2  C   UNL     1      -1.817   0.852  -0.280  1.00  0.00     0.116 C 
BRANCH   2   3
ATOM      3  N   UNL     1      -2.820   0.133  -1.037  1.00  0.00    -0.354 N 
ATOM      4  C   UNL     1      -3.637   0.782  -1.921  1.00  0.00     0.242 C 
ATOM      5  O   UNL     1      -4.811   0.970  -1.597  1.00  0.00    -0.273 OA
ATOM      6  H   UNL     1      -2.914  -0.839  -0.914  1.00  0.00     0.163 HD
BRANCH   4   7
ATOM      7  C   UNL     1      -3.050   1.442  -3.180  1.00  0.00     0.171 C 
BRANCH   7   8
ATOM      8  N   UNL     1      -1.793   0.848  -3.634  1.00  0.00    -0.344 N 
ATOM      9  C   UNL     1      -1.396   0.500  -4.890  1.00  0.00     0.220 C 
ATOM     10  O   UNL     1      -0.313  -0.074  -5.021  1.00  0.00    -0.275 OA
ATOM     11  H   UNL     1      -1.134   0.673  -2.924  1.00  0.00     0.164 HD
BRANCH   9  12
ATOM     12  C   UNL     1      -2.263   0.811  -6.097  1.00  0.00     0.105 C 
BRANCH  12  13
ATOM     13  C   UNL     1      -3.171  -0.334  -6.581  1.00  0.00     0.053 C 
BRANCH  13  14
ATOM     14  C   UNL     1      -4.202  -0.803  -5.569  1.00  0.00     0.042 A 
ATOM     15  C   UNL     1      -4.049  -3.661   0.729  1.00  0.00     0.048 C 
ATOM     16  C   UNL     1      -5.192  -2.908   0.161  1.00  0.00    -0.005 A 
ATOM     17  C   UNL     1      -6.284  -2.405   0.836  1.00  0.00     0.199 A 
ATOM     18  C   UNL     1      -5.362  -2.495  -1.194  1.00  0.00     0.024 A 
ATOM     19  O   UNL     1      -7.072  -1.671   0.009  1.00  0.00    -0.464 OA
ATOM     20  C   UNL     1      -6.497  -1.699  -1.228  1.00  0.00     0.140 A 
ATOM     21  C   UNL     1      -4.601  -2.640  -2.366  1.00  0.00     0.024 A 
ATOM     22  C   UNL     1      -6.933  -0.981  -2.349  1.00  0.00     0.036 A 
ATOM     23  C   UNL     1      -4.925  -1.885  -3.505  1.00  0.00     0.022 A 
ATOM     24  C   UNL     1      -8.076  -0.020  -2.263  1.00  0.00     0.052 C 
ATOM     25  C   UNL     1      -6.089  -1.106  -3.480  1.00  0.00     0.145 A 
ATOM     26  C   UNL     1      -3.953  -1.720  -4.610  1.00  0.00    -0.030 A 
ATOM     27  O   UNL     1      -6.410  -0.317  -4.608  1.00  0.00    -0.422 OA
ATOM     28  C   UNL     1      -2.645  -2.469  -4.490  1.00  0.00     0.046 C 
ATOM     29  C   UNL     1      -5.540  -0.152  -5.673  1.00  0.00     0.339 A 
ATOM     30  O   UNL     1      -5.844   0.549  -6.634  1.00  0.00    -0.246 OA
ENDBRANCH  13  14
ENDBRANCH  12  13
ENDBRANCH   9  12
ENDBRANCH   7   8
BRANCH   7  31
ATOM     31  C   UNL     1      -2.965   2.956  -2.947  1.00  0.00     0.038 C 
BRANCH  31  32
ATOM     32  C   UNL     1      -3.460   3.828  -4.120  1.00  0.00    -0.015 C 
ATOM     33  C   UNL     1      -4.852   3.440  -4.630  1.00  0.00     0.007 C 
ATOM     34  C   UNL     1      -3.493   5.291  -3.675  1.00  0.00     0.007 C 
ENDBRANCH  31  32
ENDBRANCH   7  31
ENDBRANCH   4   7
ENDBRANCH   2   3
ENDBRANCH   1   2
BRANCH   1  35
ATOM     35  C   UNL     1      -3.355   1.128   1.801  1.00  0.00     0.023 C 
BRANCH  35  36
ATOM     36  C   UNL     1      -2.654   0.047   2.607  1.00  0.00     0.116 C 
BRANCH  36  37
ATOM     37  N   UNL     1      -1.466   0.554   3.285  1.00  0.00    -0.352 N 
ATOM     38  C   UNL     1      -0.609  -0.120   4.131  1.00  0.00     0.251 C 
ATOM     39  H   UNL     1      -1.247   1.499   3.117  1.00  0.00     0.163 HD
ATOM     40  O   UNL     1       0.147   0.491   4.865  1.00  0.00    -0.269 OA
BRANCH  38  41
ATOM     41  C   UNL     1      -0.637  -1.593   4.130  1.00  0.00     0.039 A 
ATOM     42  C   UNL     1      -0.622  -2.304   5.332  1.00  0.00     0.014 A 
ATOM     43  C   UNL     1      -0.701  -2.255   2.905  1.00  0.00     0.014 A 
ATOM     44  C   UNL     1      -0.751  -3.689   5.293  1.00  0.00     0.010 A 
ATOM     45  C   UNL     1      -0.944  -3.607   2.875  1.00  0.00     0.010 A 
ATOM     46  C   UNL     1      -0.936  -4.335   4.061  1.00  0.00    -0.014 A 
BRANCH  46  47
ATOM     47  C   UNL     1      -1.238  -5.763   4.014  1.00  0.00     0.031 A 
ATOM     48  C   UNL     1      -2.398  -6.190   4.850  1.00  0.00     0.074 A 
ATOM     49  C   UNL     1      -0.662  -6.607   3.132  1.00  0.00     0.049 A 
ATOM     50  N   UNL     1      -2.381  -6.956   5.890  1.00  0.00    -0.248 NA
ATOM     51  C   UNL     1      -3.717  -5.591   4.583  1.00  0.00     0.031 C 
ATOM     52  C   UNL     1       0.280  -6.306   2.047  1.00  0.00     0.029 A 
ATOM     53  N   UNL     1      -0.888  -7.936   2.962  1.00  0.00    -0.354 N 
ATOM     54  C   UNL     1      -3.707  -7.109   6.290  1.00  0.00     0.074 A 
ATOM     55  C   UNL     1      -4.459  -6.124   5.556  1.00  0.00     0.031 C 
ATOM     56  C   UNL     1       0.350  -7.357   1.201  1.00  0.00     0.029 A 
ATOM     57  C   UNL     1      -0.398  -8.462   1.771  1.00  0.00     0.049 A 
ATOM     58  H   UNL     1      -1.361  -8.484   3.629  1.00  0.00     0.167 HD
ATOM     59  C   UNL     1      -4.105  -8.169   7.049  1.00  0.00     0.037 A 
ATOM     60  C   UNL     1      -0.614  -9.711   1.285  1.00  0.00     0.037 A 
ATOM     61  C   UNL     1      -2.972  -8.845   7.629  1.00  0.00     0.049 A 
ATOM     62  C   UNL     1      -0.992 -10.559   2.448  1.00  0.00     0.074 A 
ATOM     63  C   UNL     1      -1.962  -8.469   8.494  1.00  0.00     0.029 A 
ATOM     64  N   UNL     1      -2.531  -9.998   7.022  1.00  0.00    -0.354 N 
ATOM     65  N   UNL     1      -0.176 -10.840   3.429  1.00  0.00    -0.248 NA
ATOM     66  C   UNL     1      -2.408 -10.686   2.760  1.00  0.00     0.031 C 
ATOM     67  C   UNL     1      -0.792  -9.104   7.986  1.00  0.00     0.029 A 
ATOM     68  C   UNL     1      -1.169  -9.889   6.895  1.00  0.00     0.049 A 
ATOM     69  H   UNL     1      -3.088 -10.757   6.733  1.00  0.00     0.167 HD
ATOM     70  C   UNL     1      -0.955 -10.759   4.575  1.00  0.00     0.074 A 
ATOM     71  C   UNL     1      -2.336 -10.739   4.093  1.00  0.00     0.031 C 
ATOM     72  C   UNL     1      -0.413 -10.430   5.786  1.00  0.00     0.037 A 
BRANCH  59  73
ATOM     73  C   UNL     1      -5.474  -8.807   7.008  1.00  0.00     0.058 A 
ATOM     74  C   UNL     1      -5.809  -9.790   7.965  1.00  0.00     0.135 A 
ATOM     75  C   UNL     1      -6.353  -8.705   5.908  1.00  0.00     0.135 A 
ATOM     76  F   UNL     1      -5.045  -9.973   9.054  1.00  0.00    -0.206 F 
ATOM     77  C   UNL     1      -6.885 -10.662   7.797  1.00  0.00     0.059 A 
ATOM     78  C   UNL     1      -7.462  -9.530   5.748  1.00  0.00     0.059 A 
ATOM     79  F   UNL     1      -6.123  -7.870   4.888  1.00  0.00    -0.206 F 
ATOM     80  C   UNL     1      -7.694 -10.535   6.673  1.00  0.00     0.060 A 
BRANCH  80  81
ATOM     81  S   UNL     1      -9.005 -11.738   6.391  1.00  0.00     0.124 S 
ATOM     82  O   UNL     1      -8.236 -12.954   6.151  1.00  0.00    -0.237 OA
ATOM     83  O   UNL     1      -9.740 -11.683   7.650  1.00  0.00    -0.237 OA
ATOM     84  O   UNL     1      -9.711 -11.199   5.233  1.00  0.00    -0.744 OA
ENDBRANCH  80  81
ENDBRANCH  59  73
BRANCH  60  85
ATOM     85  C   UNL     1      -0.852 -10.111  -0.129  1.00  0.00     0.058 A 
ATOM     86  C   UNL     1      -0.890 -11.466  -0.507  1.00  0.00     0.135 A 
ATOM     87  C   UNL     1      -1.330  -9.191  -1.086  1.00  0.00     0.135 A 
ATOM     88  F   UNL     1      -0.470 -12.415   0.344  1.00  0.00    -0.206 F 
ATOM     89  C   UNL     1      -1.425 -11.888  -1.731  1.00  0.00     0.059 A 
ATOM     90  C   UNL     1      -1.857  -9.586  -2.315  1.00  0.00     0.059 A 
ATOM     91  F   UNL     1      -1.388  -7.878  -0.817  1.00  0.00    -0.206 F 
ATOM     92  C   UNL     1      -1.930 -10.939  -2.619  1.00  0.00     0.060 A 
BRANCH  92  93
ATOM     93  S   UNL     1      -2.794 -11.484  -4.113  1.00  0.00     0.124 S 
ATOM     94  O   UNL     1      -1.713 -12.086  -4.885  1.00  0.00    -0.237 OA
ATOM     95  O   UNL     1      -3.785 -12.408  -3.572  1.00  0.00    -0.237 OA
ATOM     96  O   UNL     1      -3.337 -10.243  -4.660  1.00  0.00    -0.744 OA
ENDBRANCH  92  93
ENDBRANCH  60  85
BRANCH  72  97
ATOM     97  C   UNL     1       1.090 -10.396   5.923  1.00  0.00     0.058 A 
ATOM     98  C   UNL     1       1.930  -9.495   5.242  1.00  0.00     0.135 A 
ATOM     99  C   UNL     1       1.680 -11.181   6.925  1.00  0.00     0.135 A 
ATOM    100  F   UNL     1       1.436  -8.636   4.343  1.00  0.00    -0.206 F 
ATOM    101  C   UNL     1       3.296  -9.402   5.522  1.00  0.00     0.059 A 
ATOM    102  C   UNL     1       3.032 -11.083   7.244  1.00  0.00     0.059 A 
ATOM    103  F   UNL     1       0.923 -12.016   7.656  1.00  0.00    -0.206 F 
ATOM    104  C   UNL     1       3.837 -10.197   6.531  1.00  0.00     0.060 A 
BRANCH 104 105
ATOM    105  S   UNL     1       5.585 -10.015   6.949  1.00  0.00     0.124 S 
ATOM    106  O   UNL     1       6.242 -10.562   5.767  1.00  0.00    -0.237 OA
ATOM    107  O   UNL     1       5.716  -8.574   7.138  1.00  0.00    -0.237 OA
ATOM    108  O   UNL     1       5.729 -10.810   8.167  1.00  0.00    -0.744 OA
ENDBRANCH 104 105
ENDBRANCH  72  97
ENDBRANCH  46  47
ENDBRANCH  38  41
ENDBRANCH  36  37
ENDBRANCH  35  36
ENDBRANCH   1  35
TORSDOF 20
