REMARK SMILES COc1cc(OC)cc(-n2nnc(C(=O)NCCCCNC(=O)c3ccc(-c4c5nc(c(-c6c(F)cc(S(=O)(=O)[O-])cc6F)c6ccc([nH]6)c(-c6c(F)cc(S(=O)(=O)[O-])cc6F)c6nc(c(-c7c(F)cc(S(=O)(=O)[O-])cc7F)c7ccc4[nH]7)C=C6)C=C5)cc3)c2C(C)(C)C)c1
REMARK SMILES IDX 19 1 18 2 17 3 16 4 14 5 15 6 13 8 10 9 11 10 90 11 12 12
REMARK SMILES IDX 9 13 3 14 4 15 95 16 5 17 8 18 2 19 1 20 6 21 7 22 91 23
REMARK SMILES IDX 92 24 93 25 94 26 20 27 21 28 22 29 23 31 24 32 25 33 89 34
REMARK SMILES IDX 26 35 88 36 27 37 28 38 29 39 82 40 30 41 87 42 81 43 83 44
REMARK SMILES IDX 31 45 86 46 80 47 79 48 32 50 66 51 45 52 65 53 46 54 49 55
REMARK SMILES IDX 64 56 84 57 47 58 48 59 63 61 85 62 50 63 33 64 34 65 43 66
REMARK SMILES IDX 35 67 36 68 42 69 44 70 37 71 38 72 39 73 40 74 41 75 67 76
REMARK SMILES IDX 68 77 77 78 69 79 70 80 76 81 78 82 71 83 72 84 73 85 74 86
REMARK SMILES IDX 75 87 51 88 52 89 61 90 53 91 54 92 60 93 62 94 55 95 56 96
REMARK SMILES IDX 57 97 58 98 59 99
REMARK H PARENT 16 7 21 30 83 49 49 60
REMARK Flexibility Score: inf
ROOT
ATOM      1  C   UNL     1       7.978   4.454   4.484  1.00  0.00     0.023 C 
ENDROOT
BRANCH   1   2
ATOM      2  C   UNL     1       7.326   3.087   4.725  1.00  0.00     0.023 C 
BRANCH   2   3
ATOM      3  C   UNL     1       7.560   2.022   3.637  1.00  0.00     0.116 C 
BRANCH   3   4
ATOM      4  N   UNL     1       7.779   0.663   4.144  1.00  0.00    -0.351 N 
ATOM      5  C   UNL     1       7.226  -0.593   4.255  1.00  0.00     0.273 C 
ATOM      6  O   UNL     1       8.073  -1.395   4.679  1.00  0.00    -0.267 OA
ATOM      7  H   UNL     1       8.666   0.640   4.570  1.00  0.00     0.163 HD
BRANCH   5   8
ATOM      8  C   UNL     1       5.849  -1.104   4.013  1.00  0.00     0.174 A 
ATOM      9  N   UNL     1       3.750  -1.715   3.697  1.00  0.00    -0.216 N 
ATOM     10  N   UNL     1       4.385  -2.754   4.254  1.00  0.00    -0.061 NA
ATOM     11  C   UNL     1       4.594  -0.606   3.606  1.00  0.00     0.083 A 
ATOM     12  N   UNL     1       5.658  -2.438   4.362  1.00  0.00    -0.124 NA
BRANCH   9  13
ATOM     13  C   UNL     1       2.351  -1.750   3.575  1.00  0.00     0.074 A 
ATOM     14  C   UNL     1       0.455  -1.137   2.239  1.00  0.00     0.124 A 
ATOM     15  C   UNL     1      -0.295  -1.012   3.418  1.00  0.00     0.093 A 
ATOM     16  C   UNL     1       1.779  -1.560   2.314  1.00  0.00     0.075 A 
ATOM     17  C   UNL     1       0.265  -1.285   4.675  1.00  0.00     0.124 A 
ATOM     18  C   UNL     1       1.595  -1.686   4.754  1.00  0.00     0.075 A 
BRANCH  14  19
ATOM     19  O   UNL     1      -0.174  -0.711   1.100  1.00  0.00    -0.497 OA
ATOM     20  C   UNL     1       0.639  -0.483  -0.050  1.00  0.00     0.278 C 
ENDBRANCH  14  19
BRANCH  17  21
ATOM     21  O   UNL     1      -0.557  -1.045   5.743  1.00  0.00    -0.497 OA
ATOM     22  C   UNL     1       0.054  -1.037   7.030  1.00  0.00     0.278 C 
ENDBRANCH  17  21
ENDBRANCH   9  13
BRANCH  11  23
ATOM     23  C   UNL     1       4.168   0.809   3.271  1.00  0.00     0.007 C 
ATOM     24  C   UNL     1       4.463   1.617   4.546  1.00  0.00     0.017 C 
ATOM     25  C   UNL     1       4.853   1.162   1.936  1.00  0.00     0.017 C 
ATOM     26  C   UNL     1       2.702   1.208   3.027  1.00  0.00     0.017 C 
ENDBRANCH  11  23
ENDBRANCH   5   8
ENDBRANCH   3   4
ENDBRANCH   2   3
ENDBRANCH   1   2
BRANCH   1  27
ATOM     27  C   UNL     1       7.642   5.121   3.154  1.00  0.00     0.116 C 
BRANCH  27  28
ATOM     28  N   UNL     1       6.290   5.671   3.058  1.00  0.00    -0.352 N 
ATOM     29  C   UNL     1       5.747   6.303   1.938  1.00  0.00     0.251 C 
ATOM     30  H   UNL     1       5.714   5.588   3.852  1.00  0.00     0.163 HD
ATOM     31  O   UNL     1       4.790   7.032   2.011  1.00  0.00    -0.269 OA
BRANCH  29  32
ATOM     32  C   UNL     1       6.411   6.027   0.644  1.00  0.00     0.039 A 
ATOM     33  C   UNL     1       6.986   7.048  -0.114  1.00  0.00     0.014 A 
ATOM     34  C   UNL     1       6.604   4.688   0.317  1.00  0.00     0.014 A 
ATOM     35  C   UNL     1       7.868   6.702  -1.140  1.00  0.00     0.010 A 
ATOM     36  C   UNL     1       7.566   4.357  -0.610  1.00  0.00     0.010 A 
ATOM     37  C   UNL     1       8.196   5.353  -1.359  1.00  0.00    -0.014 A 
BRANCH  37  38
ATOM     38  C   UNL     1       9.288   4.993  -2.272  1.00  0.00     0.031 A 
ATOM     39  C   UNL     1      10.592   5.704  -2.075  1.00  0.00     0.074 A 
ATOM     40  C   UNL     1       9.255   3.919  -3.091  1.00  0.00     0.049 A 
ATOM     41  N   UNL     1      11.205   6.500  -2.891  1.00  0.00    -0.248 NA
ATOM     42  C   UNL     1      11.267   5.563  -0.774  1.00  0.00     0.031 C 
ATOM     43  C   UNL     1       8.217   2.886  -3.207  1.00  0.00     0.029 A 
ATOM     44  N   UNL     1      10.225   3.462  -3.931  1.00  0.00    -0.354 N 
ATOM     45  C   UNL     1      12.434   6.805  -2.301  1.00  0.00     0.074 A 
ATOM     46  C   UNL     1      12.351   6.324  -0.945  1.00  0.00     0.031 C 
ATOM     47  C   UNL     1       8.711   1.820  -3.872  1.00  0.00     0.029 A 
ATOM     48  C   UNL     1      10.015   2.173  -4.397  1.00  0.00     0.049 A 
ATOM     49  H   UNL     1      11.009   4.001  -4.184  1.00  0.00     0.167 HD
ATOM     50  C   UNL     1      13.498   7.256  -3.028  1.00  0.00     0.037 A 
ATOM     51  C   UNL     1      10.846   1.431  -5.165  1.00  0.00     0.037 A 
ATOM     52  C   UNL     1      13.087   7.703  -4.335  1.00  0.00     0.049 A 
ATOM     53  C   UNL     1      11.761   2.370  -5.856  1.00  0.00     0.074 A 
ATOM     54  C   UNL     1      12.216   8.664  -4.812  1.00  0.00     0.029 A 
ATOM     55  N   UNL     1      13.348   6.882  -5.405  1.00  0.00    -0.354 N 
ATOM     56  N   UNL     1      11.374   3.246  -6.744  1.00  0.00    -0.248 NA
ATOM     57  C   UNL     1      13.062   2.626  -5.259  1.00  0.00     0.031 C 
ATOM     58  C   UNL     1      11.617   8.075  -5.965  1.00  0.00     0.029 A 
ATOM     59  C   UNL     1      12.197   6.818  -6.148  1.00  0.00     0.049 A 
ATOM     60  H   UNL     1      14.198   6.427  -5.601  1.00  0.00     0.167 HD
ATOM     61  C   UNL     1      12.166   4.361  -6.517  1.00  0.00     0.074 A 
ATOM     62  C   UNL     1      13.256   3.880  -5.673  1.00  0.00     0.031 C 
ATOM     63  C   UNL     1      11.723   5.620  -6.808  1.00  0.00     0.037 A 
BRANCH  50  64
ATOM     64  C   UNL     1      14.957   6.997  -2.705  1.00  0.00     0.058 A 
ATOM     65  C   UNL     1      15.964   7.652  -3.449  1.00  0.00     0.135 A 
ATOM     66  C   UNL     1      15.403   5.926  -1.901  1.00  0.00     0.135 A 
ATOM     67  F   UNL     1      15.661   8.688  -4.249  1.00  0.00    -0.206 F 
ATOM     68  C   UNL     1      17.292   7.218  -3.464  1.00  0.00     0.059 A 
ATOM     69  C   UNL     1      16.732   5.511  -1.859  1.00  0.00     0.059 A 
ATOM     70  F   UNL     1      14.558   5.164  -1.196  1.00  0.00    -0.206 F 
ATOM     71  C   UNL     1      17.660   6.130  -2.681  1.00  0.00     0.060 A 
BRANCH  71  72
ATOM     72  S   UNL     1      19.335   5.475  -2.801  1.00  0.00     0.124 S 
ATOM     73  O   UNL     1      19.311   4.864  -4.125  1.00  0.00    -0.237 OA
ATOM     74  O   UNL     1      20.145   6.681  -2.667  1.00  0.00    -0.237 OA
ATOM     75  O   UNL     1      19.412   4.548  -1.676  1.00  0.00    -0.744 OA
ENDBRANCH  71  72
ENDBRANCH  50  64
BRANCH  51  76
ATOM     76  C   UNL     1      11.058  -0.034  -5.109  1.00  0.00     0.058 A 
ATOM     77  C   UNL     1      11.657  -0.731  -6.170  1.00  0.00     0.135 A 
ATOM     78  C   UNL     1      10.911  -0.740  -3.897  1.00  0.00     0.135 A 
ATOM     79  F   UNL     1      11.854  -0.123  -7.349  1.00  0.00    -0.206 F 
ATOM     80  C   UNL     1      12.120  -2.042  -6.027  1.00  0.00     0.059 A 
ATOM     81  C   UNL     1      11.357  -2.050  -3.733  1.00  0.00     0.059 A 
ATOM     82  F   UNL     1      10.405  -0.141  -2.807  1.00  0.00    -0.206 F 
ATOM     83  C   UNL     1      11.982  -2.687  -4.797  1.00  0.00     0.060 A 
BRANCH  83  84
ATOM     84  S   UNL     1      12.727  -4.318  -4.565  1.00  0.00     0.124 S 
ATOM     85  O   UNL     1      11.885  -5.156  -5.412  1.00  0.00    -0.237 OA
ATOM     86  O   UNL     1      14.091  -4.102  -5.035  1.00  0.00    -0.237 OA
ATOM     87  O   UNL     1      12.595  -4.549  -3.129  1.00  0.00    -0.744 OA
ENDBRANCH  83  84
ENDBRANCH  51  76
BRANCH  63  88
ATOM     88  C   UNL     1      10.496   5.771  -7.673  1.00  0.00     0.058 A 
ATOM     89  C   UNL     1       9.207   5.351  -7.302  1.00  0.00     0.135 A 
ATOM     90  C   UNL     1      10.606   6.528  -8.850  1.00  0.00     0.135 A 
ATOM     91  F   UNL     1       8.995   4.713  -6.144  1.00  0.00    -0.206 F 
ATOM     92  C   UNL     1       8.085   5.640  -8.082  1.00  0.00     0.059 A 
ATOM     93  C   UNL     1       9.496   6.855  -9.627  1.00  0.00     0.059 A 
ATOM     94  F   UNL     1      11.800   7.014  -9.228  1.00  0.00    -0.206 F 
ATOM     95  C   UNL     1       8.238   6.399  -9.241  1.00  0.00     0.060 A 
BRANCH  95  96
ATOM     96  S   UNL     1       6.772   6.856 -10.191  1.00  0.00     0.124 S 
ATOM     97  O   UNL     1       6.403   5.590 -10.816  1.00  0.00    -0.237 OA
ATOM     98  O   UNL     1       5.862   7.342  -9.158  1.00  0.00    -0.237 OA
ATOM     99  O   UNL     1       7.265   7.883 -11.106  1.00  0.00    -0.744 OA
ENDBRANCH  95  96
ENDBRANCH  63  88
ENDBRANCH  37  38
ENDBRANCH  29  32
ENDBRANCH  27  28
ENDBRANCH   1  27
TORSDOF 18
