REMARK SMILES CCCCCCCCNC(=O)Oc1cccc(-c2ccc([C@@H](C)C(=O)NCCCCNC(=O)c3ccc(-c4c5nc(c(-c6c(F)cc(S(=O)(=O)[O-])cc6F)c6ccc([nH]6)c(-c6c(F)cc(S(=O)(=O)[O-])cc6F)c6nc(c(-c7c(F)cc(S(=O)(=O)[O-])cc7F)c7ccc4[nH]7)C=C6)C=C5)cc3)cc2F)c1
REMARK SMILES IDX 18 1 19 2 20 3 21 4 100 5 101 6 102 7 17 8 13 9 14 10 103 11
REMARK SMILES IDX 15 12 16 13 12 14 10 15 9 16 11 18 8 19 7 20 6 21 5 22 4 23
REMARK SMILES IDX 3 24 2 25 1 26 22 27 23 28 24 29 25 30 26 31 27 33 28 34
REMARK SMILES IDX 29 35 30 36 31 37 32 38 33 40 34 41 35 42 99 43 36 44 98 45
REMARK SMILES IDX 37 46 38 47 39 48 92 49 40 50 97 51 91 52 93 53 41 54 96 55
REMARK SMILES IDX 90 56 89 57 42 59 76 60 55 61 75 62 56 63 59 64 74 65 94 66
REMARK SMILES IDX 57 67 58 68 73 70 95 71 60 72 43 73 44 74 53 75 45 76 46 77
REMARK SMILES IDX 52 78 54 79 47 80 48 81 49 82 50 83 51 84 77 85 78 86 87 87
REMARK SMILES IDX 79 88 80 89 86 90 88 91 81 92 82 93 83 94 84 95 85 96 61 97
REMARK SMILES IDX 62 98 71 99 63 100 64 101 70 102 72 103 65 104 66 105 67 106
REMARK SMILES IDX 68 107 69 108
REMARK H PARENT 9 17 26 32 31 39 93 58 59 69
REMARK Flexibility Score: inf
ROOT
ATOM      1  C   UNL     1      -6.354  -6.274  -9.359  1.00  0.00     0.018 A 
ATOM      2  C   UNL     1      -7.495  -7.021  -9.690  1.00  0.00     0.012 A 
ATOM      3  C   UNL     1      -8.531  -6.479 -10.457  1.00  0.00     0.005 A 
ATOM      4  C   UNL     1      -8.513  -5.138 -10.850  1.00  0.00    -0.033 A 
ATOM      5  C   UNL     1      -7.359  -4.395 -10.565  1.00  0.00     0.044 A 
ATOM      6  C   UNL     1      -6.297  -4.964  -9.855  1.00  0.00     0.131 A 
ATOM      7  F   UNL     1      -5.210  -4.203  -9.651  1.00  0.00    -0.206 F 
ENDROOT
BRANCH   1   8
ATOM      8  C   UNL     1      -5.310  -6.853  -8.488  1.00  0.00    -0.012 A 
ATOM      9  C   UNL     1      -3.745  -6.655  -6.639  1.00  0.00     0.133 A 
ATOM     10  C   UNL     1      -3.408  -8.001  -6.727  1.00  0.00     0.047 A 
ATOM     11  C   UNL     1      -4.671  -6.077  -7.509  1.00  0.00     0.056 A 
ATOM     12  C   UNL     1      -4.023  -8.786  -7.694  1.00  0.00     0.004 A 
ATOM     13  C   UNL     1      -4.957  -8.216  -8.566  1.00  0.00     0.009 A 
BRANCH   9  14
ATOM     14  O   UNL     1      -3.038  -5.872  -5.722  1.00  0.00    -0.410 OA
BRANCH  14  15
ATOM     15  C   UNL     1      -3.787  -5.160  -4.798  1.00  0.00     0.412 C 
ATOM     16  N   UNL     1      -3.023  -4.314  -4.045  1.00  0.00    -0.321 N 
ATOM     17  H   UNL     1      -3.486  -3.805  -3.340  1.00  0.00     0.167 HD
ATOM     18  O   UNL     1      -4.996  -5.242  -4.628  1.00  0.00    -0.224 OA
BRANCH  16  19
ATOM     19  C   UNL     1      -1.599  -4.091  -4.181  1.00  0.00     0.119 C 
BRANCH  19  20
ATOM     20  C   UNL     1      -1.281  -2.627  -4.482  1.00  0.00     0.021 C 
BRANCH  20  21
ATOM     21  C   UNL     1      -1.693  -1.647  -3.377  1.00  0.00     0.002 C 
BRANCH  21  22
ATOM     22  C   UNL     1      -1.111  -1.953  -1.992  1.00  0.00     0.000 C 
BRANCH  22  23
ATOM     23  C   UNL     1       0.419  -1.942  -1.924  1.00  0.00    -0.000 C 
BRANCH  23  24
ATOM     24  C   UNL     1       1.066  -0.585  -2.218  1.00  0.00    -0.000 C 
BRANCH  24  25
ATOM     25  C   UNL     1       0.635   0.554  -1.291  1.00  0.00    -0.003 C 
ATOM     26  C   UNL     1       0.967   0.298   0.171  1.00  0.00     0.004 C 
ENDBRANCH  24  25
ENDBRANCH  23  24
ENDBRANCH  22  23
ENDBRANCH  21  22
ENDBRANCH  20  21
ENDBRANCH  19  20
ENDBRANCH  16  19
ENDBRANCH  14  15
ENDBRANCH   9  14
ENDBRANCH   1   8
BRANCH   4  27
ATOM     27  C   UNL     1      -9.699  -4.458 -11.514  1.00  0.00     0.105 C 
ATOM     28  C   UNL     1     -10.379  -5.251 -12.629  1.00  0.00     0.023 C 
BRANCH  27  29
ATOM     29  C   UNL     1     -10.679  -3.812 -10.520  1.00  0.00     0.227 C 
ATOM     30  O   UNL     1     -10.723  -2.580 -10.420  1.00  0.00    -0.274 OA
ATOM     31  N   UNL     1     -11.539  -4.516  -9.733  1.00  0.00    -0.356 N 
ATOM     32  H   UNL     1     -12.151  -3.955  -9.204  1.00  0.00     0.163 HD
BRANCH  31  33
ATOM     33  C   UNL     1     -11.717  -5.939  -9.533  1.00  0.00     0.116 C 
BRANCH  33  34
ATOM     34  C   UNL     1     -10.972  -6.442  -8.295  1.00  0.00     0.023 C 
BRANCH  34  35
ATOM     35  C   UNL     1     -11.760  -6.352  -6.992  1.00  0.00     0.023 C 
BRANCH  35  36
ATOM     36  C   UNL     1     -13.053  -7.158  -6.962  1.00  0.00     0.116 C 
BRANCH  36  37
ATOM     37  N   UNL     1     -12.871  -8.577  -7.236  1.00  0.00    -0.352 N 
ATOM     38  C   UNL     1     -13.567  -9.639  -6.704  1.00  0.00     0.251 C 
ATOM     39  H   UNL     1     -12.164  -8.805  -7.881  1.00  0.00     0.163 HD
ATOM     40  O   UNL     1     -13.235 -10.791  -6.963  1.00  0.00    -0.269 OA
BRANCH  38  41
ATOM     41  C   UNL     1     -14.690  -9.368  -5.782  1.00  0.00     0.039 A 
ATOM     42  C   UNL     1     -14.725 -10.018  -4.548  1.00  0.00     0.014 A 
ATOM     43  C   UNL     1     -15.660  -8.417  -6.110  1.00  0.00     0.014 A 
ATOM     44  C   UNL     1     -15.695  -9.658  -3.611  1.00  0.00     0.010 A 
ATOM     45  C   UNL     1     -16.565  -7.996  -5.143  1.00  0.00     0.010 A 
ATOM     46  C   UNL     1     -16.596  -8.613  -3.884  1.00  0.00    -0.014 A 
BRANCH  46  47
ATOM     47  C   UNL     1     -17.573  -8.155  -2.863  1.00  0.00     0.031 A 
ATOM     48  C   UNL     1     -19.050  -8.259  -3.133  1.00  0.00     0.074 A 
ATOM     49  C   UNL     1     -17.129  -7.592  -1.721  1.00  0.00     0.049 A 
ATOM     50  N   UNL     1     -20.054  -7.880  -2.385  1.00  0.00    -0.248 NA
ATOM     51  C   UNL     1     -19.453  -8.838  -4.426  1.00  0.00     0.031 C 
ATOM     52  C   UNL     1     -15.722  -7.374  -1.374  1.00  0.00     0.029 A 
ATOM     53  N   UNL     1     -17.814  -7.095  -0.640  1.00  0.00    -0.354 N 
ATOM     54  C   UNL     1     -21.201  -8.163  -3.119  1.00  0.00     0.074 A 
ATOM     55  C   UNL     1     -20.769  -8.686  -4.395  1.00  0.00     0.031 C 
ATOM     56  C   UNL     1     -15.649  -6.818  -0.154  1.00  0.00     0.029 A 
ATOM     57  C   UNL     1     -17.000  -6.603   0.354  1.00  0.00     0.049 A 
ATOM     58  H   UNL     1     -18.797  -7.090  -0.582  1.00  0.00     0.167 HD
ATOM     59  C   UNL     1     -22.496  -8.027  -2.750  1.00  0.00     0.037 A 
ATOM     60  C   UNL     1     -17.307  -6.040   1.539  1.00  0.00     0.037 A 
ATOM     61  C   UNL     1     -22.917  -7.532  -1.465  1.00  0.00     0.049 A 
ATOM     62  C   UNL     1     -18.755  -5.910   1.930  1.00  0.00     0.074 A 
ATOM     63  C   UNL     1     -24.203  -7.418  -0.968  1.00  0.00     0.029 A 
ATOM     64  N   UNL     1     -22.063  -7.067  -0.476  1.00  0.00    -0.354 N 
ATOM     65  N   UNL     1     -19.826  -6.257   1.255  1.00  0.00    -0.248 NA
ATOM     66  C   UNL     1     -19.038  -5.321   3.245  1.00  0.00     0.031 C 
ATOM     67  C   UNL     1     -24.130  -6.836   0.302  1.00  0.00     0.029 A 
ATOM     68  C   UNL     1     -22.796  -6.643   0.620  1.00  0.00     0.049 A 
ATOM     69  H   UNL     1     -21.081  -7.043  -0.543  1.00  0.00     0.167 HD
ATOM     70  C   UNL     1     -20.907  -5.955   2.076  1.00  0.00     0.074 A 
ATOM     71  C   UNL     1     -20.359  -5.413   3.303  1.00  0.00     0.031 C 
ATOM     72  C   UNL     1     -22.233  -6.111   1.837  1.00  0.00     0.037 A 
BRANCH  59  73
ATOM     73  C   UNL     1     -23.554  -8.428  -3.743  1.00  0.00     0.058 A 
ATOM     74  C   UNL     1     -23.765  -9.771  -4.095  1.00  0.00     0.135 A 
ATOM     75  C   UNL     1     -24.398  -7.463  -4.315  1.00  0.00     0.135 A 
ATOM     76  F   UNL     1     -22.976 -10.735  -3.593  1.00  0.00    -0.206 F 
ATOM     77  C   UNL     1     -24.757 -10.141  -4.997  1.00  0.00     0.059 A 
ATOM     78  C   UNL     1     -25.418  -7.813  -5.196  1.00  0.00     0.059 A 
ATOM     79  F   UNL     1     -24.241  -6.164  -4.017  1.00  0.00    -0.206 F 
ATOM     80  C   UNL     1     -25.582  -9.154  -5.540  1.00  0.00     0.060 A 
BRANCH  80  81
ATOM     81  S   UNL     1     -26.878  -9.655  -6.691  1.00  0.00     0.124 S 
ATOM     82  O   UNL     1     -26.096 -10.018  -7.870  1.00  0.00    -0.237 OA
ATOM     83  O   UNL     1     -27.510 -10.765  -5.985  1.00  0.00    -0.237 OA
ATOM     84  O   UNL     1     -27.696  -8.454  -6.827  1.00  0.00    -0.744 OA
ENDBRANCH  80  81
ENDBRANCH  59  73
BRANCH  60  85
ATOM     85  C   UNL     1     -16.225  -5.578   2.451  1.00  0.00     0.058 A 
ATOM     86  C   UNL     1     -15.973  -6.232   3.666  1.00  0.00     0.135 A 
ATOM     87  C   UNL     1     -15.420  -4.474   2.126  1.00  0.00     0.135 A 
ATOM     88  F   UNL     1     -16.717  -7.289   4.026  1.00  0.00    -0.206 F 
ATOM     89  C   UNL     1     -14.981  -5.795   4.539  1.00  0.00     0.059 A 
ATOM     90  C   UNL     1     -14.403  -4.036   2.969  1.00  0.00     0.059 A 
ATOM     91  F   UNL     1     -15.607  -3.823   0.968  1.00  0.00    -0.206 F 
ATOM     92  C   UNL     1     -14.200  -4.695   4.180  1.00  0.00     0.060 A 
BRANCH  92  93
ATOM     93  S   UNL     1     -12.893  -4.157   5.305  1.00  0.00     0.124 S 
ATOM     94  O   UNL     1     -13.665  -3.556   6.386  1.00  0.00    -0.237 OA
ATOM     95  O   UNL     1     -12.223  -5.415   5.620  1.00  0.00    -0.237 OA
ATOM     96  O   UNL     1     -12.113  -3.227   4.493  1.00  0.00    -0.744 OA
ENDBRANCH  92  93
ENDBRANCH  60  85
BRANCH  72  97
ATOM     97  C   UNL     1     -23.184  -5.724   2.937  1.00  0.00     0.058 A 
ATOM     98  C   UNL     1     -23.407  -4.384   3.287  1.00  0.00     0.135 A 
ATOM     99  C   UNL     1     -23.916  -6.710   3.620  1.00  0.00     0.135 A 
ATOM    100  F   UNL     1     -22.731  -3.402   2.668  1.00  0.00    -0.206 F 
ATOM    101  C   UNL     1     -24.297  -4.035   4.297  1.00  0.00     0.059 A 
ATOM    102  C   UNL     1     -24.835  -6.382   4.611  1.00  0.00     0.059 A 
ATOM    103  F   UNL     1     -23.752  -8.008   3.316  1.00  0.00    -0.206 F 
ATOM    104  C   UNL     1     -25.007  -5.042   4.953  1.00  0.00     0.060 A 
BRANCH 104 105
ATOM    105  S   UNL     1     -26.175  -4.574   6.247  1.00  0.00     0.124 S 
ATOM    106  O   UNL     1     -25.276  -4.195   7.332  1.00  0.00    -0.237 OA
ATOM    107  O   UNL     1     -26.912  -3.480   5.622  1.00  0.00    -0.237 OA
ATOM    108  O   UNL     1     -26.945  -5.795   6.468  1.00  0.00    -0.744 OA
ENDBRANCH 104 105
ENDBRANCH  72  97
ENDBRANCH  46  47
ENDBRANCH  38  41
ENDBRANCH  36  37
ENDBRANCH  35  36
ENDBRANCH  34  35
ENDBRANCH  33  34
ENDBRANCH  31  33
ENDBRANCH  27  29
ENDBRANCH   4  27
TORSDOF 25
