REMARK SMILES O=C(CCNC(=O)/C(=C/c1ccccc1)NC(=O)c1ccccc1)NCCCCNC(=O)c1ccc(-c2c3nc(c(-c4c(F)cc(S(=O)(=O)[O-])cc4F)c4ccc([nH]4)c(-c4c(F)cc(S(=O)(=O)[O-])cc4F)c4nc(c(-c5c(F)cc(S(=O)(=O)[O-])cc5F)c5ccc2[nH]5)C=C4)C=C3)cc1
REMARK SMILES IDX 26 1 25 2 1 3 2 4 3 6 4 7 5 8 6 9 7 11 8 12 9 13 16 14 17 15
REMARK SMILES IDX 18 17 19 18 20 19 24 20 21 21 23 22 22 23 10 24 11 25 15 26
REMARK SMILES IDX 12 27 14 28 13 29 27 30 28 31 29 32 30 33 31 34 32 36 33 37
REMARK SMILES IDX 34 38 98 39 35 40 97 41 36 42 37 43 38 44 91 45 39 46 96 47
REMARK SMILES IDX 90 48 92 49 40 50 95 51 89 52 88 53 41 55 75 56 54 57 74 58
REMARK SMILES IDX 55 59 58 60 73 61 93 62 56 63 57 64 72 66 94 67 59 68 42 69
REMARK SMILES IDX 43 70 52 71 44 72 45 73 51 74 53 75 46 76 47 77 48 78 49 79
REMARK SMILES IDX 50 80 76 81 77 82 86 83 78 84 79 85 85 86 87 87 80 88 81 89
REMARK SMILES IDX 82 90 83 91 84 92 60 93 61 94 70 95 62 96 63 97 69 98 71 99
REMARK SMILES IDX 64 100 65 101 66 102 67 103 68 104
REMARK H PARENT 25 5 5 10 16 16 30 35 92 54 58 65
REMARK Flexibility Score: inf
ROOT
ATOM      1  C   UNL     1       2.199   2.496  -0.626  1.00  0.00     0.116 C 
ENDROOT
BRANCH   1   2
ATOM      2  N   UNL     1       2.918   1.297  -0.244  1.00  0.00    -0.356 N 
ATOM      3  O   UNL     1       1.067   0.045   0.299  1.00  0.00    -0.275 OA
ATOM      4  C   UNL     1       2.283   0.158   0.186  1.00  0.00     0.221 C 
ATOM      5  H   UNL     1       3.901   1.299  -0.296  1.00  0.00     0.163 HD
BRANCH   4   6
ATOM      6  C   UNL     1       3.222  -0.993   0.464  1.00  0.00     0.121 C 
BRANCH   6   7
ATOM      7  C   UNL     1       3.635  -1.652  -0.841  1.00  0.00     0.126 C 
BRANCH   7   8
ATOM      8  N   UNL     1       4.843  -1.113  -1.460  1.00  0.00    -0.350 N 
ATOM      9  C   UNL     1       6.106  -1.593  -1.669  1.00  0.00     0.267 C 
ATOM     10  H   UNL     1       4.721  -0.199  -1.804  1.00  0.00     0.163 HD
ATOM     11  O   UNL     1       6.692  -1.128  -2.649  1.00  0.00    -0.268 OA
BRANCH   9  12
ATOM     12  C   UNL     1       6.801  -2.610  -0.788  1.00  0.00     0.107 C 
ATOM     13  C   UNL     1       6.138  -3.736  -0.457  1.00  0.00     0.040 C 
BRANCH  12  14
ATOM     14  N   UNL     1       8.166  -2.538  -0.554  1.00  0.00    -0.317 N 
ATOM     15  C   UNL     1       9.140  -1.591  -0.768  1.00  0.00     0.255 C 
ATOM     16  H   UNL     1       8.521  -3.356  -0.138  1.00  0.00     0.170 HD
ATOM     17  O   UNL     1      10.320  -1.925  -0.671  1.00  0.00    -0.269 OA
BRANCH  15  18
ATOM     18  C   UNL     1       8.825  -0.186  -1.046  1.00  0.00     0.040 A 
ATOM     19  C   UNL     1       9.394   0.414  -2.175  1.00  0.00     0.014 A 
ATOM     20  C   UNL     1       8.015   0.546  -0.172  1.00  0.00     0.014 A 
ATOM     21  C   UNL     1       9.088   1.737  -2.473  1.00  0.00     0.001 A 
ATOM     22  C   UNL     1       7.721   1.872  -0.469  1.00  0.00     0.001 A 
ATOM     23  C   UNL     1       8.246   2.454  -1.622  1.00  0.00     0.000 A 
ENDBRANCH  15  18
ENDBRANCH  12  14
BRANCH  13  24
ATOM     24  C   UNL     1       6.592  -4.927   0.291  1.00  0.00    -0.023 A 
ATOM     25  C   UNL     1       6.039  -6.162  -0.080  1.00  0.00     0.008 A 
ATOM     26  C   UNL     1       7.479  -4.891   1.375  1.00  0.00     0.008 A 
ATOM     27  C   UNL     1       6.400  -7.338   0.579  1.00  0.00     0.001 A 
ATOM     28  C   UNL     1       7.861  -6.073   2.018  1.00  0.00     0.001 A 
ATOM     29  C   UNL     1       7.323  -7.295   1.619  1.00  0.00     0.000 A 
ENDBRANCH  13  24
ENDBRANCH   9  12
ENDBRANCH   7   8
ENDBRANCH   6   7
ENDBRANCH   4   6
ENDBRANCH   1   2
BRANCH   1  30
ATOM     30  C   UNL     1       2.572   3.691   0.248  1.00  0.00     0.023 C 
BRANCH  30  31
ATOM     31  C   UNL     1       4.058   4.070   0.223  1.00  0.00     0.023 C 
BRANCH  31  32
ATOM     32  C   UNL     1       4.632   4.400  -1.154  1.00  0.00     0.116 C 
BRANCH  32  33
ATOM     33  N   UNL     1       4.011   5.571  -1.751  1.00  0.00    -0.352 N 
ATOM     34  C   UNL     1       4.594   6.716  -2.244  1.00  0.00     0.251 C 
ATOM     35  H   UNL     1       3.029   5.540  -1.811  1.00  0.00     0.163 HD
ATOM     36  O   UNL     1       3.891   7.672  -2.554  1.00  0.00    -0.269 OA
BRANCH  34  37
ATOM     37  C   UNL     1       6.066   6.805  -2.383  1.00  0.00     0.039 A 
ATOM     38  C   UNL     1       6.729   7.938  -1.906  1.00  0.00     0.014 A 
ATOM     39  C   UNL     1       6.792   5.784  -2.997  1.00  0.00     0.014 A 
ATOM     40  C   UNL     1       8.128   8.007  -1.964  1.00  0.00     0.010 A 
ATOM     41  C   UNL     1       8.187   5.835  -3.006  1.00  0.00     0.010 A 
ATOM     42  C   UNL     1       8.878   6.931  -2.467  1.00  0.00    -0.014 A 
BRANCH  42  43
ATOM     43  C   UNL     1      10.371   6.916  -2.412  1.00  0.00     0.031 A 
ATOM     44  C   UNL     1      11.187   6.751  -3.671  1.00  0.00     0.074 A 
ATOM     45  C   UNL     1      11.002   6.957  -1.219  1.00  0.00     0.049 A 
ATOM     46  N   UNL     1      12.483   6.621  -3.806  1.00  0.00    -0.248 NA
ATOM     47  C   UNL     1      10.447   6.687  -4.941  1.00  0.00     0.031 C 
ATOM     48  C   UNL     1      10.344   7.034   0.088  1.00  0.00     0.029 A 
ATOM     49  N   UNL     1      12.341   6.927  -0.907  1.00  0.00    -0.354 N 
ATOM     50  C   UNL     1      12.710   6.435  -5.165  1.00  0.00     0.074 A 
ATOM     51  C   UNL     1      11.413   6.411  -5.806  1.00  0.00     0.031 C 
ATOM     52  C   UNL     1      11.278   7.075   1.053  1.00  0.00     0.029 A 
ATOM     53  C   UNL     1      12.601   6.988   0.444  1.00  0.00     0.049 A 
ATOM     54  H   UNL     1      13.050   6.867  -1.588  1.00  0.00     0.167 HD
ATOM     55  C   UNL     1      13.887   6.326  -5.828  1.00  0.00     0.037 A 
ATOM     56  C   UNL     1      13.767   6.972   1.120  1.00  0.00     0.037 A 
ATOM     57  C   UNL     1      15.182   6.399  -5.202  1.00  0.00     0.049 A 
ATOM     58  C   UNL     1      15.064   6.887   0.361  1.00  0.00     0.074 A 
ATOM     59  C   UNL     1      16.430   6.378  -5.802  1.00  0.00     0.029 A 
ATOM     60  N   UNL     1      15.399   6.512  -3.837  1.00  0.00    -0.354 N 
ATOM     61  N   UNL     1      15.256   6.791  -0.933  1.00  0.00    -0.248 NA
ATOM     62  C   UNL     1      16.303   6.918   1.151  1.00  0.00     0.031 C 
ATOM     63  C   UNL     1      17.401   6.446  -4.798  1.00  0.00     0.029 A 
ATOM     64  C   UNL     1      16.759   6.552  -3.575  1.00  0.00     0.049 A 
ATOM     65  H   UNL     1      14.691   6.557  -3.154  1.00  0.00     0.167 HD
ATOM     66  C   UNL     1      16.635   6.775  -1.112  1.00  0.00     0.074 A 
ATOM     67  C   UNL     1      17.230   6.886   0.203  1.00  0.00     0.031 C 
ATOM     68  C   UNL     1      17.343   6.677  -2.264  1.00  0.00     0.037 A 
BRANCH  55  69
ATOM     69  C   UNL     1      13.832   6.142  -7.321  1.00  0.00     0.058 A 
ATOM     70  C   UNL     1      13.423   7.180  -8.174  1.00  0.00     0.135 A 
ATOM     71  C   UNL     1      14.232   4.931  -7.911  1.00  0.00     0.135 A 
ATOM     72  F   UNL     1      13.020   8.354  -7.665  1.00  0.00    -0.206 F 
ATOM     73  C   UNL     1      13.378   7.013  -9.554  1.00  0.00     0.059 A 
ATOM     74  C   UNL     1      14.222   4.752  -9.291  1.00  0.00     0.059 A 
ATOM     75  F   UNL     1      14.637   3.907  -7.144  1.00  0.00    -0.206 F 
ATOM     76  C   UNL     1      13.778   5.795 -10.104  1.00  0.00     0.060 A 
BRANCH  76  77
ATOM     77  S   UNL     1      13.716   5.598 -11.897  1.00  0.00     0.124 S 
ATOM     78  O   UNL     1      12.281   5.467 -12.125  1.00  0.00    -0.237 OA
ATOM     79  O   UNL     1      14.321   6.840 -12.369  1.00  0.00    -0.237 OA
ATOM     80  O   UNL     1      14.503   4.392 -12.135  1.00  0.00    -0.744 OA
ENDBRANCH  76  77
ENDBRANCH  55  69
BRANCH  56  81
ATOM     81  C   UNL     1      13.768   7.070   2.606  1.00  0.00     0.058 A 
ATOM     82  C   UNL     1      14.209   8.236   3.250  1.00  0.00     0.135 A 
ATOM     83  C   UNL     1      13.328   6.007   3.409  1.00  0.00     0.135 A 
ATOM     84  F   UNL     1      14.647   9.277   2.526  1.00  0.00    -0.206 F 
ATOM     85  C   UNL     1      14.231   8.340   4.637  1.00  0.00     0.059 A 
ATOM     86  C   UNL     1      13.318   6.096   4.798  1.00  0.00     0.059 A 
ATOM     87  F   UNL     1      12.879   4.876   2.843  1.00  0.00    -0.206 F 
ATOM     88  C   UNL     1      13.782   7.263   5.404  1.00  0.00     0.060 A 
BRANCH  88  89
ATOM     89  S   UNL     1      13.768   7.426   7.203  1.00  0.00     0.124 S 
ATOM     90  O   UNL     1      15.185   7.301   7.520  1.00  0.00    -0.237 OA
ATOM     91  O   UNL     1      13.187   8.752   7.387  1.00  0.00    -0.237 OA
ATOM     92  O   UNL     1      12.923   6.316   7.632  1.00  0.00    -0.744 OA
ENDBRANCH  88  89
ENDBRANCH  56  81
BRANCH  68  93
ATOM     93  C   UNL     1      18.843   6.727  -2.166  1.00  0.00     0.058 A 
ATOM     94  C   UNL     1      19.588   5.645  -1.671  1.00  0.00     0.135 A 
ATOM     95  C   UNL     1      19.547   7.852  -2.626  1.00  0.00     0.135 A 
ATOM     96  F   UNL     1      18.964   4.549  -1.212  1.00  0.00    -0.206 F 
ATOM     97  C   UNL     1      20.978   5.685  -1.615  1.00  0.00     0.059 A 
ATOM     98  C   UNL     1      20.938   7.903  -2.603  1.00  0.00     0.059 A 
ATOM     99  F   UNL     1      18.884   8.910  -3.118  1.00  0.00    -0.206 F 
ATOM    100  C   UNL     1      21.644   6.818  -2.086  1.00  0.00     0.060 A 
BRANCH 100 101
ATOM    101  S   UNL     1      23.449   6.844  -2.043  1.00  0.00     0.124 S 
ATOM    102  O   UNL     1      23.707   7.059  -0.623  1.00  0.00    -0.237 OA
ATOM    103  O   UNL     1      23.794   5.522  -2.556  1.00  0.00    -0.237 OA
ATOM    104  O   UNL     1      23.794   7.959  -2.920  1.00  0.00    -0.744 OA
ENDBRANCH 100 101
ENDBRANCH  68  93
ENDBRANCH  42  43
ENDBRANCH  34  37
ENDBRANCH  32  33
ENDBRANCH  31  32
ENDBRANCH  30  31
ENDBRANCH   1  30
TORSDOF 20
