REMARK SMILES N#C/C(=C/c1cc2c(cc1Br)OCO2)C(=O)NCCCCNC(=O)c1ccc(-c2c3nc(c(-c4c(F)cc(S(=O)(=O)[O-])cc4F)c4ccc([nH]4)c(-c4c(F)cc(S(=O)(=O)[O-])cc4F)c4nc(c(-c5c(F)cc(S(=O)(=O)[O-])cc5F)c5ccc2[nH]5)C=C4)C=C3)cc1
REMARK SMILES IDX 20 1 19 2 18 3 17 4 15 5 16 6 3 8 4 9 2 10 1 11 5 12 6 13
REMARK SMILES IDX 10 14 7 15 9 16 11 17 8 18 14 19 12 20 13 21 21 22 22 23
REMARK SMILES IDX 23 24 24 26 25 27 26 28 90 29 27 30 89 31 28 32 29 33 30 34
REMARK SMILES IDX 83 35 31 36 88 37 82 38 84 39 32 40 87 41 81 42 80 43 33 45
REMARK SMILES IDX 67 46 46 47 66 48 47 49 50 50 65 51 85 52 48 53 49 54 64 56
REMARK SMILES IDX 86 57 51 58 34 59 35 60 44 61 36 62 37 63 43 64 45 65 38 66
REMARK SMILES IDX 39 67 40 68 41 69 42 70 68 71 69 72 78 73 70 74 71 75 77 76
REMARK SMILES IDX 79 77 72 78 73 79 74 80 75 81 76 82 52 83 53 84 62 85 54 86
REMARK SMILES IDX 55 87 61 88 63 89 56 90 57 91 58 92 59 93 60 94
REMARK H PARENT 17 7 22 25 84 44 50 55
REMARK Flexibility Score: inf
ROOT
ATOM      1  C   UNL     1       8.747   2.610  -0.386  1.00  0.00     0.023 C 
ENDROOT
BRANCH   1   2
ATOM      2  C   UNL     1       7.707   2.029  -1.340  1.00  0.00     0.023 C 
BRANCH   2   3
ATOM      3  C   UNL     1       6.684   1.074  -0.743  1.00  0.00     0.116 C 
BRANCH   3   4
ATOM      4  N   UNL     1       5.718   1.623   0.173  1.00  0.00    -0.351 N 
ATOM      5  C   UNL     1       4.484   1.156   0.532  1.00  0.00     0.261 C 
ATOM      6  O   UNL     1       3.854   1.822   1.358  1.00  0.00    -0.268 OA
ATOM      7  H   UNL     1       5.988   2.464   0.608  1.00  0.00     0.163 HD
BRANCH   5   8
ATOM      8  C   UNL     1       3.834  -0.063  -0.057  1.00  0.00     0.117 C 
ATOM      9  C   UNL     1       4.325  -1.254  -0.484  1.00  0.00     0.034 C 
BRANCH   8  10
ATOM     10  C   UNL     1       2.314  -0.063  -0.057  1.00  0.00     0.105 C 
ATOM     11  N   UNL     1       1.053  -0.063  -0.057  1.00  0.00    -0.192 NA
ENDBRANCH   8  10
BRANCH   9  12
ATOM     12  C   UNL     1       5.686  -1.795  -0.578  1.00  0.00    -0.006 A 
ATOM     13  C   UNL     1       6.232  -1.887  -1.873  1.00  0.00     0.060 A 
ATOM     14  C   UNL     1       6.467  -2.178   0.539  1.00  0.00     0.029 A 
ATOM     15  C   UNL     1       7.567  -2.205  -1.992  1.00  0.00     0.166 A 
ATOM     16  C   UNL     1       7.807  -2.551   0.377  1.00  0.00     0.067 A 
ATOM     17  Br  UNL     1       5.763  -2.158   2.302  1.00  0.00    -0.050 Br
ATOM     18  C   UNL     1       8.332  -2.519  -0.897  1.00  0.00     0.166 A 
ATOM     19  O   UNL     1       8.291  -2.170  -3.142  1.00  0.00    -0.454 OA
ATOM     20  O   UNL     1       9.632  -2.729  -1.228  1.00  0.00    -0.454 OA
ATOM     21  C   UNL     1       9.629  -2.353  -2.622  1.00  0.00     0.468 C 
ENDBRANCH   9  12
ENDBRANCH   5   8
ENDBRANCH   3   4
ENDBRANCH   2   3
ENDBRANCH   1   2
BRANCH   1  22
ATOM     22  C   UNL     1       9.483   1.632   0.527  1.00  0.00     0.116 C 
BRANCH  22  23
ATOM     23  N   UNL     1      10.184   0.567  -0.176  1.00  0.00    -0.352 N 
ATOM     24  C   UNL     1      11.517   0.207  -0.166  1.00  0.00     0.251 C 
ATOM     25  H   UNL     1       9.613   0.012  -0.755  1.00  0.00     0.163 HD
ATOM     26  O   UNL     1      11.919  -0.653  -0.936  1.00  0.00    -0.269 OA
BRANCH  24  27
ATOM     27  C   UNL     1      12.471   0.892   0.736  1.00  0.00     0.039 A 
ATOM     28  C   UNL     1      13.728   1.252   0.240  1.00  0.00     0.014 A 
ATOM     29  C   UNL     1      12.130   1.197   2.054  1.00  0.00     0.014 A 
ATOM     30  C   UNL     1      14.595   2.009   1.030  1.00  0.00     0.010 A 
ATOM     31  C   UNL     1      12.949   2.034   2.803  1.00  0.00     0.010 A 
ATOM     32  C   UNL     1      14.189   2.453   2.298  1.00  0.00    -0.014 A 
BRANCH  32  33
ATOM     33  C   UNL     1      15.040   3.353   3.116  1.00  0.00     0.031 A 
ATOM     34  C   UNL     1      15.534   2.897   4.463  1.00  0.00     0.074 A 
ATOM     35  C   UNL     1      15.292   4.605   2.683  1.00  0.00     0.049 A 
ATOM     36  N   UNL     1      16.209   3.561   5.365  1.00  0.00    -0.248 NA
ATOM     37  C   UNL     1      15.186   1.525   4.866  1.00  0.00     0.031 C 
ATOM     38  C   UNL     1      14.809   5.180   1.423  1.00  0.00     0.029 A 
ATOM     39  N   UNL     1      16.008   5.626   3.255  1.00  0.00    -0.354 N 
ATOM     40  C   UNL     1      16.337   2.701   6.450  1.00  0.00     0.074 A 
ATOM     41  C   UNL     1      15.624   1.488   6.115  1.00  0.00     0.031 C 
ATOM     42  C   UNL     1      15.272   6.435   1.304  1.00  0.00     0.029 A 
ATOM     43  C   UNL     1      16.052   6.769   2.490  1.00  0.00     0.049 A 
ATOM     44  H   UNL     1      16.449   5.548   4.132  1.00  0.00     0.167 HD
ATOM     45  C   UNL     1      17.009   2.896   7.609  1.00  0.00     0.037 A 
ATOM     46  C   UNL     1      16.660   7.949   2.720  1.00  0.00     0.037 A 
ATOM     47  C   UNL     1      17.755   4.090   7.907  1.00  0.00     0.049 A 
ATOM     48  C   UNL     1      17.448   8.121   3.990  1.00  0.00     0.074 A 
ATOM     49  C   UNL     1      18.530   4.369   9.018  1.00  0.00     0.029 A 
ATOM     50  N   UNL     1      17.823   5.203   7.081  1.00  0.00    -0.354 N 
ATOM     51  N   UNL     1      17.612   7.274   4.979  1.00  0.00    -0.248 NA
ATOM     52  C   UNL     1      18.145   9.401   4.171  1.00  0.00     0.031 C 
ATOM     53  C   UNL     1      19.043   5.663   8.878  1.00  0.00     0.029 A 
ATOM     54  C   UNL     1      18.624   6.173   7.659  1.00  0.00     0.049 A 
ATOM     55  H   UNL     1      17.370   5.290   6.212  1.00  0.00     0.167 HD
ATOM     56  C   UNL     1      18.462   7.903   5.881  1.00  0.00     0.074 A 
ATOM     57  C   UNL     1      18.780   9.200   5.317  1.00  0.00     0.031 C 
ATOM     58  C   UNL     1      18.940   7.449   7.067  1.00  0.00     0.037 A 
BRANCH  45  59
ATOM     59  C   UNL     1      16.970   1.790   8.630  1.00  0.00     0.058 A 
ATOM     60  C   UNL     1      17.615   0.561   8.415  1.00  0.00     0.135 A 
ATOM     61  C   UNL     1      16.284   1.962   9.843  1.00  0.00     0.135 A 
ATOM     62  F   UNL     1      18.273   0.334   7.267  1.00  0.00    -0.206 F 
ATOM     63  C   UNL     1      17.546  -0.472   9.345  1.00  0.00     0.059 A 
ATOM     64  C   UNL     1      16.227   0.954  10.802  1.00  0.00     0.059 A 
ATOM     65  F   UNL     1      15.649   3.116  10.104  1.00  0.00    -0.206 F 
ATOM     66  C   UNL     1      16.845  -0.267  10.534  1.00  0.00     0.060 A 
BRANCH  66  67
ATOM     67  S   UNL     1      16.753  -1.620  11.725  1.00  0.00     0.124 S 
ATOM     68  O   UNL     1      15.790  -2.509  11.082  1.00  0.00    -0.237 OA
ATOM     69  O   UNL     1      18.131  -2.100  11.761  1.00  0.00    -0.237 OA
ATOM     70  O   UNL     1      16.288  -0.968  12.945  1.00  0.00    -0.744 OA
ENDBRANCH  66  67
ENDBRANCH  45  59
BRANCH  46  71
ATOM     71  C   UNL     1      16.599   9.032   1.701  1.00  0.00     0.058 A 
ATOM     72  C   UNL     1      17.733   9.369   0.946  1.00  0.00     0.135 A 
ATOM     73  C   UNL     1      15.413   9.737   1.446  1.00  0.00     0.135 A 
ATOM     74  F   UNL     1      18.892   8.726   1.154  1.00  0.00    -0.206 F 
ATOM     75  C   UNL     1      17.701  10.378  -0.011  1.00  0.00     0.059 A 
ATOM     76  C   UNL     1      15.349  10.734   0.476  1.00  0.00     0.059 A 
ATOM     77  F   UNL     1      14.295   9.439   2.125  1.00  0.00    -0.206 F 
ATOM     78  C   UNL     1      16.502  11.054  -0.241  1.00  0.00     0.060 A 
BRANCH  78  79
ATOM     79  S   UNL     1      16.458  12.327  -1.522  1.00  0.00     0.124 S 
ATOM     80  O   UNL     1      17.187  13.415  -0.881  1.00  0.00    -0.237 OA
ATOM     81  O   UNL     1      17.138  11.668  -2.633  1.00  0.00    -0.237 OA
ATOM     82  O   UNL     1      15.029  12.554  -1.720  1.00  0.00    -0.744 OA
ENDBRANCH  78  79
ENDBRANCH  46  71
BRANCH  58  83
ATOM     83  C   UNL     1      19.902   8.337   7.803  1.00  0.00     0.058 A 
ATOM     84  C   UNL     1      19.481   9.501   8.463  1.00  0.00     0.135 A 
ATOM     85  C   UNL     1      21.261   7.990   7.881  1.00  0.00     0.135 A 
ATOM     86  F   UNL     1      18.193   9.877   8.415  1.00  0.00    -0.206 F 
ATOM     87  C   UNL     1      20.380  10.309   9.150  1.00  0.00     0.059 A 
ATOM     88  C   UNL     1      22.172   8.769   8.585  1.00  0.00     0.059 A 
ATOM     89  F   UNL     1      21.712   6.879   7.277  1.00  0.00    -0.206 F 
ATOM     90  C   UNL     1      21.724   9.935   9.204  1.00  0.00     0.060 A 
BRANCH  90  91
ATOM     91  S   UNL     1      22.880  10.980  10.115  1.00  0.00     0.124 S 
ATOM     92  O   UNL     1      23.062  12.092   9.188  1.00  0.00    -0.237 OA
ATOM     93  O   UNL     1      22.134  11.285  11.333  1.00  0.00    -0.237 OA
ATOM     94  O   UNL     1      24.043  10.118  10.300  1.00  0.00    -0.744 OA
ENDBRANCH  90  91
ENDBRANCH  58  83
ENDBRANCH  32  33
ENDBRANCH  24  27
ENDBRANCH  22  23
ENDBRANCH   1  22
TORSDOF 16
