REMARK SMILES C[C@@H]1CN(C(=O)NC[C@@H]2CC[C@H](C(=O)NCCCCNC(=O)c3ccc(-c4c5nc(c(-c6c(F)cc(S(=O)(=O)[O-])cc6F)c6ccc([nH]6)c(-c6c(F)cc(S(=O)(=O)[O-])cc6F)c6nc(c(-c7c(F)cc(S(=O)(=O)[O-])cc7F)c7ccc4[nH]7)C=C6)C=C5)cc3)O2)CC(C)(C)O1
REMARK SMILES IDX 17 1 16 2 15 3 13 4 14 5 12 7 9 8 10 9 89 10 11 11 8 12 7 13
REMARK SMILES IDX 5 14 6 15 4 17 1 18 2 19 3 20 94 21 91 22 90 23 92 24 93 25
REMARK SMILES IDX 18 26 19 27 20 28 21 29 22 31 23 32 24 33 88 34 25 35 87 36
REMARK SMILES IDX 26 37 27 38 28 39 81 40 29 41 86 42 80 43 82 44 30 45 85 46
REMARK SMILES IDX 79 47 78 48 31 50 65 51 44 52 64 53 45 54 48 55 63 56 83 57
REMARK SMILES IDX 46 58 47 59 62 61 84 62 49 63 32 64 33 65 42 66 34 67 35 68
REMARK SMILES IDX 41 69 43 70 36 71 37 72 38 73 39 74 40 75 66 76 67 77 76 78
REMARK SMILES IDX 68 79 69 80 75 81 77 82 70 83 71 84 72 85 73 86 74 87 50 88
REMARK SMILES IDX 51 89 60 90 52 91 53 92 59 93 61 94 54 95 55 96 56 97 57 98
REMARK SMILES IDX 58 99
REMARK H PARENT 15 6 7 16 20 30 82 49 48 60
REMARK Flexibility Score: inf
ROOT
ATOM      1  C   UNL     1       3.586  -4.901  -4.406  1.00  0.00     0.023 C 
ENDROOT
BRANCH   1   2
ATOM      2  C   UNL     1       2.405  -5.492  -3.635  1.00  0.00     0.116 C 
BRANCH   2   3
ATOM      3  N   UNL     1       2.562  -6.904  -3.367  1.00  0.00    -0.354 N 
ATOM      4  C   UNL     1       2.857  -7.525  -2.189  1.00  0.00     0.249 C 
ATOM      5  O   UNL     1       2.806  -8.760  -2.166  1.00  0.00    -0.272 OA
ATOM      6  H   UNL     1       2.439  -7.499  -4.141  1.00  0.00     0.163 HD
BRANCH   4   7
ATOM      7  C   UNL     1       3.366  -6.746  -0.948  1.00  0.00     0.207 C 
ATOM      8  C   UNL     1       3.718  -4.591  -0.146  1.00  0.00     0.138 C 
ATOM      9  C   UNL     1       4.929  -4.931  -0.995  1.00  0.00     0.037 C 
ATOM     10  O   UNL     1       2.714  -5.541  -0.533  1.00  0.00    -0.363 OA
ATOM     11  C   UNL     1       4.855  -6.434  -1.089  1.00  0.00     0.045 C 
BRANCH   8  12
ATOM     12  C   UNL     1       3.282  -3.117  -0.281  1.00  0.00     0.149 C 
BRANCH  12  13
ATOM     13  N   UNL     1       2.279  -2.867  -1.304  1.00  0.00    -0.335 N 
ATOM     14  C   UNL     1       0.939  -2.844  -1.406  1.00  0.00     0.317 C 
ATOM     15  O   UNL     1       0.523  -2.876  -2.571  1.00  0.00    -0.249 OA
ATOM     16  H   UNL     1       2.702  -2.655  -2.167  1.00  0.00     0.165 HD
BRANCH  14  17
ATOM     17  N   UNL     1       0.089  -2.724  -0.350  1.00  0.00    -0.319 N 
ATOM     18  C   UNL     1       1.273  -0.048   0.644  1.00  0.00     0.040 C 
ATOM     19  C   UNL     1       0.193  -0.918   1.281  1.00  0.00     0.135 C 
ATOM     20  C   UNL     1       0.378  -2.423   1.041  1.00  0.00     0.153 C 
ATOM     21  O   UNL     1      -1.131  -0.486   0.920  1.00  0.00    -0.369 OA
ATOM     22  C   UNL     1      -1.673  -0.963  -0.338  1.00  0.00     0.081 C 
ATOM     23  C   UNL     1      -1.326  -2.453  -0.635  1.00  0.00     0.156 C 
ATOM     24  C   UNL     1      -1.252  -0.043  -1.491  1.00  0.00     0.044 C 
ATOM     25  C   UNL     1      -3.196  -0.830  -0.166  1.00  0.00     0.044 C 
ENDBRANCH  14  17
ENDBRANCH  12  13
ENDBRANCH   8  12
ENDBRANCH   4   7
ENDBRANCH   2   3
ENDBRANCH   1   2
BRANCH   1  26
ATOM     26  C   UNL     1       3.307  -4.668  -5.890  1.00  0.00     0.023 C 
BRANCH  26  27
ATOM     27  C   UNL     1       2.212  -3.644  -6.181  1.00  0.00     0.116 C 
BRANCH  27  28
ATOM     28  N   UNL     1       2.531  -2.291  -5.748  1.00  0.00    -0.352 N 
ATOM     29  C   UNL     1       2.104  -1.107  -6.311  1.00  0.00     0.251 C 
ATOM     30  H   UNL     1       3.119  -2.212  -4.962  1.00  0.00     0.163 HD
ATOM     31  O   UNL     1       2.496  -0.028  -5.878  1.00  0.00    -0.269 OA
BRANCH  29  32
ATOM     32  C   UNL     1       1.218  -1.169  -7.494  1.00  0.00     0.039 A 
ATOM     33  C   UNL     1       1.624  -0.542  -8.674  1.00  0.00     0.014 A 
ATOM     34  C   UNL     1       0.054  -1.941  -7.463  1.00  0.00     0.014 A 
ATOM     35  C   UNL     1       0.913  -0.773  -9.853  1.00  0.00     0.010 A 
ATOM     36  C   UNL     1      -0.611  -2.224  -8.651  1.00  0.00     0.010 A 
ATOM     37  C   UNL     1      -0.177  -1.659  -9.861  1.00  0.00    -0.014 A 
BRANCH  37  38
ATOM     38  C   UNL     1      -0.862  -2.033 -11.125  1.00  0.00     0.031 A 
ATOM     39  C   UNL     1      -2.309  -1.681 -11.328  1.00  0.00     0.074 A 
ATOM     40  C   UNL     1      -0.208  -2.764 -12.050  1.00  0.00     0.049 A 
ATOM     41  N   UNL     1      -3.110  -2.012 -12.308  1.00  0.00    -0.248 NA
ATOM     42  C   UNL     1      -2.947  -0.875 -10.275  1.00  0.00     0.031 C 
ATOM     43  C   UNL     1       1.183  -3.214 -11.949  1.00  0.00     0.029 A 
ATOM     44  N   UNL     1      -0.631  -3.273 -13.253  1.00  0.00    -0.354 N 
ATOM     45  C   UNL     1      -4.348  -1.475 -11.981  1.00  0.00     0.074 A 
ATOM     46  C   UNL     1      -4.204  -0.834 -10.691  1.00  0.00     0.031 C 
ATOM     47  C   UNL     1       1.502  -3.911 -13.051  1.00  0.00     0.029 A 
ATOM     48  C   UNL     1       0.333  -3.992 -13.921  1.00  0.00     0.049 A 
ATOM     49  H   UNL     1      -1.540  -3.135 -13.606  1.00  0.00     0.167 HD
ATOM     50  C   UNL     1      -5.497  -1.496 -12.698  1.00  0.00     0.037 A 
ATOM     51  C   UNL     1       0.279  -4.647 -15.097  1.00  0.00     0.037 A 
ATOM     52  C   UNL     1      -5.629  -2.105 -13.994  1.00  0.00     0.049 A 
ATOM     53  C   UNL     1      -1.003  -4.643 -15.884  1.00  0.00     0.074 A 
ATOM     54  C   UNL     1      -6.736  -2.131 -14.825  1.00  0.00     0.029 A 
ATOM     55  N   UNL     1      -4.619  -2.792 -14.652  1.00  0.00    -0.354 N 
ATOM     56  N   UNL     1      -2.151  -4.087 -15.582  1.00  0.00    -0.248 NA
ATOM     57  C   UNL     1      -0.997  -5.353 -17.171  1.00  0.00     0.031 C 
ATOM     58  C   UNL     1      -6.402  -2.855 -15.975  1.00  0.00     0.029 A 
ATOM     59  C   UNL     1      -5.079  -3.253 -15.874  1.00  0.00     0.049 A 
ATOM     60  H   UNL     1      -3.710  -2.932 -14.301  1.00  0.00     0.167 HD
ATOM     61  C   UNL     1      -2.997  -4.357 -16.651  1.00  0.00     0.074 A 
ATOM     62  C   UNL     1      -2.227  -5.123 -17.610  1.00  0.00     0.031 C 
ATOM     63  C   UNL     1      -4.294  -4.002 -16.823  1.00  0.00     0.037 A 
BRANCH  50  64
ATOM     64  C   UNL     1      -6.699  -0.830 -12.091  1.00  0.00     0.058 A 
ATOM     65  C   UNL     1      -6.791   0.568 -11.995  1.00  0.00     0.135 A 
ATOM     66  C   UNL     1      -7.773  -1.593 -11.608  1.00  0.00     0.135 A 
ATOM     67  F   UNL     1      -5.783   1.342 -12.427  1.00  0.00    -0.206 F 
ATOM     68  C   UNL     1      -7.890   1.185 -11.408  1.00  0.00     0.059 A 
ATOM     69  C   UNL     1      -8.895  -0.996 -11.040  1.00  0.00     0.059 A 
ATOM     70  F   UNL     1      -7.736  -2.933 -11.677  1.00  0.00    -0.206 F 
ATOM     71  C   UNL     1      -8.934   0.394 -10.927  1.00  0.00     0.060 A 
BRANCH  71  72
ATOM     72  S   UNL     1     -10.349   1.206 -10.155  1.00  0.00     0.124 S 
ATOM     73  O   UNL     1      -9.809   1.543  -8.841  1.00  0.00    -0.237 OA
ATOM     74  O   UNL     1     -10.591   2.335 -11.048  1.00  0.00    -0.237 OA
ATOM     75  O   UNL     1     -11.380   0.173 -10.164  1.00  0.00    -0.744 OA
ENDBRANCH  71  72
ENDBRANCH  50  64
BRANCH  51  76
ATOM     76  C   UNL     1       1.488  -5.339 -15.617  1.00  0.00     0.058 A 
ATOM     77  C   UNL     1       2.210  -4.805 -16.694  1.00  0.00     0.135 A 
ATOM     78  C   UNL     1       1.953  -6.531 -15.042  1.00  0.00     0.135 A 
ATOM     79  F   UNL     1       1.799  -3.671 -17.280  1.00  0.00    -0.206 F 
ATOM     80  C   UNL     1       3.347  -5.433 -17.191  1.00  0.00     0.059 A 
ATOM     81  C   UNL     1       3.099  -7.168 -15.509  1.00  0.00     0.059 A 
ATOM     82  F   UNL     1       1.305  -7.073 -13.999  1.00  0.00    -0.206 F 
ATOM     83  C   UNL     1       3.785  -6.615 -16.590  1.00  0.00     0.060 A 
BRANCH  83  84
ATOM     84  S   UNL     1       5.295  -7.394 -17.206  1.00  0.00     0.124 S 
ATOM     85  O   UNL     1       4.821  -8.022 -18.433  1.00  0.00    -0.237 OA
ATOM     86  O   UNL     1       6.185  -6.250 -17.376  1.00  0.00    -0.237 OA
ATOM     87  O   UNL     1       5.662  -8.307 -16.127  1.00  0.00    -0.744 OA
ENDBRANCH  83  84
ENDBRANCH  51  76
BRANCH  63  88
ATOM     88  C   UNL     1      -4.958  -4.404 -18.108  1.00  0.00     0.058 A 
ATOM     89  C   UNL     1      -5.393  -5.719 -18.330  1.00  0.00     0.135 A 
ATOM     90  C   UNL     1      -5.225  -3.445 -19.099  1.00  0.00     0.135 A 
ATOM     91  F   UNL     1      -5.154  -6.672 -17.416  1.00  0.00    -0.206 F 
ATOM     92  C   UNL     1      -6.064  -6.073 -19.495  1.00  0.00     0.059 A 
ATOM     93  C   UNL     1      -5.912  -3.773 -20.263  1.00  0.00     0.059 A 
ATOM     94  F   UNL     1      -4.834  -2.172 -18.930  1.00  0.00    -0.206 F 
ATOM     95  C   UNL     1      -6.322  -5.092 -20.455  1.00  0.00     0.060 A 
BRANCH  95  96
ATOM     96  S   UNL     1      -7.242  -5.549 -21.940  1.00  0.00     0.124 S 
ATOM     97  O   UNL     1      -6.218  -6.233 -22.721  1.00  0.00    -0.237 OA
ATOM     98  O   UNL     1      -8.303  -6.397 -21.404  1.00  0.00    -0.237 OA
ATOM     99  O   UNL     1      -7.686  -4.264 -22.472  1.00  0.00    -0.744 OA
ENDBRANCH  95  96
ENDBRANCH  63  88
ENDBRANCH  37  38
ENDBRANCH  29  32
ENDBRANCH  27  28
ENDBRANCH  26  27
ENDBRANCH   1  26
TORSDOF 17
