REMARK SMILES C[C@@H]1[C@@H](C(=O)NCCCCNC(=O)c2ccc(-c3c4nc(c(-c5c(F)cc(S(=O)(=O)[O-])cc5F)c5ccc([nH]5)c(-c5c(F)cc(S(=O)(=O)[O-])cc5F)c5nc(c(-c6c(F)cc(S(=O)(=O)[O-])cc6F)c6ccc3[nH]6)C=C5)C=C4)cc2)CCN1C(=O)[C@@H]1CCCN(C(N)=O)C1
REMARK SMILES IDX 8 1 7 2 6 3 4 4 5 5 3 7 1 8 2 9 82 10 80 11 81 12 83 13
REMARK SMILES IDX 84 14 85 15 86 16 93 17 87 18 89 19 88 20 90 21 91 22 92 23
REMARK SMILES IDX 9 26 10 27 11 28 12 29 13 31 14 32 15 33 79 34 16 35 78 36
REMARK SMILES IDX 17 37 18 38 19 39 72 40 20 41 77 42 71 43 73 44 21 45 76 46
REMARK SMILES IDX 70 47 69 48 22 50 56 51 35 52 55 53 36 54 39 55 54 56 74 57
REMARK SMILES IDX 37 58 38 59 53 61 75 62 40 63 23 64 24 65 33 66 25 67 26 68
REMARK SMILES IDX 32 69 34 70 27 71 28 72 29 73 30 74 31 75 57 76 58 77 67 78
REMARK SMILES IDX 59 79 60 80 66 81 68 82 61 83 62 84 63 85 64 86 65 87 41 88
REMARK SMILES IDX 42 89 51 90 43 91 44 92 50 93 52 94 45 95 46 96 47 97 48 98
REMARK SMILES IDX 49 99
REMARK H PARENT 6 6 91 24 91 25 11 30 73 49 39 60
REMARK Flexibility Score: inf
ROOT
ATOM      1  C   UNL     1      -3.005   4.552  -1.007  1.00  0.00     0.023 C 
ENDROOT
BRANCH   1   2
ATOM      2  C   UNL     1      -2.785   3.111  -0.562  1.00  0.00     0.116 C 
BRANCH   2   3
ATOM      3  N   UNL     1      -2.139   2.292  -1.570  1.00  0.00    -0.356 N 
ATOM      4  C   UNL     1      -1.255   1.264  -1.393  1.00  0.00     0.225 C 
ATOM      5  O   UNL     1      -0.983   0.553  -2.358  1.00  0.00    -0.275 OA
ATOM      6  H   UNL     1      -2.367   2.503  -2.504  1.00  0.00     0.163 HD
BRANCH   4   7
ATOM      7  C   UNL     1      -0.683   1.038  -0.004  1.00  0.00     0.102 C 
ATOM      8  C   UNL     1       1.336   0.312   1.277  1.00  0.00     0.032 C 
ATOM      9  C   UNL     1       0.477   0.019   0.035  1.00  0.00     0.094 C 
ATOM     10  N   UNL     1      -0.189  -1.283   0.149  1.00  0.00    -0.339 N 
ATOM     11  C   UNL     1      -1.728   0.374   0.896  1.00  0.00     0.037 C 
ATOM     12  C   UNL     1      -1.573  -1.102   0.569  1.00  0.00     0.120 C 
BRANCH  10  13
ATOM     13  C   UNL     1       0.199  -2.547  -0.227  1.00  0.00     0.227 C 
ATOM     14  O   UNL     1      -0.597  -3.486  -0.063  1.00  0.00    -0.275 OA
BRANCH  13  15
ATOM     15  C   UNL     1       1.543  -2.898  -0.885  1.00  0.00     0.098 C 
ATOM     16  C   UNL     1       2.833  -2.655  -0.106  1.00  0.00     0.017 C 
ATOM     17  C   UNL     1       1.624  -2.536  -2.363  1.00  0.00     0.134 C 
ATOM     18  C   UNL     1       3.649  -1.439  -0.532  1.00  0.00     0.022 C 
ATOM     19  N   UNL     1       2.315  -1.277  -2.618  1.00  0.00    -0.324 N 
ATOM     20  C   UNL     1       3.639  -1.151  -2.026  1.00  0.00     0.121 C 
BRANCH  19  21
ATOM     21  C   UNL     1       1.949  -0.370  -3.589  1.00  0.00     0.314 C 
ATOM     22  N   UNL     1       0.750  -0.566  -4.178  1.00  0.00    -0.351 N 
ATOM     23  O   UNL     1       2.646   0.576  -3.945  1.00  0.00    -0.249 OA
ATOM     24  H   UNL     1       0.183  -1.322  -3.900  1.00  0.00     0.161 HD
ATOM     25  H   UNL     1       0.442   0.046  -4.885  1.00  0.00     0.161 HD
ENDBRANCH  19  21
ENDBRANCH  13  15
ENDBRANCH  10  13
ENDBRANCH   4   7
ENDBRANCH   2   3
ENDBRANCH   1   2
BRANCH   1  26
ATOM     26  C   UNL     1      -3.801   4.727  -2.300  1.00  0.00     0.023 C 
BRANCH  26  27
ATOM     27  C   UNL     1      -5.076   3.900  -2.409  1.00  0.00     0.116 C 
BRANCH  27  28
ATOM     28  N   UNL     1      -6.001   4.128  -1.310  1.00  0.00    -0.352 N 
ATOM     29  C   UNL     1      -7.326   4.487  -1.351  1.00  0.00     0.251 C 
ATOM     30  H   UNL     1      -5.624   4.008  -0.409  1.00  0.00     0.163 HD
ATOM     31  O   UNL     1      -7.922   4.752  -0.310  1.00  0.00    -0.269 OA
BRANCH  29  32
ATOM     32  C   UNL     1      -8.013   4.588  -2.653  1.00  0.00     0.039 A 
ATOM     33  C   UNL     1      -8.751   5.739  -2.938  1.00  0.00     0.014 A 
ATOM     34  C   UNL     1      -7.900   3.567  -3.601  1.00  0.00     0.014 A 
ATOM     35  C   UNL     1      -9.320   5.896  -4.203  1.00  0.00     0.010 A 
ATOM     36  C   UNL     1      -8.397   3.762  -4.885  1.00  0.00     0.010 A 
ATOM     37  C   UNL     1      -9.118   4.924  -5.197  1.00  0.00    -0.014 A 
BRANCH  37  38
ATOM     38  C   UNL     1      -9.671   5.095  -6.565  1.00  0.00     0.031 A 
ATOM     39  C   UNL     1     -10.698   4.124  -7.081  1.00  0.00     0.074 A 
ATOM     40  C   UNL     1      -9.207   6.080  -7.358  1.00  0.00     0.049 A 
ATOM     41  N   UNL     1     -11.249   4.056  -8.265  1.00  0.00    -0.248 NA
ATOM     42  C   UNL     1     -11.140   3.071  -6.153  1.00  0.00     0.031 C 
ATOM     43  C   UNL     1      -8.176   7.053  -6.987  1.00  0.00     0.029 A 
ATOM     44  N   UNL     1      -9.535   6.422  -8.646  1.00  0.00    -0.354 N 
ATOM     45  C   UNL     1     -12.086   2.947  -8.229  1.00  0.00     0.074 A 
ATOM     46  C   UNL     1     -11.925   2.338  -6.927  1.00  0.00     0.031 C 
ATOM     47  C   UNL     1      -7.976   7.896  -8.014  1.00  0.00     0.029 A 
ATOM     48  C   UNL     1      -8.836   7.504  -9.127  1.00  0.00     0.049 A 
ATOM     49  H   UNL     1     -10.209   5.938  -9.176  1.00  0.00     0.167 HD
ATOM     50  C   UNL     1     -12.932   2.492  -9.184  1.00  0.00     0.037 A 
ATOM     51  C   UNL     1      -8.881   8.110 -10.329  1.00  0.00     0.037 A 
ATOM     52  C   UNL     1     -13.109   3.122 -10.466  1.00  0.00     0.049 A 
ATOM     53  C   UNL     1      -9.839   7.596 -11.370  1.00  0.00     0.074 A 
ATOM     54  C   UNL     1     -13.977   2.773 -11.485  1.00  0.00     0.029 A 
ATOM     55  N   UNL     1     -12.405   4.236 -10.903  1.00  0.00    -0.354 N 
ATOM     56  N   UNL     1     -10.664   6.578 -11.300  1.00  0.00    -0.248 NA
ATOM     57  C   UNL     1      -9.880   8.317 -12.649  1.00  0.00     0.031 C 
ATOM     58  C   UNL     1     -13.772   3.653 -12.553  1.00  0.00     0.029 A 
ATOM     59  C   UNL     1     -12.812   4.580 -12.181  1.00  0.00     0.049 A 
ATOM     60  H   UNL     1     -11.719   4.711 -10.381  1.00  0.00     0.167 HD
ATOM     61  C   UNL     1     -11.346   6.557 -12.512  1.00  0.00     0.074 A 
ATOM     62  C   UNL     1     -10.841   7.668 -13.293  1.00  0.00     0.031 C 
ATOM     63  C   UNL     1     -12.306   5.699 -12.938  1.00  0.00     0.037 A 
BRANCH  50  64
ATOM     64  C   UNL     1     -13.733   1.258  -8.869  1.00  0.00     0.058 A 
ATOM     65  C   UNL     1     -14.761   1.271  -7.913  1.00  0.00     0.135 A 
ATOM     66  C   UNL     1     -13.479   0.050  -9.539  1.00  0.00     0.135 A 
ATOM     67  F   UNL     1     -15.036   2.394  -7.230  1.00  0.00    -0.206 F 
ATOM     68  C   UNL     1     -15.483   0.123  -7.603  1.00  0.00     0.059 A 
ATOM     69  C   UNL     1     -14.209  -1.104  -9.267  1.00  0.00     0.059 A 
ATOM     70  F   UNL     1     -12.508  -0.020 -10.463  1.00  0.00    -0.206 F 
ATOM     71  C   UNL     1     -15.196  -1.062  -8.284  1.00  0.00     0.060 A 
BRANCH  71  72
ATOM     72  S   UNL     1     -16.136  -2.545  -7.865  1.00  0.00     0.124 S 
ATOM     73  O   UNL     1     -15.555  -2.900  -6.573  1.00  0.00    -0.237 OA
ATOM     74  O   UNL     1     -17.507  -2.047  -7.827  1.00  0.00    -0.237 OA
ATOM     75  O   UNL     1     -15.834  -3.459  -8.961  1.00  0.00    -0.744 OA
ENDBRANCH  71  72
ENDBRANCH  50  64
BRANCH  51  76
ATOM     76  C   UNL     1      -8.021   9.293 -10.598  1.00  0.00     0.058 A 
ATOM     77  C   UNL     1      -8.576  10.577 -10.702  1.00  0.00     0.135 A 
ATOM     78  C   UNL     1      -6.630   9.169 -10.739  1.00  0.00     0.135 A 
ATOM     79  F   UNL     1      -9.901  10.746 -10.580  1.00  0.00    -0.206 F 
ATOM     80  C   UNL     1      -7.787  11.696 -10.950  1.00  0.00     0.059 A 
ATOM     81  C   UNL     1      -5.816  10.276 -10.962  1.00  0.00     0.059 A 
ATOM     82  F   UNL     1      -6.048   7.965 -10.630  1.00  0.00    -0.206 F 
ATOM     83  C   UNL     1      -6.406  11.535 -11.075  1.00  0.00     0.060 A 
BRANCH  83  84
ATOM     84  S   UNL     1      -5.385  13.000 -11.343  1.00  0.00     0.124 S 
ATOM     85  O   UNL     1      -5.688  13.319 -12.733  1.00  0.00    -0.237 OA
ATOM     86  O   UNL     1      -5.911  13.927 -10.345  1.00  0.00    -0.237 OA
ATOM     87  O   UNL     1      -4.031  12.517 -11.086  1.00  0.00    -0.744 OA
ENDBRANCH  83  84
ENDBRANCH  51  76
BRANCH  63  88
ATOM     88  C   UNL     1     -12.911   5.953 -14.290  1.00  0.00     0.058 A 
ATOM     89  C   UNL     1     -12.208   5.693 -15.476  1.00  0.00     0.135 A 
ATOM     90  C   UNL     1     -14.233   6.414 -14.398  1.00  0.00     0.135 A 
ATOM     91  F   UNL     1     -10.939   5.257 -15.429  1.00  0.00    -0.206 F 
ATOM     92  C   UNL     1     -12.787   5.904 -16.724  1.00  0.00     0.059 A 
ATOM     93  C   UNL     1     -14.842   6.606 -15.633  1.00  0.00     0.059 A 
ATOM     94  F   UNL     1     -14.953   6.667 -13.293  1.00  0.00    -0.206 F 
ATOM     95  C   UNL     1     -14.106   6.360 -16.792  1.00  0.00     0.060 A 
BRANCH  95  96
ATOM     96  S   UNL     1     -14.857   6.599 -18.415  1.00  0.00     0.124 S 
ATOM     97  O   UNL     1     -14.214   7.832 -18.858  1.00  0.00    -0.237 OA
ATOM     98  O   UNL     1     -14.461   5.387 -19.126  1.00  0.00    -0.237 OA
ATOM     99  O   UNL     1     -16.282   6.706 -18.117  1.00  0.00    -0.744 OA
ENDBRANCH  95  96
ENDBRANCH  63  88
ENDBRANCH  37  38
ENDBRANCH  29  32
ENDBRANCH  27  28
ENDBRANCH  26  27
ENDBRANCH   1  26
TORSDOF 17
