REMARK SMILES O=C(CCOc1cc(-c2ccncc2)nc(-c2ccc(C(F)(F)F)cc2)n1)NCCCCNC(=O)c1ccc(-c2c3nc(c(-c4c(F)cc(S(=O)(=O)[O-])cc4F)c4ccc([nH]4)c(-c4c(F)cc(S(=O)(=O)[O-])cc4F)c4nc(c(-c5c(F)cc(S(=O)(=O)[O-])cc5F)c5ccc2[nH]5)C=C4)C=C3)cc1
REMARK SMILES IDX 29 1 28 2 1 3 2 4 3 6 4 7 5 8 6 9 7 10 27 11 8 12 16 13
REMARK SMILES IDX 15 14 9 15 10 16 14 17 11 18 13 19 12 20 17 21 18 22 26 23
REMARK SMILES IDX 19 24 25 25 20 26 21 27 22 28 23 29 24 30 30 31 31 32 32 33
REMARK SMILES IDX 33 34 34 35 35 37 36 38 37 39 101 40 38 41 100 42 39 43
REMARK SMILES IDX 40 44 41 45 94 46 42 47 99 48 93 49 95 50 43 51 98 52 92 53
REMARK SMILES IDX 91 54 44 56 78 57 57 58 77 59 58 60 61 61 76 62 96 63 59 64
REMARK SMILES IDX 60 65 75 67 97 68 62 69 45 70 46 71 55 72 47 73 48 74 54 75
REMARK SMILES IDX 56 76 49 77 50 78 51 79 52 80 53 81 79 82 80 83 89 84 81 85
REMARK SMILES IDX 82 86 88 87 90 88 83 89 84 90 85 91 86 92 87 93 63 94 64 95
REMARK SMILES IDX 73 96 65 97 66 98 72 99 74 100 67 101 68 102 69 103 70 104
REMARK SMILES IDX 71 105
REMARK H PARENT 28 5 33 36 95 55 61 66
REMARK Flexibility Score: inf
ROOT
ATOM      1  C   UNL     1       2.664   2.587  -0.686  1.00  0.00     0.116 C 
ENDROOT
BRANCH   1   2
ATOM      2  N   UNL     1       3.332   1.615   0.151  1.00  0.00    -0.356 N 
ATOM      3  O   UNL     1       1.407   0.529   0.787  1.00  0.00    -0.275 OA
ATOM      4  C   UNL     1       2.635   0.594   0.760  1.00  0.00     0.223 C 
ATOM      5  H   UNL     1       4.304   1.684   0.288  1.00  0.00     0.163 HD
BRANCH   4   6
ATOM      6  C   UNL     1       3.496  -0.542   1.255  1.00  0.00     0.141 C 
BRANCH   6   7
ATOM      7  C   UNL     1       3.454  -1.688   0.242  1.00  0.00     0.241 C 
BRANCH   7   8
ATOM      8  O   UNL     1       4.210  -1.366  -0.929  1.00  0.00    -0.477 OA
BRANCH   8   9
ATOM      9  C   UNL     1       3.520  -1.353  -2.113  1.00  0.00     0.217 A 
ATOM     10  C   UNL     1       2.331  -0.686  -2.277  1.00  0.00     0.097 A 
ATOM     11  N   UNL     1       4.195  -1.876  -3.143  1.00  0.00    -0.193 NA
ATOM     12  C   UNL     1       1.881  -0.507  -3.568  1.00  0.00     0.078 A 
ATOM     13  C   UNL     1       3.658  -1.702  -4.366  1.00  0.00     0.163 A 
ATOM     14  N   UNL     1       2.531  -1.011  -4.630  1.00  0.00    -0.228 NA
BRANCH  12  15
ATOM     15  C   UNL     1       0.694   0.316  -3.824  1.00  0.00     0.003 A 
ATOM     16  C   UNL     1       0.771   1.713  -3.818  1.00  0.00     0.030 A 
ATOM     17  C   UNL     1      -0.567  -0.257  -3.977  1.00  0.00     0.030 A 
ATOM     18  C   UNL     1      -0.383   2.468  -3.941  1.00  0.00     0.111 A 
ATOM     19  C   UNL     1      -1.670   0.579  -4.086  1.00  0.00     0.111 A 
ATOM     20  N   UNL     1      -1.608   1.928  -4.064  1.00  0.00    -0.265 NA
ENDBRANCH  12  15
BRANCH  13  21
ATOM     21  C   UNL     1       4.396  -2.273  -5.498  1.00  0.00     0.019 A 
ATOM     22  C   UNL     1       4.875  -3.595  -5.460  1.00  0.00     0.012 A 
ATOM     23  C   UNL     1       4.665  -1.512  -6.647  1.00  0.00     0.012 A 
ATOM     24  C   UNL     1       5.597  -4.135  -6.529  1.00  0.00     0.014 A 
ATOM     25  C   UNL     1       5.410  -2.039  -7.707  1.00  0.00     0.014 A 
ATOM     26  C   UNL     1       5.886  -3.356  -7.658  1.00  0.00     0.056 A 
BRANCH  26  27
ATOM     27  C   UNL     1       6.658  -3.942  -8.818  1.00  0.00     0.416 C 
ATOM     28  F   UNL     1       7.596  -4.845  -8.425  1.00  0.00    -0.166 F 
ATOM     29  F   UNL     1       5.843  -4.598  -9.690  1.00  0.00    -0.166 F 
ATOM     30  F   UNL     1       7.316  -3.001  -9.548  1.00  0.00    -0.166 F 
ENDBRANCH  26  27
ENDBRANCH  13  21
ENDBRANCH   8   9
ENDBRANCH   7   8
ENDBRANCH   6   7
ENDBRANCH   4   6
ENDBRANCH   1   2
BRANCH   1  31
ATOM     31  C   UNL     1       3.569   3.470  -1.554  1.00  0.00     0.023 C 
BRANCH  31  32
ATOM     32  C   UNL     1       4.926   2.945  -2.042  1.00  0.00     0.023 C 
BRANCH  32  33
ATOM     33  C   UNL     1       5.012   2.029  -3.266  1.00  0.00     0.116 C 
BRANCH  33  34
ATOM     34  N   UNL     1       4.369   2.519  -4.474  1.00  0.00    -0.352 N 
ATOM     35  C   UNL     1       4.759   2.547  -5.792  1.00  0.00     0.251 C 
ATOM     36  H   UNL     1       3.477   2.907  -4.317  1.00  0.00     0.163 HD
ATOM     37  O   UNL     1       3.934   2.900  -6.634  1.00  0.00    -0.269 OA
BRANCH  35  38
ATOM     38  C   UNL     1       6.150   2.272  -6.219  1.00  0.00     0.039 A 
ATOM     39  C   UNL     1       6.704   3.123  -7.187  1.00  0.00     0.014 A 
ATOM     40  C   UNL     1       6.924   1.239  -5.690  1.00  0.00     0.014 A 
ATOM     41  C   UNL     1       8.057   3.030  -7.518  1.00  0.00     0.010 A 
ATOM     42  C   UNL     1       8.288   1.180  -5.977  1.00  0.00     0.010 A 
ATOM     43  C   UNL     1       8.873   2.104  -6.856  1.00  0.00    -0.014 A 
BRANCH  43  44
ATOM     44  C   UNL     1      10.352   2.168  -6.958  1.00  0.00     0.031 A 
ATOM     45  C   UNL     1      11.129   1.054  -7.594  1.00  0.00     0.074 A 
ATOM     46  C   UNL     1      10.990   3.187  -6.347  1.00  0.00     0.049 A 
ATOM     47  N   UNL     1      12.424   0.879  -7.643  1.00  0.00    -0.248 NA
ATOM     48  C   UNL     1      10.349  -0.013  -8.237  1.00  0.00     0.031 C 
ATOM     49  C   UNL     1      10.334   4.295  -5.646  1.00  0.00     0.029 A 
ATOM     50  N   UNL     1      12.328   3.441  -6.181  1.00  0.00    -0.354 N 
ATOM     51  C   UNL     1      12.619  -0.321  -8.315  1.00  0.00     0.074 A 
ATOM     52  C   UNL     1      11.305  -0.849  -8.621  1.00  0.00     0.031 C 
ATOM     53  C   UNL     1      11.268   5.099  -5.116  1.00  0.00     0.029 A 
ATOM     54  C   UNL     1      12.586   4.550  -5.410  1.00  0.00     0.049 A 
ATOM     55  H   UNL     1      13.036   2.882  -6.577  1.00  0.00     0.167 HD
ATOM     56  C   UNL     1      13.788  -0.917  -8.653  1.00  0.00     0.037 A 
ATOM     57  C   UNL     1      13.752   5.059  -4.969  1.00  0.00     0.037 A 
ATOM     58  C   UNL     1      15.088  -0.378  -8.341  1.00  0.00     0.049 A 
ATOM     59  C   UNL     1      15.035   4.384  -5.362  1.00  0.00     0.074 A 
ATOM     60  C   UNL     1      16.333  -0.877  -8.683  1.00  0.00     0.029 A 
ATOM     61  N   UNL     1      15.311   0.779  -7.607  1.00  0.00    -0.354 N 
ATOM     62  N   UNL     1      15.204   3.284  -6.056  1.00  0.00    -0.248 NA
ATOM     63  C   UNL     1      16.284   5.022  -4.927  1.00  0.00     0.031 C 
ATOM     64  C   UNL     1      17.309  -0.041  -8.127  1.00  0.00     0.029 A 
ATOM     65  C   UNL     1      16.672   1.003  -7.474  1.00  0.00     0.049 A 
ATOM     66  H   UNL     1      14.606   1.357  -7.236  1.00  0.00     0.167 HD
ATOM     67  C   UNL     1      16.578   3.110  -6.162  1.00  0.00     0.074 A 
ATOM     68  C   UNL     1      17.194   4.224  -5.468  1.00  0.00     0.031 C 
ATOM     69  C   UNL     1      17.267   2.120  -6.781  1.00  0.00     0.037 A 
BRANCH  56  70
ATOM     70  C   UNL     1      13.713  -2.219  -9.404  1.00  0.00     0.058 A 
ATOM     71  C   UNL     1      13.294  -2.269 -10.743  1.00  0.00     0.135 A 
ATOM     72  C   UNL     1      14.100  -3.424  -8.795  1.00  0.00     0.135 A 
ATOM     73  F   UNL     1      12.903  -1.149 -11.372  1.00  0.00    -0.206 F 
ATOM     74  C   UNL     1      13.235  -3.470 -11.444  1.00  0.00     0.059 A 
ATOM     75  C   UNL     1      14.072  -4.633  -9.485  1.00  0.00     0.059 A 
ATOM     76  F   UNL     1      14.510  -3.434  -7.517  1.00  0.00    -0.206 F 
ATOM     77  C   UNL     1      13.625  -4.648 -10.805  1.00  0.00     0.060 A 
BRANCH  77  78
ATOM     78  S   UNL     1      13.554  -6.197 -11.731  1.00  0.00     0.124 S 
ATOM     79  O   UNL     1      12.119  -6.458 -11.754  1.00  0.00    -0.237 OA
ATOM     80  O   UNL     1      14.150  -5.825 -13.011  1.00  0.00    -0.237 OA
ATOM     81  O   UNL     1      14.347  -7.115 -10.919  1.00  0.00    -0.744 OA
ENDBRANCH  77  78
ENDBRANCH  56  70
BRANCH  57  82
ATOM     82  C   UNL     1      13.752   6.283  -4.127  1.00  0.00     0.058 A 
ATOM     83  C   UNL     1      14.157   7.518  -4.653  1.00  0.00     0.135 A 
ATOM     84  C   UNL     1      13.308   6.252  -2.796  1.00  0.00     0.135 A 
ATOM     85  F   UNL     1      14.591   7.596  -5.920  1.00  0.00    -0.206 F 
ATOM     86  C   UNL     1      14.133   8.679  -3.887  1.00  0.00     0.059 A 
ATOM     87  C   UNL     1      13.255   7.403  -2.016  1.00  0.00     0.059 A 
ATOM     88  F   UNL     1      12.889   5.098  -2.252  1.00  0.00    -0.206 F 
ATOM     89  C   UNL     1      13.677   8.612  -2.570  1.00  0.00     0.060 A 
BRANCH  89  90
ATOM     90  S   UNL     1      13.589  10.136  -1.604  1.00  0.00     0.124 S 
ATOM     91  O   UNL     1      14.993  10.363  -1.285  1.00  0.00    -0.237 OA
ATOM     92  O   UNL     1      12.990  11.068  -2.554  1.00  0.00    -0.237 OA
ATOM     93  O   UNL     1      12.736   9.768  -0.477  1.00  0.00    -0.744 OA
ENDBRANCH  89  90
ENDBRANCH  57  82
BRANCH  69  94
ATOM     94  C   UNL     1      18.766   2.215  -6.762  1.00  0.00     0.058 A 
ATOM     95  C   UNL     1      19.506   1.931  -5.604  1.00  0.00     0.135 A 
ATOM     96  C   UNL     1      19.470   2.557  -7.927  1.00  0.00     0.135 A 
ATOM     97  F   UNL     1      18.879   1.609  -4.462  1.00  0.00    -0.206 F 
ATOM     98  C   UNL     1      20.895   2.003  -5.597  1.00  0.00     0.059 A 
ATOM     99  C   UNL     1      20.860   2.613  -7.949  1.00  0.00     0.059 A 
ATOM    100  F   UNL     1      18.807   2.832  -9.062  1.00  0.00    -0.206 F 
ATOM    101  C   UNL     1      21.563   2.346  -6.775  1.00  0.00     0.060 A 
BRANCH 101 102
ATOM    102  S   UNL     1      23.368   2.407  -6.762  1.00  0.00     0.124 S 
ATOM    103  O   UNL     1      23.613   3.671  -6.075  1.00  0.00    -0.237 OA
ATOM    104  O   UNL     1      23.718   1.202  -6.017  1.00  0.00    -0.237 OA
ATOM    105  O   UNL     1      23.717   2.384  -8.179  1.00  0.00    -0.744 OA
ENDBRANCH 101 102
ENDBRANCH  69  94
ENDBRANCH  43  44
ENDBRANCH  35  38
ENDBRANCH  33  34
ENDBRANCH  32  33
ENDBRANCH  31  32
ENDBRANCH   1  31
TORSDOF 20
