REMARK SMILES O=C(NCCCCNC(=O)c1c(F)cccc1NS(=O)(=O)C(F)(F)F)c1ccc(-c2c3nc(c(-c4c(F)cc(S(=O)(=O)[O-])cc4F)c4ccc([nH]4)c(-c4c(F)cc(S(=O)(=O)[O-])cc4F)c4nc(c(-c5c(F)cc(S(=O)(=O)[O-])cc5F)c5ccc2[nH]5)C=C4)C=C3)cc1
REMARK SMILES IDX 5 1 4 2 3 3 1 4 2 5 26 7 27 8 91 9 28 10 90 11 29 12 30 13
REMARK SMILES IDX 31 14 84 15 32 16 89 17 83 18 85 19 33 20 88 21 82 22 81 23
REMARK SMILES IDX 34 25 68 26 47 27 67 28 48 29 51 30 66 31 86 32 49 33 50 34
REMARK SMILES IDX 65 36 87 37 52 38 35 39 36 40 45 41 37 42 38 43 44 44 46 45
REMARK SMILES IDX 39 46 40 47 41 48 42 49 43 50 69 51 70 52 79 53 71 54 72 55
REMARK SMILES IDX 78 56 80 57 73 58 74 59 75 60 76 61 77 62 53 63 54 64 63 65
REMARK SMILES IDX 55 66 56 67 62 68 64 69 57 70 58 71 59 72 60 73 61 74 6 75
REMARK SMILES IDX 7 76 8 77 9 78 10 80 11 81 12 82 17 83 13 84 14 85 16 86
REMARK SMILES IDX 15 87 18 88 19 90 20 91 21 92 22 93 23 94 24 95 25 96
REMARK H PARENT 3 6 85 24 51 35 8 79 18 89
REMARK Flexibility Score: inf
ROOT
ATOM      1  C   UNL     1       4.835  -2.607   0.098  1.00  0.00     0.023 C 
ENDROOT
BRANCH   1   2
ATOM      2  C   UNL     1       4.568  -1.205  -0.438  1.00  0.00     0.116 C 
BRANCH   2   3
ATOM      3  N   UNL     1       3.151  -0.924  -0.625  1.00  0.00    -0.352 N 
ATOM      4  O   UNL     1       1.174   0.107  -0.297  1.00  0.00    -0.269 OA
ATOM      5  C   UNL     1       2.391   0.111  -0.132  1.00  0.00     0.251 C 
ATOM      6  H   UNL     1       2.667  -1.570  -1.188  1.00  0.00     0.163 HD
BRANCH   5   7
ATOM      7  C   UNL     1       3.037   1.204   0.627  1.00  0.00     0.039 A 
ATOM      8  C   UNL     1       4.218   1.790   0.168  1.00  0.00     0.014 A 
ATOM      9  C   UNL     1       2.465   1.630   1.830  1.00  0.00     0.014 A 
ATOM     10  C   UNL     1       4.917   2.664   0.992  1.00  0.00     0.010 A 
ATOM     11  C   UNL     1       3.128   2.576   2.618  1.00  0.00     0.010 A 
ATOM     12  C   UNL     1       4.386   3.063   2.231  1.00  0.00    -0.014 A 
BRANCH  12  13
ATOM     13  C   UNL     1       5.170   3.985   3.092  1.00  0.00     0.031 A 
ATOM     14  C   UNL     1       5.712   3.531   4.422  1.00  0.00     0.074 A 
ATOM     15  C   UNL     1       5.456   5.220   2.636  1.00  0.00     0.049 A 
ATOM     16  N   UNL     1       6.466   4.186   5.269  1.00  0.00    -0.248 NA
ATOM     17  C   UNL     1       5.360   2.172   4.863  1.00  0.00     0.031 C 
ATOM     18  C   UNL     1       4.985   5.775   1.365  1.00  0.00     0.029 A 
ATOM     19  N   UNL     1       6.235   6.217   3.165  1.00  0.00    -0.354 N 
ATOM     20  C   UNL     1       6.665   3.330   6.346  1.00  0.00     0.074 A 
ATOM     21  C   UNL     1       5.931   2.117   6.059  1.00  0.00     0.031 C 
ATOM     22  C   UNL     1       5.537   6.983   1.181  1.00  0.00     0.029 A 
ATOM     23  C   UNL     1       6.358   7.311   2.343  1.00  0.00     0.049 A 
ATOM     24  H   UNL     1       6.665   6.154   4.048  1.00  0.00     0.167 HD
ATOM     25  C   UNL     1       7.401   3.532   7.466  1.00  0.00     0.037 A 
ATOM     26  C   UNL     1       7.057   8.452   2.499  1.00  0.00     0.037 A 
ATOM     27  C   UNL     1       8.149   4.732   7.739  1.00  0.00     0.049 A 
ATOM     28  C   UNL     1       7.875   8.649   3.741  1.00  0.00     0.074 A 
ATOM     29  C   UNL     1       8.922   5.032   8.848  1.00  0.00     0.029 A 
ATOM     30  N   UNL     1       8.228   5.828   6.892  1.00  0.00    -0.354 N 
ATOM     31  N   UNL     1       8.038   7.832   4.754  1.00  0.00    -0.248 NA
ATOM     32  C   UNL     1       8.599   9.920   3.865  1.00  0.00     0.031 C 
ATOM     33  C   UNL     1       9.449   6.318   8.682  1.00  0.00     0.029 A 
ATOM     34  C   UNL     1       9.033   6.806   7.454  1.00  0.00     0.049 A 
ATOM     35  H   UNL     1       7.777   5.900   6.019  1.00  0.00     0.167 HD
ATOM     36  C   UNL     1       8.891   8.486   5.633  1.00  0.00     0.074 A 
ATOM     37  C   UNL     1       9.223   9.759   5.026  1.00  0.00     0.031 C 
ATOM     38  C   UNL     1       9.354   8.068   6.837  1.00  0.00     0.037 A 
BRANCH  25  39
ATOM     39  C   UNL     1       7.429   2.431   8.490  1.00  0.00     0.058 A 
ATOM     40  C   UNL     1       6.739   2.569   9.705  1.00  0.00     0.135 A 
ATOM     41  C   UNL     1       8.167   1.255   8.286  1.00  0.00     0.135 A 
ATOM     42  F   UNL     1       6.012   3.671   9.949  1.00  0.00    -0.206 F 
ATOM     43  C   UNL     1       6.782   1.581  10.683  1.00  0.00     0.059 A 
ATOM     44  C   UNL     1       8.209   0.244   9.243  1.00  0.00     0.059 A 
ATOM     45  F   UNL     1       8.826   1.064   7.132  1.00  0.00    -0.206 F 
ATOM     46  C   UNL     1       7.521   0.421  10.443  1.00  0.00     0.060 A 
BRANCH  46  47
ATOM     47  S   UNL     1       7.518  -0.883  11.693  1.00  0.00     0.124 S 
ATOM     48  O   UNL     1       8.419  -0.335  12.700  1.00  0.00    -0.237 OA
ATOM     49  O   UNL     1       6.108  -0.950  12.068  1.00  0.00    -0.237 OA
ATOM     50  O   UNL     1       8.015  -2.046  10.965  1.00  0.00    -0.744 OA
ENDBRANCH  46  47
ENDBRANCH  25  39
BRANCH  26  51
ATOM     51  C   UNL     1       7.024   9.473   1.421  1.00  0.00     0.058 A 
ATOM     52  C   UNL     1       5.865  10.223   1.171  1.00  0.00     0.135 A 
ATOM     53  C   UNL     1       8.123   9.656   0.571  1.00  0.00     0.135 A 
ATOM     54  F   UNL     1       4.784  10.073   1.950  1.00  0.00    -0.206 F 
ATOM     55  C   UNL     1       5.784  11.093   0.090  1.00  0.00     0.059 A 
ATOM     56  C   UNL     1       8.074  10.538  -0.504  1.00  0.00     0.059 A 
ATOM     57  F   UNL     1       9.255   8.966   0.781  1.00  0.00    -0.206 F 
ATOM     58  C   UNL     1       6.890  11.233  -0.750  1.00  0.00     0.060 A 
BRANCH  58  59
ATOM     59  S   UNL     1       6.751  12.332  -2.175  1.00  0.00     0.124 S 
ATOM     60  O   UNL     1       5.897  11.549  -3.062  1.00  0.00    -0.237 OA
ATOM     61  O   UNL     1       6.140  13.521  -1.591  1.00  0.00    -0.237 OA
ATOM     62  O   UNL     1       8.134  12.492  -2.612  1.00  0.00    -0.744 OA
ENDBRANCH  58  59
ENDBRANCH  26  51
BRANCH  38  63
ATOM     63  C   UNL     1      10.281   8.989   7.576  1.00  0.00     0.058 A 
ATOM     64  C   UNL     1      11.653   8.703   7.656  1.00  0.00     0.135 A 
ATOM     65  C   UNL     1       9.803  10.123   8.250  1.00  0.00     0.135 A 
ATOM     66  F   UNL     1      12.158   7.629   7.029  1.00  0.00    -0.206 F 
ATOM     67  C   UNL     1      12.520   9.507   8.388  1.00  0.00     0.059 A 
ATOM     68  C   UNL     1      10.656  10.952   8.973  1.00  0.00     0.059 A 
ATOM     69  F   UNL     1       8.501  10.444   8.193  1.00  0.00    -0.206 F 
ATOM     70  C   UNL     1      12.011  10.627   9.048  1.00  0.00     0.060 A 
BRANCH  70  71
ATOM     71  S   UNL     1      13.151  11.677   9.975  1.00  0.00     0.124 S 
ATOM     72  O   UNL     1      13.383  10.879  11.174  1.00  0.00    -0.237 OA
ATOM     73  O   UNL     1      14.283  11.792   9.060  1.00  0.00    -0.237 OA
ATOM     74  O   UNL     1      12.390  12.906  10.174  1.00  0.00    -0.744 OA
ENDBRANCH  70  71
ENDBRANCH  38  63
ENDBRANCH  12  13
ENDBRANCH   5   7
ENDBRANCH   2   3
ENDBRANCH   1   2
BRANCH   1  75
ATOM     75  C   UNL     1       4.338  -3.749  -0.787  1.00  0.00     0.023 C 
BRANCH  75  76
ATOM     76  C   UNL     1       4.841  -3.713  -2.228  1.00  0.00     0.116 C 
BRANCH  76  77
ATOM     77  N   UNL     1       6.282  -3.890  -2.307  1.00  0.00    -0.352 N 
ATOM     78  C   UNL     1       6.985  -4.841  -3.001  1.00  0.00     0.256 C 
ATOM     79  H   UNL     1       6.822  -3.243  -1.798  1.00  0.00     0.163 HD
ATOM     80  O   UNL     1       8.188  -4.993  -2.818  1.00  0.00    -0.269 OA
BRANCH  78  81
ATOM     81  C   UNL     1       6.271  -5.761  -3.894  1.00  0.00     0.099 A 
ATOM     82  C   UNL     1       5.582  -5.240  -4.991  1.00  0.00     0.138 A 
ATOM     83  C   UNL     1       6.233  -7.136  -3.623  1.00  0.00     0.065 A 
ATOM     84  F   UNL     1       5.623  -3.929  -5.270  1.00  0.00    -0.206 F 
ATOM     85  C   UNL     1       4.793  -6.060  -5.788  1.00  0.00     0.040 A 
ATOM     86  C   UNL     1       5.407  -7.948  -4.408  1.00  0.00     0.028 A 
ATOM     87  C   UNL     1       4.692  -7.415  -5.486  1.00  0.00     0.005 A 
BRANCH  83  88
ATOM     88  N   UNL     1       6.945  -7.710  -2.507  1.00  0.00    -0.275 N 
ATOM     89  H   UNL     1       6.739  -7.447  -1.581  1.00  0.00     0.180 HD
BRANCH  88  90
ATOM     90  S   UNL     1       8.164  -8.866  -2.854  1.00  0.00     0.333 S 
ATOM     91  O   UNL     1       8.767  -8.504  -4.124  1.00  0.00    -0.197 OA
ATOM     92  O   UNL     1       8.978  -8.886  -1.649  1.00  0.00    -0.197 OA
BRANCH  90  93
ATOM     93  C   UNL     1       7.256 -10.485  -2.996  1.00  0.00     0.516 C 
ATOM     94  F   UNL     1       6.123 -10.514  -2.235  1.00  0.00    -0.155 F 
ATOM     95  F   UNL     1       6.857 -10.737  -4.279  1.00  0.00    -0.155 F 
ATOM     96  F   UNL     1       8.015 -11.551  -2.615  1.00  0.00    -0.155 F 
ENDBRANCH  90  93
ENDBRANCH  88  90
ENDBRANCH  83  88
ENDBRANCH  78  81
ENDBRANCH  76  77
ENDBRANCH  75  76
ENDBRANCH   1  75
TORSDOF 17
