REMARK SMILES C[N@@H+]1CCC[C@H](NC(=O)N[C@@](C)(C(=O)NCCCCNC(=O)c2ccc(-c3c4nc(c(-c5c(F)cc(S(=O)(=O)[O-])cc5F)c5ccc([nH]5)c(-c5c(F)cc(S(=O)(=O)[O-])cc5F)c5nc(c(-c6c(F)cc(S(=O)(=O)[O-])cc6F)c6ccc3[nH]6)C=C5)C=C4)cc2)C(F)(F)F)C1
REMARK SMILES IDX 18 1 17 2 16 3 15 4 13 5 14 6 11 8 12 9 10 10 7 11 8 12 9 14
REMARK SMILES IDX 6 16 1 17 2 18 3 19 93 20 4 22 5 23 89 24 90 25 91 26 92 27
REMARK SMILES IDX 19 28 20 29 21 30 22 32 23 33 24 34 88 35 25 36 87 37 26 38
REMARK SMILES IDX 27 39 28 40 81 41 29 42 86 43 80 44 82 45 30 46 85 47 79 48
REMARK SMILES IDX 78 49 31 51 65 52 44 53 64 54 45 55 48 56 63 57 83 58 46 59
REMARK SMILES IDX 47 60 62 62 84 63 49 64 32 65 33 66 42 67 34 68 35 69 41 70
REMARK SMILES IDX 43 71 36 72 37 73 38 74 39 75 40 76 66 77 67 78 76 79 68 80
REMARK SMILES IDX 69 81 75 82 77 83 70 84 71 85 72 86 73 87 74 88 50 89 51 90
REMARK SMILES IDX 60 91 52 92 53 93 59 94 61 95 54 96 55 97 56 98 57 99 58 100
REMARK H PARENT 15 7 7 13 10 15 2 21 20 31 82 50 48 61
REMARK Flexibility Score: inf
ROOT
ATOM      1  C   UNL     1       4.376  -3.417   6.452  1.00  0.00     0.023 C 
ENDROOT
BRANCH   1   2
ATOM      2  C   UNL     1       3.840  -4.154   5.226  1.00  0.00     0.023 C 
BRANCH   2   3
ATOM      3  C   UNL     1       2.349  -3.982   4.965  1.00  0.00     0.116 C 
BRANCH   3   4
ATOM      4  N   UNL     1       1.981  -2.589   4.811  1.00  0.00    -0.354 N 
ATOM      5  C   UNL     1       1.135  -1.925   3.977  1.00  0.00     0.255 C 
ATOM      6  O   UNL     1       1.035  -0.720   4.220  1.00  0.00    -0.272 OA
ATOM      7  H   UNL     1       2.442  -1.995   5.447  1.00  0.00     0.163 HD
BRANCH   5   8
ATOM      8  C   UNL     1       0.429  -2.596   2.781  1.00  0.00     0.213 C 
ATOM      9  C   UNL     1      -0.359  -3.866   3.180  1.00  0.00     0.056 C 
BRANCH   8  10
ATOM     10  N   UNL     1       1.562  -3.045   1.869  1.00  0.00    -0.316 N 
ATOM     11  N   UNL     1       1.681  -2.277  -0.374  1.00  0.00    -0.330 N 
ATOM     12  C   UNL     1       1.967  -3.132   0.605  1.00  0.00     0.316 C 
ATOM     13  H   UNL     1       1.888  -2.592  -1.283  1.00  0.00     0.165 HD
ATOM     14  O   UNL     1       2.742  -4.057   0.343  1.00  0.00    -0.249 OA
ATOM     15  H   UNL     1       2.274  -3.418   2.437  1.00  0.00     0.166 HD
BRANCH  11  16
ATOM     16  C   UNL     1       1.115  -0.960  -0.293  1.00  0.00     0.139 C 
ATOM     17  C   UNL     1      -2.316   0.379  -0.875  1.00  0.00     0.332 C 
ATOM     18  N   UNL     1      -0.906   0.344  -0.530  1.00  0.00    -0.336 N 
ATOM     19  C   UNL     1      -0.168   1.544  -0.932  1.00  0.00     0.262 C 
ATOM     20  C   UNL     1      -0.248  -0.876  -0.992  1.00  0.00     0.287 C 
ATOM     21  H   UNL     1      -0.886   0.335   0.489  1.00  0.00     0.347 HD
ATOM     22  C   UNL     1       1.308   1.499  -0.487  1.00  0.00     0.064 C 
ATOM     23  C   UNL     1       1.998   0.169  -0.826  1.00  0.00     0.037 C 
ENDBRANCH  11  16
ENDBRANCH   8  10
BRANCH   8  24
ATOM     24  C   UNL     1      -0.691  -1.600   2.379  1.00  0.00     0.420 C 
ATOM     25  F   UNL     1      -0.307  -0.340   2.125  1.00  0.00    -0.168 F 
ATOM     26  F   UNL     1      -1.372  -2.070   1.304  1.00  0.00    -0.168 F 
ATOM     27  F   UNL     1      -1.623  -1.511   3.372  1.00  0.00    -0.168 F 
ENDBRANCH   8  24
ENDBRANCH   5   8
ENDBRANCH   3   4
ENDBRANCH   2   3
ENDBRANCH   1   2
BRANCH   1  28
ATOM     28  C   UNL     1       3.557  -3.592   7.723  1.00  0.00     0.116 C 
BRANCH  28  29
ATOM     29  N   UNL     1       3.396  -4.987   8.104  1.00  0.00    -0.352 N 
ATOM     30  C   UNL     1       3.633  -5.573   9.323  1.00  0.00     0.251 C 
ATOM     31  H   UNL     1       3.075  -5.590   7.394  1.00  0.00     0.163 HD
ATOM     32  O   UNL     1       3.570  -6.792   9.448  1.00  0.00    -0.269 OA
BRANCH  30  33
ATOM     33  C   UNL     1       3.998  -4.715  10.466  1.00  0.00     0.039 A 
ATOM     34  C   UNL     1       5.152  -5.009  11.194  1.00  0.00     0.014 A 
ATOM     35  C   UNL     1       3.231  -3.587  10.769  1.00  0.00     0.014 A 
ATOM     36  C   UNL     1       5.577  -4.129  12.190  1.00  0.00     0.010 A 
ATOM     37  C   UNL     1       3.699  -2.674  11.705  1.00  0.00     0.010 A 
ATOM     38  C   UNL     1       4.873  -2.938  12.429  1.00  0.00    -0.014 A 
BRANCH  38  39
ATOM     39  C   UNL     1       5.320  -1.958  13.451  1.00  0.00     0.031 A 
ATOM     40  C   UNL     1       4.429  -1.664  14.627  1.00  0.00     0.074 A 
ATOM     41  C   UNL     1       6.471  -1.278  13.280  1.00  0.00     0.049 A 
ATOM     42  N   UNL     1       4.558  -0.751  15.554  1.00  0.00    -0.248 NA
ATOM     43  C   UNL     1       3.214  -2.485  14.757  1.00  0.00     0.031 C 
ATOM     44  C   UNL     1       7.399  -1.448  12.160  1.00  0.00     0.029 A 
ATOM     45  N   UNL     1       7.047  -0.290  14.039  1.00  0.00    -0.354 N 
ATOM     46  C   UNL     1       3.430  -0.870  16.358  1.00  0.00     0.074 A 
ATOM     47  C   UNL     1       2.604  -1.908  15.781  1.00  0.00     0.031 C 
ATOM     48  C   UNL     1       8.434  -0.605  12.313  1.00  0.00     0.029 A 
ATOM     49  C   UNL     1       8.223   0.195  13.516  1.00  0.00     0.049 A 
ATOM     50  H   UNL     1       6.655   0.040  14.880  1.00  0.00     0.167 HD
ATOM     51  C   UNL     1       3.122  -0.191  17.488  1.00  0.00     0.037 A 
ATOM     52  C   UNL     1       9.032   1.181  13.951  1.00  0.00     0.037 A 
ATOM     53  C   UNL     1       3.969   0.812  18.075  1.00  0.00     0.049 A 
ATOM     54  C   UNL     1       8.674   1.917  15.216  1.00  0.00     0.074 A 
ATOM     55  C   UNL     1       3.775   1.523  19.246  1.00  0.00     0.029 A 
ATOM     56  N   UNL     1       5.174   1.242  17.539  1.00  0.00    -0.354 N 
ATOM     57  N   UNL     1       7.626   1.760  15.990  1.00  0.00    -0.248 NA
ATOM     58  C   UNL     1       9.607   2.958  15.670  1.00  0.00     0.031 C 
ATOM     59  C   UNL     1       4.846   2.409  19.400  1.00  0.00     0.029 A 
ATOM     60  C   UNL     1       5.731   2.215  18.350  1.00  0.00     0.049 A 
ATOM     61  H   UNL     1       5.574   0.906  16.704  1.00  0.00     0.167 HD
ATOM     62  C   UNL     1       7.795   2.653  17.043  1.00  0.00     0.074 A 
ATOM     63  C   UNL     1       9.043   3.348  16.806  1.00  0.00     0.031 C 
ATOM     64  C   UNL     1       6.991   2.873  18.112  1.00  0.00     0.037 A 
BRANCH  51  65
ATOM     65  C   UNL     1       1.820  -0.518  18.164  1.00  0.00     0.058 A 
ATOM     66  C   UNL     1       1.617  -1.744  18.818  1.00  0.00     0.135 A 
ATOM     67  C   UNL     1       0.771   0.415  18.183  1.00  0.00     0.135 A 
ATOM     68  F   UNL     1       2.580  -2.680  18.817  1.00  0.00    -0.206 F 
ATOM     69  C   UNL     1       0.409  -2.046  19.439  1.00  0.00     0.059 A 
ATOM     70  C   UNL     1      -0.435   0.146  18.823  1.00  0.00     0.059 A 
ATOM     71  F   UNL     1       0.911   1.602  17.572  1.00  0.00    -0.206 F 
ATOM     72  C   UNL     1      -0.612  -1.094  19.435  1.00  0.00     0.060 A 
BRANCH  72  73
ATOM     73  S   UNL     1      -2.171  -1.501  20.247  1.00  0.00     0.124 S 
ATOM     74  O   UNL     1      -2.753  -2.447  19.299  1.00  0.00    -0.237 OA
ATOM     75  O   UNL     1      -1.724  -2.070  21.515  1.00  0.00    -0.237 OA
ATOM     76  O   UNL     1      -2.850  -0.213  20.345  1.00  0.00    -0.744 OA
ENDBRANCH  72  73
ENDBRANCH  51  65
BRANCH  52  77
ATOM     77  C   UNL     1      10.271   1.516  13.199  1.00  0.00     0.058 A 
ATOM     78  C   UNL     1      11.536   1.208  13.723  1.00  0.00     0.135 A 
ATOM     79  C   UNL     1      10.219   2.138  11.942  1.00  0.00     0.135 A 
ATOM     80  F   UNL     1      11.638   0.618  14.923  1.00  0.00    -0.206 F 
ATOM     81  C   UNL     1      12.705   1.522  13.038  1.00  0.00     0.059 A 
ATOM     82  C   UNL     1      11.374   2.439  11.226  1.00  0.00     0.059 A 
ATOM     83  F   UNL     1       9.034   2.437  11.388  1.00  0.00    -0.206 F 
ATOM     84  C   UNL     1      12.614   2.137  11.789  1.00  0.00     0.060 A 
BRANCH  84  85
ATOM     85  S   UNL     1      14.138   2.501  10.889  1.00  0.00     0.124 S 
ATOM     86  O   UNL     1      14.661   3.633  11.646  1.00  0.00    -0.237 OA
ATOM     87  O   UNL     1      14.877   1.249  11.019  1.00  0.00    -0.237 OA
ATOM     88  O   UNL     1      13.666   2.805   9.542  1.00  0.00    -0.744 OA
ENDBRANCH  84  85
ENDBRANCH  52  77
BRANCH  64  89
ATOM     89  C   UNL     1       7.456   3.858  19.148  1.00  0.00     0.058 A 
ATOM     90  C   UNL     1       7.407   5.242  18.928  1.00  0.00     0.135 A 
ATOM     91  C   UNL     1       7.868   3.406  20.412  1.00  0.00     0.135 A 
ATOM     92  F   UNL     1       7.027   5.725  17.735  1.00  0.00    -0.206 F 
ATOM     93  C   UNL     1       7.757   6.146  19.926  1.00  0.00     0.059 A 
ATOM     94  C   UNL     1       8.198   4.292  21.432  1.00  0.00     0.059 A 
ATOM     95  F   UNL     1       7.923   2.090  20.674  1.00  0.00    -0.206 F 
ATOM     96  C   UNL     1       8.144   5.661  21.178  1.00  0.00     0.060 A 
BRANCH  96  97
ATOM     97  S   UNL     1       8.530   6.845  22.485  1.00  0.00     0.124 S 
ATOM     98  O   UNL     1       9.833   7.343  22.055  1.00  0.00    -0.237 OA
ATOM     99  O   UNL     1       7.425   7.793  22.384  1.00  0.00    -0.237 OA
ATOM    100  O   UNL     1       8.538   6.027  23.694  1.00  0.00    -0.744 OA
ENDBRANCH  96  97
ENDBRANCH  64  89
ENDBRANCH  38  39
ENDBRANCH  30  33
ENDBRANCH  28  29
ENDBRANCH   1  28
TORSDOF 17
