REMARK SMILES Cc1cccc(-n2c(C)cc(/C=N\c3ccc(O)c(C(=O)NCCCCNC(=O)c4ccc(-c5c6nc(c(-c7c(F)cc(S(=O)(=O)[O-])cc7F)c7ccc([nH]7)c(-c7c(F)cc(S(=O)(=O)[O-])cc7F)c7nc(c(-c8c(F)cc(S(=O)(=O)[O-])cc8F)c8ccc5[nH]8)C=C7)C=C6)cc4)c3)c2C)c1
REMARK SMILES IDX 24 1 23 2 22 3 20 4 21 5 19 7 14 8 15 9 96 10 16 11 17 12
REMARK SMILES IDX 13 13 12 14 11 15 7 16 8 17 97 18 9 19 10 20 98 21 6 22 1 23
REMARK SMILES IDX 2 24 3 25 99 26 4 27 5 28 18 29 25 31 26 32 27 33 28 34
REMARK SMILES IDX 29 36 30 37 31 38 95 39 32 40 94 41 33 42 34 43 35 44 88 45
REMARK SMILES IDX 36 46 93 47 87 48 89 49 37 50 92 51 86 52 85 53 38 55 72 56
REMARK SMILES IDX 51 57 71 58 52 59 55 60 70 61 90 62 53 63 54 64 69 66 91 67
REMARK SMILES IDX 56 68 39 69 40 70 49 71 41 72 42 73 48 74 50 75 43 76 44 77
REMARK SMILES IDX 45 78 46 79 47 80 73 81 74 82 83 83 75 84 76 85 82 86 84 87
REMARK SMILES IDX 77 88 78 89 79 90 80 91 81 92 57 93 58 94 67 95 59 96 60 97
REMARK SMILES IDX 66 98 68 99 61 100 62 101 63 102 64 103 65 104
REMARK H PARENT 22 6 18 30 27 35 89 54 55 65
REMARK Flexibility Score: inf
ROOT
ATOM      1  C   UNL     1      -3.854  -1.393   8.078  1.00  0.00     0.023 C 
ENDROOT
BRANCH   1   2
ATOM      2  C   UNL     1      -3.770  -1.187   6.569  1.00  0.00     0.116 C 
BRANCH   2   3
ATOM      3  N   UNL     1      -5.007  -0.816   5.890  1.00  0.00    -0.352 N 
ATOM      4  C   UNL     1      -5.303   0.157   4.958  1.00  0.00     0.255 C 
ATOM      5  O   UNL     1      -6.457   0.188   4.526  1.00  0.00    -0.269 OA
ATOM      6  H   UNL     1      -5.781  -1.367   6.148  1.00  0.00     0.163 HD
BRANCH   4   7
ATOM      7  C   UNL     1      -4.332   1.187   4.475  1.00  0.00     0.083 A 
ATOM      8  C   UNL     1      -4.036   3.359   3.381  1.00  0.00     0.064 A 
ATOM      9  C   UNL     1      -2.667   3.298   3.621  1.00  0.00     0.032 A 
ATOM     10  C   UNL     1      -4.869   2.370   3.930  1.00  0.00     0.046 A 
ATOM     11  C   UNL     1      -2.115   2.122   4.112  1.00  0.00     0.049 A 
ATOM     12  C   UNL     1      -2.947   1.038   4.397  1.00  0.00     0.128 A 
BRANCH   8  13
ATOM     13  N   UNL     1      -4.593   4.352   2.569  1.00  0.00    -0.256 NA
ATOM     14  C   UNL     1      -4.249   4.514   1.320  1.00  0.00     0.121 C 
BRANCH  14  15
ATOM     15  C   UNL     1      -3.279   3.799   0.482  1.00  0.00     0.014 A 
ATOM     16  N   UNL     1      -1.886   2.294  -0.484  1.00  0.00    -0.318 N 
ATOM     17  C   UNL     1      -1.653   3.515  -1.099  1.00  0.00     0.021 A 
ATOM     18  C   UNL     1      -3.009   2.436   0.340  1.00  0.00     0.029 A 
ATOM     19  C   UNL     1      -0.735   3.689  -2.261  1.00  0.00     0.065 C 
ATOM     20  C   UNL     1      -2.466   4.450  -0.493  1.00  0.00     0.033 A 
ATOM     21  C   UNL     1      -3.671   1.260   0.969  1.00  0.00     0.065 C 
BRANCH  16  22
ATOM     22  C   UNL     1      -1.068   1.130  -0.611  1.00  0.00     0.046 A 
ATOM     23  C   UNL     1       2.572   0.150  -0.003  1.00  0.00     0.044 C 
ATOM     24  C   UNL     1       1.109   0.078  -0.325  1.00  0.00    -0.049 A 
ATOM     25  C   UNL     1       0.514  -1.174  -0.527  1.00  0.00     0.003 A 
ATOM     26  C   UNL     1       0.312   1.233  -0.372  1.00  0.00     0.030 A 
ATOM     27  C   UNL     1      -0.846  -1.272  -0.813  1.00  0.00     0.002 A 
ATOM     28  C   UNL     1      -1.634  -0.122  -0.867  1.00  0.00     0.026 A 
ENDBRANCH  16  22
ENDBRANCH  14  15
ENDBRANCH   8  13
BRANCH  12  29
ATOM     29  O   UNL     1      -2.308  -0.171   4.389  1.00  0.00    -0.507 OA
ATOM     30  H   UNL     1      -1.373  -0.207   4.335  1.00  0.00     0.293 HD
ENDBRANCH  12  29
ENDBRANCH   4   7
ENDBRANCH   2   3
ENDBRANCH   1   2
BRANCH   1  31
ATOM     31  C   UNL     1      -4.864  -2.397   8.604  1.00  0.00     0.023 C 
BRANCH  31  32
ATOM     32  C   UNL     1      -4.766  -3.807   8.051  1.00  0.00     0.116 C 
BRANCH  32  33
ATOM     33  N   UNL     1      -3.697  -4.644   8.572  1.00  0.00    -0.352 N 
ATOM     34  C   UNL     1      -3.866  -6.021   8.707  1.00  0.00     0.251 C 
ATOM     35  H   UNL     1      -2.841  -4.231   8.833  1.00  0.00     0.163 HD
ATOM     36  O   UNL     1      -3.763  -6.622   9.771  1.00  0.00    -0.269 OA
BRANCH  34  37
ATOM     37  C   UNL     1      -4.167  -6.746   7.449  1.00  0.00     0.039 A 
ATOM     38  C   UNL     1      -3.225  -7.602   6.871  1.00  0.00     0.014 A 
ATOM     39  C   UNL     1      -5.337  -6.422   6.766  1.00  0.00     0.014 A 
ATOM     40  C   UNL     1      -3.396  -8.012   5.543  1.00  0.00     0.010 A 
ATOM     41  C   UNL     1      -5.444  -6.723   5.431  1.00  0.00     0.010 A 
ATOM     42  C   UNL     1      -4.471  -7.509   4.809  1.00  0.00    -0.014 A 
BRANCH  42  43
ATOM     43  C   UNL     1      -4.675  -7.674   3.376  1.00  0.00     0.031 A 
ATOM     44  C   UNL     1      -5.791  -8.502   2.863  1.00  0.00     0.074 A 
ATOM     45  C   UNL     1      -3.994  -6.877   2.525  1.00  0.00     0.049 A 
ATOM     46  N   UNL     1      -5.855  -8.956   1.656  1.00  0.00    -0.248 NA
ATOM     47  C   UNL     1      -6.941  -8.886   3.678  1.00  0.00     0.031 C 
ATOM     48  C   UNL     1      -4.329  -6.575   1.137  1.00  0.00     0.029 A 
ATOM     49  N   UNL     1      -2.738  -6.302   2.708  1.00  0.00    -0.354 N 
ATOM     50  C   UNL     1      -7.139  -9.405   1.450  1.00  0.00     0.074 A 
ATOM     51  C   UNL     1      -7.760  -9.397   2.754  1.00  0.00     0.031 C 
ATOM     52  C   UNL     1      -3.236  -6.105   0.516  1.00  0.00     0.029 A 
ATOM     53  C   UNL     1      -2.126  -6.231   1.443  1.00  0.00     0.049 A 
ATOM     54  H   UNL     1      -2.352  -6.002   3.562  1.00  0.00     0.167 HD
ATOM     55  C   UNL     1      -7.596  -9.598   0.180  1.00  0.00     0.037 A 
ATOM     56  C   UNL     1      -0.981  -6.934   1.190  1.00  0.00     0.037 A 
ATOM     57  C   UNL     1      -6.568  -9.291  -0.810  1.00  0.00     0.049 A 
ATOM     58  C   UNL     1      -1.140  -7.999   0.126  1.00  0.00     0.074 A 
ATOM     59  C   UNL     1      -6.324  -8.172  -1.591  1.00  0.00     0.029 A 
ATOM     60  N   UNL     1      -5.416 -10.068  -0.873  1.00  0.00    -0.354 N 
ATOM     61  N   UNL     1      -2.290  -8.440  -0.305  1.00  0.00    -0.248 NA
ATOM     62  C   UNL     1      -0.018  -8.647  -0.547  1.00  0.00     0.031 C 
ATOM     63  C   UNL     1      -5.003  -8.258  -2.091  1.00  0.00     0.029 A 
ATOM     64  C   UNL     1      -4.444  -9.434  -1.624  1.00  0.00     0.049 A 
ATOM     65  H   UNL     1      -5.308 -10.947  -0.443  1.00  0.00     0.167 HD
ATOM     66  C   UNL     1      -2.096  -9.408  -1.260  1.00  0.00     0.074 A 
ATOM     67  C   UNL     1      -0.653  -9.479  -1.394  1.00  0.00     0.031 C 
ATOM     68  C   UNL     1      -3.146 -10.056  -1.854  1.00  0.00     0.037 A 
BRANCH  55  69
ATOM     69  C   UNL     1      -9.065  -9.771  -0.132  1.00  0.00     0.058 A 
ATOM     70  C   UNL     1      -9.655  -9.159  -1.258  1.00  0.00     0.135 A 
ATOM     71  C   UNL     1      -9.954 -10.504   0.680  1.00  0.00     0.135 A 
ATOM     72  F   UNL     1      -8.925  -8.492  -2.160  1.00  0.00    -0.206 F 
ATOM     73  C   UNL     1     -11.029  -9.179  -1.500  1.00  0.00     0.059 A 
ATOM     74  C   UNL     1     -11.341 -10.498   0.487  1.00  0.00     0.059 A 
ATOM     75  F   UNL     1      -9.497 -11.265   1.687  1.00  0.00    -0.206 F 
ATOM     76  C   UNL     1     -11.871  -9.822  -0.604  1.00  0.00     0.060 A 
BRANCH  76  77
ATOM     77  S   UNL     1     -13.651  -9.739  -0.881  1.00  0.00     0.124 S 
ATOM     78  O   UNL     1     -13.866  -8.310  -1.091  1.00  0.00    -0.237 OA
ATOM     79  O   UNL     1     -13.814 -10.585  -2.058  1.00  0.00    -0.237 OA
ATOM     80  O   UNL     1     -14.211 -10.270   0.359  1.00  0.00    -0.744 OA
ENDBRANCH  76  77
ENDBRANCH  55  69
BRANCH  56  81
ATOM     81  C   UNL     1      -0.076  -6.981   2.375  1.00  0.00     0.058 A 
ATOM     82  C   UNL     1       0.483  -5.756   2.795  1.00  0.00     0.135 A 
ATOM     83  C   UNL     1      -0.182  -8.002   3.330  1.00  0.00     0.135 A 
ATOM     84  F   UNL     1       0.633  -4.753   1.913  1.00  0.00    -0.206 F 
ATOM     85  C   UNL     1       0.725  -5.483   4.137  1.00  0.00     0.059 A 
ATOM     86  C   UNL     1       0.073  -7.754   4.683  1.00  0.00     0.059 A 
ATOM     87  F   UNL     1      -0.693  -9.195   2.990  1.00  0.00    -0.206 F 
ATOM     88  C   UNL     1       0.434  -6.465   5.081  1.00  0.00     0.060 A 
BRANCH  88  89
ATOM     89  S   UNL     1       0.371  -5.977   6.824  1.00  0.00     0.124 S 
ATOM     90  O   UNL     1       1.655  -5.309   7.003  1.00  0.00    -0.237 OA
ATOM     91  O   UNL     1      -0.805  -5.104   6.854  1.00  0.00    -0.237 OA
ATOM     92  O   UNL     1       0.221  -7.249   7.521  1.00  0.00    -0.744 OA
ENDBRANCH  88  89
ENDBRANCH  56  81
BRANCH  68  93
ATOM     93  C   UNL     1      -3.089 -11.254  -2.787  1.00  0.00     0.058 A 
ATOM     94  C   UNL     1      -2.035 -12.181  -2.838  1.00  0.00     0.135 A 
ATOM     95  C   UNL     1      -4.209 -11.579  -3.600  1.00  0.00     0.135 A 
ATOM     96  F   UNL     1      -0.963 -12.067  -2.043  1.00  0.00    -0.206 F 
ATOM     97  C   UNL     1      -2.057 -13.302  -3.675  1.00  0.00     0.059 A 
ATOM     98  C   UNL     1      -4.277 -12.722  -4.394  1.00  0.00     0.059 A 
ATOM     99  F   UNL     1      -5.300 -10.800  -3.644  1.00  0.00    -0.206 F 
ATOM    100  C   UNL     1      -3.183 -13.567  -4.447  1.00  0.00     0.060 A 
BRANCH 100 101
ATOM    101  S   UNL     1      -3.252 -15.051  -5.467  1.00  0.00     0.124 S 
ATOM    102  O   UNL     1      -2.700 -14.564  -6.727  1.00  0.00    -0.237 OA
ATOM    103  O   UNL     1      -2.409 -15.989  -4.731  1.00  0.00    -0.237 OA
ATOM    104  O   UNL     1      -4.674 -15.380  -5.483  1.00  0.00    -0.744 OA
ENDBRANCH 100 101
ENDBRANCH  68  93
ENDBRANCH  42  43
ENDBRANCH  34  37
ENDBRANCH  32  33
ENDBRANCH  31  32
ENDBRANCH   1  31
TORSDOF 18
