REMARK SMILES Cc1nc2nc(CNC(=O)OC(C)(C)C)nn2c(C)c1CCC(=O)NCCCCNC(=O)c1ccc(-c2c3nc(c(-c4c(F)cc(S(=O)(=O)[O-])cc4F)c4ccc([nH]4)c(-c4c(F)cc(S(=O)(=O)[O-])cc4F)c4nc(c(-c5c(F)cc(S(=O)(=O)[O-])cc5F)c5ccc2[nH]5)C=C4)C=C3)cc1
REMARK SMILES IDX 26 1 25 2 23 3 24 4 22 6 21 7 20 8 1 9 2 10 3 11 4 12 18 13
REMARK SMILES IDX 5 14 17 15 19 16 6 17 16 18 7 19 8 20 9 21 10 23 11 24 12 25
REMARK SMILES IDX 13 26 14 27 15 28 27 29 28 30 29 31 30 32 31 33 32 35 33 36
REMARK SMILES IDX 34 37 98 38 35 39 97 40 36 41 37 42 38 43 91 44 39 45 96 46
REMARK SMILES IDX 90 47 92 48 40 49 95 50 89 51 88 52 41 54 75 55 54 56 74 57
REMARK SMILES IDX 55 58 58 59 73 60 93 61 56 62 57 63 72 65 94 66 59 67 42 68
REMARK SMILES IDX 43 69 52 70 44 71 45 72 51 73 53 74 46 75 47 76 48 77 49 78
REMARK SMILES IDX 50 79 76 80 77 81 86 82 78 83 79 84 85 85 87 86 80 87 81 88
REMARK SMILES IDX 82 89 83 90 84 91 60 92 61 93 70 94 62 95 63 96 69 97 71 98
REMARK SMILES IDX 64 99 65 100 66 101 67 102 68 103
REMARK H PARENT 25 5 8 22 30 34 92 53 58 64
REMARK Flexibility Score: inf
ROOT
ATOM      1  C   UNL     1      -2.384   3.320   2.033  1.00  0.00     0.116 C 
ENDROOT
BRANCH   1   2
ATOM      2  N   UNL     1      -3.536   2.628   1.477  1.00  0.00    -0.356 N 
ATOM      3  C   UNL     1      -3.537   1.527   0.661  1.00  0.00     0.220 C 
ATOM      4  O   UNL     1      -4.542   1.277  -0.005  1.00  0.00    -0.275 OA
ATOM      5  H   UNL     1      -4.419   2.993   1.714  1.00  0.00     0.163 HD
BRANCH   3   6
ATOM      6  C   UNL     1      -2.316   0.614   0.600  1.00  0.00     0.105 C 
BRANCH   6   7
ATOM      7  C   UNL     1      -1.701   0.458  -0.810  1.00  0.00     0.049 C 
BRANCH   7   8
ATOM      8  C   UNL     1      -0.643   1.492  -1.171  1.00  0.00    -0.005 A 
ATOM      9  C   UNL     1       1.145   0.097   0.122  1.00  0.00     0.067 C 
ATOM     10  C   UNL     1       0.727   1.408  -0.514  1.00  0.00     0.046 A 
ATOM     11  N   UNL     1       1.601   2.369  -0.481  1.00  0.00    -0.216 NA
ATOM     12  C   UNL     1       1.267   3.531  -1.104  1.00  0.00     0.252 A 
ATOM     13  C   UNL     1      -0.815   2.576  -1.976  1.00  0.00     0.048 A 
ATOM     14  N   UNL     1       1.807   4.723  -0.972  1.00  0.00    -0.192 NA
ATOM     15  N   UNL     1       0.142   3.623  -1.930  1.00  0.00    -0.201 N 
ATOM     16  C   UNL     1      -2.082   2.854  -2.738  1.00  0.00     0.067 C 
ATOM     17  C   UNL     1       1.062   5.534  -1.790  1.00  0.00     0.172 A 
ATOM     18  N   UNL     1       0.076   4.894  -2.442  1.00  0.00    -0.148 NA
BRANCH  17  19
ATOM     19  C   UNL     1       1.266   7.042  -1.817  1.00  0.00     0.199 C 
BRANCH  19  20
ATOM     20  N   UNL     1       1.653   7.511  -0.500  1.00  0.00    -0.314 N 
ATOM     21  C   UNL     1       2.212   8.658  -0.057  1.00  0.00     0.408 C 
ATOM     22  H   UNL     1       1.470   6.862   0.217  1.00  0.00     0.167 HD
ATOM     23  O   UNL     1       2.298   8.875   1.144  1.00  0.00    -0.225 OA
BRANCH  21  24
ATOM     24  O   UNL     1       2.676   9.492  -1.011  1.00  0.00    -0.444 OA
BRANCH  24  25
ATOM     25  C   UNL     1       3.452  10.640  -0.552  1.00  0.00     0.106 C 
ATOM     26  C   UNL     1       2.574  11.679   0.165  1.00  0.00     0.056 C 
ATOM     27  C   UNL     1       4.647  10.229   0.334  1.00  0.00     0.056 C 
ATOM     28  C   UNL     1       4.007  11.265  -1.837  1.00  0.00     0.056 C 
ENDBRANCH  24  25
ENDBRANCH  21  24
ENDBRANCH  19  20
ENDBRANCH  17  19
ENDBRANCH   7   8
ENDBRANCH   6   7
ENDBRANCH   3   6
ENDBRANCH   1   2
BRANCH   1  29
ATOM     29  C   UNL     1      -1.594   3.939   0.893  1.00  0.00     0.023 C 
BRANCH  29  30
ATOM     30  C   UNL     1      -1.889   5.381   0.501  1.00  0.00     0.023 C 
BRANCH  30  31
ATOM     31  C   UNL     1      -1.146   6.386   1.350  1.00  0.00     0.116 C 
BRANCH  31  32
ATOM     32  N   UNL     1       0.273   6.061   1.578  1.00  0.00    -0.352 N 
ATOM     33  C   UNL     1       1.096   6.581   2.572  1.00  0.00     0.251 C 
ATOM     34  H   UNL     1       0.681   5.408   0.964  1.00  0.00     0.163 HD
ATOM     35  O   UNL     1       2.283   6.306   2.650  1.00  0.00    -0.269 OA
BRANCH  33  36
ATOM     36  C   UNL     1       0.400   7.349   3.601  1.00  0.00     0.039 A 
ATOM     37  C   UNL     1       0.346   8.748   3.614  1.00  0.00     0.014 A 
ATOM     38  C   UNL     1      -0.533   6.557   4.251  1.00  0.00     0.014 A 
ATOM     39  C   UNL     1      -0.711   9.361   4.277  1.00  0.00     0.010 A 
ATOM     40  C   UNL     1      -1.687   7.168   4.638  1.00  0.00     0.010 A 
ATOM     41  C   UNL     1      -1.733   8.554   4.782  1.00  0.00    -0.014 A 
BRANCH  41  42
ATOM     42  C   UNL     1      -2.863   9.088   5.526  1.00  0.00     0.031 A 
ATOM     43  C   UNL     1      -3.630  10.215   4.930  1.00  0.00     0.074 A 
ATOM     44  C   UNL     1      -3.267   8.445   6.645  1.00  0.00     0.049 A 
ATOM     45  N   UNL     1      -3.701  11.428   5.373  1.00  0.00    -0.248 NA
ATOM     46  C   UNL     1      -4.335  10.015   3.654  1.00  0.00     0.031 C 
ATOM     47  C   UNL     1      -2.744   7.196   7.235  1.00  0.00     0.029 A 
ATOM     48  N   UNL     1      -4.329   8.711   7.440  1.00  0.00    -0.354 N 
ATOM     49  C   UNL     1      -4.640  12.081   4.580  1.00  0.00     0.074 A 
ATOM     50  C   UNL     1      -4.859  11.226   3.442  1.00  0.00     0.031 C 
ATOM     51  C   UNL     1      -3.647   6.674   8.084  1.00  0.00     0.029 A 
ATOM     52  C   UNL     1      -4.671   7.671   8.291  1.00  0.00     0.049 A 
ATOM     53  H   UNL     1      -4.814   9.567   7.417  1.00  0.00     0.167 HD
ATOM     54  C   UNL     1      -5.333  13.160   5.048  1.00  0.00     0.037 A 
ATOM     55  C   UNL     1      -5.700   7.629   9.161  1.00  0.00     0.037 A 
ATOM     56  C   UNL     1      -4.714  13.700   6.234  1.00  0.00     0.049 A 
ATOM     57  C   UNL     1      -6.043   9.042   9.455  1.00  0.00     0.074 A 
ATOM     58  C   UNL     1      -3.470  14.227   6.522  1.00  0.00     0.029 A 
ATOM     59  N   UNL     1      -5.271  13.379   7.450  1.00  0.00    -0.354 N 
ATOM     60  N   UNL     1      -5.227   9.868  10.059  1.00  0.00    -0.248 NA
ATOM     61  C   UNL     1      -7.085   9.672   8.662  1.00  0.00     0.031 C 
ATOM     62  C   UNL     1      -3.156  13.741   7.826  1.00  0.00     0.029 A 
ATOM     63  C   UNL     1      -4.251  13.009   8.291  1.00  0.00     0.049 A 
ATOM     64  H   UNL     1      -6.229  13.409   7.676  1.00  0.00     0.167 HD
ATOM     65  C   UNL     1      -5.384  11.079   9.398  1.00  0.00     0.074 A 
ATOM     66  C   UNL     1      -6.616  10.923   8.626  1.00  0.00     0.031 C 
ATOM     67  C   UNL     1      -4.363  11.986   9.315  1.00  0.00     0.037 A 
BRANCH  54  68
ATOM     68  C   UNL     1      -6.751  13.513   4.654  1.00  0.00     0.058 A 
ATOM     69  C   UNL     1      -7.301  14.751   5.051  1.00  0.00     0.135 A 
ATOM     70  C   UNL     1      -7.677  12.576   4.145  1.00  0.00     0.135 A 
ATOM     71  F   UNL     1      -6.517  15.716   5.560  1.00  0.00    -0.206 F 
ATOM     72  C   UNL     1      -8.673  15.010   5.012  1.00  0.00     0.059 A 
ATOM     73  C   UNL     1      -9.040  12.833   4.046  1.00  0.00     0.059 A 
ATOM     74  F   UNL     1      -7.320  11.329   3.815  1.00  0.00    -0.206 F 
ATOM     75  C   UNL     1      -9.537  14.034   4.523  1.00  0.00     0.060 A 
BRANCH  75  76
ATOM     76  S   UNL     1     -11.317  14.309   4.586  1.00  0.00     0.124 S 
ATOM     77  O   UNL     1     -11.568  14.252   6.021  1.00  0.00    -0.237 OA
ATOM     78  O   UNL     1     -11.444  15.623   3.965  1.00  0.00    -0.237 OA
ATOM     79  O   UNL     1     -11.855  13.198   3.806  1.00  0.00    -0.744 OA
ENDBRANCH  75  76
ENDBRANCH  54  68
BRANCH  55  80
ATOM     80  C   UNL     1      -6.561   6.456   9.434  1.00  0.00     0.058 A 
ATOM     81  C   UNL     1      -7.456   6.462  10.513  1.00  0.00     0.135 A 
ATOM     82  C   UNL     1      -6.713   5.408   8.498  1.00  0.00     0.135 A 
ATOM     83  F   UNL     1      -7.379   7.423  11.444  1.00  0.00    -0.206 F 
ATOM     84  C   UNL     1      -8.488   5.526  10.622  1.00  0.00     0.059 A 
ATOM     85  C   UNL     1      -7.726   4.457   8.593  1.00  0.00     0.059 A 
ATOM     86  F   UNL     1      -5.932   5.328   7.408  1.00  0.00    -0.206 F 
ATOM     87  C   UNL     1      -8.632   4.545   9.641  1.00  0.00     0.060 A 
BRANCH  87  88
ATOM     88  S   UNL     1     -10.086   3.473   9.674  1.00  0.00     0.124 S 
ATOM     89  O   UNL     1      -9.852   2.684  10.879  1.00  0.00    -0.237 OA
ATOM     90  O   UNL     1     -11.175   4.441   9.746  1.00  0.00    -0.237 OA
ATOM     91  O   UNL     1      -9.993   2.735   8.417  1.00  0.00    -0.744 OA
ENDBRANCH  87  88
ENDBRANCH  55  80
BRANCH  67  92
ATOM     92  C   UNL     1      -3.147  11.786  10.193  1.00  0.00     0.058 A 
ATOM     93  C   UNL     1      -2.230  10.729  10.052  1.00  0.00     0.135 A 
ATOM     94  C   UNL     1      -2.799  12.805  11.092  1.00  0.00     0.135 A 
ATOM     95  F   UNL     1      -2.427   9.763   9.148  1.00  0.00    -0.206 F 
ATOM     96  C   UNL     1      -1.043  10.669  10.788  1.00  0.00     0.059 A 
ATOM     97  C   UNL     1      -1.608  12.782  11.818  1.00  0.00     0.059 A 
ATOM     98  F   UNL     1      -3.596  13.878  11.230  1.00  0.00    -0.206 F 
ATOM     99  C   UNL     1      -0.737  11.705  11.667  1.00  0.00     0.060 A 
BRANCH  99 100
ATOM    100  S   UNL     1       0.834  11.667  12.558  1.00  0.00     0.124 S 
ATOM    101  O   UNL     1       0.634  10.562  13.489  1.00  0.00    -0.237 OA
ATOM    102  O   UNL     1       1.800  11.428  11.489  1.00  0.00    -0.237 OA
ATOM    103  O   UNL     1       0.912  12.991  13.171  1.00  0.00    -0.744 OA
ENDBRANCH  99 100
ENDBRANCH  67  92
ENDBRANCH  41  42
ENDBRANCH  33  36
ENDBRANCH  31  32
ENDBRANCH  30  31
ENDBRANCH  29  30
ENDBRANCH   1  29
TORSDOF 20
