REMARK SMILES COc1ccc(NC(=O)[C@@H]2[C@@H](C(=O)NCCCCNC(=O)c3ccc(-c4c5nc(c(-c6c(F)cc(S(=O)(=O)[O-])cc6F)c6ccc([nH]6)c(-c6c(F)cc(S(=O)(=O)[O-])cc6F)c6nc(c(-c7c(F)cc(S(=O)(=O)[O-])cc7F)c7ccc4[nH]7)C=C6)C=C5)cc3)[C@@H]3CC[C@H]2C3=C(C)C)cc1
REMARK SMILES IDX 16 1 15 2 14 3 12 4 13 5 11 7 10 8 91 9 88 10 90 11 92 12
REMARK SMILES IDX 89 13 93 14 94 15 95 16 8 17 7 18 9 20 6 21 3 22 4 23 97 24
REMARK SMILES IDX 5 25 96 26 2 27 1 28 17 29 18 30 19 31 20 32 21 34 22 35
REMARK SMILES IDX 23 36 87 37 24 38 86 39 25 40 26 41 27 42 80 43 28 44 85 45
REMARK SMILES IDX 79 46 81 47 29 48 84 49 78 50 77 51 30 53 64 54 43 55 63 56
REMARK SMILES IDX 44 57 47 58 62 59 82 60 45 61 46 62 61 64 83 65 48 66 31 67
REMARK SMILES IDX 32 68 41 69 33 70 34 71 40 72 42 73 35 74 36 75 37 76 38 77
REMARK SMILES IDX 39 78 65 79 66 80 75 81 67 82 68 83 74 84 76 85 69 86 70 87
REMARK SMILES IDX 71 88 72 89 73 90 49 91 50 92 59 93 51 94 52 95 58 96 60 97
REMARK SMILES IDX 53 98 54 99 55 100 56 101 57 102
REMARK H PARENT 14 6 7 19 19 33 81 52 47 63
REMARK Flexibility Score: inf
ROOT
ATOM      1  C   UNL     1      -0.080  -1.015   8.685  1.00  0.00     0.023 C 
ENDROOT
BRANCH   1   2
ATOM      2  C   UNL     1      -0.902  -2.288   8.498  1.00  0.00     0.116 C 
BRANCH   2   3
ATOM      3  N   UNL     1      -1.596  -2.296   7.226  1.00  0.00    -0.356 N 
ATOM      4  C   UNL     1      -1.635  -3.247   6.253  1.00  0.00     0.224 C 
ATOM      5  O   UNL     1      -2.374  -3.038   5.290  1.00  0.00    -0.275 OA
ATOM      6  H   UNL     1      -2.122  -1.485   7.035  1.00  0.00     0.163 HD
BRANCH   4   7
ATOM      7  C   UNL     1      -0.834  -4.533   6.426  1.00  0.00     0.098 C 
ATOM      8  C   UNL     1      -0.483  -5.275   5.101  1.00  0.00     0.099 C 
ATOM      9  C   UNL     1      -1.180  -6.654   5.280  1.00  0.00     0.028 C 
ATOM     10  C   UNL     1      -1.767  -5.524   7.158  1.00  0.00     0.028 C 
ATOM     11  C   UNL     1      -0.662  -7.529   6.430  1.00  0.00     0.009 C 
ATOM     12  C   UNL     1      -2.431  -6.157   5.961  1.00  0.00    -0.064 C 
ATOM     13  C   UNL     1      -0.956  -6.707   7.690  1.00  0.00     0.009 C 
ATOM     14  C   UNL     1      -3.711  -6.172   5.554  1.00  0.00    -0.077 C 
ATOM     15  C   UNL     1      -4.829  -5.518   6.316  1.00  0.00     0.039 C 
ATOM     16  C   UNL     1      -4.103  -6.773   4.233  1.00  0.00     0.039 C 
BRANCH   8  17
ATOM     17  C   UNL     1       1.024  -5.347   4.872  1.00  0.00     0.228 C 
ATOM     18  N   UNL     1       1.712  -4.521   4.032  1.00  0.00    -0.326 N 
ATOM     19  H   UNL     1       2.657  -4.784   3.948  1.00  0.00     0.169 HD
ATOM     20  O   UNL     1       1.720  -6.181   5.463  1.00  0.00    -0.274 OA
BRANCH  18  21
ATOM     21  C   UNL     1       1.411  -3.388   3.256  1.00  0.00     0.041 A 
ATOM     22  C   UNL     1       0.988  -1.104   1.640  1.00  0.00     0.119 A 
ATOM     23  C   UNL     1       0.020  -1.531   2.537  1.00  0.00     0.048 A 
ATOM     24  C   UNL     1       2.190  -1.800   1.563  1.00  0.00     0.048 A 
ATOM     25  C   UNL     1       0.234  -2.664   3.326  1.00  0.00     0.030 A 
ATOM     26  C   UNL     1       2.401  -2.930   2.373  1.00  0.00     0.030 A 
BRANCH  22  27
ATOM     27  O   UNL     1       0.667   0.026   0.946  1.00  0.00    -0.497 OA
ATOM     28  C   UNL     1       1.233   0.134  -0.351  1.00  0.00     0.278 C 
ENDBRANCH  22  27
ENDBRANCH  18  21
ENDBRANCH   8  17
ENDBRANCH   4   7
ENDBRANCH   2   3
ENDBRANCH   1   2
BRANCH   1  29
ATOM     29  C   UNL     1      -0.892   0.283   8.712  1.00  0.00     0.023 C 
BRANCH  29  30
ATOM     30  C   UNL     1      -2.005   0.338   9.754  1.00  0.00     0.116 C 
BRANCH  30  31
ATOM     31  N   UNL     1      -1.509   0.217  11.115  1.00  0.00    -0.352 N 
ATOM     32  C   UNL     1      -1.765   1.005  12.213  1.00  0.00     0.251 C 
ATOM     33  H   UNL     1      -0.900  -0.540  11.274  1.00  0.00     0.163 HD
ATOM     34  O   UNL     1      -1.128   0.828  13.245  1.00  0.00    -0.269 OA
BRANCH  32  35
ATOM     35  C   UNL     1      -2.781   2.081  12.140  1.00  0.00     0.039 A 
ATOM     36  C   UNL     1      -2.483   3.326  12.700  1.00  0.00     0.014 A 
ATOM     37  C   UNL     1      -4.020   1.869  11.531  1.00  0.00     0.014 A 
ATOM     38  C   UNL     1      -3.400   4.375  12.591  1.00  0.00     0.010 A 
ATOM     39  C   UNL     1      -4.899   2.936  11.353  1.00  0.00     0.010 A 
ATOM     40  C   UNL     1      -4.601   4.201  11.883  1.00  0.00    -0.014 A 
BRANCH  40  41
ATOM     41  C   UNL     1      -5.548   5.331  11.681  1.00  0.00     0.031 A 
ATOM     42  C   UNL     1      -6.942   5.268  12.244  1.00  0.00     0.074 A 
ATOM     43  C   UNL     1      -5.173   6.388  10.932  1.00  0.00     0.049 A 
ATOM     44  N   UNL     1      -7.921   6.129  12.127  1.00  0.00    -0.248 NA
ATOM     45  C   UNL     1      -7.291   4.067  13.019  1.00  0.00     0.031 C 
ATOM     46  C   UNL     1      -3.869   6.545  10.285  1.00  0.00     0.029 A 
ATOM     47  N   UNL     1      -5.856   7.525  10.578  1.00  0.00    -0.354 N 
ATOM     48  C   UNL     1      -9.003   5.569  12.796  1.00  0.00     0.074 A 
ATOM     49  C   UNL     1      -8.576   4.270  13.269  1.00  0.00     0.031 C 
ATOM     50  C   UNL     1      -3.839   7.717   9.632  1.00  0.00     0.029 A 
ATOM     51  C   UNL     1      -5.133   8.378   9.778  1.00  0.00     0.049 A 
ATOM     52  H   UNL     1      -6.778   7.712  10.870  1.00  0.00     0.167 HD
ATOM     53  C   UNL     1     -10.232   6.097  13.015  1.00  0.00     0.037 A 
ATOM     54  C   UNL     1      -5.473   9.554   9.214  1.00  0.00     0.037 A 
ATOM     55  C   UNL     1     -10.644   7.398  12.553  1.00  0.00     0.049 A 
ATOM     56  C   UNL     1      -6.842  10.123   9.468  1.00  0.00     0.074 A 
ATOM     57  C   UNL     1     -11.844   8.051  12.779  1.00  0.00     0.029 A 
ATOM     58  N   UNL     1      -9.876   8.241  11.761  1.00  0.00    -0.354 N 
ATOM     59  N   UNL     1      -7.828   9.614  10.170  1.00  0.00    -0.248 NA
ATOM     60  C   UNL     1      -7.144  11.427   8.864  1.00  0.00     0.031 C 
ATOM     61  C   UNL     1     -11.823   9.261  12.077  1.00  0.00     0.029 A 
ATOM     62  C   UNL     1     -10.587   9.393  11.465  1.00  0.00     0.049 A 
ATOM     63  H   UNL     1      -8.961   8.048  11.454  1.00  0.00     0.167 HD
ATOM     64  C   UNL     1      -8.857  10.548  10.112  1.00  0.00     0.074 A 
ATOM     65  C   UNL     1      -8.369  11.657   9.318  1.00  0.00     0.031 C 
ATOM     66  C   UNL     1     -10.093  10.492  10.670  1.00  0.00     0.037 A 
BRANCH  53  67
ATOM     67  C   UNL     1     -11.223   5.259  13.780  1.00  0.00     0.058 A 
ATOM     68  C   UNL     1     -11.050   4.961  15.142  1.00  0.00     0.135 A 
ATOM     69  C   UNL     1     -12.373   4.758  13.146  1.00  0.00     0.135 A 
ATOM     70  F   UNL     1      -9.965   5.403  15.798  1.00  0.00    -0.206 F 
ATOM     71  C   UNL     1     -11.953   4.161  15.834  1.00  0.00     0.059 A 
ATOM     72  C   UNL     1     -13.307   3.984  13.828  1.00  0.00     0.059 A 
ATOM     73  F   UNL     1     -12.595   5.014  11.847  1.00  0.00    -0.206 F 
ATOM     74  C   UNL     1     -13.077   3.673  15.167  1.00  0.00     0.060 A 
BRANCH  74  75
ATOM     75  S   UNL     1     -14.229   2.620  16.075  1.00  0.00     0.124 S 
ATOM     76  O   UNL     1     -13.457   1.387  16.199  1.00  0.00    -0.237 OA
ATOM     77  O   UNL     1     -14.428   3.369  17.311  1.00  0.00    -0.237 OA
ATOM     78  O   UNL     1     -15.390   2.547  15.194  1.00  0.00    -0.744 OA
ENDBRANCH  74  75
ENDBRANCH  53  67
BRANCH  54  79
ATOM     79  C   UNL     1      -4.483  10.279   8.372  1.00  0.00     0.058 A 
ATOM     80  C   UNL     1      -3.880  11.463   8.822  1.00  0.00     0.135 A 
ATOM     81  C   UNL     1      -4.089   9.780   7.120  1.00  0.00     0.135 A 
ATOM     82  F   UNL     1      -4.228  11.985  10.008  1.00  0.00    -0.206 F 
ATOM     83  C   UNL     1      -2.925  12.129   8.060  1.00  0.00     0.059 A 
ATOM     84  C   UNL     1      -3.117  10.414   6.352  1.00  0.00     0.059 A 
ATOM     85  F   UNL     1      -4.625   8.643   6.651  1.00  0.00    -0.206 F 
ATOM     86  C   UNL     1      -2.543  11.591   6.830  1.00  0.00     0.060 A 
BRANCH  86  87
ATOM     87  S   UNL     1      -1.248  12.424   5.886  1.00  0.00     0.124 S 
ATOM     88  O   UNL     1      -1.939  13.625   5.432  1.00  0.00    -0.237 OA
ATOM     89  O   UNL     1      -0.215  12.624   6.898  1.00  0.00    -0.237 OA
ATOM     90  O   UNL     1      -0.914  11.455   4.846  1.00  0.00    -0.744 OA
ENDBRANCH  86  87
ENDBRANCH  54  79
BRANCH  66  91
ATOM     91  C   UNL     1     -10.999  11.678  10.473  1.00  0.00     0.058 A 
ATOM     92  C   UNL     1     -11.582  11.968   9.229  1.00  0.00     0.135 A 
ATOM     93  C   UNL     1     -11.330  12.506  11.558  1.00  0.00     0.135 A 
ATOM     94  F   UNL     1     -11.295  11.214   8.156  1.00  0.00    -0.206 F 
ATOM     95  C   UNL     1     -12.438  13.052   9.062  1.00  0.00     0.059 A 
ATOM     96  C   UNL     1     -12.209  13.576  11.421  1.00  0.00     0.059 A 
ATOM     97  F   UNL     1     -10.811  12.269  12.773  1.00  0.00    -0.206 F 
ATOM     98  C   UNL     1     -12.749  13.849  10.165  1.00  0.00     0.060 A 
BRANCH  98  99
ATOM     99  S   UNL     1     -13.886  15.233   9.942  1.00  0.00     0.124 S 
ATOM    100  O   UNL     1     -13.058  16.177   9.197  1.00  0.00    -0.237 OA
ATOM    101  O   UNL     1     -14.979  14.621   9.193  1.00  0.00    -0.237 OA
ATOM    102  O   UNL     1     -14.214  15.629  11.308  1.00  0.00    -0.744 OA
ENDBRANCH  98  99
ENDBRANCH  66  91
ENDBRANCH  40  41
ENDBRANCH  32  35
ENDBRANCH  30  31
ENDBRANCH  29  30
ENDBRANCH   1  29
TORSDOF 17
