REMARK SMILES CC[C@H]1CCCCN1S(=O)(=O)c1ccc2oc(C(=O)NCCCCNC(=O)c3ccc(-c4c5nc(c(-c6c(F)cc(S(=O)(=O)[O-])cc6F)c6ccc([nH]6)c(-c6c(F)cc(S(=O)(=O)[O-])cc6F)c6nc(c(-c7c(F)cc(S(=O)(=O)[O-])cc7F)c7ccc4[nH]7)C=C6)C=C5)cc3)c(C)c2c1
REMARK SMILES IDX 22 1 21 2 20 3 18 4 19 5 17 7 12 8 13 9 97 10 14 11 96 12
REMARK SMILES IDX 15 13 94 14 16 15 95 16 9 17 10 18 11 19 8 20 3 21 4 22 5 23
REMARK SMILES IDX 7 24 6 25 2 26 1 27 23 28 24 29 25 30 26 31 27 33 28 34
REMARK SMILES IDX 29 35 93 36 30 37 92 38 31 39 32 40 33 41 86 42 34 43 91 44
REMARK SMILES IDX 85 45 87 46 35 47 90 48 84 49 83 50 36 52 70 53 49 54 69 55
REMARK SMILES IDX 50 56 53 57 68 58 88 59 51 60 52 61 67 63 89 64 54 65 37 66
REMARK SMILES IDX 38 67 47 68 39 69 40 70 46 71 48 72 41 73 42 74 43 75 44 76
REMARK SMILES IDX 45 77 71 78 72 79 81 80 73 81 74 82 80 83 82 84 75 85 76 86
REMARK SMILES IDX 77 87 78 88 79 89 55 90 56 91 65 92 57 93 58 94 64 95 66 96
REMARK SMILES IDX 59 97 60 98 61 99 62 100 63 101
REMARK H PARENT 20 6 25 32 87 51 53 62
REMARK Flexibility Score: inf
ROOT
ATOM      1  C   UNL     1       0.953  -3.344  11.010  1.00  0.00     0.023 C 
ENDROOT
BRANCH   1   2
ATOM      2  C   UNL     1       0.001  -3.242   9.829  1.00  0.00     0.116 C 
BRANCH   2   3
ATOM      3  N   UNL     1      -1.285  -2.635  10.082  1.00  0.00    -0.349 N 
ATOM      4  C   UNL     1      -2.103  -1.930   9.213  1.00  0.00     0.287 C 
ATOM      5  O   UNL     1      -3.158  -1.503   9.687  1.00  0.00    -0.266 OA
ATOM      6  H   UNL     1      -1.628  -2.736  10.999  1.00  0.00     0.163 HD
BRANCH   4   7
ATOM      7  C   UNL     1      -1.695  -1.667   7.837  1.00  0.00     0.195 A 
ATOM      8  C   UNL     1      -0.226  -0.502   3.664  1.00  0.00     0.083 A 
ATOM      9  C   UNL     1      -1.238   0.454   3.814  1.00  0.00     0.025 A 
ATOM     10  C   UNL     1       0.103  -1.363   4.713  1.00  0.00     0.034 A 
ATOM     11  C   UNL     1      -1.956   0.552   5.025  1.00  0.00     0.049 A 
ATOM     12  C   UNL     1      -0.719  -1.391   5.837  1.00  0.00     0.025 A 
ATOM     13  C   UNL     1      -1.667  -0.403   6.003  1.00  0.00     0.135 A 
ATOM     14  C   UNL     1      -0.903  -2.318   6.894  1.00  0.00     0.008 A 
ATOM     15  O   UNL     1      -2.229  -0.533   7.237  1.00  0.00    -0.451 OA
ATOM     16  C   UNL     1      -0.361  -3.701   6.852  1.00  0.00     0.049 C 
BRANCH   8  17
ATOM     17  S   UNL     1       0.771  -0.621   2.197  1.00  0.00     0.243 S 
ATOM     18  O   UNL     1       2.145  -0.557   2.665  1.00  0.00    -0.207 OA
ATOM     19  O   UNL     1       0.278   0.341   1.241  1.00  0.00    -0.207 OA
BRANCH  17  20
ATOM     20  N   UNL     1       0.493  -2.194   1.524  1.00  0.00    -0.195 NA
ATOM     21  C   UNL     1       1.227  -2.435   0.230  1.00  0.00     0.073 C 
ATOM     22  C   UNL     1       0.719  -3.717  -0.450  1.00  0.00     0.020 C 
ATOM     23  C   UNL     1       0.725  -4.941   0.448  1.00  0.00     0.003 C 
ATOM     24  C   UNL     1       0.456  -3.376   2.424  1.00  0.00     0.103 C 
ATOM     25  C   UNL     1      -0.026  -4.643   1.728  1.00  0.00     0.017 C 
BRANCH  21  26
ATOM     26  C   UNL     1       2.770  -2.334   0.287  1.00  0.00     0.017 C 
ATOM     27  C   UNL     1       3.544  -3.093   1.356  1.00  0.00     0.005 C 
ENDBRANCH  21  26
ENDBRANCH  17  20
ENDBRANCH   8  17
ENDBRANCH   4   7
ENDBRANCH   2   3
ENDBRANCH   1   2
BRANCH   1  28
ATOM     28  C   UNL     1       0.526  -4.247  12.161  1.00  0.00     0.023 C 
BRANCH  28  29
ATOM     29  C   UNL     1       0.008  -5.635  11.799  1.00  0.00     0.116 C 
BRANCH  29  30
ATOM     30  N   UNL     1       0.938  -6.446  11.026  1.00  0.00    -0.352 N 
ATOM     31  C   UNL     1       1.440  -7.704  11.274  1.00  0.00     0.251 C 
ATOM     32  H   UNL     1       1.259  -6.028  10.194  1.00  0.00     0.163 HD
ATOM     33  O   UNL     1       2.258  -8.191  10.496  1.00  0.00    -0.269 OA
BRANCH  31  34
ATOM     34  C   UNL     1       1.042  -8.450  12.490  1.00  0.00     0.039 A 
ATOM     35  C   UNL     1       2.033  -9.073  13.254  1.00  0.00     0.014 A 
ATOM     36  C   UNL     1      -0.292  -8.518  12.897  1.00  0.00     0.014 A 
ATOM     37  C   UNL     1       1.699  -9.677  14.470  1.00  0.00     0.010 A 
ATOM     38  C   UNL     1      -0.609  -9.037  14.151  1.00  0.00     0.010 A 
ATOM     39  C   UNL     1       0.381  -9.620  14.954  1.00  0.00    -0.014 A 
BRANCH  39  40
ATOM     40  C   UNL     1       0.024 -10.161  16.294  1.00  0.00     0.031 A 
ATOM     41  C   UNL     1      -0.981 -11.278  16.419  1.00  0.00     0.074 A 
ATOM     42  C   UNL     1       0.542  -9.597  17.405  1.00  0.00     0.049 A 
ATOM     43  N   UNL     1      -1.470 -11.833  17.498  1.00  0.00    -0.248 NA
ATOM     44  C   UNL     1      -1.537 -11.816  15.167  1.00  0.00     0.031 C 
ATOM     45  C   UNL     1       1.460  -8.454  17.429  1.00  0.00     0.029 A 
ATOM     46  N   UNL     1       0.359  -9.897  18.733  1.00  0.00    -0.354 N 
ATOM     47  C   UNL     1      -2.408 -12.759  17.058  1.00  0.00     0.074 A 
ATOM     48  C   UNL     1      -2.456 -12.659  15.616  1.00  0.00     0.031 C 
ATOM     49  C   UNL     1       1.774  -8.166  18.703  1.00  0.00     0.029 A 
ATOM     50  C   UNL     1       1.063  -9.082  19.588  1.00  0.00     0.049 A 
ATOM     51  H   UNL     1      -0.222 -10.629  19.043  1.00  0.00     0.167 HD
ATOM     52  C   UNL     1      -3.145 -13.633  17.785  1.00  0.00     0.037 A 
ATOM     53  C   UNL     1       1.130  -9.073  20.934  1.00  0.00     0.037 A 
ATOM     54  C   UNL     1      -3.054 -13.772  19.215  1.00  0.00     0.049 A 
ATOM     55  C   UNL     1       0.363 -10.108  21.713  1.00  0.00     0.074 A 
ATOM     56  C   UNL     1      -3.692 -14.688  20.033  1.00  0.00     0.029 A 
ATOM     57  N   UNL     1      -2.268 -12.980  20.039  1.00  0.00    -0.354 N 
ATOM     58  N   UNL     1      -0.457 -11.031  21.272  1.00  0.00    -0.248 NA
ATOM     59  C   UNL     1       0.546 -10.112  23.172  1.00  0.00     0.031 C 
ATOM     60  C   UNL     1      -3.314 -14.431  21.356  1.00  0.00     0.029 A 
ATOM     61  C   UNL     1      -2.410 -13.381  21.356  1.00  0.00     0.049 A 
ATOM     62  H   UNL     1      -1.695 -12.241  19.732  1.00  0.00     0.167 HD
ATOM     63  C   UNL     1      -0.865 -11.744  22.394  1.00  0.00     0.074 A 
ATOM     64  C   UNL     1      -0.191 -11.154  23.532  1.00  0.00     0.031 C 
ATOM     65  C   UNL     1      -1.722 -12.792  22.476  1.00  0.00     0.037 A 
BRANCH  52  66
ATOM     66  C   UNL     1      -4.103 -14.525  17.045  1.00  0.00     0.058 A 
ATOM     67  C   UNL     1      -3.651 -15.581  16.237  1.00  0.00     0.135 A 
ATOM     68  C   UNL     1      -5.490 -14.351  17.179  1.00  0.00     0.135 A 
ATOM     69  F   UNL     1      -2.336 -15.781  16.060  1.00  0.00    -0.206 F 
ATOM     70  C   UNL     1      -4.539 -16.417  15.569  1.00  0.00     0.059 A 
ATOM     71  C   UNL     1      -6.397 -15.192  16.541  1.00  0.00     0.059 A 
ATOM     72  F   UNL     1      -5.976 -13.356  17.938  1.00  0.00    -0.206 F 
ATOM     73  C   UNL     1      -5.911 -16.215  15.728  1.00  0.00     0.060 A 
BRANCH  73  74
ATOM     74  S   UNL     1      -7.051 -17.321  14.869  1.00  0.00     0.124 S 
ATOM     75  O   UNL     1      -6.946 -16.835  13.496  1.00  0.00    -0.237 OA
ATOM     76  O   UNL     1      -6.465 -18.633  15.123  1.00  0.00    -0.237 OA
ATOM     77  O   UNL     1      -8.328 -17.070  15.528  1.00  0.00    -0.744 OA
ENDBRANCH  73  74
ENDBRANCH  52  66
BRANCH  53  78
ATOM     78  C   UNL     1       1.981  -8.074  21.635  1.00  0.00     0.058 A 
ATOM     79  C   UNL     1       3.174  -8.457  22.265  1.00  0.00     0.135 A 
ATOM     80  C   UNL     1       1.616  -6.720  21.693  1.00  0.00     0.135 A 
ATOM     81  F   UNL     1       3.563  -9.741  22.240  1.00  0.00    -0.206 F 
ATOM     82  C   UNL     1       3.964  -7.541  22.952  1.00  0.00     0.059 A 
ATOM     83  C   UNL     1       2.402  -5.780  22.353  1.00  0.00     0.059 A 
ATOM     84  F   UNL     1       0.495  -6.299  21.088  1.00  0.00    -0.206 F 
ATOM     85  C   UNL     1       3.567  -6.203  22.992  1.00  0.00     0.060 A 
BRANCH  85  86
ATOM     86  S   UNL     1       4.615  -5.012  23.856  1.00  0.00     0.124 S 
ATOM     87  O   UNL     1       4.301  -5.302  25.250  1.00  0.00    -0.237 OA
ATOM     88  O   UNL     1       5.951  -5.394  23.409  1.00  0.00    -0.237 OA
ATOM     89  O   UNL     1       4.140  -3.725  23.355  1.00  0.00    -0.744 OA
ENDBRANCH  85  86
ENDBRANCH  53  78
BRANCH  65  90
ATOM     90  C   UNL     1      -1.943 -13.394  23.835  1.00  0.00     0.058 A 
ATOM     91  C   UNL     1      -2.696 -12.738  24.820  1.00  0.00     0.135 A 
ATOM     92  C   UNL     1      -1.411 -14.655  24.146  1.00  0.00     0.135 A 
ATOM     93  F   UNL     1      -3.224 -11.528  24.574  1.00  0.00    -0.206 F 
ATOM     94  C   UNL     1      -2.883 -13.294  26.081  1.00  0.00     0.059 A 
ATOM     95  C   UNL     1      -1.607 -15.243  25.391  1.00  0.00     0.059 A 
ATOM     96  F   UNL     1      -0.695 -15.331  23.233  1.00  0.00    -0.206 F 
ATOM     97  C   UNL     1      -2.328 -14.545  26.359  1.00  0.00     0.060 A 
BRANCH  97  98
ATOM     98  S   UNL     1      -2.576 -15.263  27.997  1.00  0.00     0.124 S 
ATOM     99  O   UNL     1      -1.606 -14.517  28.792  1.00  0.00    -0.237 OA
ATOM    100  O   UNL     1      -3.979 -14.963  28.265  1.00  0.00    -0.237 OA
ATOM    101  O   UNL     1      -2.272 -16.676  27.797  1.00  0.00    -0.744 OA
ENDBRANCH  97  98
ENDBRANCH  65  90
ENDBRANCH  39  40
ENDBRANCH  31  34
ENDBRANCH  29  30
ENDBRANCH  28  29
ENDBRANCH   1  28
TORSDOF 17
