REMARK SMILES Cc1c(NC(=O)c2ccc(Br)cc2N)cccc1C(=O)NCCCCNC(=O)c1ccc(-c2c3nc(c(-c4c(F)cc(S(=O)(=O)[O-])cc4F)c4ccc([nH]4)c(-c4c(F)cc(S(=O)(=O)[O-])cc4F)c4nc(c(-c5c(F)cc(S(=O)(=O)[O-])cc5F)c5ccc2[nH]5)C=C4)C=C3)cc1
REMARK SMILES IDX 23 1 22 2 21 3 19 4 20 5 18 7 1 8 2 9 3 10 15 11 17 12 16 13
REMARK SMILES IDX 4 14 5 15 6 17 7 18 8 19 13 20 9 21 12 22 10 23 11 24 14 25
REMARK SMILES IDX 24 28 25 29 26 30 27 31 28 33 29 34 30 35 94 36 31 37 93 38
REMARK SMILES IDX 32 39 33 40 34 41 87 42 35 43 92 44 86 45 88 46 36 47 91 48
REMARK SMILES IDX 85 49 84 50 37 52 71 53 50 54 70 55 51 56 54 57 69 58 89 59
REMARK SMILES IDX 52 60 53 61 68 63 90 64 55 65 38 66 39 67 48 68 40 69 41 70
REMARK SMILES IDX 47 71 49 72 42 73 43 74 44 75 45 76 46 77 72 78 73 79 82 80
REMARK SMILES IDX 74 81 75 82 81 83 83 84 76 85 77 86 78 87 79 88 80 89 56 90
REMARK SMILES IDX 57 91 66 92 58 93 59 94 65 95 67 96 60 97 61 98 62 99 63 100
REMARK SMILES IDX 64 101
REMARK H PARENT 21 6 4 16 14 26 14 27 26 32 88 51 54 62
REMARK Flexibility Score: inf
ROOT
ATOM      1  C   UNL     1       4.270   1.303  -1.146  1.00  0.00     0.023 C 
ENDROOT
BRANCH   1   2
ATOM      2  C   UNL     1       3.488   1.825   0.076  1.00  0.00     0.116 C 
BRANCH   2   3
ATOM      3  N   UNL     1       2.258   2.475  -0.340  1.00  0.00    -0.352 N 
ATOM      4  C   UNL     1       0.934   2.135  -0.402  1.00  0.00     0.251 C 
ATOM      5  O   UNL     1       0.195   3.016  -0.861  1.00  0.00    -0.269 OA
ATOM      6  H   UNL     1       2.417   3.393  -0.658  1.00  0.00     0.163 HD
BRANCH   4   7
ATOM      7  C   UNL     1       0.278   0.857   0.051  1.00  0.00     0.044 A 
ATOM      8  C   UNL     1       2.046  -0.836  -0.697  1.00  0.00     0.047 C 
ATOM      9  C   UNL     1       0.743  -0.474  -0.048  1.00  0.00    -0.015 A 
ATOM     10  C   UNL     1      -0.123  -1.549   0.296  1.00  0.00     0.045 A 
ATOM     11  C   UNL     1      -1.450  -1.323   0.658  1.00  0.00     0.026 A 
ATOM     12  C   UNL     1      -1.066   1.046   0.459  1.00  0.00     0.014 A 
ATOM     13  C   UNL     1      -1.922  -0.021   0.740  1.00  0.00     0.003 A 
BRANCH  10  14
ATOM     14  N   UNL     1       0.396  -2.855   0.260  1.00  0.00    -0.322 N 
ATOM     15  C   UNL     1      -0.133  -4.030  -0.214  1.00  0.00     0.257 C 
ATOM     16  H   UNL     1       1.298  -2.942   0.642  1.00  0.00     0.170 HD
ATOM     17  O   UNL     1       0.418  -5.092   0.081  1.00  0.00    -0.269 OA
BRANCH  15  18
ATOM     18  C   UNL     1      -1.301  -4.074  -1.134  1.00  0.00     0.063 A 
ATOM     19  C   UNL     1      -2.192  -5.139  -0.907  1.00  0.00     0.017 A 
ATOM     20  C   UNL     1      -1.502  -3.212  -2.235  1.00  0.00     0.045 A 
ATOM     21  C   UNL     1      -3.295  -5.338  -1.735  1.00  0.00     0.016 A 
ATOM     22  C   UNL     1      -2.629  -3.419  -3.046  1.00  0.00     0.042 A 
ATOM     23  C   UNL     1      -3.515  -4.466  -2.795  1.00  0.00     0.020 A 
ATOM     24  Br  UNL     1      -4.996  -4.735  -3.938  1.00  0.00    -0.051 Br
BRANCH  20  25
ATOM     25  N   UNL     1      -0.563  -2.289  -2.687  1.00  0.00    -0.398 N 
ATOM     26  H   UNL     1       0.245  -2.108  -2.155  1.00  0.00     0.156 HD
ATOM     27  H   UNL     1      -0.708  -1.818  -3.539  1.00  0.00     0.156 HD
ENDBRANCH  20  25
ENDBRANCH  15  18
ENDBRANCH  10  14
ENDBRANCH   4   7
ENDBRANCH   2   3
ENDBRANCH   1   2
BRANCH   1  28
ATOM     28  C   UNL     1       5.074   2.355  -1.905  1.00  0.00     0.023 C 
BRANCH  28  29
ATOM     29  C   UNL     1       6.371   2.692  -1.196  1.00  0.00     0.116 C 
BRANCH  29  30
ATOM     30  N   UNL     1       7.574   2.252  -1.891  1.00  0.00    -0.352 N 
ATOM     31  C   UNL     1       8.887   2.441  -1.490  1.00  0.00     0.251 C 
ATOM     32  H   UNL     1       7.439   1.768  -2.737  1.00  0.00     0.163 HD
ATOM     33  O   UNL     1       9.832   2.217  -2.238  1.00  0.00    -0.269 OA
BRANCH  31  34
ATOM     34  C   UNL     1       9.109   2.833  -0.082  1.00  0.00     0.039 A 
ATOM     35  C   UNL     1       9.702   1.889   0.764  1.00  0.00     0.014 A 
ATOM     36  C   UNL     1       8.428   3.930   0.435  1.00  0.00     0.014 A 
ATOM     37  C   UNL     1       9.426   1.928   2.128  1.00  0.00     0.010 A 
ATOM     38  C   UNL     1       8.053   3.893   1.762  1.00  0.00     0.010 A 
ATOM     39  C   UNL     1       8.512   2.866   2.603  1.00  0.00    -0.014 A 
BRANCH  39  40
ATOM     40  C   UNL     1       7.901   2.817   3.929  1.00  0.00     0.031 A 
ATOM     41  C   UNL     1       8.168   3.904   4.903  1.00  0.00     0.074 A 
ATOM     42  C   UNL     1       7.008   1.851   4.236  1.00  0.00     0.049 A 
ATOM     43  N   UNL     1       7.891   3.857   6.162  1.00  0.00    -0.248 NA
ATOM     44  C   UNL     1       8.849   5.135   4.522  1.00  0.00     0.031 C 
ATOM     45  C   UNL     1       6.032   1.870   5.322  1.00  0.00     0.029 A 
ATOM     46  N   UNL     1       6.920   0.559   3.733  1.00  0.00    -0.354 N 
ATOM     47  C   UNL     1       8.070   5.120   6.688  1.00  0.00     0.074 A 
ATOM     48  C   UNL     1       8.754   5.846   5.647  1.00  0.00     0.031 C 
ATOM     49  C   UNL     1       5.609   0.618   5.556  1.00  0.00     0.029 A 
ATOM     50  C   UNL     1       6.413  -0.274   4.741  1.00  0.00     0.049 A 
ATOM     51  H   UNL     1       7.170   0.276   2.823  1.00  0.00     0.167 HD
ATOM     52  C   UNL     1       7.491   5.425   7.888  1.00  0.00     0.037 A 
ATOM     53  C   UNL     1       7.155  -1.307   5.245  1.00  0.00     0.037 A 
ATOM     54  C   UNL     1       6.981   4.209   8.534  1.00  0.00     0.049 A 
ATOM     55  C   UNL     1       7.532  -1.150   6.704  1.00  0.00     0.074 A 
ATOM     56  C   UNL     1       5.715   3.657   8.653  1.00  0.00     0.029 A 
ATOM     57  N   UNL     1       7.876   3.215   8.924  1.00  0.00    -0.354 N 
ATOM     58  N   UNL     1       7.391  -0.043   7.381  1.00  0.00    -0.248 NA
ATOM     59  C   UNL     1       8.118  -2.218   7.511  1.00  0.00     0.031 C 
ATOM     60  C   UNL     1       5.861   2.296   9.030  1.00  0.00     0.029 A 
ATOM     61  C   UNL     1       7.212   2.027   9.168  1.00  0.00     0.049 A 
ATOM     62  H   UNL     1       8.849   3.341   9.013  1.00  0.00     0.167 HD
ATOM     63  C   UNL     1       7.893  -0.205   8.645  1.00  0.00     0.074 A 
ATOM     64  C   UNL     1       8.302  -1.597   8.690  1.00  0.00     0.031 C 
ATOM     65  C   UNL     1       7.948   0.825   9.542  1.00  0.00     0.037 A 
BRANCH  52  66
ATOM     66  C   UNL     1       7.112   6.838   8.332  1.00  0.00     0.058 A 
ATOM     67  C   UNL     1       6.086   7.040   9.286  1.00  0.00     0.135 A 
ATOM     68  C   UNL     1       7.626   8.037   7.795  1.00  0.00     0.135 A 
ATOM     69  F   UNL     1       5.561   6.019   9.978  1.00  0.00    -0.206 F 
ATOM     70  C   UNL     1       5.538   8.297   9.576  1.00  0.00     0.059 A 
ATOM     71  C   UNL     1       7.072   9.298   8.036  1.00  0.00     0.059 A 
ATOM     72  F   UNL     1       8.732   8.066   7.050  1.00  0.00    -0.206 F 
ATOM     73  C   UNL     1       6.012   9.420   8.914  1.00  0.00     0.060 A 
BRANCH  73  74
ATOM     74  S   UNL     1       5.251  11.023   9.222  1.00  0.00     0.124 S 
ATOM     75  O   UNL     1       3.860  10.777   8.854  1.00  0.00    -0.237 OA
ATOM     76  O   UNL     1       5.510  11.217  10.645  1.00  0.00    -0.237 OA
ATOM     77  O   UNL     1       5.976  11.922   8.329  1.00  0.00    -0.744 OA
ENDBRANCH  73  74
ENDBRANCH  52  66
BRANCH  53  78
ATOM     78  C   UNL     1       7.964  -2.001   4.207  1.00  0.00     0.058 A 
ATOM     79  C   UNL     1       7.259  -2.746   3.243  1.00  0.00     0.135 A 
ATOM     80  C   UNL     1       9.255  -1.563   3.877  1.00  0.00     0.135 A 
ATOM     81  F   UNL     1       6.028  -3.207   3.520  1.00  0.00    -0.206 F 
ATOM     82  C   UNL     1       7.726  -2.880   1.942  1.00  0.00     0.059 A 
ATOM     83  C   UNL     1       9.748  -1.694   2.577  1.00  0.00     0.059 A 
ATOM     84  F   UNL     1       9.975  -0.854   4.759  1.00  0.00    -0.206 F 
ATOM     85  C   UNL     1       8.936  -2.279   1.603  1.00  0.00     0.060 A 
BRANCH  85  86
ATOM     86  S   UNL     1       9.300  -2.072  -0.157  1.00  0.00     0.124 S 
ATOM     87  O   UNL     1       9.258  -3.447  -0.641  1.00  0.00    -0.237 OA
ATOM     88  O   UNL     1       8.190  -1.217  -0.575  1.00  0.00    -0.237 OA
ATOM     89  O   UNL     1      10.615  -1.442  -0.153  1.00  0.00    -0.744 OA
ENDBRANCH  85  86
ENDBRANCH  53  78
BRANCH  65  90
ATOM     90  C   UNL     1       8.635   0.780  10.886  1.00  0.00     0.058 A 
ATOM     91  C   UNL     1       9.804   0.046  11.147  1.00  0.00     0.135 A 
ATOM     92  C   UNL     1       8.188   1.615  11.938  1.00  0.00     0.135 A 
ATOM     93  F   UNL     1      10.383  -0.701  10.196  1.00  0.00    -0.206 F 
ATOM     94  C   UNL     1      10.451   0.086  12.385  1.00  0.00     0.059 A 
ATOM     95  C   UNL     1       8.848   1.710  13.161  1.00  0.00     0.059 A 
ATOM     96  F   UNL     1       7.092   2.377  11.805  1.00  0.00    -0.206 F 
ATOM     97  C   UNL     1       9.967   0.922  13.386  1.00  0.00     0.060 A 
BRANCH  97  98
ATOM     98  S   UNL     1      10.826   1.034  14.967  1.00  0.00     0.124 S 
ATOM     99  O   UNL     1      10.098   0.053  15.765  1.00  0.00    -0.237 OA
ATOM    100  O   UNL     1      12.198   0.670  14.621  1.00  0.00    -0.237 OA
ATOM    101  O   UNL     1      10.635   2.430  15.348  1.00  0.00    -0.744 OA
ENDBRANCH  97  98
ENDBRANCH  65  90
ENDBRANCH  39  40
ENDBRANCH  31  34
ENDBRANCH  29  30
ENDBRANCH  28  29
ENDBRANCH   1  28
TORSDOF 17
