REMARK SMILES COc1ccc([C@@H]([NH3+])CC(=O)NCCCCNC(=O)c2ccc(-c3c4nc(c(-c5c(F)cc(S(=O)(=O)[O-])cc5F)c5ccc([nH]5)c(-c5c(F)cc(S(=O)(=O)[O-])cc5F)c5nc(c(-c6c(F)cc(S(=O)(=O)[O-])cc6F)c6ccc3[nH]6)C=C5)C=C4)cc2)cc1
REMARK SMILES IDX 14 1 13 2 12 3 10 4 11 5 9 7 7 8 6 9 3 10 4 11 87 12 5 13
REMARK SMILES IDX 86 14 2 15 1 16 8 17 15 21 16 22 17 23 18 24 19 26 20 27
REMARK SMILES IDX 21 28 85 29 22 30 84 31 23 32 24 33 25 34 78 35 26 36 83 37
REMARK SMILES IDX 77 38 79 39 27 40 82 41 76 42 75 43 28 45 62 46 41 47 61 48
REMARK SMILES IDX 42 49 45 50 60 51 80 52 43 53 44 54 59 56 81 57 46 58 29 59
REMARK SMILES IDX 30 60 39 61 31 62 32 63 38 64 40 65 33 66 34 67 35 68 36 69
REMARK SMILES IDX 37 70 63 71 64 72 73 73 65 74 66 75 72 76 74 77 67 78 68 79
REMARK SMILES IDX 69 80 70 81 71 82 47 83 48 84 57 85 49 86 50 87 56 88 58 89
REMARK SMILES IDX 51 90 52 91 53 92 54 93 55 94
REMARK H PARENT 12 6 8 18 8 19 8 20 17 25 79 44 45 55
REMARK Flexibility Score: inf
ROOT
ATOM      1  C   UNL     1       1.407   3.389  -0.739  1.00  0.00     0.023 C 
ENDROOT
BRANCH   1   2
ATOM      2  C   UNL     1       0.580   4.637  -1.029  1.00  0.00     0.116 C 
BRANCH   2   3
ATOM      3  N   UNL     1       1.458   5.756  -1.303  1.00  0.00    -0.356 N 
ATOM      4  C   UNL     1       1.989   6.152  -2.493  1.00  0.00     0.226 C 
ATOM      5  O   UNL     1       2.908   6.974  -2.480  1.00  0.00    -0.275 OA
ATOM      6  H   UNL     1       1.704   6.305  -0.524  1.00  0.00     0.163 HD
BRANCH   4   7
ATOM      7  C   UNL     1       1.440   5.631  -3.806  1.00  0.00     0.170 C 
BRANCH   7   8
ATOM      8  C   UNL     1       2.377   4.601  -4.464  1.00  0.00     0.221 C 
BRANCH   8   9
ATOM      9  C   UNL     1       2.113   3.164  -4.038  1.00  0.00     0.010 A 
ATOM     10  C   UNL     1       1.620   0.545  -3.123  1.00  0.00     0.118 A 
ATOM     11  C   UNL     1       0.608   1.268  -3.752  1.00  0.00     0.047 A 
ATOM     12  C   UNL     1       2.901   1.087  -3.028  1.00  0.00     0.047 A 
ATOM     13  C   UNL     1       0.851   2.568  -4.204  1.00  0.00     0.014 A 
ATOM     14  C   UNL     1       3.147   2.387  -3.488  1.00  0.00     0.014 A 
BRANCH  10  15
ATOM     15  O   UNL     1       1.276  -0.688  -2.643  1.00  0.00    -0.497 OA
ATOM     16  C   UNL     1       1.800  -0.967  -1.344  1.00  0.00     0.278 C 
ENDBRANCH  10  15
ENDBRANCH   8   9
BRANCH   8  17
ATOM     17  N   UNL     1       2.248   4.683  -5.930  1.00  0.00    -0.351 N 
ATOM     18  H   UNL     1       1.296   4.438  -6.201  1.00  0.00     0.345 HD
ATOM     19  H   UNL     1       2.903   4.034  -6.365  1.00  0.00     0.345 HD
ATOM     20  H   UNL     1       2.456   5.633  -6.237  1.00  0.00     0.345 HD
ENDBRANCH   8  17
ENDBRANCH   7   8
ENDBRANCH   4   7
ENDBRANCH   2   3
ENDBRANCH   1   2
BRANCH   1  21
ATOM     21  C   UNL     1       1.506   3.001   0.726  1.00  0.00     0.023 C 
BRANCH  21  22
ATOM     22  C   UNL     1       0.190   2.543   1.336  1.00  0.00     0.116 C 
BRANCH  22  23
ATOM     23  N   UNL     1      -0.418   1.407   0.652  1.00  0.00    -0.352 N 
ATOM     24  C   UNL     1      -0.909   0.232   1.179  1.00  0.00     0.251 C 
ATOM     25  H   UNL     1      -0.486   1.491  -0.327  1.00  0.00     0.163 HD
ATOM     26  O   UNL     1      -1.304  -0.664   0.438  1.00  0.00    -0.269 OA
BRANCH  24  27
ATOM     27  C   UNL     1      -0.900   0.043   2.641  1.00  0.00     0.039 A 
ATOM     28  C   UNL     1      -0.384  -1.141   3.172  1.00  0.00     0.014 A 
ATOM     29  C   UNL     1      -1.319   1.073   3.483  1.00  0.00     0.014 A 
ATOM     30  C   UNL     1      -0.193  -1.250   4.551  1.00  0.00     0.010 A 
ATOM     31  C   UNL     1      -1.024   1.008   4.836  1.00  0.00     0.010 A 
ATOM     32  C   UNL     1      -0.461  -0.154   5.386  1.00  0.00    -0.014 A 
BRANCH  32  33
ATOM     33  C   UNL     1      -0.195  -0.184   6.846  1.00  0.00     0.031 A 
ATOM     34  C   UNL     1      -1.333   0.067   7.799  1.00  0.00     0.074 A 
ATOM     35  C   UNL     1       1.065  -0.311   7.308  1.00  0.00     0.049 A 
ATOM     36  N   UNL     1      -1.301   0.310   9.082  1.00  0.00    -0.248 NA
ATOM     37  C   UNL     1      -2.684   0.107   7.214  1.00  0.00     0.031 C 
ATOM     38  C   UNL     1       2.261  -0.500   6.483  1.00  0.00     0.029 A 
ATOM     39  N   UNL     1       1.552  -0.277   8.590  1.00  0.00    -0.354 N 
ATOM     40  C   UNL     1      -2.614   0.589   9.444  1.00  0.00     0.074 A 
ATOM     41  C   UNL     1      -3.409   0.531   8.237  1.00  0.00     0.031 C 
ATOM     42  C   UNL     1       3.338  -0.589   7.281  1.00  0.00     0.029 A 
ATOM     43  C   UNL     1       2.917  -0.421   8.668  1.00  0.00     0.049 A 
ATOM     44  H   UNL     1       0.977  -0.161   9.381  1.00  0.00     0.167 HD
ATOM     45  C   UNL     1      -3.116   0.847  10.674  1.00  0.00     0.037 A 
ATOM     46  C   UNL     1       3.735  -0.407   9.738  1.00  0.00     0.037 A 
ATOM     47  C   UNL     1      -2.332   0.819  11.878  1.00  0.00     0.049 A 
ATOM     48  C   UNL     1       3.143  -0.205  11.106  1.00  0.00     0.074 A 
ATOM     49  C   UNL     1      -2.752   0.985  13.185  1.00  0.00     0.029 A 
ATOM     50  N   UNL     1      -0.965   0.583  11.921  1.00  0.00    -0.354 N 
ATOM     51  N   UNL     1       1.894   0.028  11.435  1.00  0.00    -0.248 NA
ATOM     52  C   UNL     1       4.066  -0.268  12.247  1.00  0.00     0.031 C 
ATOM     53  C   UNL     1      -1.635   0.861  14.020  1.00  0.00     0.029 A 
ATOM     54  C   UNL     1      -0.526   0.592  13.233  1.00  0.00     0.049 A 
ATOM     55  H   UNL     1      -0.393   0.432  11.134  1.00  0.00     0.167 HD
ATOM     56  C   UNL     1       1.878   0.117  12.822  1.00  0.00     0.074 A 
ATOM     57  C   UNL     1       3.239  -0.097  13.270  1.00  0.00     0.031 C 
ATOM     58  C   UNL     1       0.832   0.356  13.651  1.00  0.00     0.037 A 
BRANCH  45  59
ATOM     59  C   UNL     1      -4.583   1.159  10.770  1.00  0.00     0.058 A 
ATOM     60  C   UNL     1      -5.561   0.175  10.553  1.00  0.00     0.135 A 
ATOM     61  C   UNL     1      -5.018   2.458  11.077  1.00  0.00     0.135 A 
ATOM     62  F   UNL     1      -5.200  -1.078  10.235  1.00  0.00    -0.206 F 
ATOM     63  C   UNL     1      -6.918   0.476  10.595  1.00  0.00     0.059 A 
ATOM     64  C   UNL     1      -6.371   2.776  11.154  1.00  0.00     0.059 A 
ATOM     65  F   UNL     1      -4.125   3.437  11.293  1.00  0.00    -0.206 F 
ATOM     66  C   UNL     1      -7.313   1.782  10.891  1.00  0.00     0.060 A 
BRANCH  66  67
ATOM     67  S   UNL     1      -9.077   2.164  10.930  1.00  0.00     0.124 S 
ATOM     68  O   UNL     1      -9.384   2.255   9.506  1.00  0.00    -0.237 OA
ATOM     69  O   UNL     1      -9.635   1.008  11.625  1.00  0.00    -0.237 OA
ATOM     70  O   UNL     1      -9.133   3.422  11.668  1.00  0.00    -0.744 OA
ENDBRANCH  66  67
ENDBRANCH  45  59
BRANCH  46  71
ATOM     71  C   UNL     1       5.194  -0.629   9.564  1.00  0.00     0.058 A 
ATOM     72  C   UNL     1       5.781  -1.846   9.940  1.00  0.00     0.135 A 
ATOM     73  C   UNL     1       6.026   0.354   9.007  1.00  0.00     0.135 A 
ATOM     74  F   UNL     1       5.026  -2.815  10.481  1.00  0.00    -0.206 F 
ATOM     75  C   UNL     1       7.144  -2.078   9.785  1.00  0.00     0.059 A 
ATOM     76  C   UNL     1       7.389   0.138   8.823  1.00  0.00     0.059 A 
ATOM     77  F   UNL     1       5.509   1.528   8.614  1.00  0.00    -0.206 F 
ATOM     78  C   UNL     1       7.940  -1.079   9.224  1.00  0.00     0.060 A 
BRANCH  78  79
ATOM     79  S   UNL     1       9.699  -1.408   8.977  1.00  0.00     0.124 S 
ATOM     80  O   UNL     1      10.217  -1.264  10.332  1.00  0.00    -0.237 OA
ATOM     81  O   UNL     1       9.687  -2.765   8.438  1.00  0.00    -0.237 OA
ATOM     82  O   UNL     1      10.102  -0.372   8.031  1.00  0.00    -0.744 OA
ENDBRANCH  78  79
ENDBRANCH  46  71
BRANCH  58  83
ATOM     83  C   UNL     1       1.111   0.359  15.126  1.00  0.00     0.058 A 
ATOM     84  C   UNL     1       1.737   1.447  15.752  1.00  0.00     0.135 A 
ATOM     85  C   UNL     1       0.692  -0.714  15.927  1.00  0.00     0.135 A 
ATOM     86  F   UNL     1       2.160   2.493  15.025  1.00  0.00    -0.206 F 
ATOM     87  C   UNL     1       1.952   1.464  17.125  1.00  0.00     0.059 A 
ATOM     88  C   UNL     1       0.878  -0.709  17.305  1.00  0.00     0.059 A 
ATOM     89  F   UNL     1       0.080  -1.773  15.374  1.00  0.00    -0.206 F 
ATOM     90  C   UNL     1       1.519   0.382  17.893  1.00  0.00     0.060 A 
BRANCH  90  91
ATOM     91  S   UNL     1       1.765   0.432  19.681  1.00  0.00     0.124 S 
ATOM     92  O   UNL     1       3.182   0.099  19.791  1.00  0.00    -0.237 OA
ATOM     93  O   UNL     1       1.410   1.809  20.010  1.00  0.00    -0.237 OA
ATOM     94  O   UNL     1       0.840  -0.582  20.178  1.00  0.00    -0.744 OA
ENDBRANCH  90  91
ENDBRANCH  58  83
ENDBRANCH  32  33
ENDBRANCH  24  27
ENDBRANCH  22  23
ENDBRANCH  21  22
ENDBRANCH   1  21
TORSDOF 18
