REMARK SMILES Cc1ccc(C(=O)NCCCCNC(=O)c2ccc(-c3c4nc(c(-c5c(F)cc(S(=O)(=O)[O-])cc5F)c5ccc([nH]5)c(-c5c(F)cc(S(=O)(=O)[O-])cc5F)c5nc(c(-c6c(F)cc(S(=O)(=O)[O-])cc6F)c6ccc3[nH]6)C=C5)C=C4)cc2)cc1-c1ccc(/C=C(\C#N)C(=O)N2CC[NH+](Cc3ccccc3)CC2)o1
REMARK SMILES IDX 9 1 8 2 6 3 7 4 5 6 1 7 2 8 3 9 83 10 4 11 82 12 84 13 85 14
REMARK SMILES IDX 107 15 86 16 87 17 88 18 89 19 90 20 91 21 92 22 93 23 94 24
REMARK SMILES IDX 95 25 106 26 96 27 105 28 97 29 98 31 99 32 100 33 104 34
REMARK SMILES IDX 101 35 103 36 102 37 10 38 11 39 12 40 13 41 14 42 15 44
REMARK SMILES IDX 16 45 17 46 81 47 18 48 80 49 19 50 20 51 21 52 74 53 22 54
REMARK SMILES IDX 79 55 73 56 75 57 23 58 78 59 72 60 71 61 24 63 58 64 37 65
REMARK SMILES IDX 57 66 38 67 41 68 56 69 76 70 39 71 40 72 55 74 77 75 42 76
REMARK SMILES IDX 25 77 26 78 35 79 27 80 28 81 34 82 36 83 29 84 30 85 31 86
REMARK SMILES IDX 32 87 33 88 59 89 60 90 69 91 61 92 62 93 68 94 70 95 63 96
REMARK SMILES IDX 64 97 65 98 66 99 67 100 43 101 44 102 53 103 45 104 46 105
REMARK SMILES IDX 52 106 54 107 47 108 48 109 49 110 50 111 51 112
REMARK H PARENT 8 5 97 30 13 43 75 62 41 73
REMARK Flexibility Score: inf
ROOT
ATOM      1  C   UNL     1      -3.735   2.650   0.105  1.00  0.00     0.116 C 
ENDROOT
BRANCH   1   2
ATOM      2  N   UNL     1      -3.965   1.224  -0.093  1.00  0.00    -0.352 N 
ATOM      3  C   UNL     1      -3.182   0.097  -0.033  1.00  0.00     0.251 C 
ATOM      4  O   UNL     1      -3.763  -0.983  -0.179  1.00  0.00    -0.269 OA
ATOM      5  H   UNL     1      -4.900   1.022  -0.325  1.00  0.00     0.163 HD
BRANCH   3   6
ATOM      6  C   UNL     1      -1.701   0.075   0.162  1.00  0.00     0.040 A 
ATOM      7  C   UNL     1       2.634  -0.310   0.270  1.00  0.00     0.045 C 
ATOM      8  C   UNL     1       1.142  -0.133   0.315  1.00  0.00    -0.040 A 
ATOM      9  C   UNL     1       0.331  -1.278   0.330  1.00  0.00     0.005 A 
ATOM     10  C   UNL     1       0.515   1.119   0.241  1.00  0.00     0.021 A 
ATOM     11  C   UNL     1      -1.066  -1.173   0.257  1.00  0.00     0.014 A 
ATOM     12  C   UNL     1      -0.888   1.200   0.160  1.00  0.00     0.026 A 
BRANCH  10  13
ATOM     13  C   UNL     1       1.200   2.376   0.005  1.00  0.00     0.135 A 
ATOM     14  C   UNL     1       1.579   2.949  -1.179  1.00  0.00     0.051 A 
ATOM     15  O   UNL     1       1.241   3.292   1.017  1.00  0.00    -0.457 OA
ATOM     16  C   UNL     1       1.718   4.319  -0.895  1.00  0.00     0.051 A 
ATOM     17  C   UNL     1       1.634   4.518   0.487  1.00  0.00     0.129 A 
BRANCH  17  18
ATOM     18  C   UNL     1       1.886   5.690   1.301  1.00  0.00     0.072 C 
ATOM     19  C   UNL     1       2.748   6.667   0.930  1.00  0.00     0.121 C 
BRANCH  19  20
ATOM     20  C   UNL     1       3.510   6.473  -0.371  1.00  0.00     0.105 C 
ATOM     21  N   UNL     1       4.141   6.311  -1.451  1.00  0.00    -0.192 NA
ENDBRANCH  19  20
BRANCH  19  22
ATOM     22  C   UNL     1       3.299   7.683   1.864  1.00  0.00     0.265 C 
ATOM     23  O   UNL     1       3.149   7.560   3.078  1.00  0.00    -0.268 OA
ATOM     24  N   UNL     1       4.186   8.604   1.304  1.00  0.00    -0.327 N 
ATOM     25  C   UNL     1       5.254   9.093   2.175  1.00  0.00     0.181 C 
ATOM     26  C   UNL     1       3.847   9.409   0.109  1.00  0.00     0.181 C 
ATOM     27  C   UNL     1       6.356   9.918   1.483  1.00  0.00     0.284 C 
ATOM     28  C   UNL     1       5.077  10.015  -0.581  1.00  0.00     0.284 C 
ATOM     29  N   UNL     1       5.975  10.722   0.326  1.00  0.00    -0.328 N 
ATOM     30  H   UNL     1       6.844  10.818  -0.199  1.00  0.00     0.348 HD
BRANCH  29  31
ATOM     31  C   UNL     1       5.760  12.156   0.520  1.00  0.00     0.299 C 
BRANCH  31  32
ATOM     32  C   UNL     1       4.394  12.697   0.894  1.00  0.00     0.006 A 
ATOM     33  C   UNL     1       3.928  13.865   0.267  1.00  0.00     0.009 A 
ATOM     34  C   UNL     1       3.588  12.150   1.897  1.00  0.00     0.009 A 
ATOM     35  C   UNL     1       2.675  14.406   0.578  1.00  0.00     0.001 A 
ATOM     36  C   UNL     1       2.313  12.649   2.172  1.00  0.00     0.001 A 
ATOM     37  C   UNL     1       1.855  13.779   1.511  1.00  0.00     0.000 A 
ENDBRANCH  31  32
ENDBRANCH  29  31
ENDBRANCH  19  22
ENDBRANCH  17  18
ENDBRANCH  10  13
ENDBRANCH   3   6
ENDBRANCH   1   2
BRANCH   1  38
ATOM     38  C   UNL     1      -3.453   3.404  -1.208  1.00  0.00     0.023 C 
BRANCH  38  39
ATOM     39  C   UNL     1      -4.659   3.569  -2.151  1.00  0.00     0.023 C 
BRANCH  39  40
ATOM     40  C   UNL     1      -5.796   4.405  -1.580  1.00  0.00     0.116 C 
BRANCH  40  41
ATOM     41  N   UNL     1      -5.622   5.849  -1.625  1.00  0.00    -0.352 N 
ATOM     42  C   UNL     1      -6.725   6.678  -1.364  1.00  0.00     0.251 C 
ATOM     43  H   UNL     1      -4.743   6.239  -1.835  1.00  0.00     0.163 HD
ATOM     44  O   UNL     1      -7.361   7.263  -2.193  1.00  0.00    -0.269 OA
BRANCH  42  45
ATOM     45  C   UNL     1      -7.108   6.688   0.075  1.00  0.00     0.039 A 
ATOM     46  C   UNL     1      -6.739   7.740   0.912  1.00  0.00     0.014 A 
ATOM     47  C   UNL     1      -7.647   5.513   0.595  1.00  0.00     0.014 A 
ATOM     48  C   UNL     1      -6.771   7.551   2.298  1.00  0.00     0.010 A 
ATOM     49  C   UNL     1      -7.583   5.293   1.954  1.00  0.00     0.010 A 
ATOM     50  C   UNL     1      -7.117   6.301   2.810  1.00  0.00    -0.014 A 
BRANCH  50  51
ATOM     51  C   UNL     1      -6.994   5.891   4.207  1.00  0.00     0.031 A 
ATOM     52  C   UNL     1      -8.213   5.610   5.006  1.00  0.00     0.074 A 
ATOM     53  C   UNL     1      -5.784   5.502   4.668  1.00  0.00     0.049 A 
ATOM     54  N   UNL     1      -8.207   5.290   6.256  1.00  0.00    -0.248 NA
ATOM     55  C   UNL     1      -9.568   5.726   4.459  1.00  0.00     0.031 C 
ATOM     56  C   UNL     1      -5.514   4.567   5.758  1.00  0.00     0.029 A 
ATOM     57  N   UNL     1      -4.537   6.061   4.375  1.00  0.00    -0.354 N 
ATOM     58  C   UNL     1      -9.464   4.827   6.564  1.00  0.00     0.074 A 
ATOM     59  C   UNL     1     -10.300   5.259   5.476  1.00  0.00     0.031 C 
ATOM     60  C   UNL     1      -4.268   4.770   6.212  1.00  0.00     0.029 A 
ATOM     61  C   UNL     1      -3.768   5.963   5.556  1.00  0.00     0.049 A 
ATOM     62  H   UNL     1      -4.251   6.447   3.516  1.00  0.00     0.167 HD
ATOM     63  C   UNL     1      -9.615   3.983   7.622  1.00  0.00     0.037 A 
ATOM     64  C   UNL     1      -3.350   7.082   6.223  1.00  0.00     0.037 A 
ATOM     65  C   UNL     1      -8.447   4.027   8.501  1.00  0.00     0.049 A 
ATOM     66  C   UNL     1      -3.868   7.203   7.638  1.00  0.00     0.074 A 
ATOM     67  C   UNL     1      -7.428   3.139   8.788  1.00  0.00     0.029 A 
ATOM     68  N   UNL     1      -8.081   5.245   9.069  1.00  0.00    -0.354 N 
ATOM     69  N   UNL     1      -4.850   6.492   8.121  1.00  0.00    -0.248 NA
ATOM     70  C   UNL     1      -3.335   8.148   8.616  1.00  0.00     0.031 C 
ATOM     71  C   UNL     1      -6.381   3.873   9.414  1.00  0.00     0.029 A 
ATOM     72  C   UNL     1      -6.793   5.189   9.559  1.00  0.00     0.049 A 
ATOM     73  H   UNL     1      -8.662   6.039   9.115  1.00  0.00     0.167 HD
ATOM     74  C   UNL     1      -5.124   6.895   9.402  1.00  0.00     0.074 A 
ATOM     75  C   UNL     1      -4.122   7.907   9.679  1.00  0.00     0.031 C 
ATOM     76  C   UNL     1      -6.164   6.379  10.121  1.00  0.00     0.037 A 
BRANCH  63  77
ATOM     77  C   UNL     1     -10.736   2.967   7.759  1.00  0.00     0.058 A 
ATOM     78  C   UNL     1     -10.889   2.227   8.952  1.00  0.00     0.135 A 
ATOM     79  C   UNL     1     -11.591   2.565   6.706  1.00  0.00     0.135 A 
ATOM     80  F   UNL     1     -10.124   2.482  10.023  1.00  0.00    -0.206 F 
ATOM     81  C   UNL     1     -11.806   1.174   9.084  1.00  0.00     0.059 A 
ATOM     82  C   UNL     1     -12.549   1.557   6.833  1.00  0.00     0.059 A 
ATOM     83  F   UNL     1     -11.495   3.072   5.472  1.00  0.00    -0.206 F 
ATOM     84  C   UNL     1     -12.632   0.844   8.017  1.00  0.00     0.060 A 
BRANCH  84  85
ATOM     85  S   UNL     1     -13.793  -0.529   8.160  1.00  0.00     0.124 S 
ATOM     86  O   UNL     1     -12.907  -1.682   8.039  1.00  0.00    -0.237 OA
ATOM     87  O   UNL     1     -14.381  -0.312   9.477  1.00  0.00    -0.237 OA
ATOM     88  O   UNL     1     -14.702  -0.320   7.036  1.00  0.00    -0.744 OA
ENDBRANCH  84  85
ENDBRANCH  63  77
BRANCH  64  89
ATOM     89  C   UNL     1      -3.048   8.216   5.305  1.00  0.00     0.058 A 
ATOM     90  C   UNL     1      -1.942   8.061   4.447  1.00  0.00     0.135 A 
ATOM     91  C   UNL     1      -4.058   9.107   4.913  1.00  0.00     0.135 A 
ATOM     92  F   UNL     1      -0.938   7.238   4.790  1.00  0.00    -0.206 F 
ATOM     93  C   UNL     1      -1.940   8.592   3.164  1.00  0.00     0.059 A 
ATOM     94  C   UNL     1      -4.068   9.663   3.632  1.00  0.00     0.059 A 
ATOM     95  F   UNL     1      -5.127   9.307   5.699  1.00  0.00    -0.206 F 
ATOM     96  C   UNL     1      -3.052   9.316   2.740  1.00  0.00     0.060 A 
BRANCH  96  97
ATOM     97  S   UNL     1      -3.240   9.594   0.962  1.00  0.00     0.124 S 
ATOM     98  O   UNL     1      -1.968  10.219   0.612  1.00  0.00    -0.237 OA
ATOM     99  O   UNL     1      -3.427   8.229   0.467  1.00  0.00    -0.237 OA
ATOM    100  O   UNL     1      -4.413  10.455   0.876  1.00  0.00    -0.744 OA
ENDBRANCH  96  97
ENDBRANCH  64  89
BRANCH  76 101
ATOM    101  C   UNL     1      -6.642   6.911  11.452  1.00  0.00     0.058 A 
ATOM    102  C   UNL     1      -6.588   8.267  11.820  1.00  0.00     0.135 A 
ATOM    103  C   UNL     1      -7.300   6.057  12.367  1.00  0.00     0.135 A 
ATOM    104  F   UNL     1      -6.103   9.197  10.984  1.00  0.00    -0.206 F 
ATOM    105  C   UNL     1      -7.068   8.731  13.047  1.00  0.00     0.059 A 
ATOM    106  C   UNL     1      -7.834   6.507  13.574  1.00  0.00     0.059 A 
ATOM    107  F   UNL     1      -7.450   4.748  12.113  1.00  0.00    -0.206 F 
ATOM    108  C   UNL     1      -7.683   7.842  13.922  1.00  0.00     0.060 A 
BRANCH 108 109
ATOM    109  S   UNL     1      -8.337   8.433  15.495  1.00  0.00     0.124 S 
ATOM    110  O   UNL     1      -7.204   8.203  16.386  1.00  0.00    -0.237 OA
ATOM    111  O   UNL     1      -8.643   9.834  15.217  1.00  0.00    -0.237 OA
ATOM    112  O   UNL     1      -9.499   7.578  15.714  1.00  0.00    -0.744 OA
ENDBRANCH 108 109
ENDBRANCH  76 101
ENDBRANCH  50  51
ENDBRANCH  42  45
ENDBRANCH  40  41
ENDBRANCH  39  40
ENDBRANCH  38  39
ENDBRANCH   1  38
TORSDOF 20
