REMARK SMILES Cc1cc2c(c(C)c1Cl)C=C(C(=O)NCCCCNC(=O)c1ccc(-c3c4nc(c(-c5c(F)cc(S(=O)(=O)[O-])cc5F)c5ccc([nH]5)c(-c5c(F)cc(S(=O)(=O)[O-])cc5F)c5nc(c(-c6c(F)cc(S(=O)(=O)[O-])cc6F)c6ccc3[nH]6)C=C5)C=C4)cc1)[C@@H](C(F)(F)F)O2
REMARK SMILES IDX 17 1 16 2 15 3 14 4 12 5 13 6 11 8 1 9 2 10 3 11 8 12 4 13
REMARK SMILES IDX 6 14 9 15 5 16 93 17 7 18 10 19 88 20 89 21 90 22 91 23
REMARK SMILES IDX 92 24 18 25 19 26 20 27 21 29 22 30 23 31 87 32 24 33 86 34
REMARK SMILES IDX 25 35 26 36 27 37 80 38 28 39 85 40 79 41 81 42 29 43 84 44
REMARK SMILES IDX 78 45 77 46 30 48 64 49 43 50 63 51 44 52 47 53 62 54 82 55
REMARK SMILES IDX 45 56 46 57 61 59 83 60 48 61 31 62 32 63 41 64 33 65 34 66
REMARK SMILES IDX 40 67 42 68 35 69 36 70 37 71 38 72 39 73 65 74 66 75 75 76
REMARK SMILES IDX 67 77 68 78 74 79 76 80 69 81 70 82 71 83 72 84 73 85 49 86
REMARK SMILES IDX 50 87 59 88 51 89 52 90 58 91 60 92 53 93 54 94 55 95 56 96
REMARK SMILES IDX 57 97
REMARK H PARENT 14 7 19 28 81 47 47 58
REMARK Flexibility Score: inf
ROOT
ATOM      1  C   UNL     1      -3.958   6.891   7.021  1.00  0.00     0.023 C 
ENDROOT
BRANCH   1   2
ATOM      2  C   UNL     1      -3.592   5.727   6.096  1.00  0.00     0.023 C 
BRANCH   2   3
ATOM      3  C   UNL     1      -3.997   5.930   4.638  1.00  0.00     0.116 C 
BRANCH   3   4
ATOM      4  N   UNL     1      -3.008   6.695   3.900  1.00  0.00    -0.352 N 
ATOM      5  C   UNL     1      -2.011   6.436   3.022  1.00  0.00     0.251 C 
ATOM      6  O   UNL     1      -1.387   7.426   2.629  1.00  0.00    -0.270 OA
ATOM      7  H   UNL     1      -3.083   7.658   4.087  1.00  0.00     0.163 HD
BRANCH   5   8
ATOM      8  C   UNL     1      -1.633   5.082   2.514  1.00  0.00     0.067 C 
ATOM      9  C   UNL     1       1.112  -0.157  -0.221  1.00  0.00     0.046 C 
ATOM     10  C   UNL     1       0.723   1.220   0.245  1.00  0.00    -0.028 A 
ATOM     11  C   UNL     1      -0.292   1.343   1.198  1.00  0.00     0.052 A 
ATOM     12  C   UNL     1       1.335   2.389  -0.254  1.00  0.00     0.047 A 
ATOM     13  C   UNL     1      -0.690   2.598   1.649  1.00  0.00     0.128 A 
ATOM     14  C   UNL     1       0.946   3.672   0.203  1.00  0.00    -0.021 A 
ATOM     15  Cl  UNL     1       2.592   2.216  -1.444  1.00  0.00    -0.084 Cl
ATOM     16  C   UNL     1      -0.077   3.763   1.180  1.00  0.00     0.022 A 
ATOM     17  O   UNL     1      -1.672   2.600   2.599  1.00  0.00    -0.475 OA
ATOM     18  C   UNL     1       1.598   4.934  -0.310  1.00  0.00     0.047 C 
ATOM     19  C   UNL     1      -0.512   5.034   1.769  1.00  0.00     0.026 C 
ATOM     20  C   UNL     1      -2.429   3.833   2.742  1.00  0.00     0.314 C 
BRANCH  20  21
ATOM     21  C   UNL     1      -3.693   3.763   1.864  1.00  0.00     0.429 C 
ATOM     22  F   UNL     1      -4.516   2.775   2.297  1.00  0.00    -0.167 F 
ATOM     23  F   UNL     1      -4.414   4.908   1.901  1.00  0.00    -0.167 F 
ATOM     24  F   UNL     1      -3.412   3.514   0.565  1.00  0.00    -0.167 F 
ENDBRANCH  20  21
ENDBRANCH   5   8
ENDBRANCH   3   4
ENDBRANCH   2   3
ENDBRANCH   1   2
BRANCH   1  25
ATOM     25  C   UNL     1      -5.431   7.301   7.017  1.00  0.00     0.116 C 
BRANCH  25  26
ATOM     26  N   UNL     1      -6.355   6.194   7.216  1.00  0.00    -0.352 N 
ATOM     27  C   UNL     1      -7.619   6.240   7.759  1.00  0.00     0.251 C 
ATOM     28  H   UNL     1      -6.038   5.307   6.929  1.00  0.00     0.163 HD
ATOM     29  O   UNL     1      -8.269   5.214   7.922  1.00  0.00    -0.269 OA
BRANCH  27  30
ATOM     30  C   UNL     1      -8.149   7.547   8.191  1.00  0.00     0.039 A 
ATOM     31  C   UNL     1      -8.495   7.718   9.532  1.00  0.00     0.014 A 
ATOM     32  C   UNL     1      -8.201   8.618   7.293  1.00  0.00     0.014 A 
ATOM     33  C   UNL     1      -8.813   8.994   9.997  1.00  0.00     0.010 A 
ATOM     34  C   UNL     1      -8.465   9.897   7.771  1.00  0.00     0.010 A 
ATOM     35  C   UNL     1      -8.755  10.098   9.129  1.00  0.00    -0.014 A 
BRANCH  35  36
ATOM     36  C   UNL     1      -8.956  11.474   9.641  1.00  0.00     0.031 A 
ATOM     37  C   UNL     1     -10.163  12.264   9.229  1.00  0.00     0.074 A 
ATOM     38  C   UNL     1      -8.020  12.025  10.438  1.00  0.00     0.049 A 
ATOM     39  N   UNL     1     -10.496  13.485   9.555  1.00  0.00    -0.248 NA
ATOM     40  C   UNL     1     -11.107  11.606   8.312  1.00  0.00     0.031 C 
ATOM     41  C   UNL     1      -6.778  11.371  10.861  1.00  0.00     0.029 A 
ATOM     42  N   UNL     1      -7.964  13.258  11.037  1.00  0.00    -0.354 N 
ATOM     43  C   UNL     1     -11.683  13.744   8.883  1.00  0.00     0.074 A 
ATOM     44  C   UNL     1     -11.987  12.572   8.091  1.00  0.00     0.031 C 
ATOM     45  C   UNL     1      -6.103  12.196  11.679  1.00  0.00     0.029 A 
ATOM     46  C   UNL     1      -6.849  13.443  11.819  1.00  0.00     0.049 A 
ATOM     47  H   UNL     1      -8.658  13.946  10.917  1.00  0.00     0.167 HD
ATOM     48  C   UNL     1     -12.463  14.849   8.943  1.00  0.00     0.037 A 
ATOM     49  C   UNL     1      -6.477  14.494  12.575  1.00  0.00     0.037 A 
ATOM     50  C   UNL     1     -12.171  15.999   9.755  1.00  0.00     0.049 A 
ATOM     51  C   UNL     1      -7.367  15.703  12.639  1.00  0.00     0.074 A 
ATOM     52  C   UNL     1     -12.922  17.150   9.918  1.00  0.00     0.029 A 
ATOM     53  N   UNL     1     -11.041  16.142  10.545  1.00  0.00    -0.354 N 
ATOM     54  N   UNL     1      -8.513  15.911  12.036  1.00  0.00    -0.248 NA
ATOM     55  C   UNL     1      -6.920  16.818  13.486  1.00  0.00     0.031 C 
ATOM     56  C   UNL     1     -12.236  17.997  10.794  1.00  0.00     0.029 A 
ATOM     57  C   UNL     1     -11.070  17.363  11.195  1.00  0.00     0.049 A 
ATOM     58  H   UNL     1     -10.323  15.473  10.632  1.00  0.00     0.167 HD
ATOM     59  C   UNL     1      -8.934  17.170  12.445  1.00  0.00     0.074 A 
ATOM     60  C   UNL     1      -7.922  17.677  13.350  1.00  0.00     0.031 C 
ATOM     61  C   UNL     1     -10.058  17.843  12.102  1.00  0.00     0.037 A 
BRANCH  48  62
ATOM     62  C   UNL     1     -13.719  14.850   8.123  1.00  0.00     0.058 A 
ATOM     63  C   UNL     1     -14.833  14.085   8.500  1.00  0.00     0.135 A 
ATOM     64  C   UNL     1     -13.821  15.635   6.964  1.00  0.00     0.135 A 
ATOM     65  F   UNL     1     -14.779  13.304   9.591  1.00  0.00    -0.206 F 
ATOM     66  C   UNL     1     -15.998  14.076   7.742  1.00  0.00     0.059 A 
ATOM     67  C   UNL     1     -14.985  15.658   6.201  1.00  0.00     0.059 A 
ATOM     68  F   UNL     1     -12.781  16.382   6.559  1.00  0.00    -0.206 F 
ATOM     69  C   UNL     1     -16.063  14.863   6.591  1.00  0.00     0.060 A 
BRANCH  69  70
ATOM     70  S   UNL     1     -17.580  14.837   5.613  1.00  0.00     0.124 S 
ATOM     71  O   UNL     1     -17.462  13.552   4.931  1.00  0.00    -0.237 OA
ATOM     72  O   UNL     1     -18.616  14.919   6.637  1.00  0.00    -0.237 OA
ATOM     73  O   UNL     1     -17.453  16.014   4.759  1.00  0.00    -0.744 OA
ENDBRANCH  69  70
ENDBRANCH  48  62
BRANCH  49  74
ATOM     74  C   UNL     1      -5.228  14.420  13.374  1.00  0.00     0.058 A 
ATOM     75  C   UNL     1      -5.280  14.207  14.759  1.00  0.00     0.135 A 
ATOM     76  C   UNL     1      -3.965  14.517  12.771  1.00  0.00     0.135 A 
ATOM     77  F   UNL     1      -6.467  14.111  15.378  1.00  0.00    -0.206 F 
ATOM     78  C   UNL     1      -4.123  14.094  15.522  1.00  0.00     0.059 A 
ATOM     79  C   UNL     1      -2.793  14.393  13.511  1.00  0.00     0.059 A 
ATOM     80  F   UNL     1      -3.866  14.705  11.446  1.00  0.00    -0.206 F 
ATOM     81  C   UNL     1      -2.883  14.185  14.887  1.00  0.00     0.060 A 
BRANCH  81  82
ATOM     82  S   UNL     1      -1.387  13.967  15.876  1.00  0.00     0.124 S 
ATOM     83  O   UNL     1      -1.311  15.242  16.578  1.00  0.00    -0.237 OA
ATOM     84  O   UNL     1      -1.726  12.806  16.694  1.00  0.00    -0.237 OA
ATOM     85  O   UNL     1      -0.354  13.734  14.871  1.00  0.00    -0.744 OA
ENDBRANCH  81  82
ENDBRANCH  49  74
BRANCH  61  86
ATOM     86  C   UNL     1     -10.275  19.196  12.712  1.00  0.00     0.058 A 
ATOM     87  C   UNL     1      -9.627  20.332  12.208  1.00  0.00     0.135 A 
ATOM     88  C   UNL     1     -11.220  19.370  13.735  1.00  0.00     0.135 A 
ATOM     89  F   UNL     1      -8.710  20.212  11.235  1.00  0.00    -0.206 F 
ATOM     90  C   UNL     1      -9.917  21.603  12.692  1.00  0.00     0.059 A 
ATOM     91  C   UNL     1     -11.537  20.634  14.223  1.00  0.00     0.059 A 
ATOM     92  F   UNL     1     -11.868  18.311  14.244  1.00  0.00    -0.206 F 
ATOM     93  C   UNL     1     -10.881  21.745  13.694  1.00  0.00     0.060 A 
BRANCH  93  94
ATOM     94  S   UNL     1     -11.310  23.407  14.252  1.00  0.00     0.124 S 
ATOM     95  O   UNL     1     -10.162  23.743  15.087  1.00  0.00    -0.237 OA
ATOM     96  O   UNL     1     -11.417  24.142  12.995  1.00  0.00    -0.237 OA
ATOM     97  O   UNL     1     -12.570  23.211  14.964  1.00  0.00    -0.744 OA
ENDBRANCH  93  94
ENDBRANCH  61  86
ENDBRANCH  35  36
ENDBRANCH  27  30
ENDBRANCH  25  26
ENDBRANCH   1  25
TORSDOF 15
