REMARK SMILES Cc1ccc(-c2nc(C)c(C)c(OCCC(=O)NCCCCNC(=O)c3ccc(-c4c5nc(c(-c6c(F)cc(S(=O)(=O)[O-])cc6F)c6ccc([nH]6)c(-c6c(F)cc(S(=O)(=O)[O-])cc6F)c6nc(c(-c7c(F)cc(S(=O)(=O)[O-])cc7F)c7ccc4[nH]7)C=C6)C=C5)cc3)n2)cc1
REMARK SMILES IDX 20 1 19 2 18 3 16 4 17 5 15 7 14 8 13 9 12 10 6 11 7 12
REMARK SMILES IDX 92 13 8 14 9 15 10 16 11 17 5 18 1 19 2 20 3 21 94 22 4 23
REMARK SMILES IDX 93 24 21 25 22 26 23 27 24 28 25 30 26 31 27 32 91 33 28 34
REMARK SMILES IDX 90 35 29 36 30 37 31 38 84 39 32 40 89 41 83 42 85 43 33 44
REMARK SMILES IDX 88 45 82 46 81 47 34 49 68 50 47 51 67 52 48 53 51 54 66 55
REMARK SMILES IDX 86 56 49 57 50 58 65 60 87 61 52 62 35 63 36 64 45 65 37 66
REMARK SMILES IDX 38 67 44 68 46 69 39 70 40 71 41 72 42 73 43 74 69 75 70 76
REMARK SMILES IDX 79 77 71 78 72 79 78 80 80 81 73 82 74 83 75 84 76 85 77 86
REMARK SMILES IDX 53 87 54 88 63 89 55 90 56 91 62 92 64 93 57 94 58 95 59 96
REMARK SMILES IDX 60 97 61 98
REMARK H PARENT 18 6 23 29 85 48 51 59
REMARK Flexibility Score: inf
ROOT
ATOM      1  C   UNL     1      -6.219   2.053   0.498  1.00  0.00     0.023 C 
ENDROOT
BRANCH   1   2
ATOM      2  C   UNL     1      -5.541   3.367   0.096  1.00  0.00     0.116 C 
BRANCH   2   3
ATOM      3  N   UNL     1      -4.282   3.207  -0.615  1.00  0.00    -0.356 N 
ATOM      4  C   UNL     1      -4.045   2.932  -1.925  1.00  0.00     0.223 C 
ATOM      5  O   UNL     1      -2.885   2.974  -2.342  1.00  0.00    -0.275 OA
ATOM      6  H   UNL     1      -3.475   3.314  -0.060  1.00  0.00     0.163 HD
BRANCH   4   7
ATOM      7  C   UNL     1      -5.194   2.636  -2.856  1.00  0.00     0.141 C 
BRANCH   7   8
ATOM      8  C   UNL     1      -5.053   1.250  -3.475  1.00  0.00     0.241 C 
BRANCH   8   9
ATOM      9  O   UNL     1      -5.825   0.291  -2.743  1.00  0.00    -0.477 OA
BRANCH   9  10
ATOM     10  C   UNL     1      -5.123  -0.576  -1.927  1.00  0.00     0.220 A 
ATOM     11  C   UNL     1      -3.166  -1.247  -0.969  1.00  0.00     0.163 A 
ATOM     12  N   UNL     1      -3.763  -2.230  -0.276  1.00  0.00    -0.233 NA
ATOM     13  N   UNL     1      -3.796  -0.421  -1.819  1.00  0.00    -0.193 NA
ATOM     14  C   UNL     1      -5.111  -2.321  -0.363  1.00  0.00     0.048 A 
ATOM     15  C   UNL     1      -5.738  -3.347   0.537  1.00  0.00     0.067 C 
ATOM     16  C   UNL     1      -5.861  -1.503  -1.202  1.00  0.00     0.032 A 
ATOM     17  C   UNL     1      -7.359  -1.492  -1.196  1.00  0.00     0.052 C 
BRANCH  11  18
ATOM     18  C   UNL     1      -1.749  -0.976  -0.681  1.00  0.00     0.019 A 
ATOM     19  C   UNL     1       2.417  -0.114   0.176  1.00  0.00     0.044 C 
ATOM     20  C   UNL     1       0.972  -0.407  -0.096  1.00  0.00    -0.051 A 
ATOM     21  C   UNL     1       0.507  -1.727  -0.115  1.00  0.00     0.004 A 
ATOM     22  C   UNL     1       0.074   0.628  -0.361  1.00  0.00     0.004 A 
ATOM     23  C   UNL     1      -0.838  -2.005  -0.393  1.00  0.00     0.012 A 
ATOM     24  C   UNL     1      -1.262   0.342  -0.651  1.00  0.00     0.012 A 
ENDBRANCH  11  18
ENDBRANCH   9  10
ENDBRANCH   8   9
ENDBRANCH   7   8
ENDBRANCH   4   7
ENDBRANCH   2   3
ENDBRANCH   1   2
BRANCH   1  25
ATOM     25  C   UNL     1      -5.282   1.123   1.268  1.00  0.00     0.023 C 
BRANCH  25  26
ATOM     26  C   UNL     1      -5.836   0.618   2.594  1.00  0.00     0.116 C 
BRANCH  26  27
ATOM     27  N   UNL     1      -6.313  -0.765   2.593  1.00  0.00    -0.352 N 
ATOM     28  C   UNL     1      -6.296  -1.675   3.646  1.00  0.00     0.251 C 
ATOM     29  H   UNL     1      -6.693  -1.091   1.746  1.00  0.00     0.163 HD
ATOM     30  O   UNL     1      -6.616  -2.853   3.527  1.00  0.00    -0.269 OA
BRANCH  28  31
ATOM     31  C   UNL     1      -5.954  -1.137   4.976  1.00  0.00     0.039 A 
ATOM     32  C   UNL     1      -7.043  -0.681   5.728  1.00  0.00     0.014 A 
ATOM     33  C   UNL     1      -4.677  -0.614   5.144  1.00  0.00     0.014 A 
ATOM     34  C   UNL     1      -6.926   0.520   6.412  1.00  0.00     0.010 A 
ATOM     35  C   UNL     1      -4.591   0.626   5.751  1.00  0.00     0.010 A 
ATOM     36  C   UNL     1      -5.740   1.239   6.286  1.00  0.00    -0.014 A 
BRANCH  36  37
ATOM     37  C   UNL     1      -5.671   2.686   6.503  1.00  0.00     0.031 A 
ATOM     38  C   UNL     1      -4.766   3.223   7.554  1.00  0.00     0.074 A 
ATOM     39  C   UNL     1      -6.360   3.553   5.716  1.00  0.00     0.049 A 
ATOM     40  N   UNL     1      -4.846   4.410   8.053  1.00  0.00    -0.248 NA
ATOM     41  C   UNL     1      -3.705   2.428   8.163  1.00  0.00     0.031 C 
ATOM     42  C   UNL     1      -6.131   4.997   5.615  1.00  0.00     0.029 A 
ATOM     43  N   UNL     1      -7.479   3.382   4.903  1.00  0.00    -0.354 N 
ATOM     44  C   UNL     1      -3.721   4.633   8.816  1.00  0.00     0.074 A 
ATOM     45  C   UNL     1      -3.061   3.350   8.882  1.00  0.00     0.031 C 
ATOM     46  C   UNL     1      -7.220   5.579   5.092  1.00  0.00     0.029 A 
ATOM     47  C   UNL     1      -8.239   4.556   4.976  1.00  0.00     0.049 A 
ATOM     48  H   UNL     1      -7.697   2.582   4.373  1.00  0.00     0.167 HD
ATOM     49  C   UNL     1      -3.418   5.905   9.208  1.00  0.00     0.037 A 
ATOM     50  C   UNL     1      -9.498   4.662   5.502  1.00  0.00     0.037 A 
ATOM     51  C   UNL     1      -4.489   6.835   8.847  1.00  0.00     0.049 A 
ATOM     52  C   UNL     1      -9.598   5.632   6.668  1.00  0.00     0.074 A 
ATOM     53  C   UNL     1      -4.663   7.713   7.789  1.00  0.00     0.029 A 
ATOM     54  N   UNL     1      -5.729   6.719   9.466  1.00  0.00    -0.354 N 
ATOM     55  N   UNL     1      -8.563   6.148   7.273  1.00  0.00    -0.248 NA
ATOM     56  C   UNL     1     -10.856   6.068   7.273  1.00  0.00     0.031 C 
ATOM     57  C   UNL     1      -6.033   8.078   7.739  1.00  0.00     0.029 A 
ATOM     58  C   UNL     1      -6.689   7.436   8.776  1.00  0.00     0.049 A 
ATOM     59  H   UNL     1      -5.900   6.198  10.284  1.00  0.00     0.167 HD
ATOM     60  C   UNL     1      -8.971   6.892   8.350  1.00  0.00     0.074 A 
ATOM     61  C   UNL     1     -10.419   6.851   8.277  1.00  0.00     0.031 C 
ATOM     62  C   UNL     1      -8.076   7.446   9.224  1.00  0.00     0.037 A 
BRANCH  49  63
ATOM     63  C   UNL     1      -2.034   6.333   9.659  1.00  0.00     0.058 A 
ATOM     64  C   UNL     1      -1.550   7.631   9.379  1.00  0.00     0.135 A 
ATOM     65  C   UNL     1      -1.105   5.493  10.304  1.00  0.00     0.135 A 
ATOM     66  F   UNL     1      -2.343   8.580   8.865  1.00  0.00    -0.206 F 
ATOM     67  C   UNL     1      -0.225   8.016   9.602  1.00  0.00     0.059 A 
ATOM     68  C   UNL     1       0.242   5.830  10.478  1.00  0.00     0.059 A 
ATOM     69  F   UNL     1      -1.480   4.328  10.847  1.00  0.00    -0.206 F 
ATOM     70  C   UNL     1       0.677   7.095  10.113  1.00  0.00     0.060 A 
BRANCH  70  71
ATOM     71  S   UNL     1       2.404   7.573  10.303  1.00  0.00     0.124 S 
ATOM     72  O   UNL     1       2.730   8.091   8.977  1.00  0.00    -0.237 OA
ATOM     73  O   UNL     1       2.329   8.563  11.371  1.00  0.00    -0.237 OA
ATOM     74  O   UNL     1       3.067   6.320  10.655  1.00  0.00    -0.744 OA
ENDBRANCH  70  71
ENDBRANCH  49  63
BRANCH  50  75
ATOM     75  C   UNL     1     -10.351   3.465   5.303  1.00  0.00     0.058 A 
ATOM     76  C   UNL     1     -10.829   3.229   4.003  1.00  0.00     0.135 A 
ATOM     77  C   UNL     1     -10.297   2.380   6.189  1.00  0.00     0.135 A 
ATOM     78  F   UNL     1     -10.937   4.245   3.132  1.00  0.00    -0.206 F 
ATOM     79  C   UNL     1     -11.048   1.940   3.535  1.00  0.00     0.059 A 
ATOM     80  C   UNL     1     -10.514   1.077   5.740  1.00  0.00     0.059 A 
ATOM     81  F   UNL     1      -9.865   2.555   7.446  1.00  0.00    -0.206 F 
ATOM     82  C   UNL     1     -10.807   0.868   4.392  1.00  0.00     0.060 A 
BRANCH  82  83
ATOM     83  S   UNL     1     -10.650  -0.773   3.644  1.00  0.00     0.124 S 
ATOM     84  O   UNL     1     -11.969  -0.965   3.053  1.00  0.00    -0.237 OA
ATOM     85  O   UNL     1      -9.556  -0.548   2.700  1.00  0.00    -0.237 OA
ATOM     86  O   UNL     1     -10.334  -1.624   4.785  1.00  0.00    -0.744 OA
ENDBRANCH  82  83
ENDBRANCH  50  75
BRANCH  62  87
ATOM     87  C   UNL     1      -8.409   8.106  10.546  1.00  0.00     0.058 A 
ATOM     88  C   UNL     1      -9.519   7.775  11.341  1.00  0.00     0.135 A 
ATOM     89  C   UNL     1      -7.503   9.029  11.127  1.00  0.00     0.135 A 
ATOM     90  F   UNL     1     -10.392   6.830  10.963  1.00  0.00    -0.206 F 
ATOM     91  C   UNL     1      -9.754   8.365  12.586  1.00  0.00     0.059 A 
ATOM     92  C   UNL     1      -7.687   9.584  12.392  1.00  0.00     0.059 A 
ATOM     93  F   UNL     1      -6.390   9.416  10.485  1.00  0.00    -0.206 F 
ATOM     94  C   UNL     1      -8.832   9.268  13.105  1.00  0.00     0.060 A 
BRANCH  94  95
ATOM     95  S   UNL     1      -9.089   9.988  14.737  1.00  0.00     0.124 S 
ATOM     96  O   UNL     1      -9.761  11.239  14.401  1.00  0.00    -0.237 OA
ATOM     97  O   UNL     1      -9.917   8.990  15.409  1.00  0.00    -0.237 OA
ATOM     98  O   UNL     1      -7.732  10.116  15.258  1.00  0.00    -0.744 OA
ENDBRANCH  94  95
ENDBRANCH  62  87
ENDBRANCH  36  37
ENDBRANCH  28  31
ENDBRANCH  26  27
ENDBRANCH  25  26
ENDBRANCH   1  25
TORSDOF 18
