REMARK SMILES COC(=O)c1ccc(Cl)c(-c2ccc(C(=O)NCCCCNC(=O)c3ccc(-c4c5nc(c(-c6c(F)cc(S(=O)(=O)[O-])cc6F)c6ccc([nH]6)c(-c6c(F)cc(S(=O)(=O)[O-])cc6F)c6nc(c(-c7c(F)cc(S(=O)(=O)[O-])cc7F)c7ccc4[nH]7)C=C6)C=C5)cc3)c(F)c2)c1
REMARK SMILES IDX 19 1 18 2 17 3 15 4 16 5 14 7 11 8 12 9 93 10 13 11 91 12
REMARK SMILES IDX 92 13 10 14 5 15 6 16 94 17 7 18 8 19 9 20 3 21 4 22 2 23
REMARK SMILES IDX 1 24 20 25 21 26 22 27 23 28 24 30 25 31 26 32 90 33 27 34
REMARK SMILES IDX 89 35 28 36 29 37 30 38 83 39 31 40 88 41 82 42 84 43 32 44
REMARK SMILES IDX 87 45 81 46 80 47 33 49 67 50 46 51 66 52 47 53 50 54 65 55
REMARK SMILES IDX 85 56 48 57 49 58 64 60 86 61 51 62 34 63 35 64 44 65 36 66
REMARK SMILES IDX 37 67 43 68 45 69 38 70 39 71 40 72 41 73 42 74 68 75 69 76
REMARK SMILES IDX 78 77 70 78 71 79 77 80 79 81 72 82 73 83 74 84 75 85 76 86
REMARK SMILES IDX 52 87 53 88 62 89 54 90 55 91 61 92 63 93 56 94 57 95 58 96
REMARK SMILES IDX 59 97 60 98
REMARK H PARENT 17 6 22 29 84 48 50 59
REMARK Flexibility Score: inf
ROOT
ATOM      1  C   UNL     1       5.880  10.156   2.608  1.00  0.00     0.023 C 
ENDROOT
BRANCH   1   2
ATOM      2  C   UNL     1       6.009   9.194   3.793  1.00  0.00     0.116 C 
BRANCH   2   3
ATOM      3  N   UNL     1       5.141   9.607   4.875  1.00  0.00    -0.352 N 
ATOM      4  C   UNL     1       3.866   9.255   5.227  1.00  0.00     0.254 C 
ATOM      5  O   UNL     1       3.391   9.823   6.215  1.00  0.00    -0.269 OA
ATOM      6  H   UNL     1       5.547  10.273   5.476  1.00  0.00     0.163 HD
BRANCH   4   7
ATOM      7  C   UNL     1       3.042   8.208   4.558  1.00  0.00     0.075 A 
ATOM      8  C   UNL     1       1.308   6.202   3.513  1.00  0.00    -0.014 A 
ATOM      9  C   UNL     1       1.169   6.645   4.831  1.00  0.00     0.010 A 
ATOM     10  C   UNL     1       2.308   6.784   2.727  1.00  0.00     0.048 A 
ATOM     11  C   UNL     1       2.027   7.629   5.344  1.00  0.00     0.017 A 
ATOM     12  C   UNL     1       3.135   7.787   3.235  1.00  0.00     0.136 A 
ATOM     13  F   UNL     1       3.966   8.343   2.350  1.00  0.00    -0.206 F 
BRANCH   8  14
ATOM     14  C   UNL     1       0.430   5.180   2.930  1.00  0.00     0.001 A 
ATOM     15  C   UNL     1       0.209   2.939   1.975  1.00  0.00     0.060 A 
ATOM     16  C   UNL     1      -1.116   3.211   1.623  1.00  0.00     0.017 A 
ATOM     17  C   UNL     1       0.967   3.911   2.640  1.00  0.00     0.026 A 
ATOM     18  C   UNL     1      -1.673   4.454   1.927  1.00  0.00     0.022 A 
ATOM     19  C   UNL     1      -0.907   5.434   2.568  1.00  0.00     0.048 A 
ATOM     20  Cl  UNL     1      -1.657   6.969   2.846  1.00  0.00    -0.084 Cl
BRANCH  15  21
ATOM     21  C   UNL     1       0.863   1.647   1.645  1.00  0.00     0.337 C 
ATOM     22  O   UNL     1       1.797   1.185   2.268  1.00  0.00    -0.246 OA
BRANCH  21  23
ATOM     23  O   UNL     1       0.307   1.133   0.518  1.00  0.00    -0.465 OA
ATOM     24  C   UNL     1       0.957  -0.045   0.040  1.00  0.00     0.282 C 
ENDBRANCH  21  23
ENDBRANCH  15  21
ENDBRANCH   8  14
ENDBRANCH   4   7
ENDBRANCH   2   3
ENDBRANCH   1   2
BRANCH   1  25
ATOM     25  C   UNL     1       6.716  11.430   2.731  1.00  0.00     0.023 C 
BRANCH  25  26
ATOM     26  C   UNL     1       8.219  11.197   2.787  1.00  0.00     0.116 C 
BRANCH  26  27
ATOM     27  N   UNL     1       8.733  10.458   1.643  1.00  0.00    -0.352 N 
ATOM     28  C   UNL     1       9.986  10.535   1.084  1.00  0.00     0.251 C 
ATOM     29  H   UNL     1       8.108   9.826   1.220  1.00  0.00     0.163 HD
ATOM     30  O   UNL     1      10.245   9.934   0.047  1.00  0.00    -0.269 OA
BRANCH  28  31
ATOM     31  C   UNL     1      10.999  11.389   1.734  1.00  0.00     0.039 A 
ATOM     32  C   UNL     1      11.691  12.326   0.966  1.00  0.00     0.014 A 
ATOM     33  C   UNL     1      11.221  11.295   3.111  1.00  0.00     0.014 A 
ATOM     34  C   UNL     1      12.574  13.206   1.593  1.00  0.00     0.010 A 
ATOM     35  C   UNL     1      12.031  12.228   3.743  1.00  0.00     0.010 A 
ATOM     36  C   UNL     1      12.730  13.182   2.989  1.00  0.00    -0.014 A 
BRANCH  36  37
ATOM     37  C   UNL     1      13.656  14.116   3.677  1.00  0.00     0.031 A 
ATOM     38  C   UNL     1      14.846  13.569   4.418  1.00  0.00     0.074 A 
ATOM     39  C   UNL     1      13.408  15.440   3.667  1.00  0.00     0.049 A 
ATOM     40  N   UNL     1      15.744  14.207   5.123  1.00  0.00    -0.248 NA
ATOM     41  C   UNL     1      15.036  12.108   4.388  1.00  0.00     0.031 C 
ATOM     42  C   UNL     1      12.267  16.083   3.012  1.00  0.00     0.029 A 
ATOM     43  N   UNL     1      14.104  16.485   4.221  1.00  0.00    -0.354 N 
ATOM     44  C   UNL     1      16.599  13.229   5.617  1.00  0.00     0.074 A 
ATOM     45  C   UNL     1      16.069  11.950   5.200  1.00  0.00     0.031 C 
ATOM     46  C   UNL     1      12.367  17.413   3.162  1.00  0.00     0.029 A 
ATOM     47  C   UNL     1      13.554  17.717   3.956  1.00  0.00     0.049 A 
ATOM     48  H   UNL     1      14.921  16.364   4.757  1.00  0.00     0.167 HD
ATOM     49  C   UNL     1      17.746  13.383   6.319  1.00  0.00     0.037 A 
ATOM     50  C   UNL     1      13.966  18.951   4.308  1.00  0.00     0.037 A 
ATOM     51  C   UNL     1      18.279  14.660   6.710  1.00  0.00     0.049 A 
ATOM     52  C   UNL     1      15.229  19.098   5.112  1.00  0.00     0.074 A 
ATOM     53  C   UNL     1      19.444  14.929   7.407  1.00  0.00     0.029 A 
ATOM     54  N   UNL     1      17.688  15.884   6.430  1.00  0.00    -0.354 N 
ATOM     55  N   UNL     1      16.041  18.165   5.550  1.00  0.00    -0.248 NA
ATOM     56  C   UNL     1      15.637  20.464   5.468  1.00  0.00     0.031 C 
ATOM     57  C   UNL     1      19.536  16.312   7.583  1.00  0.00     0.029 A 
ATOM     58  C   UNL     1      18.459  16.911   6.948  1.00  0.00     0.049 A 
ATOM     59  H   UNL     1      16.845  16.005   5.936  1.00  0.00     0.167 HD
ATOM     60  C   UNL     1      17.074  18.831   6.200  1.00  0.00     0.074 A 
ATOM     61  C   UNL     1      16.785  20.247   6.096  1.00  0.00     0.031 C 
ATOM     62  C   UNL     1      18.164  18.317   6.822  1.00  0.00     0.037 A 
BRANCH  49  63
ATOM     63  C   UNL     1      18.510  12.140   6.686  1.00  0.00     0.058 A 
ATOM     64  C   UNL     1      18.625  11.734   8.025  1.00  0.00     0.135 A 
ATOM     65  C   UNL     1      19.159  11.364   5.710  1.00  0.00     0.135 A 
ATOM     66  F   UNL     1      18.021  12.433   8.999  1.00  0.00    -0.206 F 
ATOM     67  C   UNL     1      19.362  10.610   8.384  1.00  0.00     0.059 A 
ATOM     68  C   UNL     1      19.874  10.218   6.043  1.00  0.00     0.059 A 
ATOM     69  F   UNL     1      19.061  11.692   4.412  1.00  0.00    -0.206 F 
ATOM     70  C   UNL     1      19.981   9.856   7.385  1.00  0.00     0.060 A 
BRANCH  70  71
ATOM     71  S   UNL     1      20.892   8.373   7.862  1.00  0.00     0.124 S 
ATOM     72  O   UNL     1      22.052   8.938   8.541  1.00  0.00    -0.237 OA
ATOM     73  O   UNL     1      19.928   7.683   8.715  1.00  0.00    -0.237 OA
ATOM     74  O   UNL     1      21.165   7.718   6.586  1.00  0.00    -0.744 OA
ENDBRANCH  70  71
ENDBRANCH  49  63
BRANCH  50  75
ATOM     75  C   UNL     1      13.206  20.143   3.844  1.00  0.00     0.058 A 
ATOM     76  C   UNL     1      11.925  20.436   4.337  1.00  0.00     0.135 A 
ATOM     77  C   UNL     1      13.735  20.989   2.858  1.00  0.00     0.135 A 
ATOM     78  F   UNL     1      11.368  19.653   5.273  1.00  0.00    -0.206 F 
ATOM     79  C   UNL     1      11.186  21.510   3.851  1.00  0.00     0.059 A 
ATOM     80  C   UNL     1      13.026  22.085   2.374  1.00  0.00     0.059 A 
ATOM     81  F   UNL     1      14.960  20.756   2.363  1.00  0.00    -0.206 F 
ATOM     82  C   UNL     1      11.744  22.326   2.865  1.00  0.00     0.060 A 
BRANCH  82  83
ATOM     83  S   UNL     1      10.758  23.699   2.230  1.00  0.00     0.124 S 
ATOM     84  O   UNL     1       9.690  22.992   1.530  1.00  0.00    -0.237 OA
ATOM     85  O   UNL     1      10.367  24.386   3.457  1.00  0.00    -0.237 OA
ATOM     86  O   UNL     1      11.694  24.423   1.377  1.00  0.00    -0.744 OA
ENDBRANCH  82  83
ENDBRANCH  50  75
BRANCH  62  87
ATOM     87  C   UNL     1      19.158  19.282   7.408  1.00  0.00     0.058 A 
ATOM     88  C   UNL     1      20.435  19.414   6.837  1.00  0.00     0.135 A 
ATOM     89  C   UNL     1      18.885  20.006   8.578  1.00  0.00     0.135 A 
ATOM     90  F   UNL     1      20.751  18.737   5.721  1.00  0.00    -0.206 F 
ATOM     91  C   UNL     1      21.412  20.213   7.417  1.00  0.00     0.059 A 
ATOM     92  C   UNL     1      19.839  20.836   9.160  1.00  0.00     0.059 A 
ATOM     93  F   UNL     1      17.677  19.922   9.158  1.00  0.00    -0.206 F 
ATOM     94  C   UNL     1      21.106  20.919   8.581  1.00  0.00     0.060 A 
BRANCH  94  95
ATOM     95  S   UNL     1      22.386  21.958   9.317  1.00  0.00     0.124 S 
ATOM     96  O   UNL     1      23.321  20.963   9.830  1.00  0.00    -0.237 OA
ATOM     97  O   UNL     1      22.849  22.733   8.170  1.00  0.00    -0.237 OA
ATOM     98  O   UNL     1      21.662  22.722  10.329  1.00  0.00    -0.744 OA
ENDBRANCH  94  95
ENDBRANCH  62  87
ENDBRANCH  36  37
ENDBRANCH  28  31
ENDBRANCH  26  27
ENDBRANCH  25  26
ENDBRANCH   1  25
TORSDOF 17
