REMARK SMILES [NH3+][C@@H](CNc1ccc(C(=O)NCCCCNC(=O)c2ccc(-c3c4nc(c(-c5c(F)cc(S(=O)(=O)[O-])cc5F)c5ccc([nH]5)c(-c5c(F)cc(S(=O)(=O)[O-])cc5F)c5nc(c(-c6c(F)cc(S(=O)(=O)[O-])cc6F)c6ccc3[nH]6)C=C5)C=C4)cc2)c(F)c1F)c1ccccc1
REMARK SMILES IDX 13 1 12 2 11 3 9 4 10 5 8 7 5 8 6 9 87 10 7 11 85 12 88 13
REMARK SMILES IDX 86 14 4 15 3 17 2 18 1 19 89 23 90 24 94 25 91 26 93 27
REMARK SMILES IDX 92 28 14 29 15 30 16 31 17 32 18 34 19 35 20 36 84 37 21 38
REMARK SMILES IDX 83 39 22 40 23 41 24 42 77 43 25 44 82 45 76 46 78 47 26 48
REMARK SMILES IDX 81 49 75 50 74 51 27 53 61 54 40 55 60 56 41 57 44 58 59 59
REMARK SMILES IDX 79 60 42 61 43 62 58 64 80 65 45 66 28 67 29 68 38 69 30 70
REMARK SMILES IDX 31 71 37 72 39 73 32 74 33 75 34 76 35 77 36 78 62 79 63 80
REMARK SMILES IDX 72 81 64 82 65 83 71 84 73 85 66 86 67 87 68 88 69 89 70 90
REMARK SMILES IDX 46 91 47 92 56 93 48 94 49 95 55 96 57 97 50 98 51 99 52 100
REMARK SMILES IDX 53 101 54 102
REMARK H PARENT 11 6 4 16 1 20 1 21 1 22 16 33 78 52 44 63
REMARK Flexibility Score: inf
ROOT
ATOM      1  C   UNL     1      -6.063   0.898   5.739  1.00  0.00     0.023 C 
ENDROOT
BRANCH   1   2
ATOM      2  C   UNL     1      -4.638   1.393   5.968  1.00  0.00     0.116 C 
BRANCH   2   3
ATOM      3  N   UNL     1      -3.971   0.756   7.089  1.00  0.00    -0.352 N 
ATOM      4  C   UNL     1      -2.687   0.286   7.209  1.00  0.00     0.254 C 
ATOM      5  O   UNL     1      -2.336  -0.233   8.268  1.00  0.00    -0.269 OA
ATOM      6  H   UNL     1      -4.530   0.643   7.892  1.00  0.00     0.163 HD
BRANCH   4   7
ATOM      7  C   UNL     1      -1.728   0.305   6.086  1.00  0.00     0.078 A 
ATOM      8  C   UNL     1       0.110   0.154   3.934  1.00  0.00     0.074 A 
ATOM      9  C   UNL     1      -0.036  -0.911   4.827  1.00  0.00     0.030 A 
ATOM     10  C   UNL     1      -0.632   1.319   4.195  1.00  0.00     0.182 A 
ATOM     11  C   UNL     1      -0.945  -0.841   5.890  1.00  0.00     0.019 A 
ATOM     12  C   UNL     1      -1.523   1.405   5.263  1.00  0.00     0.173 A 
ATOM     13  F   UNL     1      -0.496   2.372   3.370  1.00  0.00    -0.201 F 
ATOM     14  F   UNL     1      -2.167   2.562   5.475  1.00  0.00    -0.203 F 
BRANCH   8  15
ATOM     15  N   UNL     1       0.945   0.099   2.824  1.00  0.00    -0.376 N 
ATOM     16  H   UNL     1       1.410   0.919   2.539  1.00  0.00     0.160 HD
BRANCH  15  17
ATOM     17  C   UNL     1       1.160  -1.132   2.062  1.00  0.00     0.183 C 
BRANCH  17  18
ATOM     18  C   UNL     1       0.528  -1.075   0.635  1.00  0.00     0.231 C 
BRANCH  18  19
ATOM     19  N   UNL     1       1.064   0.029  -0.184  1.00  0.00    -0.350 N 
ATOM     20  H   UNL     1       2.083  -0.008  -0.181  1.00  0.00     0.345 HD
ATOM     21  H   UNL     1       0.755   0.921   0.203  1.00  0.00     0.345 HD
ATOM     22  H   UNL     1       0.724  -0.061  -1.142  1.00  0.00     0.345 HD
ENDBRANCH  18  19
BRANCH  18  23
ATOM     23  C   UNL     1      -0.995  -1.097   0.685  1.00  0.00     0.011 A 
ATOM     24  C   UNL     1      -1.770   0.074   0.730  1.00  0.00     0.010 A 
ATOM     25  C   UNL     1      -1.661  -2.333   0.748  1.00  0.00     0.010 A 
ATOM     26  C   UNL     1      -3.163   0.010   0.825  1.00  0.00     0.001 A 
ATOM     27  C   UNL     1      -3.054  -2.396   0.847  1.00  0.00     0.001 A 
ATOM     28  C   UNL     1      -3.804  -1.224   0.884  1.00  0.00     0.000 A 
ENDBRANCH  18  23
ENDBRANCH  17  18
ENDBRANCH  15  17
ENDBRANCH   8  15
ENDBRANCH   4   7
ENDBRANCH   2   3
ENDBRANCH   1   2
BRANCH   1  29
ATOM     29  C   UNL     1      -7.048   1.099   6.889  1.00  0.00     0.023 C 
BRANCH  29  30
ATOM     30  C   UNL     1      -7.126   2.504   7.479  1.00  0.00     0.116 C 
BRANCH  30  31
ATOM     31  N   UNL     1      -7.447   3.532   6.501  1.00  0.00    -0.352 N 
ATOM     32  C   UNL     1      -8.442   4.484   6.507  1.00  0.00     0.251 C 
ATOM     33  H   UNL     1      -6.861   3.550   5.710  1.00  0.00     0.163 HD
ATOM     34  O   UNL     1      -8.592   5.209   5.530  1.00  0.00    -0.269 OA
BRANCH  32  35
ATOM     35  C   UNL     1      -9.357   4.606   7.666  1.00  0.00     0.039 A 
ATOM     36  C   UNL     1     -10.729   4.725   7.428  1.00  0.00     0.014 A 
ATOM     37  C   UNL     1      -8.876   4.590   8.977  1.00  0.00     0.014 A 
ATOM     38  C   UNL     1     -11.624   4.733   8.502  1.00  0.00     0.010 A 
ATOM     39  C   UNL     1      -9.772   4.520  10.042  1.00  0.00     0.010 A 
ATOM     40  C   UNL     1     -11.155   4.581   9.817  1.00  0.00    -0.014 A 
BRANCH  40  41
ATOM     41  C   UNL     1     -12.093   4.456  10.964  1.00  0.00     0.031 A 
ATOM     42  C   UNL     1     -12.084   5.476  12.070  1.00  0.00     0.074 A 
ATOM     43  C   UNL     1     -12.886   3.370  11.059  1.00  0.00     0.049 A 
ATOM     44  N   UNL     1     -12.759   5.487  13.191  1.00  0.00    -0.248 NA
ATOM     45  C   UNL     1     -11.168   6.617  11.910  1.00  0.00     0.031 C 
ATOM     46  C   UNL     1     -12.936   2.271  10.092  1.00  0.00     0.029 A 
ATOM     47  N   UNL     1     -13.787   2.998  12.027  1.00  0.00    -0.354 N 
ATOM     48  C   UNL     1     -12.330   6.614  13.882  1.00  0.00     0.074 A 
ATOM     49  C   UNL     1     -11.305   7.238  13.072  1.00  0.00     0.031 C 
ATOM     50  C   UNL     1     -13.823   1.355  10.511  1.00  0.00     0.029 A 
ATOM     51  C   UNL     1     -14.384   1.783  11.789  1.00  0.00     0.049 A 
ATOM     52  H   UNL     1     -13.987   3.551  12.817  1.00  0.00     0.167 HD
ATOM     53  C   UNL     1     -12.763   7.095  15.072  1.00  0.00     0.037 A 
ATOM     54  C   UNL     1     -15.274   1.083  12.520  1.00  0.00     0.037 A 
ATOM     55  C   UNL     1     -13.809   6.491  15.855  1.00  0.00     0.049 A 
ATOM     56  C   UNL     1     -15.781   1.661  13.812  1.00  0.00     0.074 A 
ATOM     57  C   UNL     1     -14.384   6.952  17.026  1.00  0.00     0.029 A 
ATOM     58  N   UNL     1     -14.435   5.291  15.549  1.00  0.00    -0.354 N 
ATOM     59  N   UNL     1     -15.430   2.776  14.407  1.00  0.00    -0.248 NA
ATOM     60  C   UNL     1     -16.810   0.895  14.526  1.00  0.00     0.031 C 
ATOM     61  C   UNL     1     -15.332   6.013  17.448  1.00  0.00     0.029 A 
ATOM     62  C   UNL     1     -15.377   4.986  16.518  1.00  0.00     0.049 A 
ATOM     63  H   UNL     1     -14.239   4.737  14.758  1.00  0.00     0.167 HD
ATOM     64  C   UNL     1     -16.207   2.854  15.557  1.00  0.00     0.074 A 
ATOM     65  C   UNL     1     -17.057   1.681  15.566  1.00  0.00     0.031 C 
ATOM     66  C   UNL     1     -16.216   3.813  16.516  1.00  0.00     0.037 A 
BRANCH  53  67
ATOM     67  C   UNL     1     -12.100   8.339  15.597  1.00  0.00     0.058 A 
ATOM     68  C   UNL     1     -12.295   9.592  14.993  1.00  0.00     0.135 A 
ATOM     69  C   UNL     1     -11.260   8.279  16.721  1.00  0.00     0.135 A 
ATOM     70  F   UNL     1     -13.078   9.704  13.908  1.00  0.00    -0.206 F 
ATOM     71  C   UNL     1     -11.647  10.732  15.455  1.00  0.00     0.059 A 
ATOM     72  C   UNL     1     -10.623   9.413  17.219  1.00  0.00     0.059 A 
ATOM     73  F   UNL     1     -11.041   7.109  17.341  1.00  0.00    -0.206 F 
ATOM     74  C   UNL     1     -10.806  10.631  16.565  1.00  0.00     0.060 A 
BRANCH  74  75
ATOM     75  S   UNL     1      -9.951  12.113  17.140  1.00  0.00     0.124 S 
ATOM     76  O   UNL     1      -8.894  12.243  16.140  1.00  0.00    -0.237 OA
ATOM     77  O   UNL     1     -11.001  13.124  17.084  1.00  0.00    -0.237 OA
ATOM     78  O   UNL     1      -9.506  11.749  18.481  1.00  0.00    -0.744 OA
ENDBRANCH  74  75
ENDBRANCH  53  67
BRANCH  54  79
ATOM     79  C   UNL     1     -15.757  -0.232  12.023  1.00  0.00     0.058 A 
ATOM     80  C   UNL     1     -17.046  -0.373  11.490  1.00  0.00     0.135 A 
ATOM     81  C   UNL     1     -14.921  -1.360  12.025  1.00  0.00     0.135 A 
ATOM     82  F   UNL     1     -17.883   0.675  11.473  1.00  0.00    -0.206 F 
ATOM     83  C   UNL     1     -17.493  -1.587  10.977  1.00  0.00     0.059 A 
ATOM     84  C   UNL     1     -15.338  -2.579  11.499  1.00  0.00     0.059 A 
ATOM     85  F   UNL     1     -13.673  -1.270  12.508  1.00  0.00    -0.206 F 
ATOM     86  C   UNL     1     -16.628  -2.683  10.980  1.00  0.00     0.060 A 
BRANCH  86  87
ATOM     87  S   UNL     1     -17.188  -4.231  10.236  1.00  0.00     0.124 S 
ATOM     88  O   UNL     1     -18.103  -4.733  11.254  1.00  0.00    -0.237 OA
ATOM     89  O   UNL     1     -17.803  -3.771   8.995  1.00  0.00    -0.237 OA
ATOM     90  O   UNL     1     -15.951  -4.988  10.068  1.00  0.00    -0.744 OA
ENDBRANCH  86  87
ENDBRANCH  54  79
BRANCH  66  91
ATOM     91  C   UNL     1     -17.187   3.646  17.651  1.00  0.00     0.058 A 
ATOM     92  C   UNL     1     -16.974   2.704  18.669  1.00  0.00     0.135 A 
ATOM     93  C   UNL     1     -18.315   4.476  17.750  1.00  0.00     0.135 A 
ATOM     94  F   UNL     1     -15.915   1.882  18.618  1.00  0.00    -0.206 F 
ATOM     95  C   UNL     1     -17.856   2.578  19.738  1.00  0.00     0.059 A 
ATOM     96  C   UNL     1     -19.198   4.384  18.821  1.00  0.00     0.059 A 
ATOM     97  F   UNL     1     -18.559   5.400  16.806  1.00  0.00    -0.206 F 
ATOM     98  C   UNL     1     -18.965   3.424  19.805  1.00  0.00     0.060 A 
BRANCH  98  99
ATOM     99  S   UNL     1     -20.084   3.278  21.215  1.00  0.00     0.124 S 
ATOM    100  O   UNL     1     -20.827   2.068  20.876  1.00  0.00    -0.237 OA
ATOM    101  O   UNL     1     -19.160   3.160  22.339  1.00  0.00    -0.237 OA
ATOM    102  O   UNL     1     -20.850   4.519  21.170  1.00  0.00    -0.744 OA
ENDBRANCH  98  99
ENDBRANCH  66  91
ENDBRANCH  40  41
ENDBRANCH  32  35
ENDBRANCH  30  31
ENDBRANCH  29  30
ENDBRANCH   1  29
TORSDOF 19
