REMARK SMILES C[C@H]([NH2+]CCc1ccco1)[C@@H](C)C(=O)NCCCCNC(=O)c1ccc(-c2c3nc(c(-c4c(F)cc(S(=O)(=O)[O-])cc4F)c4ccc([nH]4)c(-c4c(F)cc(S(=O)(=O)[O-])cc4F)c4nc(c(-c5c(F)cc(S(=O)(=O)[O-])cc5F)c5ccc2[nH]5)C=C4)C=C3)cc1
REMARK SMILES IDX 16 1 15 2 13 3 14 4 11 6 12 7 2 8 1 9 3 10 4 13 5 14 6 15
REMARK SMILES IDX 7 16 10 17 8 18 9 19 17 20 18 21 19 22 20 23 21 24 22 26
REMARK SMILES IDX 23 27 24 28 88 29 25 30 87 31 26 32 27 33 28 34 81 35 29 36
REMARK SMILES IDX 86 37 80 38 82 39 30 40 85 41 79 42 78 43 31 45 65 46 44 47
REMARK SMILES IDX 64 48 45 49 48 50 63 51 83 52 46 53 47 54 62 56 84 57 49 58
REMARK SMILES IDX 32 59 33 60 42 61 34 62 35 63 41 64 43 65 36 66 37 67 38 68
REMARK SMILES IDX 39 69 40 70 66 71 67 72 76 73 68 74 69 75 75 76 77 77 70 78
REMARK SMILES IDX 71 79 72 80 73 81 74 82 50 83 51 84 60 85 52 86 53 87 59 88
REMARK SMILES IDX 61 89 54 90 55 91 56 92 57 93 58 94
REMARK H PARENT 15 5 3 11 3 12 20 25 82 44 48 55
REMARK Flexibility Score: inf
ROOT
ATOM      1  C   UNL     1      -0.326   2.818  -3.026  1.00  0.00     0.116 C 
ENDROOT
BRANCH   1   2
ATOM      2  N   UNL     1      -1.173   1.707  -3.419  1.00  0.00    -0.356 N 
ATOM      3  C   UNL     1      -1.478   0.541  -2.786  1.00  0.00     0.228 C 
ATOM      4  O   UNL     1      -2.224  -0.245  -3.378  1.00  0.00    -0.275 OA
ATOM      5  H   UNL     1      -1.601   1.815  -4.299  1.00  0.00     0.163 HD
BRANCH   3   6
ATOM      6  C   UNL     1      -0.954   0.197  -1.393  1.00  0.00     0.133 C 
ATOM      7  C   UNL     1      -1.585   1.122  -0.346  1.00  0.00     0.024 C 
BRANCH   6   8
ATOM      8  C   UNL     1       0.589   0.093  -1.356  1.00  0.00     0.191 C 
ATOM      9  C   UNL     1       1.063  -1.093  -2.214  1.00  0.00     0.076 C 
BRANCH   8  10
ATOM     10  N   UNL     1       1.073  -0.040   0.029  1.00  0.00    -0.343 N 
ATOM     11  H   UNL     1       1.038  -1.024   0.298  1.00  0.00     0.346 HD
ATOM     12  H   UNL     1       0.474   0.527   0.629  1.00  0.00     0.346 HD
BRANCH  10  13
ATOM     13  C   UNL     1       2.455   0.444   0.178  1.00  0.00     0.268 C 
BRANCH  13  14
ATOM     14  C   UNL     1       2.984   0.273   1.608  1.00  0.00     0.136 C 
BRANCH  14  15
ATOM     15  C   UNL     1       3.009  -1.140   2.079  1.00  0.00     0.109 A 
ATOM     16  C   UNL     1       2.859  -1.714   3.324  1.00  0.00     0.046 A 
ATOM     17  O   UNL     1       3.203  -2.111   1.140  1.00  0.00    -0.469 OA
ATOM     18  C   UNL     1       2.941  -3.114   3.130  1.00  0.00     0.042 A 
ATOM     19  C   UNL     1       3.146  -3.303   1.784  1.00  0.00     0.195 A 
ENDBRANCH  14  15
ENDBRANCH  13  14
ENDBRANCH  10  13
ENDBRANCH   8  10
ENDBRANCH   6   8
ENDBRANCH   3   6
ENDBRANCH   1   2
BRANCH   1  20
ATOM     20  C   UNL     1       0.990   2.841  -3.805  1.00  0.00     0.023 C 
BRANCH  20  21
ATOM     21  C   UNL     1       0.855   3.192  -5.286  1.00  0.00     0.023 C 
BRANCH  21  22
ATOM     22  C   UNL     1       0.142   4.505  -5.581  1.00  0.00     0.116 C 
BRANCH  22  23
ATOM     23  N   UNL     1       0.742   5.650  -4.913  1.00  0.00    -0.352 N 
ATOM     24  C   UNL     1       0.937   6.920  -5.401  1.00  0.00     0.251 C 
ATOM     25  H   UNL     1       1.049   5.494  -3.991  1.00  0.00     0.163 HD
ATOM     26  O   UNL     1       1.557   7.748  -4.740  1.00  0.00    -0.269 OA
BRANCH  24  27
ATOM     27  C   UNL     1       0.427   7.262  -6.744  1.00  0.00     0.039 A 
ATOM     28  C   UNL     1       1.293   7.859  -7.663  1.00  0.00     0.014 A 
ATOM     29  C   UNL     1      -0.884   6.945  -7.109  1.00  0.00     0.014 A 
ATOM     30  C   UNL     1       0.866   8.067  -8.976  1.00  0.00     0.010 A 
ATOM     31  C   UNL     1      -1.284   7.088  -8.433  1.00  0.00     0.010 A 
ATOM     32  C   UNL     1      -0.411   7.645  -9.381  1.00  0.00    -0.014 A 
BRANCH  32  33
ATOM     33  C   UNL     1      -0.853   7.766 -10.793  1.00  0.00     0.031 A 
ATOM     34  C   UNL     1      -2.009   8.660 -11.144  1.00  0.00     0.074 A 
ATOM     35  C   UNL     1      -0.263   7.013 -11.742  1.00  0.00     0.049 A 
ATOM     36  N   UNL     1      -2.599   8.831 -12.299  1.00  0.00    -0.248 NA
ATOM     37  C   UNL     1      -2.598   9.443 -10.046  1.00  0.00     0.031 C 
ATOM     38  C   UNL     1       0.836   6.072 -11.516  1.00  0.00     0.029 A 
ATOM     39  N   UNL     1      -0.513   6.912 -13.088  1.00  0.00    -0.354 N 
ATOM     40  C   UNL     1      -3.634   9.727 -12.065  1.00  0.00     0.074 A 
ATOM     41  C   UNL     1      -3.625  10.024 -10.649  1.00  0.00     0.031 C 
ATOM     42  C   UNL     1       1.180   5.507 -12.685  1.00  0.00     0.029 A 
ATOM     43  C   UNL     1       0.304   6.016 -13.736  1.00  0.00     0.049 A 
ATOM     44  H   UNL     1      -1.212   7.432 -13.546  1.00  0.00     0.167 HD
ATOM     45  C   UNL     1      -4.500  10.272 -12.953  1.00  0.00     0.037 A 
ATOM     46  C   UNL     1       0.340   5.644 -15.030  1.00  0.00     0.037 A 
ATOM     47  C   UNL     1      -4.488   9.994 -14.365  1.00  0.00     0.049 A 
ATOM     48  C   UNL     1      -0.629   6.265 -15.999  1.00  0.00     0.074 A 
ATOM     49  C   UNL     1      -5.288  10.533 -15.356  1.00  0.00     0.029 A 
ATOM     50  N   UNL     1      -3.629   9.099 -14.987  1.00  0.00    -0.354 N 
ATOM     51  N   UNL     1      -1.569   7.151 -15.769  1.00  0.00    -0.248 NA
ATOM     52  C   UNL     1      -0.532   5.838 -17.401  1.00  0.00     0.031 C 
ATOM     53  C   UNL     1      -4.934   9.942 -16.574  1.00  0.00     0.029 A 
ATOM     54  C   UNL     1      -3.888   9.062 -16.347  1.00  0.00     0.049 A 
ATOM     55  H   UNL     1      -2.937   8.569 -14.529  1.00  0.00     0.167 HD
ATOM     56  C   UNL     1      -2.157   7.408 -17.002  1.00  0.00     0.074 A 
ATOM     57  C   UNL     1      -1.463   6.589 -17.975  1.00  0.00     0.031 C 
ATOM     58  C   UNL     1      -3.180   8.246 -17.302  1.00  0.00     0.037 A 
BRANCH  45  59
ATOM     59  C   UNL     1      -5.527  11.231 -12.417  1.00  0.00     0.058 A 
ATOM     60  C   UNL     1      -5.168  12.510 -11.963  1.00  0.00     0.135 A 
ATOM     61  C   UNL     1      -6.883  10.874 -12.367  1.00  0.00     0.135 A 
ATOM     62  F   UNL     1      -3.882  12.896 -11.973  1.00  0.00    -0.206 F 
ATOM     63  C   UNL     1      -6.113  13.389 -11.444  1.00  0.00     0.059 A 
ATOM     64  C   UNL     1      -7.850  11.748 -11.877  1.00  0.00     0.059 A 
ATOM     65  F   UNL     1      -7.281   9.663 -12.789  1.00  0.00    -0.206 F 
ATOM     66  C   UNL     1      -7.452  12.997 -11.401  1.00  0.00     0.060 A 
BRANCH  66  67
ATOM     67  S   UNL     1      -8.665  14.143 -10.714  1.00  0.00     0.124 S 
ATOM     68  O   UNL     1      -8.399  14.023  -9.284  1.00  0.00    -0.237 OA
ATOM     69  O   UNL     1      -8.281  15.411 -11.325  1.00  0.00    -0.237 OA
ATOM     70  O   UNL     1      -9.941  13.595 -11.164  1.00  0.00    -0.744 OA
ENDBRANCH  66  67
ENDBRANCH  45  59
BRANCH  46  71
ATOM     71  C   UNL     1       1.351   4.656 -15.491  1.00  0.00     0.058 A 
ATOM     72  C   UNL     1       2.442   5.060 -16.273  1.00  0.00     0.135 A 
ATOM     73  C   UNL     1       1.258   3.299 -15.146  1.00  0.00     0.135 A 
ATOM     74  F   UNL     1       2.570   6.346 -16.632  1.00  0.00    -0.206 F 
ATOM     75  C   UNL     1       3.401   4.152 -16.709  1.00  0.00     0.059 A 
ATOM     76  C   UNL     1       2.216   2.376 -15.552  1.00  0.00     0.059 A 
ATOM     77  F   UNL     1       0.241   2.866 -14.384  1.00  0.00    -0.206 F 
ATOM     78  C   UNL     1       3.280   2.811 -16.342  1.00  0.00     0.060 A 
BRANCH  78  79
ATOM     79  S   UNL     1       4.560   1.649 -16.868  1.00  0.00     0.124 S 
ATOM     80  O   UNL     1       4.233   1.473 -18.278  1.00  0.00    -0.237 OA
ATOM     81  O   UNL     1       5.785   2.391 -16.584  1.00  0.00    -0.237 OA
ATOM     82  O   UNL     1       4.328   0.488 -16.014  1.00  0.00    -0.744 OA
ENDBRANCH  78  79
ENDBRANCH  46  71
BRANCH  58  83
ATOM     83  C   UNL     1      -3.589   8.348 -18.744  1.00  0.00     0.058 A 
ATOM     84  C   UNL     1      -4.324   7.332 -19.373  1.00  0.00     0.135 A 
ATOM     85  C   UNL     1      -3.289   9.500 -19.487  1.00  0.00     0.135 A 
ATOM     86  F   UNL     1      -4.629   6.207 -18.706  1.00  0.00    -0.206 F 
ATOM     87  C   UNL     1      -4.734   7.447 -20.697  1.00  0.00     0.059 A 
ATOM     88  C   UNL     1      -3.709   9.647 -20.805  1.00  0.00     0.059 A 
ATOM     89  F   UNL     1      -2.596  10.505 -18.928  1.00  0.00    -0.206 F 
ATOM     90  C   UNL     1      -4.423   8.610 -21.405  1.00  0.00     0.060 A 
BRANCH  90  91
ATOM     91  S   UNL     1      -4.996   8.767 -23.110  1.00  0.00     0.124 S 
ATOM     92  O   UNL     1      -4.058   7.899 -23.815  1.00  0.00    -0.237 OA
ATOM     93  O   UNL     1      -6.370   8.280 -23.026  1.00  0.00    -0.237 OA
ATOM     94  O   UNL     1      -4.859  10.194 -23.383  1.00  0.00    -0.744 OA
ENDBRANCH  90  91
ENDBRANCH  58  83
ENDBRANCH  32  33
ENDBRANCH  24  27
ENDBRANCH  22  23
ENDBRANCH  21  22
ENDBRANCH  20  21
ENDBRANCH   1  20
TORSDOF 19
