REMARK SMILES CC[NH2+]C(C)(C)C(=O)N[C@@](C)(C(=O)NCCCCNC(=O)c1ccc(-c2c3nc(c(-c4c(F)cc(S(=O)(=O)[O-])cc4F)c4ccc([nH]4)c(-c4c(F)cc(S(=O)(=O)[O-])cc4F)c4nc(c(-c5c(F)cc(S(=O)(=O)[O-])cc5F)c5ccc2[nH]5)C=C4)C=C3)cc1)C(F)(F)F
REMARK SMILES IDX 16 1 15 2 14 3 12 4 13 5 10 7 11 8 9 9 7 10 8 11 4 13 5 14
REMARK SMILES IDX 6 15 3 16 2 19 1 20 88 21 89 22 90 23 91 24 17 25 18 26
REMARK SMILES IDX 19 27 20 28 21 30 22 31 23 32 87 33 24 34 86 35 25 36 26 37
REMARK SMILES IDX 27 38 80 39 28 40 85 41 79 42 81 43 29 44 84 45 78 46 77 47
REMARK SMILES IDX 30 49 64 50 43 51 63 52 44 53 47 54 62 55 82 56 45 57 46 58
REMARK SMILES IDX 61 60 83 61 48 62 31 63 32 64 41 65 33 66 34 67 40 68 42 69
REMARK SMILES IDX 35 70 36 71 37 72 38 73 39 74 65 75 66 76 75 77 67 78 68 79
REMARK SMILES IDX 74 80 76 81 69 82 70 83 71 84 72 85 73 86 49 87 50 88 59 89
REMARK SMILES IDX 51 90 52 91 58 92 60 93 53 94 54 95 55 96 56 97 57 98
REMARK H PARENT 14 6 9 12 3 17 3 18 19 29 81 48 47 59
REMARK Flexibility Score: inf
ROOT
ATOM      1  C   UNL     1      -4.834   5.305   2.482  1.00  0.00     0.023 C 
ENDROOT
BRANCH   1   2
ATOM      2  C   UNL     1      -3.868   6.428   2.121  1.00  0.00     0.116 C 
BRANCH   2   3
ATOM      3  N   UNL     1      -2.716   6.464   3.007  1.00  0.00    -0.354 N 
ATOM      4  C   UNL     1      -1.366   6.490   2.808  1.00  0.00     0.254 C 
ATOM      5  O   UNL     1      -0.692   6.540   3.841  1.00  0.00    -0.272 OA
ATOM      6  H   UNL     1      -2.964   6.472   3.960  1.00  0.00     0.163 HD
BRANCH   4   7
ATOM      7  C   UNL     1      -0.714   6.428   1.407  1.00  0.00     0.212 C 
ATOM      8  C   UNL     1      -1.238   7.552   0.481  1.00  0.00     0.056 C 
BRANCH   7   9
ATOM      9  N   UNL     1      -1.169   5.101   0.807  1.00  0.00    -0.329 N 
ATOM     10  C   UNL     1      -0.748   3.851   0.472  1.00  0.00     0.281 C 
ATOM     11  O   UNL     1      -1.680   3.084   0.198  1.00  0.00    -0.268 OA
ATOM     12  H   UNL     1      -2.123   5.177   0.577  1.00  0.00     0.165 HD
BRANCH  10  13
ATOM     13  C   UNL     1       0.737   3.418   0.386  1.00  0.00     0.169 C 
ATOM     14  C   UNL     1       1.362   3.456   1.785  1.00  0.00     0.090 C 
ATOM     15  C   UNL     1       1.409   4.364  -0.633  1.00  0.00     0.090 C 
BRANCH  13  16
ATOM     16  N   UNL     1       0.956   2.082  -0.247  1.00  0.00    -0.334 N 
ATOM     17  H   UNL     1       0.539   2.119  -1.177  1.00  0.00     0.347 HD
ATOM     18  H   UNL     1       1.968   1.954  -0.211  1.00  0.00     0.347 HD
BRANCH  16  19
ATOM     19  C   UNL     1       0.423   0.896   0.417  1.00  0.00     0.257 C 
ATOM     20  C   UNL     1       0.936  -0.339  -0.319  1.00  0.00     0.071 C 
ENDBRANCH  16  19
ENDBRANCH  13  16
ENDBRANCH  10  13
ENDBRANCH   7   9
BRANCH   7  21
ATOM     21  C   UNL     1       0.782   6.817   1.639  1.00  0.00     0.420 C 
ATOM     22  F   UNL     1       1.491   5.989   2.422  1.00  0.00    -0.168 F 
ATOM     23  F   UNL     1       1.457   6.914   0.466  1.00  0.00    -0.168 F 
ATOM     24  F   UNL     1       0.881   8.056   2.194  1.00  0.00    -0.168 F 
ENDBRANCH   7  21
ENDBRANCH   4   7
ENDBRANCH   2   3
ENDBRANCH   1   2
BRANCH   1  25
ATOM     25  C   UNL     1      -5.505   5.446   3.848  1.00  0.00     0.023 C 
BRANCH  25  26
ATOM     26  C   UNL     1      -6.195   6.782   4.099  1.00  0.00     0.116 C 
BRANCH  26  27
ATOM     27  N   UNL     1      -7.212   7.092   3.105  1.00  0.00    -0.352 N 
ATOM     28  C   UNL     1      -8.506   7.512   3.295  1.00  0.00     0.251 C 
ATOM     29  H   UNL     1      -6.934   6.985   2.167  1.00  0.00     0.163 HD
ATOM     30  O   UNL     1      -9.269   7.590   2.335  1.00  0.00    -0.269 OA
BRANCH  28  31
ATOM     31  C   UNL     1      -8.981   7.836   4.656  1.00  0.00     0.039 A 
ATOM     32  C   UNL     1     -10.210   7.328   5.080  1.00  0.00     0.014 A 
ATOM     33  C   UNL     1      -8.206   8.616   5.519  1.00  0.00     0.014 A 
ATOM     34  C   UNL     1     -10.630   7.547   6.394  1.00  0.00     0.010 A 
ATOM     35  C   UNL     1      -8.586   8.761   6.850  1.00  0.00     0.010 A 
ATOM     36  C   UNL     1      -9.804   8.232   7.302  1.00  0.00    -0.014 A 
BRANCH  36  37
ATOM     37  C   UNL     1     -10.200   8.397   8.725  1.00  0.00     0.031 A 
ATOM     38  C   UNL     1     -10.417   9.772   9.297  1.00  0.00     0.074 A 
ATOM     39  C   UNL     1     -10.311   7.310   9.516  1.00  0.00     0.049 A 
ATOM     40  N   UNL     1     -10.726  10.117  10.521  1.00  0.00    -0.248 NA
ATOM     41  C   UNL     1     -10.239  10.910   8.382  1.00  0.00     0.031 C 
ATOM     42  C   UNL     1     -10.071   5.928   9.093  1.00  0.00     0.029 A 
ATOM     43  N   UNL     1     -10.648   7.195  10.841  1.00  0.00    -0.354 N 
ATOM     44  C   UNL     1     -10.770  11.506  10.524  1.00  0.00     0.074 A 
ATOM     45  C   UNL     1     -10.396  11.943   9.197  1.00  0.00     0.031 C 
ATOM     46  C   UNL     1     -10.297   5.104  10.129  1.00  0.00     0.029 A 
ATOM     47  C   UNL     1     -10.657   5.898  11.300  1.00  0.00     0.049 A 
ATOM     48  H   UNL     1     -10.864   7.968  11.411  1.00  0.00     0.167 HD
ATOM     49  C   UNL     1     -11.118  12.342  11.532  1.00  0.00     0.037 A 
ATOM     50  C   UNL     1     -10.919   5.403  12.525  1.00  0.00     0.037 A 
ATOM     51  C   UNL     1     -11.507  11.899  12.846  1.00  0.00     0.049 A 
ATOM     52  C   UNL     1     -11.297   6.351  13.631  1.00  0.00     0.074 A 
ATOM     53  C   UNL     1     -11.929  12.662  13.921  1.00  0.00     0.029 A 
ATOM     54  N   UNL     1     -11.518  10.576  13.268  1.00  0.00    -0.354 N 
ATOM     55  N   UNL     1     -11.402   7.659  13.597  1.00  0.00    -0.248 NA
ATOM     56  C   UNL     1     -11.602   5.758  14.940  1.00  0.00     0.031 C 
ATOM     57  C   UNL     1     -12.145  11.807  15.007  1.00  0.00     0.029 A 
ATOM     58  C   UNL     1     -11.917  10.505  14.593  1.00  0.00     0.049 A 
ATOM     59  H   UNL     1     -11.279   9.803  12.707  1.00  0.00     0.167 HD
ATOM     60  C   UNL     1     -11.813   8.041  14.869  1.00  0.00     0.074 A 
ATOM     61  C   UNL     1     -11.953   6.825  15.644  1.00  0.00     0.031 C 
ATOM     62  C   UNL     1     -12.056   9.286  15.352  1.00  0.00     0.037 A 
BRANCH  49  63
ATOM     63  C   UNL     1     -11.098  13.821  11.252  1.00  0.00     0.058 A 
ATOM     64  C   UNL     1     -12.025  14.421  10.383  1.00  0.00     0.135 A 
ATOM     65  C   UNL     1     -10.165  14.657  11.888  1.00  0.00     0.135 A 
ATOM     66  F   UNL     1     -12.930  13.669   9.736  1.00  0.00    -0.206 F 
ATOM     67  C   UNL     1     -12.007  15.788  10.130  1.00  0.00     0.059 A 
ATOM     68  C   UNL     1     -10.150  16.032  11.675  1.00  0.00     0.059 A 
ATOM     69  F   UNL     1      -9.256  14.139  12.729  1.00  0.00    -0.206 F 
ATOM     70  C   UNL     1     -11.066  16.587  10.781  1.00  0.00     0.060 A 
BRANCH  70  71
ATOM     71  S   UNL     1     -11.062  18.360  10.445  1.00  0.00     0.124 S 
ATOM     72  O   UNL     1     -10.537  18.396   9.083  1.00  0.00    -0.237 OA
ATOM     73  O   UNL     1     -12.472  18.707  10.590  1.00  0.00    -0.237 OA
ATOM     74  O   UNL     1     -10.177  18.900  11.472  1.00  0.00    -0.744 OA
ENDBRANCH  70  71
ENDBRANCH  49  63
BRANCH  50  75
ATOM     75  C   UNL     1     -10.854   3.936  12.765  1.00  0.00     0.058 A 
ATOM     76  C   UNL     1     -12.016   3.192  13.019  1.00  0.00     0.135 A 
ATOM     77  C   UNL     1      -9.632   3.246  12.736  1.00  0.00     0.135 A 
ATOM     78  F   UNL     1     -13.209   3.805  13.064  1.00  0.00    -0.206 F 
ATOM     79  C   UNL     1     -11.968   1.821  13.256  1.00  0.00     0.059 A 
ATOM     80  C   UNL     1      -9.561   1.872  12.940  1.00  0.00     0.059 A 
ATOM     81  F   UNL     1      -8.492   3.907  12.480  1.00  0.00    -0.206 F 
ATOM     82  C   UNL     1     -10.735   1.169  13.211  1.00  0.00     0.060 A 
BRANCH  82  83
ATOM     83  S   UNL     1     -10.690  -0.617  13.473  1.00  0.00     0.124 S 
ATOM     84  O   UNL     1     -10.962  -0.711  14.903  1.00  0.00    -0.237 OA
ATOM     85  O   UNL     1     -11.752  -1.082  12.588  1.00  0.00    -0.237 OA
ATOM     86  O   UNL     1      -9.337  -0.982  13.063  1.00  0.00    -0.744 OA
ENDBRANCH  82  83
ENDBRANCH  50  75
BRANCH  62  87
ATOM     87  C   UNL     1     -12.534   9.396  16.775  1.00  0.00     0.058 A 
ATOM     88  C   UNL     1     -11.687   9.138  17.864  1.00  0.00     0.135 A 
ATOM     89  C   UNL     1     -13.848   9.808  17.051  1.00  0.00     0.135 A 
ATOM     90  F   UNL     1     -10.423   8.737  17.658  1.00  0.00    -0.206 F 
ATOM     91  C   UNL     1     -12.135   9.254  19.176  1.00  0.00     0.059 A 
ATOM     92  C   UNL     1     -14.308   9.963  18.355  1.00  0.00     0.059 A 
ATOM     93  F   UNL     1     -14.697  10.080  16.047  1.00  0.00    -0.206 F 
ATOM     94  C   UNL     1     -13.448   9.668  19.411  1.00  0.00     0.060 A 
BRANCH  94  95
ATOM     95  S   UNL     1     -14.009   9.838  21.119  1.00  0.00     0.124 S 
ATOM     96  O   UNL     1     -14.133   8.442  21.527  1.00  0.00    -0.237 OA
ATOM     97  O   UNL     1     -12.915  10.583  21.734  1.00  0.00    -0.237 OA
ATOM     98  O   UNL     1     -15.266  10.569  20.993  1.00  0.00    -0.744 OA
ENDBRANCH  94  95
ENDBRANCH  62  87
ENDBRANCH  36  37
ENDBRANCH  28  31
ENDBRANCH  26  27
ENDBRANCH  25  26
ENDBRANCH   1  25
TORSDOF 19
