REMARK SMILES O=C(NCCCCNC(=O)c1cn(-c2cc(Cl)ncn2)cn1)c1ccc(-c2c3nc(c(-c4c(F)cc(S(=O)(=O)[O-])cc4F)c4ccc([nH]4)c(-c4c(F)cc(S(=O)(=O)[O-])cc4F)c4nc(c(-c5c(F)cc(S(=O)(=O)[O-])cc5F)c5ccc2[nH]5)C=C4)C=C3)cc1
REMARK SMILES IDX 4 1 3 2 1 3 2 4 23 6 24 7 88 8 25 9 87 10 26 11 27 12 28 13
REMARK SMILES IDX 81 14 29 15 86 16 80 17 82 18 30 19 85 20 79 21 78 22 31 24
REMARK SMILES IDX 65 25 44 26 64 27 45 28 48 29 63 30 83 31 46 32 47 33 62 35
REMARK SMILES IDX 84 36 49 37 32 38 33 39 42 40 34 41 35 42 41 43 43 44 36 45
REMARK SMILES IDX 37 46 38 47 39 48 40 49 66 50 67 51 76 52 68 53 69 54 75 55
REMARK SMILES IDX 77 56 70 57 71 58 72 59 73 60 74 61 50 62 51 63 60 64 52 65
REMARK SMILES IDX 53 66 59 67 61 68 54 69 55 70 56 71 57 72 58 73 5 74 6 75
REMARK SMILES IDX 7 76 8 77 9 78 10 80 11 81 12 82 22 83 13 84 21 85 14 86
REMARK SMILES IDX 15 87 20 88 16 89 19 90 17 91 18 92
REMARK H PARENT 3 5 82 23 48 34 8 79
REMARK Flexibility Score: inf
ROOT
ATOM      1  C   UNL     1       4.775  -1.202  -0.037  1.00  0.00     0.116 C 
ENDROOT
BRANCH   1   2
ATOM      2  N   UNL     1       3.387  -1.069  -0.429  1.00  0.00    -0.352 N 
ATOM      3  O   UNL     1       1.300  -0.382  -0.654  1.00  0.00    -0.269 OA
ATOM      4  C   UNL     1       2.332  -0.320   0.020  1.00  0.00     0.251 C 
ATOM      5  H   UNL     1       3.148  -1.647  -1.190  1.00  0.00     0.163 HD
BRANCH   4   6
ATOM      6  C   UNL     1       2.335   0.505   1.260  1.00  0.00     0.039 A 
ATOM      7  C   UNL     1       3.474   0.914   1.954  1.00  0.00     0.014 A 
ATOM      8  C   UNL     1       1.076   0.908   1.745  1.00  0.00     0.014 A 
ATOM      9  C   UNL     1       3.364   1.644   3.135  1.00  0.00     0.010 A 
ATOM     10  C   UNL     1       0.961   1.664   2.910  1.00  0.00     0.010 A 
ATOM     11  C   UNL     1       2.109   2.018   3.616  1.00  0.00    -0.014 A 
BRANCH  11  12
ATOM     12  C   UNL     1       2.066   2.936   4.756  1.00  0.00     0.031 A 
ATOM     13  C   UNL     1       2.603   4.303   4.494  1.00  0.00     0.074 A 
ATOM     14  C   UNL     1       1.428   2.673   5.913  1.00  0.00     0.049 A 
ATOM     15  N   UNL     1       3.537   4.943   5.124  1.00  0.00    -0.248 NA
ATOM     16  C   UNL     1       2.071   5.024   3.326  1.00  0.00     0.031 C 
ATOM     17  C   UNL     1       0.582   1.516   6.207  1.00  0.00     0.029 A 
ATOM     18  N   UNL     1       1.295   3.454   7.029  1.00  0.00    -0.354 N 
ATOM     19  C   UNL     1       3.554   6.225   4.576  1.00  0.00     0.074 A 
ATOM     20  C   UNL     1       2.748   6.170   3.385  1.00  0.00     0.031 C 
ATOM     21  C   UNL     1      -0.144   1.774   7.316  1.00  0.00     0.029 A 
ATOM     22  C   UNL     1       0.257   3.060   7.864  1.00  0.00     0.049 A 
ATOM     23  H   UNL     1       1.880   4.223   7.221  1.00  0.00     0.167 HD
ATOM     24  C   UNL     1       4.030   7.299   5.264  1.00  0.00     0.037 A 
ATOM     25  C   UNL     1      -0.298   3.772   8.876  1.00  0.00     0.037 A 
ATOM     26  C   UNL     1       4.906   6.907   6.338  1.00  0.00     0.049 A 
ATOM     27  C   UNL     1       0.669   4.819   9.291  1.00  0.00     0.074 A 
ATOM     28  C   UNL     1       6.064   6.160   6.438  1.00  0.00     0.029 A 
ATOM     29  N   UNL     1       4.463   7.075   7.626  1.00  0.00    -0.354 N 
ATOM     30  N   UNL     1       1.797   4.587   9.904  1.00  0.00    -0.248 NA
ATOM     31  C   UNL     1       0.531   6.156   8.733  1.00  0.00     0.031 C 
ATOM     32  C   UNL     1       6.005   5.538   7.719  1.00  0.00     0.029 A 
ATOM     33  C   UNL     1       4.825   5.959   8.332  1.00  0.00     0.049 A 
ATOM     34  H   UNL     1       3.975   7.854   7.978  1.00  0.00     0.167 HD
ATOM     35  C   UNL     1       2.654   5.578   9.455  1.00  0.00     0.074 A 
ATOM     36  C   UNL     1       1.788   6.585   8.857  1.00  0.00     0.031 C 
ATOM     37  C   UNL     1       3.997   5.354   9.351  1.00  0.00     0.037 A 
BRANCH  24  38
ATOM     38  C   UNL     1       3.393   8.676   5.213  1.00  0.00     0.058 A 
ATOM     39  C   UNL     1       4.030   9.756   5.861  1.00  0.00     0.135 A 
ATOM     40  C   UNL     1       2.046   8.900   4.844  1.00  0.00     0.135 A 
ATOM     41  F   UNL     1       5.312   9.660   6.249  1.00  0.00    -0.206 F 
ATOM     42  C   UNL     1       3.347  10.918   6.224  1.00  0.00     0.059 A 
ATOM     43  C   UNL     1       1.365  10.074   5.143  1.00  0.00     0.059 A 
ATOM     44  F   UNL     1       1.292   7.955   4.270  1.00  0.00    -0.206 F 
ATOM     45  C   UNL     1       2.004  11.051   5.886  1.00  0.00     0.060 A 
BRANCH  45  46
ATOM     46  S   UNL     1       1.068  12.463   6.498  1.00  0.00     0.124 S 
ATOM     47  O   UNL     1       0.912  12.109   7.904  1.00  0.00    -0.237 OA
ATOM     48  O   UNL     1       1.968  13.575   6.213  1.00  0.00    -0.237 OA
ATOM     49  O   UNL     1      -0.150  12.427   5.695  1.00  0.00    -0.744 OA
ENDBRANCH  45  46
ENDBRANCH  24  38
BRANCH  25  50
ATOM     50  C   UNL     1      -1.711   3.769   9.343  1.00  0.00     0.058 A 
ATOM     51  C   UNL     1      -2.078   4.374  10.559  1.00  0.00     0.135 A 
ATOM     52  C   UNL     1      -2.772   3.402   8.491  1.00  0.00     0.135 A 
ATOM     53  F   UNL     1      -1.137   4.783  11.423  1.00  0.00    -0.206 F 
ATOM     54  C   UNL     1      -3.412   4.640  10.888  1.00  0.00     0.059 A 
ATOM     55  C   UNL     1      -4.109   3.633   8.808  1.00  0.00     0.059 A 
ATOM     56  F   UNL     1      -2.544   2.888   7.273  1.00  0.00    -0.206 F 
ATOM     57  C   UNL     1      -4.421   4.279   9.997  1.00  0.00     0.060 A 
BRANCH  57  58
ATOM     58  S   UNL     1      -6.127   4.768  10.334  1.00  0.00     0.124 S 
ATOM     59  O   UNL     1      -6.471   3.908  11.461  1.00  0.00    -0.237 OA
ATOM     60  O   UNL     1      -5.989   6.189  10.633  1.00  0.00    -0.237 OA
ATOM     61  O   UNL     1      -6.820   4.463   9.084  1.00  0.00    -0.744 OA
ENDBRANCH  57  58
ENDBRANCH  25  50
BRANCH  37  62
ATOM     62  C   UNL     1       4.598   4.229  10.147  1.00  0.00     0.058 A 
ATOM     63  C   UNL     1       4.261   2.874   9.995  1.00  0.00     0.135 A 
ATOM     64  C   UNL     1       5.649   4.537  11.026  1.00  0.00     0.135 A 
ATOM     65  F   UNL     1       3.350   2.484   9.091  1.00  0.00    -0.206 F 
ATOM     66  C   UNL     1       4.901   1.876  10.731  1.00  0.00     0.059 A 
ATOM     67  C   UNL     1       6.325   3.554  11.743  1.00  0.00     0.059 A 
ATOM     68  F   UNL     1       6.062   5.808  11.165  1.00  0.00    -0.206 F 
ATOM     69  C   UNL     1       5.931   2.225  11.605  1.00  0.00     0.060 A 
BRANCH  69  70
ATOM     70  S   UNL     1       6.806   0.924  12.500  1.00  0.00     0.124 S 
ATOM     71  O   UNL     1       5.836   0.552  13.524  1.00  0.00    -0.237 OA
ATOM     72  O   UNL     1       7.044  -0.073  11.460  1.00  0.00    -0.237 OA
ATOM     73  O   UNL     1       8.007   1.596  12.990  1.00  0.00    -0.744 OA
ENDBRANCH  69  70
ENDBRANCH  37  62
ENDBRANCH  11  12
ENDBRANCH   4   6
ENDBRANCH   1   2
BRANCH   1  74
ATOM     74  C   UNL     1       5.014  -2.031   1.225  1.00  0.00     0.023 C 
BRANCH  74  75
ATOM     75  C   UNL     1       4.495  -3.470   1.174  1.00  0.00     0.023 C 
BRANCH  75  76
ATOM     76  C   UNL     1       4.944  -4.292  -0.031  1.00  0.00     0.116 C 
BRANCH  76  77
ATOM     77  N   UNL     1       6.388  -4.422  -0.121  1.00  0.00    -0.351 N 
ATOM     78  C   UNL     1       7.150  -5.572  -0.202  1.00  0.00     0.271 C 
ATOM     79  H   UNL     1       6.892  -3.577  -0.126  1.00  0.00     0.163 HD
ATOM     80  O   UNL     1       8.363  -5.494  -0.256  1.00  0.00    -0.267 OA
BRANCH  78  81
ATOM     81  C   UNL     1       6.430  -6.844  -0.256  1.00  0.00     0.146 A 
ATOM     82  C   UNL     1       5.652  -7.303  -1.304  1.00  0.00     0.128 A 
ATOM     83  N   UNL     1       6.382  -7.733   0.795  1.00  0.00    -0.231 NA
ATOM     84  N   UNL     1       5.026  -8.434  -0.834  1.00  0.00    -0.290 N 
ATOM     85  C   UNL     1       5.523  -8.657   0.427  1.00  0.00     0.206 A 
BRANCH  84  86
ATOM     86  C   UNL     1       4.009  -9.196  -1.463  1.00  0.00     0.142 A 
ATOM     87  C   UNL     1       3.803  -9.087  -2.820  1.00  0.00     0.088 A 
ATOM     88  N   UNL     1       3.248  -9.985  -0.670  1.00  0.00    -0.219 NA
ATOM     89  C   UNL     1       2.760  -9.836  -3.305  1.00  0.00     0.134 A 
ATOM     90  C   UNL     1       2.229 -10.625  -1.259  1.00  0.00     0.226 A 
ATOM     91  Cl  UNL     1       2.415  -9.862  -4.987  1.00  0.00    -0.062 Cl
ATOM     92  N   UNL     1       1.944 -10.599  -2.562  1.00  0.00    -0.224 NA
ENDBRANCH  84  86
ENDBRANCH  78  81
ENDBRANCH  76  77
ENDBRANCH  75  76
ENDBRANCH  74  75
ENDBRANCH   1  74
TORSDOF 15
