REMARK SMILES CS(=O)(=O)c1ccc(N2N=C(C(=O)NCCCCNC(=O)c3ccc(-c4c5nc(c(-c6c(F)cc(S(=O)(=O)[O-])cc6F)c6ccc([nH]6)c(-c6c(F)cc(S(=O)(=O)[O-])cc6F)c6nc(c(-c7c(F)cc(S(=O)(=O)[O-])cc7F)c7ccc4[nH]7)C=C6)C=C5)cc3)C[C@H]2c2cccs2)cc1
REMARK SMILES IDX 17 1 16 2 15 3 14 4 12 5 13 6 11 8 9 9 10 10 89 11 88 12
REMARK SMILES IDX 8 13 5 14 6 15 96 16 7 17 95 18 2 19 1 20 3 21 4 22 90 23
REMARK SMILES IDX 91 24 94 25 92 26 93 27 18 28 19 29 20 30 21 32 22 33 23 34
REMARK SMILES IDX 87 35 24 36 86 37 25 38 26 39 27 40 80 41 28 42 85 43 79 44
REMARK SMILES IDX 81 45 29 46 84 47 78 48 77 49 30 51 64 52 43 53 63 54 44 55
REMARK SMILES IDX 47 56 62 57 82 58 45 59 46 60 61 62 83 63 48 64 31 65 32 66
REMARK SMILES IDX 41 67 33 68 34 69 40 70 42 71 35 72 36 73 37 74 38 75 39 76
REMARK SMILES IDX 65 77 66 78 75 79 67 80 68 81 74 82 76 83 69 84 70 85 71 86
REMARK SMILES IDX 72 87 73 88 49 89 50 90 59 91 51 92 52 93 58 94 60 95 53 96
REMARK SMILES IDX 54 97 55 98 56 99 57 100
REMARK H PARENT 14 7 19 31 81 50 47 61
REMARK Flexibility Score: inf
ROOT
ATOM      1  C   UNL     1       5.340  -3.829 -12.694  1.00  0.00     0.023 C 
ENDROOT
BRANCH   1   2
ATOM      2  C   UNL     1       5.489  -3.318 -11.267  1.00  0.00     0.023 C 
BRANCH   2   3
ATOM      3  C   UNL     1       4.496  -2.225 -10.895  1.00  0.00     0.116 C 
BRANCH   3   4
ATOM      4  N   UNL     1       3.177  -2.766 -10.634  1.00  0.00    -0.351 N 
ATOM      5  C   UNL     1       2.383  -2.865  -9.519  1.00  0.00     0.267 C 
ATOM      6  O   UNL     1       1.316  -3.464  -9.629  1.00  0.00    -0.268 OA
ATOM      7  H   UNL     1       2.756  -3.148 -11.438  1.00  0.00     0.163 HD
BRANCH   5   8
ATOM      8  C   UNL     1       2.724  -2.237  -8.177  1.00  0.00     0.128 C 
ATOM      9  N   UNL     1       2.407  -1.484  -6.206  1.00  0.00    -0.256 N 
ATOM     10  N   UNL     1       1.878  -2.258  -7.190  1.00  0.00    -0.171 NA
ATOM     11  C   UNL     1       3.757  -0.997  -6.488  1.00  0.00     0.154 C 
ATOM     12  C   UNL     1       4.020  -1.563  -7.883  1.00  0.00     0.097 C 
BRANCH   9  13
ATOM     13  C   UNL     1       1.896  -1.544  -4.916  1.00  0.00     0.060 A 
ATOM     14  C   UNL     1       0.912  -1.595  -2.288  1.00  0.00     0.067 A 
ATOM     15  C   UNL     1       1.252  -2.791  -2.925  1.00  0.00     0.022 A 
ATOM     16  C   UNL     1       1.033  -0.379  -2.957  1.00  0.00     0.022 A 
ATOM     17  C   UNL     1       1.726  -2.760  -4.242  1.00  0.00     0.029 A 
ATOM     18  C   UNL     1       1.526  -0.363  -4.261  1.00  0.00     0.029 A 
BRANCH  14  19
ATOM     19  S   UNL     1       0.340  -1.633  -0.608  1.00  0.00     0.175 S 
ATOM     20  C   UNL     1       1.032  -0.191   0.162  1.00  0.00     0.163 C 
ATOM     21  O   UNL     1       0.954  -2.780   0.032  1.00  0.00    -0.224 OA
ATOM     22  O   UNL     1      -1.101  -1.472  -0.646  1.00  0.00    -0.224 OA
ENDBRANCH  14  19
ENDBRANCH   9  13
BRANCH  11  23
ATOM     23  C   UNL     1       3.990   0.504  -6.367  1.00  0.00     0.030 A 
ATOM     24  C   UNL     1       4.357   1.196  -5.223  1.00  0.00     0.017 A 
ATOM     25  S   UNL     1       3.783   1.596  -7.681  1.00  0.00    -0.147 S 
ATOM     26  C   UNL     1       4.497   2.596  -5.440  1.00  0.00     0.012 A 
ATOM     27  C   UNL     1       4.268   2.938  -6.751  1.00  0.00     0.065 A 
ENDBRANCH  11  23
ENDBRANCH   5   8
ENDBRANCH   3   4
ENDBRANCH   2   3
ENDBRANCH   1   2
BRANCH   1  28
ATOM     28  C   UNL     1       5.424  -2.751 -13.768  1.00  0.00     0.116 C 
BRANCH  28  29
ATOM     29  N   UNL     1       6.652  -1.967 -13.705  1.00  0.00    -0.352 N 
ATOM     30  C   UNL     1       7.492  -1.624 -14.741  1.00  0.00     0.251 C 
ATOM     31  H   UNL     1       6.913  -1.644 -12.813  1.00  0.00     0.163 HD
ATOM     32  O   UNL     1       8.559  -1.062 -14.525  1.00  0.00    -0.269 OA
BRANCH  30  33
ATOM     33  C   UNL     1       7.087  -1.987 -16.112  1.00  0.00     0.039 A 
ATOM     34  C   UNL     1       7.940  -2.770 -16.890  1.00  0.00     0.014 A 
ATOM     35  C   UNL     1       5.809  -1.650 -16.564  1.00  0.00     0.014 A 
ATOM     36  C   UNL     1       7.473  -3.293 -18.098  1.00  0.00     0.010 A 
ATOM     37  C   UNL     1       5.320  -2.242 -17.721  1.00  0.00     0.010 A 
ATOM     38  C   UNL     1       6.144  -3.074 -18.496  1.00  0.00    -0.014 A 
BRANCH  38  39
ATOM     39  C   UNL     1       5.578  -3.694 -19.722  1.00  0.00     0.031 A 
ATOM     40  C   UNL     1       5.065  -2.808 -20.823  1.00  0.00     0.074 A 
ATOM     41  C   UNL     1       5.439  -5.032 -19.803  1.00  0.00     0.049 A 
ATOM     42  N   UNL     1       4.386  -3.129 -21.893  1.00  0.00    -0.248 NA
ATOM     43  C   UNL     1       5.321  -1.364 -20.683  1.00  0.00     0.031 C 
ATOM     44  C   UNL     1       5.865  -5.995 -18.784  1.00  0.00     0.029 A 
ATOM     45  N   UNL     1       4.873  -5.816 -20.779  1.00  0.00    -0.354 N 
ATOM     46  C   UNL     1       4.127  -1.930 -22.547  1.00  0.00     0.074 A 
ATOM     47  C   UNL     1       4.662  -0.871 -21.721  1.00  0.00     0.031 C 
ATOM     48  C   UNL     1       5.550  -7.236 -19.190  1.00  0.00     0.029 A 
ATOM     49  C   UNL     1       4.855  -7.158 -20.471  1.00  0.00     0.049 A 
ATOM     50  H   UNL     1       4.514  -5.452 -21.620  1.00  0.00     0.167 HD
ATOM     51  C   UNL     1       3.525  -1.732 -23.742  1.00  0.00     0.037 A 
ATOM     52  C   UNL     1       4.315  -8.201 -21.132  1.00  0.00     0.037 A 
ATOM     53  C   UNL     1       3.009  -2.793 -24.565  1.00  0.00     0.049 A 
ATOM     54  C   UNL     1       3.615  -7.953 -22.443  1.00  0.00     0.074 A 
ATOM     55  C   UNL     1       2.403  -2.701 -25.805  1.00  0.00     0.029 A 
ATOM     56  N   UNL     1       3.041  -4.140 -24.234  1.00  0.00    -0.354 N 
ATOM     57  N   UNL     1       3.417  -6.817 -23.069  1.00  0.00    -0.248 NA
ATOM     58  C   UNL     1       3.067  -9.125 -23.142  1.00  0.00     0.031 C 
ATOM     59  C   UNL     1       2.027  -3.987 -26.204  1.00  0.00     0.029 A 
ATOM     60  C   UNL     1       2.453  -4.887 -25.240  1.00  0.00     0.049 A 
ATOM     61  H   UNL     1       3.424  -4.509 -23.405  1.00  0.00     0.167 HD
ATOM     62  C   UNL     1       2.757  -7.142 -24.250  1.00  0.00     0.074 A 
ATOM     63  C   UNL     1       2.594  -8.580 -24.255  1.00  0.00     0.031 C 
ATOM     64  C   UNL     1       2.327  -6.324 -25.242  1.00  0.00     0.037 A 
BRANCH  51  65
ATOM     65  C   UNL     1       3.405  -0.317 -24.238  1.00  0.00     0.058 A 
ATOM     66  C   UNL     1       4.534   0.416 -24.638  1.00  0.00     0.135 A 
ATOM     67  C   UNL     1       2.149   0.300 -24.352  1.00  0.00     0.135 A 
ATOM     68  F   UNL     1       5.761  -0.118 -24.533  1.00  0.00    -0.206 F 
ATOM     69  C   UNL     1       4.425   1.720 -25.109  1.00  0.00     0.059 A 
ATOM     70  C   UNL     1       2.014   1.593 -24.851  1.00  0.00     0.059 A 
ATOM     71  F   UNL     1       1.037  -0.353 -23.980  1.00  0.00    -0.206 F 
ATOM     72  C   UNL     1       3.160   2.298 -25.215  1.00  0.00     0.060 A 
BRANCH  72  73
ATOM     73  S   UNL     1       3.039   3.986 -25.841  1.00  0.00     0.124 S 
ATOM     74  O   UNL     1       3.600   4.750 -24.731  1.00  0.00    -0.237 OA
ATOM     75  O   UNL     1       3.859   3.929 -27.048  1.00  0.00    -0.237 OA
ATOM     76  O   UNL     1       1.608   4.166 -26.066  1.00  0.00    -0.744 OA
ENDBRANCH  72  73
ENDBRANCH  51  65
BRANCH  52  77
ATOM     77  C   UNL     1       4.403  -9.576 -20.566  1.00  0.00     0.058 A 
ATOM     78  C   UNL     1       5.171 -10.571 -21.190  1.00  0.00     0.135 A 
ATOM     79  C   UNL     1       3.708  -9.929 -19.398  1.00  0.00     0.135 A 
ATOM     80  F   UNL     1       5.851 -10.287 -22.312  1.00  0.00    -0.206 F 
ATOM     81  C   UNL     1       5.223 -11.871 -20.698  1.00  0.00     0.059 A 
ATOM     82  C   UNL     1       3.769 -11.214 -18.868  1.00  0.00     0.059 A 
ATOM     83  F   UNL     1       2.973  -9.012 -18.749  1.00  0.00    -0.206 F 
ATOM     84  C   UNL     1       4.516 -12.184 -19.535  1.00  0.00     0.060 A 
BRANCH  84  85
ATOM     85  S   UNL     1       4.607 -13.869 -18.893  1.00  0.00     0.124 S 
ATOM     86  O   UNL     1       3.806 -14.598 -19.870  1.00  0.00    -0.237 OA
ATOM     87  O   UNL     1       6.043 -14.130 -18.921  1.00  0.00    -0.237 OA
ATOM     88  O   UNL     1       4.024 -13.752 -17.560  1.00  0.00    -0.744 OA
ENDBRANCH  84  85
ENDBRANCH  52  77
BRANCH  64  89
ATOM     89  C   UNL     1       1.692  -6.955 -26.451  1.00  0.00     0.058 A 
ATOM     90  C   UNL     1       0.399  -7.496 -26.413  1.00  0.00     0.135 A 
ATOM     91  C   UNL     1       2.357  -6.928 -27.688  1.00  0.00     0.135 A 
ATOM     92  F   UNL     1      -0.276  -7.554 -25.254  1.00  0.00    -0.206 F 
ATOM     93  C   UNL     1      -0.213  -7.993 -27.559  1.00  0.00     0.059 A 
ATOM     94  C   UNL     1       1.754  -7.391 -28.852  1.00  0.00     0.059 A 
ATOM     95  F   UNL     1       3.594  -6.413 -27.780  1.00  0.00    -0.206 F 
ATOM     96  C   UNL     1       0.469  -7.926 -28.777  1.00  0.00     0.060 A 
BRANCH  96  97
ATOM     97  S   UNL     1      -0.368  -8.505 -30.268  1.00  0.00     0.124 S 
ATOM     98  O   UNL     1      -0.370  -9.950 -30.063  1.00  0.00    -0.237 OA
ATOM     99  O   UNL     1      -1.667  -7.848 -30.171  1.00  0.00    -0.237 OA
ATOM    100  O   UNL     1       0.490  -8.026 -31.348  1.00  0.00    -0.744 OA
ENDBRANCH  96  97
ENDBRANCH  64  89
ENDBRANCH  38  39
ENDBRANCH  30  33
ENDBRANCH  28  29
ENDBRANCH   1  28
TORSDOF 17
