REMARK SMILES CCOc1ccccc1[C@H](C(=O)NCCCCNC(=O)c1ccc(-c2c3nc(c(-c4c(F)cc(S(=O)(=O)[O-])cc4F)c4ccc([nH]4)c(-c4c(F)cc(S(=O)(=O)[O-])cc4F)c4nc(c(-c5c(F)cc(S(=O)(=O)[O-])cc5F)c5ccc2[nH]5)C=C4)C=C3)cc1)[NH+]1CCC([NH+]2CCSCC2)CC1
REMARK SMILES IDX 15 1 14 2 13 3 11 4 12 5 10 7 9 8 4 9 5 10 6 11 8 12 7 13
REMARK SMILES IDX 3 14 2 15 1 16 87 17 88 18 98 19 89 21 97 22 90 23 91 24
REMARK SMILES IDX 92 25 96 26 93 28 95 29 94 30 16 31 17 32 18 33 19 34 20 36
REMARK SMILES IDX 21 37 22 38 86 39 23 40 85 41 24 42 25 43 26 44 79 45 27 46
REMARK SMILES IDX 84 47 78 48 80 49 28 50 83 51 77 52 76 53 29 55 63 56 42 57
REMARK SMILES IDX 62 58 43 59 46 60 61 61 81 62 44 63 45 64 60 66 82 67 47 68
REMARK SMILES IDX 30 69 31 70 40 71 32 72 33 73 39 74 41 75 34 76 35 77 36 78
REMARK SMILES IDX 37 79 38 80 64 81 65 82 74 83 66 84 67 85 73 86 75 87 68 88
REMARK SMILES IDX 69 89 70 90 71 91 72 92 48 93 49 94 58 95 50 96 51 97 57 98
REMARK SMILES IDX 59 99 52 100 53 101 54 102 55 103 56 104
REMARK H PARENT 13 6 87 20 91 27 18 35 80 54 46 65
REMARK Flexibility Score: inf
ROOT
ATOM      1  C   UNL     1      -0.710   1.028   3.487  1.00  0.00     0.023 C 
ENDROOT
BRANCH   1   2
ATOM      2  C   UNL     1       0.455   1.356   2.558  1.00  0.00     0.116 C 
BRANCH   2   3
ATOM      3  N   UNL     1       1.502   0.360   2.671  1.00  0.00    -0.351 N 
ATOM      4  C   UNL     1       2.409  -0.078   1.748  1.00  0.00     0.283 C 
ATOM      5  O   UNL     1       3.217  -0.914   2.165  1.00  0.00    -0.268 OA
ATOM      6  H   UNL     1       1.571  -0.070   3.555  1.00  0.00     0.163 HD
BRANCH   4   7
ATOM      7  C   UNL     1       2.327   0.399   0.270  1.00  0.00     0.309 C 
BRANCH   7   8
ATOM      8  C   UNL     1       2.453   1.916   0.035  1.00  0.00     0.061 A 
ATOM      9  C   UNL     1       3.022   2.832   0.939  1.00  0.00     0.128 A 
ATOM     10  C   UNL     1       3.036   4.203   0.657  1.00  0.00     0.047 A 
ATOM     11  C   UNL     1       2.538   4.677  -0.557  1.00  0.00     0.004 A 
ATOM     12  C   UNL     1       1.984   2.419  -1.198  1.00  0.00     0.014 A 
ATOM     13  C   UNL     1       2.025   3.783  -1.491  1.00  0.00     0.001 A 
BRANCH   9  14
ATOM     14  O   UNL     1       3.433   2.413   2.173  1.00  0.00    -0.493 OA
BRANCH  14  15
ATOM     15  C   UNL     1       4.840   2.533   2.401  1.00  0.00     0.226 C 
ATOM     16  C   UNL     1       5.337   1.213   2.963  1.00  0.00     0.049 C 
ENDBRANCH  14  15
ENDBRANCH   9  14
ENDBRANCH   7   8
BRANCH   7  17
ATOM     17  N   UNL     1       3.189  -0.378  -0.693  1.00  0.00    -0.320 N 
ATOM     18  C   UNL     1       4.609  -0.022  -0.630  1.00  0.00     0.269 C 
ATOM     19  C   UNL     1       3.012  -1.836  -0.588  1.00  0.00     0.269 C 
ATOM     20  H   UNL     1       2.851  -0.095  -1.612  1.00  0.00     0.349 HD
ATOM     21  C   UNL     1       5.381  -0.667  -1.783  1.00  0.00     0.126 C 
ATOM     22  C   UNL     1       3.763  -2.574  -1.704  1.00  0.00     0.126 C 
ATOM     23  C   UNL     1       5.259  -2.197  -1.711  1.00  0.00     0.195 C 
BRANCH  23  24
ATOM     24  N   UNL     1       6.050  -2.954  -2.719  1.00  0.00    -0.331 N 
ATOM     25  C   UNL     1       7.499  -2.682  -2.579  1.00  0.00     0.273 C 
ATOM     26  C   UNL     1       5.604  -2.754  -4.109  1.00  0.00     0.273 C 
ATOM     27  H   UNL     1       5.877  -3.938  -2.514  1.00  0.00     0.348 HD
ATOM     28  C   UNL     1       8.402  -3.602  -3.411  1.00  0.00     0.131 C 
ATOM     29  C   UNL     1       6.283  -3.699  -5.111  1.00  0.00     0.131 C 
ATOM     30  S   UNL     1       8.080  -3.449  -5.194  1.00  0.00    -0.150 SA
ENDBRANCH  23  24
ENDBRANCH   7  17
ENDBRANCH   4   7
ENDBRANCH   2   3
ENDBRANCH   1   2
BRANCH   1  31
ATOM     31  C   UNL     1      -0.333   0.919   4.969  1.00  0.00     0.023 C 
BRANCH  31  32
ATOM     32  C   UNL     1       0.342   2.158   5.550  1.00  0.00     0.116 C 
BRANCH  32  33
ATOM     33  N   UNL     1      -0.549   3.309   5.529  1.00  0.00    -0.352 N 
ATOM     34  C   UNL     1      -1.128   3.964   6.585  1.00  0.00     0.251 C 
ATOM     35  H   UNL     1      -0.764   3.665   4.637  1.00  0.00     0.163 HD
ATOM     36  O   UNL     1      -2.069   4.736   6.392  1.00  0.00    -0.269 OA
BRANCH  34  37
ATOM     37  C   UNL     1      -0.621   3.737   7.953  1.00  0.00     0.039 A 
ATOM     38  C   UNL     1      -1.524   3.507   8.994  1.00  0.00     0.014 A 
ATOM     39  C   UNL     1       0.754   3.754   8.203  1.00  0.00     0.014 A 
ATOM     40  C   UNL     1      -1.043   3.239  10.278  1.00  0.00     0.010 A 
ATOM     41  C   UNL     1       1.232   3.413   9.464  1.00  0.00     0.010 A 
ATOM     42  C   UNL     1       0.339   3.160  10.517  1.00  0.00    -0.014 A 
BRANCH  42  43
ATOM     43  C   UNL     1       0.883   2.832  11.860  1.00  0.00     0.031 A 
ATOM     44  C   UNL     1       1.732   3.840  12.588  1.00  0.00     0.074 A 
ATOM     45  C   UNL     1       0.683   1.607  12.386  1.00  0.00     0.049 A 
ATOM     46  N   UNL     1       2.398   3.707  13.705  1.00  0.00    -0.248 NA
ATOM     47  C   UNL     1       1.872   5.164  11.960  1.00  0.00     0.031 C 
ATOM     48  C   UNL     1      -0.094   0.534  11.762  1.00  0.00     0.029 A 
ATOM     49  N   UNL     1       1.132   1.051  13.558  1.00  0.00    -0.354 N 
ATOM     50  C   UNL     1       3.050   4.919  13.904  1.00  0.00     0.074 A 
ATOM     51  C   UNL     1       2.741   5.756  12.765  1.00  0.00     0.031 C 
ATOM     52  C   UNL     1      -0.077  -0.544  12.562  1.00  0.00     0.029 A 
ATOM     53  C   UNL     1       0.749  -0.258  13.731  1.00  0.00     0.049 A 
ATOM     54  H   UNL     1       1.678   1.543  14.213  1.00  0.00     0.167 HD
ATOM     55  C   UNL     1       3.818   5.306  14.950  1.00  0.00     0.037 A 
ATOM     56  C   UNL     1       1.044  -1.135  14.712  1.00  0.00     0.037 A 
ATOM     57  C   UNL     1       4.102   4.472  16.089  1.00  0.00     0.049 A 
ATOM     58  C   UNL     1       1.915  -0.689  15.856  1.00  0.00     0.074 A 
ATOM     59  C   UNL     1       4.830   4.785  17.223  1.00  0.00     0.029 A 
ATOM     60  N   UNL     1       3.674   3.160  16.238  1.00  0.00    -0.354 N 
ATOM     61  N   UNL     1       2.483   0.477  16.053  1.00  0.00    -0.248 NA
ATOM     62  C   UNL     1       2.183  -1.673  16.914  1.00  0.00     0.031 C 
ATOM     63  C   UNL     1       4.886   3.647  18.034  1.00  0.00     0.029 A 
ATOM     64  C   UNL     1       4.139   2.645  17.436  1.00  0.00     0.049 A 
ATOM     65  H   UNL     1       3.122   2.668  15.588  1.00  0.00     0.167 HD
ATOM     66  C   UNL     1       3.140   0.379  17.275  1.00  0.00     0.074 A 
ATOM     67  C   UNL     1       2.899  -0.960  17.772  1.00  0.00     0.031 C 
ATOM     68  C   UNL     1       3.872   1.315  17.929  1.00  0.00     0.037 A 
BRANCH  55  69
ATOM     69  C   UNL     1       4.411   6.689  14.911  1.00  0.00     0.058 A 
ATOM     70  C   UNL     1       3.613   7.839  15.029  1.00  0.00     0.135 A 
ATOM     71  C   UNL     1       5.799   6.867  14.792  1.00  0.00     0.135 A 
ATOM     72  F   UNL     1       2.279   7.730  15.130  1.00  0.00    -0.206 F 
ATOM     73  C   UNL     1       4.166   9.115  14.999  1.00  0.00     0.059 A 
ATOM     74  C   UNL     1       6.377   8.134  14.792  1.00  0.00     0.059 A 
ATOM     75  F   UNL     1       6.610   5.804  14.676  1.00  0.00    -0.206 F 
ATOM     76  C   UNL     1       5.550   9.252  14.881  1.00  0.00     0.060 A 
BRANCH  76  77
ATOM     77  S   UNL     1       6.250  10.915  14.848  1.00  0.00     0.124 S 
ATOM     78  O   UNL     1       5.830  11.382  13.530  1.00  0.00    -0.237 OA
ATOM     79  O   UNL     1       5.594  11.552  15.985  1.00  0.00    -0.237 OA
ATOM     80  O   UNL     1       7.683  10.685  15.003  1.00  0.00    -0.744 OA
ENDBRANCH  76  77
ENDBRANCH  55  69
BRANCH  56  81
ATOM     81  C   UNL     1       0.497  -2.519  14.662  1.00  0.00     0.058 A 
ATOM     82  C   UNL     1      -0.478  -2.943  15.578  1.00  0.00     0.135 A 
ATOM     83  C   UNL     1       0.928  -3.441  13.695  1.00  0.00     0.135 A 
ATOM     84  F   UNL     1      -0.919  -2.102  16.526  1.00  0.00    -0.206 F 
ATOM     85  C   UNL     1      -0.992  -4.236  15.550  1.00  0.00     0.059 A 
ATOM     86  C   UNL     1       0.408  -4.730  13.629  1.00  0.00     0.059 A 
ATOM     87  F   UNL     1       1.847  -3.081  12.785  1.00  0.00    -0.206 F 
ATOM     88  C   UNL     1      -0.544  -5.122  14.568  1.00  0.00     0.060 A 
BRANCH  88  89
ATOM     89  S   UNL     1      -1.251  -6.782  14.515  1.00  0.00     0.124 S 
ATOM     90  O   UNL     1      -0.654  -7.394  15.697  1.00  0.00    -0.237 OA
ATOM     91  O   UNL     1      -2.682  -6.508  14.592  1.00  0.00    -0.237 OA
ATOM     92  O   UNL     1      -0.788  -7.304  13.233  1.00  0.00    -0.744 OA
ENDBRANCH  88  89
ENDBRANCH  56  81
BRANCH  68  93
ATOM     93  C   UNL     1       4.418   0.957  19.284  1.00  0.00     0.058 A 
ATOM     94  C   UNL     1       5.489   0.065  19.445  1.00  0.00     0.135 A 
ATOM     95  C   UNL     1       3.905   1.581  20.435  1.00  0.00     0.135 A 
ATOM     96  F   UNL     1       6.011  -0.563  18.380  1.00  0.00    -0.206 F 
ATOM     97  C   UNL     1       6.023  -0.208  20.700  1.00  0.00     0.059 A 
ATOM     98  C   UNL     1       4.444   1.345  21.695  1.00  0.00     0.059 A 
ATOM     99  F   UNL     1       2.887   2.450  20.337  1.00  0.00    -0.206 F 
ATOM    100  C   UNL     1       5.498   0.443  21.819  1.00  0.00     0.060 A 
BRANCH 100 101
ATOM    101  S   UNL     1       6.238   0.119  23.434  1.00  0.00     0.124 S 
ATOM    102  O   UNL     1       5.769  -1.235  23.707  1.00  0.00    -0.237 OA
ATOM    103  O   UNL     1       7.664   0.253  23.155  1.00  0.00    -0.237 OA
ATOM    104  O   UNL     1       5.671   1.163  24.283  1.00  0.00    -0.744 OA
ENDBRANCH 100 101
ENDBRANCH  68  93
ENDBRANCH  42  43
ENDBRANCH  34  37
ENDBRANCH  32  33
ENDBRANCH  31  32
ENDBRANCH   1  31
TORSDOF 19
