REMARK SMILES Cc1c(NC(=O)c2cccc(-c3cc4ccccc4oc3=O)c2)cccc1C(=O)NCCCCNC(=O)c1ccc(-c2c3nc(c(-c4c(F)cc(S(=O)(=O)[O-])cc4F)c4ccc([nH]4)c(-c4c(F)cc(S(=O)(=O)[O-])cc4F)c4nc(c(-c5c(F)cc(S(=O)(=O)[O-])cc5F)c5ccc2[nH]5)C=C4)C=C3)cc1
REMARK SMILES IDX 32 1 31 2 30 3 28 4 29 5 27 7 1 8 2 9 3 10 24 11 26 12 25 13
REMARK SMILES IDX 4 14 5 15 6 17 7 18 8 19 23 20 9 21 11 22 10 23 12 24 13 25
REMARK SMILES IDX 21 26 14 27 20 28 22 29 15 30 19 31 16 32 18 33 17 34 33 35
REMARK SMILES IDX 34 36 35 37 36 38 37 40 38 41 39 42 103 43 40 44 102 45
REMARK SMILES IDX 41 46 42 47 43 48 96 49 44 50 101 51 95 52 97 53 45 54
REMARK SMILES IDX 100 55 94 56 93 57 46 59 80 60 59 61 79 62 60 63 63 64 78 65
REMARK SMILES IDX 98 66 61 67 62 68 77 70 99 71 64 72 47 73 48 74 57 75 49 76
REMARK SMILES IDX 50 77 56 78 58 79 51 80 52 81 53 82 54 83 55 84 81 85 82 86
REMARK SMILES IDX 91 87 83 88 84 89 90 90 92 91 85 92 86 93 87 94 88 95 89 96
REMARK SMILES IDX 65 97 66 98 75 99 67 100 68 101 74 102 76 103 69 104 70 105
REMARK SMILES IDX 71 106 72 107 73 108
REMARK H PARENT 30 6 4 16 35 39 97 58 63 69
REMARK Flexibility Score: inf
ROOT
ATOM      1  C   UNL     1       4.242   1.286  -0.942  1.00  0.00     0.023 C 
ENDROOT
BRANCH   1   2
ATOM      2  C   UNL     1       3.660   1.794   0.393  1.00  0.00     0.116 C 
BRANCH   2   3
ATOM      3  N   UNL     1       2.372   2.440   0.211  1.00  0.00    -0.352 N 
ATOM      4  C   UNL     1       1.043   2.136   0.311  1.00  0.00     0.251 C 
ATOM      5  O   UNL     1       0.324   3.111   0.033  1.00  0.00    -0.269 OA
ATOM      6  H   UNL     1       2.492   3.376  -0.068  1.00  0.00     0.163 HD
BRANCH   4   7
ATOM      7  C   UNL     1       0.330   0.843   0.665  1.00  0.00     0.044 A 
ATOM      8  C   UNL     1       2.158  -0.929   0.325  1.00  0.00     0.047 C 
ATOM      9  C   UNL     1       0.761  -0.508   0.654  1.00  0.00    -0.015 A 
ATOM     10  C   UNL     1      -0.187  -1.555   0.879  1.00  0.00     0.045 A 
ATOM     11  C   UNL     1      -1.535  -1.276   1.109  1.00  0.00     0.026 A 
ATOM     12  C   UNL     1      -1.051   1.065   0.924  1.00  0.00     0.014 A 
ATOM     13  C   UNL     1      -1.968   0.035   1.131  1.00  0.00     0.003 A 
BRANCH  10  14
ATOM     14  N   UNL     1       0.257  -2.892   0.899  1.00  0.00    -0.322 N 
ATOM     15  C   UNL     1      -0.333  -4.064   0.491  1.00  0.00     0.255 C 
ATOM     16  H   UNL     1       1.159  -3.008   1.276  1.00  0.00     0.170 HD
ATOM     17  O   UNL     1       0.140  -5.132   0.885  1.00  0.00    -0.269 OA
BRANCH  15  18
ATOM     18  C   UNL     1      -1.438  -4.111  -0.510  1.00  0.00     0.040 A 
ATOM     19  C   UNL     1      -2.221  -5.272  -0.558  1.00  0.00     0.014 A 
ATOM     20  C   UNL     1      -1.629  -3.125  -1.488  1.00  0.00     0.022 A 
ATOM     21  C   UNL     1      -3.203  -5.425  -1.535  1.00  0.00     0.001 A 
ATOM     22  C   UNL     1      -2.624  -3.258  -2.472  1.00  0.00    -0.010 A 
ATOM     23  C   UNL     1      -3.408  -4.420  -2.480  1.00  0.00     0.009 A 
BRANCH  22  24
ATOM     24  C   UNL     1      -2.810  -2.290  -3.586  1.00  0.00     0.068 A 
ATOM     25  C   UNL     1      -2.657  -0.955  -3.440  1.00  0.00     0.028 A 
ATOM     26  C   UNL     1      -2.231  -2.743  -4.892  1.00  0.00     0.344 A 
ATOM     27  C   UNL     1      -1.241  -0.536  -3.541  1.00  0.00     0.018 A 
ATOM     28  O   UNL     1      -0.881  -2.421  -5.041  1.00  0.00    -0.422 OA
ATOM     29  O   UNL     1      -2.865  -3.407  -5.702  1.00  0.00    -0.246 OA
ATOM     30  C   UNL     1      -0.749   0.597  -2.901  1.00  0.00     0.012 A 
ATOM     31  C   UNL     1      -0.369  -1.353  -4.274  1.00  0.00     0.138 A 
ATOM     32  C   UNL     1       0.620   0.867  -2.959  1.00  0.00     0.001 A 
ATOM     33  C   UNL     1       0.998  -1.118  -4.296  1.00  0.00     0.048 A 
ATOM     34  C   UNL     1       1.492  -0.003  -3.623  1.00  0.00     0.004 A 
ENDBRANCH  22  24
ENDBRANCH  15  18
ENDBRANCH  10  14
ENDBRANCH   4   7
ENDBRANCH   2   3
ENDBRANCH   1   2
BRANCH   1  35
ATOM     35  C   UNL     1       4.981   2.324  -1.788  1.00  0.00     0.023 C 
BRANCH  35  36
ATOM     36  C   UNL     1       6.314   2.718  -1.178  1.00  0.00     0.116 C 
BRANCH  36  37
ATOM     37  N   UNL     1       7.495   2.175  -1.832  1.00  0.00    -0.352 N 
ATOM     38  C   UNL     1       8.818   2.408  -1.482  1.00  0.00     0.251 C 
ATOM     39  H   UNL     1       7.340   1.582  -2.603  1.00  0.00     0.163 HD
ATOM     40  O   UNL     1       9.746   2.172  -2.247  1.00  0.00    -0.269 OA
BRANCH  38  41
ATOM     41  C   UNL     1       9.076   2.832  -0.087  1.00  0.00     0.039 A 
ATOM     42  C   UNL     1       9.704   1.902   0.751  1.00  0.00     0.014 A 
ATOM     43  C   UNL     1       8.386   3.917   0.441  1.00  0.00     0.014 A 
ATOM     44  C   UNL     1       9.443   1.929   2.119  1.00  0.00     0.010 A 
ATOM     45  C   UNL     1       8.026   3.866   1.772  1.00  0.00     0.010 A 
ATOM     46  C   UNL     1       8.513   2.844   2.603  1.00  0.00    -0.014 A 
BRANCH  46  47
ATOM     47  C   UNL     1       7.916   2.784   3.935  1.00  0.00     0.031 A 
ATOM     48  C   UNL     1       8.183   3.876   4.901  1.00  0.00     0.074 A 
ATOM     49  C   UNL     1       7.018   1.821   4.236  1.00  0.00     0.049 A 
ATOM     50  N   UNL     1       7.901   3.841   6.159  1.00  0.00    -0.248 NA
ATOM     51  C   UNL     1       8.868   5.103   4.512  1.00  0.00     0.031 C 
ATOM     52  C   UNL     1       6.040   1.838   5.321  1.00  0.00     0.029 A 
ATOM     53  N   UNL     1       6.928   0.531   3.723  1.00  0.00    -0.354 N 
ATOM     54  C   UNL     1       8.079   5.108   6.673  1.00  0.00     0.074 A 
ATOM     55  C   UNL     1       8.769   5.823   5.630  1.00  0.00     0.031 C 
ATOM     56  C   UNL     1       5.611   0.587   5.547  1.00  0.00     0.029 A 
ATOM     57  C   UNL     1       6.418  -0.303   4.731  1.00  0.00     0.049 A 
ATOM     58  H   UNL     1       7.178   0.252   2.813  1.00  0.00     0.167 HD
ATOM     59  C   UNL     1       7.491   5.423   7.867  1.00  0.00     0.037 A 
ATOM     60  C   UNL     1       7.167  -1.331   5.237  1.00  0.00     0.037 A 
ATOM     61  C   UNL     1       6.981   4.209   8.516  1.00  0.00     0.049 A 
ATOM     62  C   UNL     1       7.545  -1.165   6.694  1.00  0.00     0.074 A 
ATOM     63  C   UNL     1       5.717   3.653   8.627  1.00  0.00     0.029 A 
ATOM     64  N   UNL     1       7.878   3.218   8.913  1.00  0.00    -0.354 N 
ATOM     65  N   UNL     1       7.418  -0.049   7.359  1.00  0.00    -0.248 NA
ATOM     66  C   UNL     1       8.107  -2.234   7.516  1.00  0.00     0.031 C 
ATOM     67  C   UNL     1       5.866   2.291   8.997  1.00  0.00     0.029 A 
ATOM     68  C   UNL     1       7.217   2.025   9.144  1.00  0.00     0.049 A 
ATOM     69  H   UNL     1       8.848   3.349   9.015  1.00  0.00     0.167 HD
ATOM     70  C   UNL     1       7.901  -0.208   8.632  1.00  0.00     0.074 A 
ATOM     71  C   UNL     1       8.291  -1.605   8.691  1.00  0.00     0.031 C 
ATOM     72  C   UNL     1       7.954   0.826   9.524  1.00  0.00     0.037 A 
BRANCH  59  73
ATOM     73  C   UNL     1       7.110   6.838   8.303  1.00  0.00     0.058 A 
ATOM     74  C   UNL     1       6.096   7.040   9.270  1.00  0.00     0.135 A 
ATOM     75  C   UNL     1       7.608   8.036   7.750  1.00  0.00     0.135 A 
ATOM     76  F   UNL     1       5.582   6.019   9.969  1.00  0.00    -0.206 F 
ATOM     77  C   UNL     1       5.549   8.296   9.563  1.00  0.00     0.059 A 
ATOM     78  C   UNL     1       7.056   9.297   7.997  1.00  0.00     0.059 A 
ATOM     79  F   UNL     1       8.692   8.068   6.975  1.00  0.00    -0.206 F 
ATOM     80  C   UNL     1       6.011   9.419   8.893  1.00  0.00     0.060 A 
BRANCH  80  81
ATOM     81  S   UNL     1       5.256  11.023   9.212  1.00  0.00     0.124 S 
ATOM     82  O   UNL     1       3.863  10.782   8.847  1.00  0.00    -0.237 OA
ATOM     83  O   UNL     1       5.520  11.208  10.634  1.00  0.00    -0.237 OA
ATOM     84  O   UNL     1       5.981  11.925   8.321  1.00  0.00    -0.744 OA
ENDBRANCH  80  81
ENDBRANCH  59  73
BRANCH  60  85
ATOM     85  C   UNL     1       7.976  -2.020   4.194  1.00  0.00     0.058 A 
ATOM     86  C   UNL     1       7.268  -2.759   3.227  1.00  0.00     0.135 A 
ATOM     87  C   UNL     1       9.261  -1.569   3.857  1.00  0.00     0.135 A 
ATOM     88  F   UNL     1       6.043  -3.232   3.509  1.00  0.00    -0.206 F 
ATOM     89  C   UNL     1       7.723  -2.871   1.919  1.00  0.00     0.059 A 
ATOM     90  C   UNL     1       9.742  -1.679   2.550  1.00  0.00     0.059 A 
ATOM     91  F   UNL     1       9.985  -0.867   4.741  1.00  0.00    -0.206 F 
ATOM     92  C   UNL     1       8.924  -2.254   1.576  1.00  0.00     0.060 A 
BRANCH  92  93
ATOM     93  S   UNL     1       9.266  -2.018  -0.185  1.00  0.00     0.124 S 
ATOM     94  O   UNL     1       9.208  -3.383  -0.695  1.00  0.00    -0.237 OA
ATOM     95  O   UNL     1       8.157  -1.148  -0.574  1.00  0.00    -0.237 OA
ATOM     96  O   UNL     1      10.586  -1.398  -0.187  1.00  0.00    -0.744 OA
ENDBRANCH  92  93
ENDBRANCH  60  85
BRANCH  72  97
ATOM     97  C   UNL     1       8.635   0.787  10.872  1.00  0.00     0.058 A 
ATOM     98  C   UNL     1       9.790   0.035  11.149  1.00  0.00     0.135 A 
ATOM     99  C   UNL     1       8.202   1.647  11.911  1.00  0.00     0.135 A 
ATOM    100  F   UNL     1      10.360  -0.735  10.212  1.00  0.00    -0.206 F 
ATOM    101  C   UNL     1      10.432   0.080  12.389  1.00  0.00     0.059 A 
ATOM    102  C   UNL     1       8.859   1.748  13.134  1.00  0.00     0.059 A 
ATOM    103  F   UNL     1       7.123   2.430  11.763  1.00  0.00    -0.206 F 
ATOM    104  C   UNL     1       9.960   0.940  13.376  1.00  0.00     0.060 A 
BRANCH 104 105
ATOM    105  S   UNL     1      10.815   1.054  14.959  1.00  0.00     0.124 S 
ATOM    106  O   UNL     1      10.085   0.073  15.755  1.00  0.00    -0.237 OA
ATOM    107  O   UNL     1      12.187   0.690  14.616  1.00  0.00    -0.237 OA
ATOM    108  O   UNL     1      10.623   2.450  15.339  1.00  0.00    -0.744 OA
ENDBRANCH 104 105
ENDBRANCH  72  97
ENDBRANCH  46  47
ENDBRANCH  38  41
ENDBRANCH  36  37
ENDBRANCH  35  36
ENDBRANCH   1  35
TORSDOF 17
