REMARK SMILES C[C@@H](C(=O)NCCCCNC(=O)c1ccc(-c2c3nc(c(-c4c(F)cc(S(=O)(=O)[O-])cc4F)c4ccc([nH]4)c(-c4c(F)cc(S(=O)(=O)[O-])cc4F)c4nc(c(-c5c(F)cc(S(=O)(=O)[O-])cc5F)c5ccc2[nH]5)C=C4)C=C3)cc1)c1ccc(Cc2ccsc2)cc1F
REMARK SMILES IDX 7 1 6 2 5 3 3 4 4 5 2 7 1 8 79 9 80 10 90 11 81 12 89 13
REMARK SMILES IDX 91 14 82 15 83 16 84 17 85 18 88 19 86 20 87 21 8 22 9 23
REMARK SMILES IDX 10 24 11 25 12 27 13 28 14 29 78 30 15 31 77 32 16 33 17 34
REMARK SMILES IDX 18 35 71 36 19 37 76 38 70 39 72 40 20 41 75 42 69 43 68 44
REMARK SMILES IDX 21 46 55 47 34 48 54 49 35 50 38 51 53 52 73 53 36 54 37 55
REMARK SMILES IDX 52 57 74 58 39 59 22 60 23 61 32 62 24 63 25 64 31 65 33 66
REMARK SMILES IDX 26 67 27 68 28 69 29 70 30 71 56 72 57 73 66 74 58 75 59 76
REMARK SMILES IDX 65 77 67 78 60 79 61 80 62 81 63 82 64 83 40 84 41 85 50 86
REMARK SMILES IDX 42 87 43 88 49 89 51 90 44 91 45 92 46 93 47 94 48 95
REMARK H PARENT 5 6 10 26 72 45 38 56
REMARK Flexibility Score: inf
ROOT
ATOM      1  C   UNL     1       4.364  -1.147  -0.513  1.00  0.00     0.023 C 
ENDROOT
BRANCH   1   2
ATOM      2  C   UNL     1       3.560  -0.562  -1.674  1.00  0.00     0.116 C 
BRANCH   2   3
ATOM      3  N   UNL     1       2.520  -1.459  -2.136  1.00  0.00    -0.356 N 
ATOM      4  C   UNL     1       1.159  -1.365  -2.046  1.00  0.00     0.227 C 
ATOM      5  O   UNL     1       0.515  -2.173  -2.719  1.00  0.00    -0.274 OA
ATOM      6  H   UNL     1       2.848  -2.269  -2.589  1.00  0.00     0.163 HD
BRANCH   4   7
ATOM      7  C   UNL     1       0.506  -0.238  -1.222  1.00  0.00     0.108 C 
ATOM      8  C   UNL     1       0.889  -0.245   0.259  1.00  0.00     0.023 C 
BRANCH   7   9
ATOM      9  C   UNL     1      -1.018  -0.221  -1.302  1.00  0.00    -0.000 A 
ATOM     10  C   UNL     1      -1.690   0.964  -1.635  1.00  0.00     0.008 A 
ATOM     11  C   UNL     1      -1.789  -1.340  -0.962  1.00  0.00     0.127 A 
ATOM     12  C   UNL     1      -3.088   1.011  -1.645  1.00  0.00     0.004 A 
ATOM     13  C   UNL     1      -3.183  -1.300  -0.977  1.00  0.00     0.043 A 
ATOM     14  F   UNL     1      -1.193  -2.475  -0.571  1.00  0.00    -0.207 F 
ATOM     15  C   UNL     1      -3.854  -0.119  -1.318  1.00  0.00    -0.041 A 
BRANCH  15  16
ATOM     16  C   UNL     1      -5.361  -0.072  -1.360  1.00  0.00     0.072 C 
BRANCH  16  17
ATOM     17  C   UNL     1      -5.841   0.427  -0.026  1.00  0.00    -0.033 A 
ATOM     18  C   UNL     1      -5.706   1.774   0.460  1.00  0.00     0.015 A 
ATOM     19  C   UNL     1      -6.547  -0.339   0.886  1.00  0.00     0.068 A 
ATOM     20  C   UNL     1      -6.286   1.962   1.695  1.00  0.00     0.065 A 
ATOM     21  S   UNL     1      -7.016   0.535   2.280  1.00  0.00    -0.152 S 
ENDBRANCH  16  17
ENDBRANCH  15  16
ENDBRANCH   7   9
ENDBRANCH   4   7
ENDBRANCH   2   3
ENDBRANCH   1   2
BRANCH   1  22
ATOM     22  C   UNL     1       5.150  -2.420  -0.836  1.00  0.00     0.023 C 
BRANCH  22  23
ATOM     23  C   UNL     1       6.106  -2.325  -2.021  1.00  0.00     0.116 C 
BRANCH  23  24
ATOM     24  N   UNL     1       7.096  -1.269  -1.871  1.00  0.00    -0.352 N 
ATOM     25  C   UNL     1       8.457  -1.318  -2.056  1.00  0.00     0.251 C 
ATOM     26  H   UNL     1       6.739  -0.393  -1.599  1.00  0.00     0.163 HD
ATOM     27  O   UNL     1       9.149  -0.348  -1.759  1.00  0.00    -0.269 OA
BRANCH  25  28
ATOM     28  C   UNL     1       9.089  -2.551  -2.575  1.00  0.00     0.039 A 
ATOM     29  C   UNL     1      10.211  -3.059  -1.915  1.00  0.00     0.014 A 
ATOM     30  C   UNL     1       8.564  -3.219  -3.685  1.00  0.00     0.014 A 
ATOM     31  C   UNL     1      10.752  -4.284  -2.315  1.00  0.00     0.010 A 
ATOM     32  C   UNL     1       9.065  -4.470  -4.040  1.00  0.00     0.010 A 
ATOM     33  C   UNL     1      10.153  -5.023  -3.348  1.00  0.00    -0.014 A 
BRANCH  33  34
ATOM     34  C   UNL     1      10.613  -6.399  -3.674  1.00  0.00     0.031 A 
ATOM     35  C   UNL     1      11.200  -6.711  -5.023  1.00  0.00     0.074 A 
ATOM     36  C   UNL     1      10.431  -7.384  -2.771  1.00  0.00     0.049 A 
ATOM     37  N   UNL     1      11.589  -7.864  -5.505  1.00  0.00    -0.248 NA
ATOM     38  C   UNL     1      11.351  -5.588  -5.962  1.00  0.00     0.031 C 
ATOM     39  C   UNL     1       9.822  -7.217  -1.448  1.00  0.00     0.029 A 
ATOM     40  N   UNL     1      10.723  -8.725  -2.830  1.00  0.00    -0.354 N 
ATOM     41  C   UNL     1      12.019  -7.610  -6.801  1.00  0.00     0.074 A 
ATOM     42  C   UNL     1      11.807  -6.200  -7.047  1.00  0.00     0.031 C 
ATOM     43  C   UNL     1       9.798  -8.403  -0.819  1.00  0.00     0.029 A 
ATOM     44  C   UNL     1      10.351  -9.423  -1.704  1.00  0.00     0.049 A 
ATOM     45  H   UNL     1      11.157  -9.147  -3.606  1.00  0.00     0.167 HD
ATOM     46  C   UNL     1      12.559  -8.471  -7.697  1.00  0.00     0.037 A 
ATOM     47  C   UNL     1      10.428 -10.738  -1.421  1.00  0.00     0.037 A 
ATOM     48  C   UNL     1      12.791  -9.869  -7.436  1.00  0.00     0.049 A 
ATOM     49  C   UNL     1      11.025 -11.672  -2.439  1.00  0.00     0.074 A 
ATOM     50  C   UNL     1      13.402 -10.804  -8.253  1.00  0.00     0.029 A 
ATOM     51  N   UNL     1      12.417 -10.536  -6.278  1.00  0.00    -0.354 N 
ATOM     52  N   UNL     1      11.504 -11.397  -3.629  1.00  0.00    -0.248 NA
ATOM     53  C   UNL     1      11.094 -13.095  -2.077  1.00  0.00     0.031 C 
ATOM     54  C   UNL     1      13.353 -12.046  -7.612  1.00  0.00     0.029 A 
ATOM     55  C   UNL     1      12.757 -11.875  -6.373  1.00  0.00     0.049 A 
ATOM     56  H   UNL     1      11.976 -10.118  -5.504  1.00  0.00     0.167 HD
ATOM     57  C   UNL     1      11.951 -12.608  -4.147  1.00  0.00     0.074 A 
ATOM     58  C   UNL     1      11.704 -13.613  -3.134  1.00  0.00     0.031 C 
ATOM     59  C   UNL     1      12.510 -12.865  -5.355  1.00  0.00     0.037 A 
BRANCH  46  60
ATOM     60  C   UNL     1      12.950  -7.936  -9.047  1.00  0.00     0.058 A 
ATOM     61  C   UNL     1      14.068  -7.104  -9.212  1.00  0.00     0.135 A 
ATOM     62  C   UNL     1      12.251  -8.330 -10.199  1.00  0.00     0.135 A 
ATOM     63  F   UNL     1      14.764  -6.685  -8.143  1.00  0.00    -0.206 F 
ATOM     64  C   UNL     1      14.474  -6.674 -10.471  1.00  0.00     0.059 A 
ATOM     65  C   UNL     1      12.654  -7.933 -11.471  1.00  0.00     0.059 A 
ATOM     66  F   UNL     1      11.172  -9.123 -10.097  1.00  0.00    -0.206 F 
ATOM     67  C   UNL     1      13.765  -7.100 -11.596  1.00  0.00     0.060 A 
BRANCH  67  68
ATOM     68  S   UNL     1      14.333  -6.567 -13.225  1.00  0.00     0.124 S 
ATOM     69  O   UNL     1      13.970  -5.153 -13.212  1.00  0.00    -0.237 OA
ATOM     70  O   UNL     1      15.763  -6.854 -13.164  1.00  0.00    -0.237 OA
ATOM     71  O   UNL     1      13.567  -7.402 -14.144  1.00  0.00    -0.744 OA
ENDBRANCH  67  68
ENDBRANCH  46  60
BRANCH  47  72
ATOM     72  C   UNL     1       9.923 -11.257  -0.121  1.00  0.00     0.058 A 
ATOM     73  C   UNL     1      10.802 -11.772   0.844  1.00  0.00     0.135 A 
ATOM     74  C   UNL     1       8.551 -11.268   0.175  1.00  0.00     0.135 A 
ATOM     75  F   UNL     1      12.122 -11.789   0.607  1.00  0.00    -0.206 F 
ATOM     76  C   UNL     1      10.338 -12.306   2.042  1.00  0.00     0.059 A 
ATOM     77  C   UNL     1       8.065 -11.770   1.378  1.00  0.00     0.059 A 
ATOM     78  F   UNL     1       7.668 -10.771  -0.706  1.00  0.00    -0.206 F 
ATOM     79  C   UNL     1       8.966 -12.303   2.298  1.00  0.00     0.060 A 
BRANCH  79  80
ATOM     80  S   UNL     1       8.375 -12.982   3.864  1.00  0.00     0.124 S 
ATOM     81  O   UNL     1       8.533 -14.415   3.640  1.00  0.00    -0.237 OA
ATOM     82  O   UNL     1       9.292 -12.381   4.826  1.00  0.00    -0.237 OA
ATOM     83  O   UNL     1       6.998 -12.502   3.938  1.00  0.00    -0.744 OA
ENDBRANCH  79  80
ENDBRANCH  47  72
BRANCH  59  84
ATOM     84  C   UNL     1      12.916 -14.285  -5.641  1.00  0.00     0.058 A 
ATOM     85  C   UNL     1      11.965 -15.287  -5.887  1.00  0.00     0.135 A 
ATOM     86  C   UNL     1      14.274 -14.637  -5.716  1.00  0.00     0.135 A 
ATOM     87  F   UNL     1      10.654 -15.006  -5.820  1.00  0.00    -0.206 F 
ATOM     88  C   UNL     1      12.345 -16.594  -6.173  1.00  0.00     0.059 A 
ATOM     89  C   UNL     1      14.677 -15.931  -6.029  1.00  0.00     0.059 A 
ATOM     90  F   UNL     1      15.225 -13.714  -5.499  1.00  0.00    -0.206 F 
ATOM     91  C   UNL     1      13.704 -16.906  -6.244  1.00  0.00     0.060 A 
BRANCH  91  92
ATOM     92  S   UNL     1      14.182 -18.599  -6.648  1.00  0.00     0.124 S 
ATOM     93  O   UNL     1      13.871 -19.298  -5.406  1.00  0.00    -0.237 OA
ATOM     94  O   UNL     1      13.317 -18.907  -7.783  1.00  0.00    -0.237 OA
ATOM     95  O   UNL     1      15.603 -18.485  -6.965  1.00  0.00    -0.744 OA
ENDBRANCH  91  92
ENDBRANCH  59  84
ENDBRANCH  33  34
ENDBRANCH  25  28
ENDBRANCH  23  24
ENDBRANCH  22  23
ENDBRANCH   1  22
TORSDOF 17
