REMARK SMILES O=C(NCCCCNC(=O)[C@H]1CC(=O)N(c2cccc(OC(F)(F)F)c2)C1)c1ccc(-c2c3nc(c(-c4c(F)cc(S(=O)(=O)[O-])cc4F)c4ccc([nH]4)c(-c4c(F)cc(S(=O)(=O)[O-])cc4F)c4nc(c(-c5c(F)cc(S(=O)(=O)[O-])cc5F)c5ccc2[nH]5)C=C4)C=C3)cc1
REMARK SMILES IDX 5 1 4 2 3 3 1 4 2 5 28 7 29 8 93 9 30 10 92 11 31 12 32 13
REMARK SMILES IDX 33 14 86 15 34 16 91 17 85 18 87 19 35 20 90 21 84 22 83 23
REMARK SMILES IDX 36 25 70 26 49 27 69 28 50 29 53 30 68 31 88 32 51 33 52 34
REMARK SMILES IDX 67 36 89 37 54 38 37 39 38 40 47 41 39 42 40 43 46 44 48 45
REMARK SMILES IDX 41 46 42 47 43 48 44 49 45 50 71 51 72 52 81 53 73 54 74 55
REMARK SMILES IDX 80 56 82 57 75 58 76 59 77 60 78 61 79 62 55 63 56 64 65 65
REMARK SMILES IDX 57 66 58 67 64 68 66 69 59 70 60 71 61 72 62 73 63 74 6 75
REMARK SMILES IDX 7 76 8 77 9 78 10 80 11 81 12 82 27 83 13 84 15 85 14 86
REMARK SMILES IDX 16 87 17 88 26 89 18 90 20 91 19 92 21 93 22 94 23 95 24 96
REMARK SMILES IDX 25 97
REMARK H PARENT 3 6 87 24 53 35 8 79
REMARK Flexibility Score: inf
ROOT
ATOM      1  C   UNL     1      11.432   0.585   6.445  1.00  0.00     0.023 C 
ENDROOT
BRANCH   1   2
ATOM      2  C   UNL     1      12.009  -0.542   7.290  1.00  0.00     0.116 C 
BRANCH   2   3
ATOM      3  N   UNL     1      12.324  -1.728   6.508  1.00  0.00    -0.352 N 
ATOM      4  O   UNL     1      13.659  -3.326   5.637  1.00  0.00    -0.269 OA
ATOM      5  C   UNL     1      13.501  -2.438   6.469  1.00  0.00     0.251 C 
ATOM      6  H   UNL     1      11.601  -2.065   5.932  1.00  0.00     0.163 HD
BRANCH   5   7
ATOM      7  C   UNL     1      14.576  -2.096   7.422  1.00  0.00     0.039 A 
ATOM      8  C   UNL     1      14.278  -1.896   8.772  1.00  0.00     0.014 A 
ATOM      9  C   UNL     1      15.883  -1.938   6.955  1.00  0.00     0.014 A 
ATOM     10  C   UNL     1      15.251  -1.393   9.623  1.00  0.00     0.010 A 
ATOM     11  C   UNL     1      16.884  -1.528   7.839  1.00  0.00     0.010 A 
ATOM     12  C   UNL     1      16.572  -1.227   9.174  1.00  0.00    -0.014 A 
BRANCH  12  13
ATOM     13  C   UNL     1      17.621  -0.822  10.143  1.00  0.00     0.031 A 
ATOM     14  C   UNL     1      18.373   0.470   9.990  1.00  0.00     0.074 A 
ATOM     15  C   UNL     1      17.876  -1.641  11.183  1.00  0.00     0.049 A 
ATOM     16  N   UNL     1      19.325   0.959  10.743  1.00  0.00    -0.248 NA
ATOM     17  C   UNL     1      18.021   1.321   8.843  1.00  0.00     0.031 C 
ATOM     18  C   UNL     1      17.209  -2.924  11.427  1.00  0.00     0.029 A 
ATOM     19  N   UNL     1      18.749  -1.519  12.232  1.00  0.00    -0.354 N 
ATOM     20  C   UNL     1      19.696   2.164  10.159  1.00  0.00     0.074 A 
ATOM     21  C   UNL     1      18.887   2.319   8.969  1.00  0.00     0.031 C 
ATOM     22  C   UNL     1      17.666  -3.449  12.571  1.00  0.00     0.029 A 
ATOM     23  C   UNL     1      18.710  -2.583  13.103  1.00  0.00     0.049 A 
ATOM     24  H   UNL     1      19.346  -0.745  12.351  1.00  0.00     0.167 HD
ATOM     25  C   UNL     1      20.622   3.059  10.584  1.00  0.00     0.037 A 
ATOM     26  C   UNL     1      19.452  -2.850  14.193  1.00  0.00     0.037 A 
ATOM     27  C   UNL     1      21.420   2.889  11.774  1.00  0.00     0.049 A 
ATOM     28  C   UNL     1      20.505  -1.867  14.612  1.00  0.00     0.074 A 
ATOM     29  C   UNL     1      22.366   3.749  12.305  1.00  0.00     0.029 A 
ATOM     30  N   UNL     1      21.377   1.782  12.612  1.00  0.00    -0.354 N 
ATOM     31  N   UNL     1      20.820  -0.717  14.066  1.00  0.00    -0.248 NA
ATOM     32  C   UNL     1      21.305  -2.215  15.792  1.00  0.00     0.031 C 
ATOM     33  C   UNL     1      22.934   3.139  13.428  1.00  0.00     0.029 A 
ATOM     34  C   UNL     1      22.298   1.926  13.638  1.00  0.00     0.049 A 
ATOM     35  H   UNL     1      20.779   1.009  12.495  1.00  0.00     0.167 HD
ATOM     36  C   UNL     1      21.841  -0.193  14.849  1.00  0.00     0.074 A 
ATOM     37  C   UNL     1      22.077  -1.144  15.916  1.00  0.00     0.031 C 
ATOM     38  C   UNL     1      22.521   0.970  14.696  1.00  0.00     0.037 A 
BRANCH  25  39
ATOM     39  C   UNL     1      20.844   4.295   9.752  1.00  0.00     0.058 A 
ATOM     40  C   UNL     1      19.884   5.317   9.671  1.00  0.00     0.135 A 
ATOM     41  C   UNL     1      22.056   4.485   9.067  1.00  0.00     0.135 A 
ATOM     42  F   UNL     1      18.702   5.186  10.294  1.00  0.00    -0.206 F 
ATOM     43  C   UNL     1      20.107   6.468   8.921  1.00  0.00     0.059 A 
ATOM     44  C   UNL     1      22.312   5.642   8.335  1.00  0.00     0.059 A 
ATOM     45  F   UNL     1      23.012   3.543   9.110  1.00  0.00    -0.206 F 
ATOM     46  C   UNL     1      21.325   6.622   8.257  1.00  0.00     0.060 A 
BRANCH  46  47
ATOM     47  S   UNL     1      21.596   8.123   7.290  1.00  0.00     0.124 S 
ATOM     48  O   UNL     1      20.688   7.912   6.166  1.00  0.00    -0.237 OA
ATOM     49  O   UNL     1      21.209   9.171   8.228  1.00  0.00    -0.237 OA
ATOM     50  O   UNL     1      23.017   8.068   6.965  1.00  0.00    -0.744 OA
ENDBRANCH  46  47
ENDBRANCH  25  39
BRANCH  26  51
ATOM     51  C   UNL     1      19.226  -4.112  14.946  1.00  0.00     0.058 A 
ATOM     52  C   UNL     1      18.688  -4.097  16.240  1.00  0.00     0.135 A 
ATOM     53  C   UNL     1      19.516  -5.361  14.372  1.00  0.00     0.135 A 
ATOM     54  F   UNL     1      18.396  -2.928  16.831  1.00  0.00    -0.206 F 
ATOM     55  C   UNL     1      18.459  -5.272  16.946  1.00  0.00     0.059 A 
ATOM     56  C   UNL     1      19.266  -6.551  15.045  1.00  0.00     0.059 A 
ATOM     57  F   UNL     1      20.014  -5.431  13.128  1.00  0.00    -0.206 F 
ATOM     58  C   UNL     1      18.747  -6.496  16.338  1.00  0.00     0.060 A 
BRANCH  58  59
ATOM     59  S   UNL     1      18.402  -8.016  17.247  1.00  0.00     0.124 S 
ATOM     60  O   UNL     1      19.445  -7.991  18.265  1.00  0.00    -0.237 OA
ATOM     61  O   UNL     1      17.040  -7.786  17.719  1.00  0.00    -0.237 OA
ATOM     62  O   UNL     1      18.537  -9.054  16.229  1.00  0.00    -0.744 OA
ENDBRANCH  58  59
ENDBRANCH  26  51
BRANCH  38  63
ATOM     63  C   UNL     1      23.564   1.298  15.729  1.00  0.00     0.058 A 
ATOM     64  C   UNL     1      24.781   0.602  15.800  1.00  0.00     0.135 A 
ATOM     65  C   UNL     1      23.360   2.355  16.632  1.00  0.00     0.135 A 
ATOM     66  F   UNL     1      25.022  -0.424  14.969  1.00  0.00    -0.206 F 
ATOM     67  C   UNL     1      25.750   0.928  16.743  1.00  0.00     0.059 A 
ATOM     68  C   UNL     1      24.329   2.719  17.562  1.00  0.00     0.059 A 
ATOM     69  F   UNL     1      22.217   3.058  16.604  1.00  0.00    -0.206 F 
ATOM     70  C   UNL     1      25.517   1.992  17.617  1.00  0.00     0.060 A 
BRANCH  70  71
ATOM     71  S   UNL     1      26.801   2.430  18.807  1.00  0.00     0.124 S 
ATOM     72  O   UNL     1      26.721   1.319  19.749  1.00  0.00    -0.237 OA
ATOM     73  O   UNL     1      27.998   2.470  17.973  1.00  0.00    -0.237 OA
ATOM     74  O   UNL     1      26.360   3.723  19.323  1.00  0.00    -0.744 OA
ENDBRANCH  70  71
ENDBRANCH  38  63
ENDBRANCH  12  13
ENDBRANCH   5   7
ENDBRANCH   2   3
ENDBRANCH   1   2
BRANCH   1  75
ATOM     75  C   UNL     1      10.132   0.236   5.724  1.00  0.00     0.023 C 
BRANCH  75  76
ATOM     76  C   UNL     1       9.037  -0.292   6.647  1.00  0.00     0.116 C 
BRANCH  76  77
ATOM     77  N   UNL     1       8.591   0.736   7.572  1.00  0.00    -0.356 N 
ATOM     78  C   UNL     1       7.432   1.456   7.538  1.00  0.00     0.225 C 
ATOM     79  H   UNL     1       9.202   0.938   8.316  1.00  0.00     0.163 HD
ATOM     80  O   UNL     1       7.273   2.383   8.328  1.00  0.00    -0.275 OA
BRANCH  78  81
ATOM     81  C   UNL     1       6.375   1.025   6.556  1.00  0.00     0.107 C 
ATOM     82  C   UNL     1       5.636  -0.200   7.091  1.00  0.00     0.116 C 
ATOM     83  C   UNL     1       5.279   2.053   6.370  1.00  0.00     0.139 C 
ATOM     84  C   UNL     1       4.251  -0.050   6.531  1.00  0.00     0.227 C 
ATOM     85  N   UNL     1       4.121   1.253   6.053  1.00  0.00    -0.311 N 
ATOM     86  O   UNL     1       3.427  -0.954   6.505  1.00  0.00    -0.274 OA
BRANCH  85  87
ATOM     87  C   UNL     1       2.939   1.815   5.541  1.00  0.00     0.047 A 
ATOM     88  C   UNL     1       2.991   2.734   4.490  1.00  0.00     0.026 A 
ATOM     89  C   UNL     1       1.701   1.469   6.096  1.00  0.00     0.073 A 
ATOM     90  C   UNL     1       1.815   3.281   3.981  1.00  0.00     0.006 A 
ATOM     91  C   UNL     1       0.528   2.071   5.642  1.00  0.00     0.131 A 
ATOM     92  C   UNL     1       0.590   2.955   4.562  1.00  0.00     0.047 A 
BRANCH  91  93
ATOM     93  O   UNL     1      -0.721   1.884   6.163  1.00  0.00    -0.406 OA
BRANCH  93  94
ATOM     94  C   UNL     1      -0.805   1.254   7.433  1.00  0.00     0.573 C 
ATOM     95  F   UNL     1      -0.484  -0.054   7.347  1.00  0.00    -0.132 F 
ATOM     96  F   UNL     1      -0.013   1.860   8.344  1.00  0.00    -0.132 F 
ATOM     97  F   UNL     1      -2.082   1.342   7.872  1.00  0.00    -0.132 F 
ENDBRANCH  93  94
ENDBRANCH  91  93
ENDBRANCH  85  87
ENDBRANCH  78  81
ENDBRANCH  76  77
ENDBRANCH  75  76
ENDBRANCH   1  75
TORSDOF 17
