REMARK SMILES C=C(C)[C@@H]1CC=C(CN2C[C@]34C=C[C@H](O3)[C@H](C(=O)NCCCCNC(=O)c3ccc(-c5c6nc(c(-c7c(F)cc(S(=O)(=O)[O-])cc7F)c7ccc([nH]7)c(-c7c(F)cc(S(=O)(=O)[O-])cc7F)c7nc(c(-c8c(F)cc(S(=O)(=O)[O-])cc8F)c8ccc5[nH]8)C=C7)C=C6)cc3)[C@@H]4C2=O)CC1
REMARK SMILES IDX 21 1 20 2 19 3 17 4 18 5 16 7 9 8 10 9 94 10 11 11 93 12
REMARK SMILES IDX 95 13 12 14 15 15 13 16 14 17 8 18 7 19 4 20 5 21 97 22 6 23
REMARK SMILES IDX 96 24 2 25 1 26 3 27 22 28 23 29 24 30 25 31 26 33 27 34
REMARK SMILES IDX 28 35 92 36 29 37 91 38 30 39 31 40 32 41 85 42 33 43 90 44
REMARK SMILES IDX 84 45 86 46 34 47 89 48 83 49 82 50 35 52 69 53 48 54 68 55
REMARK SMILES IDX 49 56 52 57 67 58 87 59 50 60 51 61 66 63 88 64 53 65 36 66
REMARK SMILES IDX 37 67 46 68 38 69 39 70 45 71 47 72 40 73 41 74 42 75 43 76
REMARK SMILES IDX 44 77 70 78 71 79 80 80 72 81 73 82 79 83 81 84 74 85 75 86
REMARK SMILES IDX 76 87 77 88 78 89 54 90 55 91 64 92 56 93 57 94 63 95 65 96
REMARK SMILES IDX 58 97 59 98 60 99 61 100 62 101
REMARK H PARENT 19 6 24 32 86 51 52 62
REMARK Flexibility Score: inf
ROOT
ATOM      1  C   UNL     1       1.638   7.842   1.976  1.00  0.00     0.023 C 
ENDROOT
BRANCH   1   2
ATOM      2  C   UNL     1       2.852   7.104   1.415  1.00  0.00     0.116 C 
BRANCH   2   3
ATOM      3  N   UNL     1       2.625   5.683   1.500  1.00  0.00    -0.356 N 
ATOM      4  C   UNL     1       2.913   4.712   0.602  1.00  0.00     0.227 C 
ATOM      5  O   UNL     1       2.304   3.652   0.749  1.00  0.00    -0.275 OA
ATOM      6  H   UNL     1       2.198   5.374   2.331  1.00  0.00     0.163 HD
BRANCH   4   7
ATOM      7  C   UNL     1       4.026   4.925  -0.429  1.00  0.00     0.127 C 
ATOM      8  N   UNL     1       2.679   2.020  -1.738  1.00  0.00    -0.335 N 
ATOM      9  C   UNL     1       4.057   1.551  -1.593  1.00  0.00     0.160 C 
ATOM     10  C   UNL     1       2.576   3.385  -1.921  1.00  0.00     0.230 C 
ATOM     11  C   UNL     1       4.811   2.822  -1.243  1.00  0.00     0.117 C 
ATOM     12  C   UNL     1       3.902   4.007  -1.654  1.00  0.00     0.132 C 
ATOM     13  O   UNL     1       1.585   4.014  -2.268  1.00  0.00    -0.274 OA
ATOM     14  C   UNL     1       6.206   3.235  -1.599  1.00  0.00     0.009 C 
ATOM     15  O   UNL     1       4.949   2.960   0.200  1.00  0.00    -0.360 OA
ATOM     16  C   UNL     1       6.483   4.250  -0.755  1.00  0.00     0.004 C 
ATOM     17  C   UNL     1       5.314   4.362   0.202  1.00  0.00     0.155 C 
BRANCH   8  18
ATOM     18  C   UNL     1       1.469   1.235  -1.690  1.00  0.00     0.150 C 
BRANCH  18  19
ATOM     19  C   UNL     1       1.629  -0.117  -1.068  1.00  0.00    -0.055 C 
ATOM     20  C   UNL     1       0.996  -2.657   0.139  1.00  0.00     0.018 C 
ATOM     21  C   UNL     1       1.645  -2.607  -1.267  1.00  0.00     0.035 C 
ATOM     22  C   UNL     1       1.699  -1.599   1.017  1.00  0.00     0.013 C 
ATOM     23  C   UNL     1       1.716  -1.220  -1.829  1.00  0.00    -0.025 C 
ATOM     24  C   UNL     1       1.529  -0.185   0.439  1.00  0.00     0.033 C 
BRANCH  20  25
ATOM     25  C   UNL     1       0.943  -4.066   0.741  1.00  0.00    -0.077 C 
ATOM     26  C   UNL     1       0.730  -4.293   2.050  1.00  0.00     0.008 C 
ATOM     27  C   UNL     1       1.043  -5.242  -0.197  1.00  0.00     0.039 C 
ENDBRANCH  20  25
ENDBRANCH  18  19
ENDBRANCH   8  18
ENDBRANCH   4   7
ENDBRANCH   2   3
ENDBRANCH   1   2
BRANCH   1  28
ATOM     28  C   UNL     1       1.505   7.761   3.501  1.00  0.00     0.023 C 
BRANCH  28  29
ATOM     29  C   UNL     1       2.614   8.470   4.272  1.00  0.00     0.116 C 
BRANCH  29  30
ATOM     30  N   UNL     1       2.683   9.888   3.954  1.00  0.00    -0.352 N 
ATOM     31  C   UNL     1       2.596  10.981   4.779  1.00  0.00     0.251 C 
ATOM     32  H   UNL     1       2.812  10.095   3.000  1.00  0.00     0.163 HD
ATOM     33  O   UNL     1       2.481  12.100   4.287  1.00  0.00    -0.269 OA
BRANCH  31  34
ATOM     34  C   UNL     1       2.620  10.813   6.247  1.00  0.00     0.039 A 
ATOM     35  C   UNL     1       1.722  11.550   7.023  1.00  0.00     0.014 A 
ATOM     36  C   UNL     1       3.528   9.946   6.861  1.00  0.00     0.014 A 
ATOM     37  C   UNL     1       1.688  11.366   8.407  1.00  0.00     0.010 A 
ATOM     38  C   UNL     1       3.445   9.711   8.232  1.00  0.00     0.010 A 
ATOM     39  C   UNL     1       2.522  10.415   9.019  1.00  0.00    -0.014 A 
BRANCH  39  40
ATOM     40  C   UNL     1       2.419  10.126  10.473  1.00  0.00     0.031 A 
ATOM     41  C   UNL     1       3.579  10.401  11.390  1.00  0.00     0.074 A 
ATOM     42  C   UNL     1       1.299   9.550  10.955  1.00  0.00     0.049 A 
ATOM     43  N   UNL     1       3.696  10.152  12.669  1.00  0.00    -0.248 NA
ATOM     44  C   UNL     1       4.773  11.015  10.787  1.00  0.00     0.031 C 
ATOM     45  C   UNL     1       0.124   9.190  10.158  1.00  0.00     0.029 A 
ATOM     46  N   UNL     1       0.969   9.156  12.227  1.00  0.00    -0.354 N 
ATOM     47  C   UNL     1       4.975  10.568  13.023  1.00  0.00     0.074 A 
ATOM     48  C   UNL     1       5.613  11.039  11.812  1.00  0.00     0.031 C 
ATOM     49  C   UNL     1      -0.804   8.648  10.962  1.00  0.00     0.029 A 
ATOM     50  C   UNL     1      -0.278   8.582  12.322  1.00  0.00     0.049 A 
ATOM     51  H   UNL     1       1.568   9.272  13.000  1.00  0.00     0.167 HD
ATOM     52  C   UNL     1       5.555  10.575  14.247  1.00  0.00     0.037 A 
ATOM     53  C   UNL     1      -0.921   8.052  13.380  1.00  0.00     0.037 A 
ATOM     54  C   UNL     1       4.907  10.122  15.451  1.00  0.00     0.049 A 
ATOM     55  C   UNL     1      -0.251   8.062  14.727  1.00  0.00     0.074 A 
ATOM     56  C   UNL     1       5.391  10.145  16.748  1.00  0.00     0.029 A 
ATOM     57  N   UNL     1       3.640   9.559  15.508  1.00  0.00    -0.354 N 
ATOM     58  N   UNL     1       0.934   8.520  15.054  1.00  0.00    -0.248 NA
ATOM     59  C   UNL     1      -1.005   7.486  15.849  1.00  0.00     0.031 C 
ATOM     60  C   UNL     1       4.436   9.552  17.582  1.00  0.00     0.029 A 
ATOM     61  C   UNL     1       3.336   9.208  16.814  1.00  0.00     0.049 A 
ATOM     62  H   UNL     1       3.045   9.429  14.735  1.00  0.00     0.167 HD
ATOM     63  C   UNL     1       1.057   8.310  16.424  1.00  0.00     0.074 A 
ATOM     64  C   UNL     1      -0.179   7.698  16.865  1.00  0.00     0.031 C 
ATOM     65  C   UNL     1       2.100   8.600  17.241  1.00  0.00     0.037 A 
BRANCH  52  66
ATOM     66  C   UNL     1       6.965  11.093  14.349  1.00  0.00     0.058 A 
ATOM     67  C   UNL     1       7.264  12.454  14.181  1.00  0.00     0.135 A 
ATOM     68  C   UNL     1       8.025  10.225  14.659  1.00  0.00     0.135 A 
ATOM     69  F   UNL     1       6.292  13.327  13.870  1.00  0.00    -0.206 F 
ATOM     70  C   UNL     1       8.566  12.932  14.287  1.00  0.00     0.059 A 
ATOM     71  C   UNL     1       9.331  10.686  14.798  1.00  0.00     0.059 A 
ATOM     72  F   UNL     1       7.796   8.913  14.831  1.00  0.00    -0.206 F 
ATOM     73  C   UNL     1       9.594  12.040  14.595  1.00  0.00     0.060 A 
BRANCH  73  74
ATOM     74  S   UNL     1      11.277  12.678  14.732  1.00  0.00     0.124 S 
ATOM     75  O   UNL     1      11.602  12.941  13.333  1.00  0.00    -0.237 OA
ATOM     76  O   UNL     1      11.097  13.857  15.573  1.00  0.00    -0.237 OA
ATOM     77  O   UNL     1      12.009  11.577  15.349  1.00  0.00    -0.744 OA
ENDBRANCH  73  74
ENDBRANCH  52  66
BRANCH  53  78
ATOM     78  C   UNL     1      -2.284   7.482  13.210  1.00  0.00     0.058 A 
ATOM     79  C   UNL     1      -3.407   8.123  13.754  1.00  0.00     0.135 A 
ATOM     80  C   UNL     1      -2.494   6.295  12.490  1.00  0.00     0.135 A 
ATOM     81  F   UNL     1      -3.257   9.257  14.455  1.00  0.00    -0.206 F 
ATOM     82  C   UNL     1      -4.688   7.602  13.605  1.00  0.00     0.059 A 
ATOM     83  C   UNL     1      -3.768   5.768  12.305  1.00  0.00     0.059 A 
ATOM     84  F   UNL     1      -1.455   5.652  11.936  1.00  0.00    -0.206 F 
ATOM     85  C   UNL     1      -4.858   6.424  12.876  1.00  0.00     0.060 A 
BRANCH  85  86
ATOM     86  S   UNL     1      -6.530   5.782  12.647  1.00  0.00     0.124 S 
ATOM     87  O   UNL     1      -6.828   5.260  13.976  1.00  0.00    -0.237 OA
ATOM     88  O   UNL     1      -7.266   6.978  12.250  1.00  0.00    -0.237 OA
ATOM     89  O   UNL     1      -6.365   4.780  11.598  1.00  0.00    -0.744 OA
ENDBRANCH  85  86
ENDBRANCH  53  78
BRANCH  65  90
ATOM     90  C   UNL     1       1.942   8.284  18.703  1.00  0.00     0.058 A 
ATOM     91  C   UNL     1       1.964   6.964  19.180  1.00  0.00     0.135 A 
ATOM     92  C   UNL     1       1.815   9.318  19.645  1.00  0.00     0.135 A 
ATOM     93  F   UNL     1       2.075   5.937  18.322  1.00  0.00    -0.206 F 
ATOM     94  C   UNL     1       1.843   6.679  20.536  1.00  0.00     0.059 A 
ATOM     95  C   UNL     1       1.722   9.058  21.009  1.00  0.00     0.059 A 
ATOM     96  F   UNL     1       1.798  10.599  19.244  1.00  0.00    -0.206 F 
ATOM     97  C   UNL     1       1.725   7.733  21.444  1.00  0.00     0.060 A 
BRANCH  97  98
ATOM     98  S   UNL     1       1.605   7.351  23.204  1.00  0.00     0.124 S 
ATOM     99  O   UNL     1       0.242   6.839  23.301  1.00  0.00    -0.237 OA
ATOM    100  O   UNL     1       2.667   6.366  23.383  1.00  0.00    -0.237 OA
ATOM    101  O   UNL     1       1.839   8.640  23.849  1.00  0.00    -0.744 OA
ENDBRANCH  97  98
ENDBRANCH  65  90
ENDBRANCH  39  40
ENDBRANCH  31  34
ENDBRANCH  29  30
ENDBRANCH  28  29
ENDBRANCH   1  28
TORSDOF 17
