REMARK SMILES O=C(NCCCCNC(=O)c1ccn(-c2cc(-c3ccncc3)nc(-c3ccccc3F)n2)n1)c1ccc(-c2c3nc(c(-c4c(F)cc(S(=O)(=O)[O-])cc4F)c4ccc([nH]4)c(-c4c(F)cc(S(=O)(=O)[O-])cc4F)c4nc(c(-c5c(F)cc(S(=O)(=O)[O-])cc5F)c5ccc2[nH]5)C=C4)C=C3)cc1
REMARK SMILES IDX 5 1 4 2 3 3 1 4 2 5 35 7 36 8 100 9 37 10 99 11 38 12 39 13
REMARK SMILES IDX 40 14 93 15 41 16 98 17 92 18 94 19 42 20 97 21 91 22 90 23
REMARK SMILES IDX 43 25 77 26 56 27 76 28 57 29 60 30 75 31 95 32 58 33 59 34
REMARK SMILES IDX 74 36 96 37 61 38 44 39 45 40 54 41 46 42 47 43 53 44 55 45
REMARK SMILES IDX 48 46 49 47 50 48 51 49 52 50 78 51 79 52 88 53 80 54 81 55
REMARK SMILES IDX 87 56 89 57 82 58 83 59 84 60 85 61 86 62 62 63 63 64 72 65
REMARK SMILES IDX 64 66 65 67 71 68 73 69 66 70 67 71 68 72 69 73 70 74 6 75
REMARK SMILES IDX 7 76 8 77 9 78 10 80 11 81 12 82 34 83 13 84 14 85 15 86
REMARK SMILES IDX 16 87 33 88 17 89 25 90 24 91 18 92 19 93 23 94 20 95 22 96
REMARK SMILES IDX 21 97 26 98 27 99 31 100 28 101 30 102 32 103 29 104
REMARK H PARENT 3 6 94 24 60 35 8 79
REMARK Flexibility Score: inf
ROOT
ATOM      1  C   UNL     1       4.990   1.946  -1.095  1.00  0.00     0.023 C 
ENDROOT
BRANCH   1   2
ATOM      2  C   UNL     1       4.662   0.889  -0.041  1.00  0.00     0.116 C 
BRANCH   2   3
ATOM      3  N   UNL     1       3.254   0.787   0.281  1.00  0.00    -0.352 N 
ATOM      4  O   UNL     1       1.179   0.120   0.530  1.00  0.00    -0.269 OA
ATOM      5  C   UNL     1       2.205   0.025  -0.153  1.00  0.00     0.251 C 
ATOM      6  H   UNL     1       2.986   1.423   0.983  1.00  0.00     0.163 HD
BRANCH   5   7
ATOM      7  C   UNL     1       2.178  -0.842  -1.367  1.00  0.00     0.039 A 
ATOM      8  C   UNL     1       3.254  -1.137  -2.203  1.00  0.00     0.014 A 
ATOM      9  C   UNL     1       0.914  -1.375  -1.702  1.00  0.00     0.014 A 
ATOM     10  C   UNL     1       3.058  -1.890  -3.368  1.00  0.00     0.010 A 
ATOM     11  C   UNL     1       0.714  -2.122  -2.862  1.00  0.00     0.010 A 
ATOM     12  C   UNL     1       1.782  -2.357  -3.718  1.00  0.00    -0.014 A 
BRANCH  12  13
ATOM     13  C   UNL     1       1.635  -3.203  -4.908  1.00  0.00     0.031 A 
ATOM     14  C   UNL     1       2.380  -4.499  -4.851  1.00  0.00     0.074 A 
ATOM     15  C   UNL     1       0.795  -2.959  -5.939  1.00  0.00     0.049 A 
ATOM     16  N   UNL     1       3.354  -4.899  -5.604  1.00  0.00    -0.248 NA
ATOM     17  C   UNL     1       2.059  -5.426  -3.754  1.00  0.00     0.031 C 
ATOM     18  C   UNL     1      -0.233  -1.922  -6.056  1.00  0.00     0.029 A 
ATOM     19  N   UNL     1       0.640  -3.666  -7.098  1.00  0.00    -0.354 N 
ATOM     20  C   UNL     1       3.659  -6.197  -5.194  1.00  0.00     0.074 A 
ATOM     21  C   UNL     1       2.917  -6.422  -3.980  1.00  0.00     0.031 C 
ATOM     22  C   UNL     1      -1.032  -2.194  -7.116  1.00  0.00     0.029 A 
ATOM     23  C   UNL     1      -0.488  -3.330  -7.841  1.00  0.00     0.049 A 
ATOM     24  H   UNL     1       1.278  -4.358  -7.387  1.00  0.00     0.167 HD
ATOM     25  C   UNL     1       4.380  -7.058  -5.967  1.00  0.00     0.037 A 
ATOM     26  C   UNL     1      -0.952  -3.958  -8.955  1.00  0.00     0.037 A 
ATOM     27  C   UNL     1       5.082  -6.369  -7.014  1.00  0.00     0.049 A 
ATOM     28  C   UNL     1       0.192  -4.699  -9.542  1.00  0.00     0.074 A 
ATOM     29  C   UNL     1       6.079  -5.415  -7.046  1.00  0.00     0.029 A 
ATOM     30  N   UNL     1       4.533  -6.375  -8.272  1.00  0.00    -0.354 N 
ATOM     31  N   UNL     1       1.248  -4.133 -10.059  1.00  0.00    -0.248 NA
ATOM     32  C   UNL     1       0.347  -6.097  -9.173  1.00  0.00     0.031 C 
ATOM     33  C   UNL     1       5.738  -4.565  -8.137  1.00  0.00     0.029 A 
ATOM     34  C   UNL     1       4.591  -5.087  -8.739  1.00  0.00     0.049 A 
ATOM     35  H   UNL     1       4.166  -7.155  -8.748  1.00  0.00     0.167 HD
ATOM     36  C   UNL     1       2.302  -4.956  -9.695  1.00  0.00     0.074 A 
ATOM     37  C   UNL     1       1.677  -6.188  -9.221  1.00  0.00     0.031 C 
ATOM     38  C   UNL     1       3.571  -4.473  -9.562  1.00  0.00     0.037 A 
BRANCH  25  39
ATOM     39  C   UNL     1       4.234  -8.559  -5.951  1.00  0.00     0.058 A 
ATOM     40  C   UNL     1       3.046  -9.212  -5.557  1.00  0.00     0.135 A 
ATOM     41  C   UNL     1       5.193  -9.374  -6.589  1.00  0.00     0.135 A 
ATOM     42  F   UNL     1       2.010  -8.540  -5.038  1.00  0.00    -0.206 F 
ATOM     43  C   UNL     1       2.828 -10.569  -5.762  1.00  0.00     0.059 A 
ATOM     44  C   UNL     1       4.975 -10.729  -6.850  1.00  0.00     0.059 A 
ATOM     45  F   UNL     1       6.349  -8.851  -7.030  1.00  0.00    -0.206 F 
ATOM     46  C   UNL     1       3.786 -11.317  -6.432  1.00  0.00     0.060 A 
BRANCH  46  47
ATOM     47  S   UNL     1       3.398 -13.035  -6.816  1.00  0.00     0.124 S 
ATOM     48  O   UNL     1       3.372 -13.632  -5.484  1.00  0.00    -0.237 OA
ATOM     49  O   UNL     1       2.106 -12.910  -7.482  1.00  0.00    -0.237 OA
ATOM     50  O   UNL     1       4.505 -13.449  -7.670  1.00  0.00    -0.744 OA
ENDBRANCH  46  47
ENDBRANCH  25  39
BRANCH  26  51
ATOM     51  C   UNL     1      -2.360  -4.280  -9.331  1.00  0.00     0.058 A 
ATOM     52  C   UNL     1      -3.361  -4.421  -8.351  1.00  0.00     0.135 A 
ATOM     53  C   UNL     1      -2.679  -4.771 -10.613  1.00  0.00     0.135 A 
ATOM     54  F   UNL     1      -3.149  -4.024  -7.087  1.00  0.00    -0.206 F 
ATOM     55  C   UNL     1      -4.573  -5.064  -8.605  1.00  0.00     0.059 A 
ATOM     56  C   UNL     1      -3.888  -5.423 -10.892  1.00  0.00     0.059 A 
ATOM     57  F   UNL     1      -1.780  -4.695 -11.607  1.00  0.00    -0.206 F 
ATOM     58  C   UNL     1      -4.816  -5.593  -9.869  1.00  0.00     0.060 A 
BRANCH  58  59
ATOM     59  S   UNL     1      -6.318  -6.573 -10.106  1.00  0.00     0.124 S 
ATOM     60  O   UNL     1      -6.101  -7.681  -9.180  1.00  0.00    -0.237 OA
ATOM     61  O   UNL     1      -7.363  -5.628  -9.724  1.00  0.00    -0.237 OA
ATOM     62  O   UNL     1      -6.281  -6.923 -11.522  1.00  0.00    -0.744 OA
ENDBRANCH  58  59
ENDBRANCH  26  51
BRANCH  38  63
ATOM     63  C   UNL     1       3.889  -3.098 -10.093  1.00  0.00     0.058 A 
ATOM     64  C   UNL     1       4.934  -2.987 -11.023  1.00  0.00     0.135 A 
ATOM     65  C   UNL     1       3.364  -1.902  -9.569  1.00  0.00     0.135 A 
ATOM     66  F   UNL     1       5.505  -4.093 -11.528  1.00  0.00    -0.206 F 
ATOM     67  C   UNL     1       5.466  -1.756 -11.390  1.00  0.00     0.059 A 
ATOM     68  C   UNL     1       3.862  -0.652  -9.950  1.00  0.00     0.059 A 
ATOM     69  F   UNL     1       2.419  -1.921  -8.619  1.00  0.00    -0.206 F 
ATOM     70  C   UNL     1       4.933  -0.592 -10.840  1.00  0.00     0.060 A 
BRANCH  70  71
ATOM     71  S   UNL     1       5.708   0.981 -11.268  1.00  0.00     0.124 S 
ATOM     72  O   UNL     1       7.020   0.850 -10.640  1.00  0.00    -0.237 OA
ATOM     73  O   UNL     1       5.703   0.945 -12.727  1.00  0.00    -0.237 OA
ATOM     74  O   UNL     1       4.829   1.979 -10.667  1.00  0.00    -0.744 OA
ENDBRANCH  70  71
ENDBRANCH  38  63
ENDBRANCH  12  13
ENDBRANCH   5   7
ENDBRANCH   2   3
ENDBRANCH   1   2
BRANCH   1  75
ATOM     75  C   UNL     1       4.482   3.367  -0.801  1.00  0.00     0.023 C 
BRANCH  75  76
ATOM     76  C   UNL     1       4.917   3.976   0.533  1.00  0.00     0.116 C 
BRANCH  76  77
ATOM     77  N   UNL     1       6.352   4.165   0.606  1.00  0.00    -0.351 N 
ATOM     78  C   UNL     1       7.068   5.333   0.733  1.00  0.00     0.271 C 
ATOM     79  H   UNL     1       6.890   3.342   0.558  1.00  0.00     0.163 HD
ATOM     80  O   UNL     1       8.292   5.286   0.643  1.00  0.00    -0.267 OA
BRANCH  78  81
ATOM     81  C   UNL     1       6.357   6.581   1.044  1.00  0.00     0.150 A 
ATOM     82  C   UNL     1       5.626   6.874   2.224  1.00  0.00     0.056 A 
ATOM     83  N   UNL     1       6.400   7.651   0.227  1.00  0.00    -0.161 NA
ATOM     84  C   UNL     1       5.357   8.219   2.154  1.00  0.00     0.118 A 
ATOM     85  N   UNL     1       5.873   8.664   0.959  1.00  0.00    -0.222 N 
BRANCH  85  86
ATOM     86  C   UNL     1       5.902  10.015   0.511  1.00  0.00     0.158 A 
ATOM     87  C   UNL     1       5.935  10.259  -0.847  1.00  0.00     0.078 A 
ATOM     88  N   UNL     1       5.882  10.998   1.443  1.00  0.00    -0.209 NA
ATOM     89  C   UNL     1       5.896  11.586  -1.222  1.00  0.00     0.077 A 
ATOM     90  C   UNL     1       5.943  12.255   0.973  1.00  0.00     0.165 A 
ATOM     91  N   UNL     1       5.945  12.594  -0.327  1.00  0.00    -0.228 NA
BRANCH  89  92
ATOM     92  C   UNL     1       5.730  11.998  -2.619  1.00  0.00     0.003 A 
ATOM     93  C   UNL     1       4.605  11.603  -3.356  1.00  0.00     0.030 A 
ATOM     94  C   UNL     1       6.665  12.827  -3.246  1.00  0.00     0.030 A 
ATOM     95  C   UNL     1       4.469  12.043  -4.662  1.00  0.00     0.111 A 
ATOM     96  C   UNL     1       6.446  13.207  -4.560  1.00  0.00     0.111 A 
ATOM     97  N   UNL     1       5.367  12.837  -5.281  1.00  0.00    -0.265 NA
ENDBRANCH  89  92
BRANCH  90  98
ATOM     98  C   UNL     1       6.153  13.325   1.938  1.00  0.00     0.055 A 
ATOM     99  C   UNL     1       7.355  13.416   2.665  1.00  0.00     0.015 A 
ATOM    100  C   UNL     1       5.185  14.310   2.151  1.00  0.00     0.134 A 
ATOM    101  C   UNL     1       7.577  14.467   3.561  1.00  0.00     0.001 A 
ATOM    102  C   UNL     1       5.396  15.357   3.050  1.00  0.00     0.040 A 
ATOM    103  F   UNL     1       4.012  14.261   1.501  1.00  0.00    -0.206 F 
ATOM    104  C   UNL     1       6.597  15.439   3.753  1.00  0.00     0.003 A 
ENDBRANCH  90  98
ENDBRANCH  85  86
ENDBRANCH  78  81
ENDBRANCH  76  77
ENDBRANCH  75  76
ENDBRANCH   1  75
TORSDOF 17
