REMARK SMILES COc1cc(-c2ccc(NC(=O)CCC(=O)NCCCCNC(=O)c3ccc(-c4c5nc(c(-c6c(F)cc(S(=O)(=O)[O-])cc6F)c6ccc([nH]6)c(-c6c(F)cc(S(=O)(=O)[O-])cc6F)c6nc(c(-c7c(F)cc(S(=O)(=O)[O-])cc7F)c7ccc4[nH]7)C=C6)C=C5)cc3)c(OC)c2)ccc1N
REMARK SMILES IDX 18 1 17 2 15 3 16 4 14 6 13 7 11 8 10 9 12 11 9 12 6 13 7 14
REMARK SMILES IDX 94 15 8 16 91 17 5 18 3 19 4 20 97 21 96 22 95 23 2 24 1 25
REMARK SMILES IDX 98 26 92 29 93 30 19 31 20 32 21 33 22 34 23 35 24 37 25 38
REMARK SMILES IDX 26 39 90 40 27 41 89 42 28 43 29 44 30 45 83 46 31 47 88 48
REMARK SMILES IDX 82 49 84 50 32 51 87 52 81 53 80 54 33 56 67 57 46 58 66 59
REMARK SMILES IDX 47 60 50 61 65 62 85 63 48 64 49 65 64 67 86 68 51 69 34 70
REMARK SMILES IDX 35 71 44 72 36 73 37 74 43 75 45 76 38 77 39 78 40 79 41 80
REMARK SMILES IDX 42 81 68 82 69 83 78 84 70 85 71 86 77 87 79 88 72 89 73 90
REMARK SMILES IDX 74 91 75 92 76 93 52 94 53 95 62 96 54 97 55 98 61 99 63 100
REMARK SMILES IDX 56 101 57 102 58 103 59 104 60 105
REMARK H PARENT 17 5 10 10 98 27 98 28 22 36 84 55 50 66
REMARK Flexibility Score: inf
ROOT
ATOM      1  C   UNL     1      -5.375   7.145   0.150  1.00  0.00     0.116 C 
ENDROOT
BRANCH   1   2
ATOM      2  N   UNL     1      -4.894   5.727   0.363  1.00  0.00    -0.356 N 
ATOM      3  C   UNL     1      -4.963   4.637   1.227  1.00  0.00     0.220 C 
ATOM      4  O   UNL     1      -4.585   3.583   0.675  1.00  0.00    -0.275 OA
ATOM      5  H   UNL     1      -4.315   5.482  -0.395  1.00  0.00     0.163 HD
BRANCH   3   6
ATOM      6  C   UNL     1      -5.402   4.493   2.799  1.00  0.00     0.110 C 
BRANCH   6   7
ATOM      7  C   UNL     1      -4.425   4.613   4.138  1.00  0.00     0.110 C 
BRANCH   7   8
ATOM      8  C   UNL     1      -4.190   5.875   5.183  1.00  0.00     0.224 C 
ATOM      9  N   UNL     1      -3.225   6.884   5.002  1.00  0.00    -0.323 N 
ATOM     10  H   UNL     1      -3.046   7.489   5.758  1.00  0.00     0.170 HD
ATOM     11  O   UNL     1      -4.882   5.957   6.207  1.00  0.00    -0.275 OA
BRANCH   9  12
ATOM     12  C   UNL     1      -2.506   7.083   3.822  1.00  0.00     0.083 A 
ATOM     13  C   UNL     1      -0.811   5.889   1.980  1.00  0.00    -0.014 A 
ATOM     14  C   UNL     1      -0.394   7.011   2.722  1.00  0.00     0.011 A 
ATOM     15  C   UNL     1      -2.206   5.781   1.897  1.00  0.00     0.057 A 
ATOM     16  C   UNL     1      -1.228   7.583   3.703  1.00  0.00     0.031 A 
ATOM     17  C   UNL     1      -3.062   6.560   2.715  1.00  0.00     0.142 A 
BRANCH  13  18
ATOM     18  C   UNL     1       0.172   4.870   1.433  1.00  0.00    -0.014 A 
ATOM     19  C   UNL     1       0.817   2.750   0.295  1.00  0.00     0.142 A 
ATOM     20  C   UNL     1      -0.161   3.712   0.684  1.00  0.00     0.057 A 
ATOM     21  C   UNL     1       2.178   2.958   0.564  1.00  0.00     0.074 A 
ATOM     22  C   UNL     1       2.506   4.038   1.373  1.00  0.00     0.030 A 
ATOM     23  C   UNL     1       1.535   4.963   1.784  1.00  0.00     0.011 A 
BRANCH  19  24
ATOM     24  O   UNL     1       0.374   1.666  -0.436  1.00  0.00    -0.495 OA
ATOM     25  C   UNL     1       0.668   0.405   0.176  1.00  0.00     0.278 C 
ENDBRANCH  19  24
BRANCH  21  26
ATOM     26  N   UNL     1       3.190   2.087   0.164  1.00  0.00    -0.396 N 
ATOM     27  H   UNL     1       2.977   1.315  -0.409  1.00  0.00     0.156 HD
ATOM     28  H   UNL     1       4.117   2.242   0.455  1.00  0.00     0.156 HD
ENDBRANCH  21  26
ENDBRANCH  13  18
BRANCH  17  29
ATOM     29  O   UNL     1      -4.422   6.618   2.596  1.00  0.00    -0.495 OA
ATOM     30  C   UNL     1      -5.434   7.384   3.330  1.00  0.00     0.278 C 
ENDBRANCH  17  29
ENDBRANCH   9  12
ENDBRANCH   7   8
ENDBRANCH   6   7
ENDBRANCH   3   6
ENDBRANCH   1   2
BRANCH   1  31
ATOM     31  C   UNL     1      -4.738   8.476   0.708  1.00  0.00     0.023 C 
BRANCH  31  32
ATOM     32  C   UNL     1      -3.398   9.032   0.254  1.00  0.00     0.023 C 
BRANCH  32  33
ATOM     33  C   UNL     1      -3.517  10.021  -0.882  1.00  0.00     0.116 C 
BRANCH  33  34
ATOM     34  N   UNL     1      -4.380  11.173  -0.592  1.00  0.00    -0.352 N 
ATOM     35  C   UNL     1      -4.218  12.494  -0.932  1.00  0.00     0.251 C 
ATOM     36  H   UNL     1      -5.195  10.969  -0.078  1.00  0.00     0.163 HD
ATOM     37  O   UNL     1      -5.029  13.338  -0.539  1.00  0.00    -0.269 OA
BRANCH  35  38
ATOM     38  C   UNL     1      -3.044  12.896  -1.726  1.00  0.00     0.039 A 
ATOM     39  C   UNL     1      -2.340  14.052  -1.384  1.00  0.00     0.014 A 
ATOM     40  C   UNL     1      -2.592  12.075  -2.757  1.00  0.00     0.014 A 
ATOM     41  C   UNL     1      -1.133  14.329  -2.026  1.00  0.00     0.010 A 
ATOM     42  C   UNL     1      -1.325  12.265  -3.275  1.00  0.00     0.010 A 
ATOM     43  C   UNL     1      -0.593  13.411  -2.942  1.00  0.00    -0.014 A 
BRANCH  43  44
ATOM     44  C   UNL     1       0.707  13.638  -3.615  1.00  0.00     0.031 A 
ATOM     45  C   UNL     1       0.756  13.681  -5.121  1.00  0.00     0.074 A 
ATOM     46  C   UNL     1       1.837  13.719  -2.887  1.00  0.00     0.049 A 
ATOM     47  N   UNL     1       1.793  13.760  -5.912  1.00  0.00    -0.248 NA
ATOM     48  C   UNL     1      -0.530  13.569  -5.835  1.00  0.00     0.031 C 
ATOM     49  C   UNL     1       1.918  13.620  -1.427  1.00  0.00     0.029 A 
ATOM     50  N   UNL     1       3.140  13.896  -3.277  1.00  0.00    -0.354 N 
ATOM     51  C   UNL     1       1.286  13.682  -7.204  1.00  0.00     0.074 A 
ATOM     52  C   UNL     1      -0.136  13.465  -7.094  1.00  0.00     0.031 C 
ATOM     53  C   UNL     1       3.195  13.777  -1.044  1.00  0.00     0.029 A 
ATOM     54  C   UNL     1       4.030  13.942  -2.229  1.00  0.00     0.049 A 
ATOM     55  H   UNL     1       3.413  13.983  -4.219  1.00  0.00     0.167 HD
ATOM     56  C   UNL     1       1.942  13.820  -8.379  1.00  0.00     0.037 A 
ATOM     57  C   UNL     1       5.368  14.095  -2.230  1.00  0.00     0.037 A 
ATOM     58  C   UNL     1       3.352  14.086  -8.473  1.00  0.00     0.049 A 
ATOM     59  C   UNL     1       6.075  14.265  -3.548  1.00  0.00     0.074 A 
ATOM     60  C   UNL     1       4.110  14.315  -9.605  1.00  0.00     0.029 A 
ATOM     61  N   UNL     1       4.213  14.162  -7.388  1.00  0.00    -0.354 N 
ATOM     62  N   UNL     1       5.571  14.262  -4.760  1.00  0.00    -0.248 NA
ATOM     63  C   UNL     1       7.529  14.467  -3.501  1.00  0.00     0.031 C 
ATOM     64  C   UNL     1       5.441  14.481  -9.209  1.00  0.00     0.029 A 
ATOM     65  C   UNL     1       5.501  14.414  -7.825  1.00  0.00     0.049 A 
ATOM     66  H   UNL     1       3.948  14.053  -6.446  1.00  0.00     0.167 HD
ATOM     67  C   UNL     1       6.641  14.491  -5.618  1.00  0.00     0.074 A 
ATOM     68  C   UNL     1       7.816  14.642  -4.784  1.00  0.00     0.031 C 
ATOM     69  C   UNL     1       6.653  14.571  -6.972  1.00  0.00     0.037 A 
BRANCH  56  70
ATOM     70  C   UNL     1       1.139  13.704  -9.647  1.00  0.00     0.058 A 
ATOM     71  C   UNL     1       0.177  14.665 -10.004  1.00  0.00     0.135 A 
ATOM     72  C   UNL     1       1.348  12.632 -10.528  1.00  0.00     0.135 A 
ATOM     73  F   UNL     1      -0.080  15.701  -9.190  1.00  0.00    -0.206 F 
ATOM     74  C   UNL     1      -0.570  14.548 -11.171  1.00  0.00     0.059 A 
ATOM     75  C   UNL     1       0.636  12.513 -11.718  1.00  0.00     0.059 A 
ATOM     76  F   UNL     1       2.250  11.682 -10.236  1.00  0.00    -0.206 F 
ATOM     77  C   UNL     1      -0.332  13.469 -12.023  1.00  0.00     0.060 A 
BRANCH  77  78
ATOM     78  S   UNL     1      -1.302  13.343 -13.540  1.00  0.00     0.124 S 
ATOM     79  O   UNL     1      -2.613  12.973 -13.016  1.00  0.00    -0.237 OA
ATOM     80  O   UNL     1      -1.197  14.690 -14.089  1.00  0.00    -0.237 OA
ATOM     81  O   UNL     1      -0.614  12.303 -14.298  1.00  0.00    -0.744 OA
ENDBRANCH  77  78
ENDBRANCH  56  70
BRANCH  57  82
ATOM     82  C   UNL     1       6.117  14.126  -0.944  1.00  0.00     0.058 A 
ATOM     83  C   UNL     1       6.712  15.309  -0.483  1.00  0.00     0.135 A 
ATOM     84  C   UNL     1       6.241  12.980  -0.143  1.00  0.00     0.135 A 
ATOM     85  F   UNL     1       6.625  16.432  -1.213  1.00  0.00    -0.206 F 
ATOM     86  C   UNL     1       7.421  15.353   0.714  1.00  0.00     0.059 A 
ATOM     87  C   UNL     1       6.920  13.005   1.072  1.00  0.00     0.059 A 
ATOM     88  F   UNL     1       5.673  11.825  -0.526  1.00  0.00    -0.206 F 
ATOM     89  C   UNL     1       7.517  14.195   1.486  1.00  0.00     0.060 A 
BRANCH  89  90
ATOM     90  S   UNL     1       8.401  14.273   3.059  1.00  0.00     0.124 S 
ATOM     91  O   UNL     1       9.785  14.390   2.613  1.00  0.00    -0.237 OA
ATOM     92  O   UNL     1       7.824  15.464   3.675  1.00  0.00    -0.237 OA
ATOM     93  O   UNL     1       8.051  13.011   3.704  1.00  0.00    -0.744 OA
ENDBRANCH  89  90
ENDBRANCH  57  82
BRANCH  69  94
ATOM     94  C   UNL     1       7.967  14.872  -7.636  1.00  0.00     0.058 A 
ATOM     95  C   UNL     1       8.996  13.921  -7.703  1.00  0.00     0.135 A 
ATOM     96  C   UNL     1       8.170  16.108  -8.273  1.00  0.00     0.135 A 
ATOM     97  F   UNL     1       8.854  12.727  -7.107  1.00  0.00    -0.206 F 
ATOM     98  C   UNL     1      10.192  14.194  -8.359  1.00  0.00     0.059 A 
ATOM     99  C   UNL     1       9.344  16.389  -8.961  1.00  0.00     0.059 A 
ATOM    100  F   UNL     1       7.210  17.047  -8.249  1.00  0.00    -0.206 F 
ATOM    101  C   UNL     1      10.354  15.429  -8.989  1.00  0.00     0.060 A 
BRANCH 101 102
ATOM    102  S   UNL     1      11.896  15.753  -9.869  1.00  0.00     0.124 S 
ATOM    103  O   UNL     1      12.834  15.927  -8.765  1.00  0.00    -0.237 OA
ATOM    104  O   UNL     1      12.064  14.537 -10.659  1.00  0.00    -0.237 OA
ATOM    105  O   UNL     1      11.602  16.958 -10.639  1.00  0.00    -0.744 OA
ENDBRANCH 101 102
ENDBRANCH  69  94
ENDBRANCH  43  44
ENDBRANCH  35  38
ENDBRANCH  33  34
ENDBRANCH  32  33
ENDBRANCH  31  32
ENDBRANCH   1  31
TORSDOF 21
