REMARK SMILES Nc1ncc(C(=O)NCCCCNC(=O)c2ccc(-c3c4nc(c(-c5c(F)cc(S(=O)(=O)[O-])cc5F)c5ccc([nH]5)c(-c5c(F)cc(S(=O)(=O)[O-])cc5F)c5nc(c(-c6c(F)cc(S(=O)(=O)[O-])cc6F)c6ccc3[nH]6)C=C5)C=C4)cc2)c(-c2ccccc2)n1
REMARK SMILES IDX 11 1 10 2 9 3 8 4 6 5 7 6 5 8 2 9 3 10 89 11 4 12 82 13 1 14
REMARK SMILES IDX 83 17 84 18 88 19 85 20 87 21 86 22 12 23 13 24 14 25 15 27
REMARK SMILES IDX 16 28 17 29 81 30 18 31 80 32 19 33 20 34 21 35 74 36 22 37
REMARK SMILES IDX 79 38 73 39 75 40 23 41 78 42 72 43 71 44 24 46 58 47 37 48
REMARK SMILES IDX 57 49 38 50 41 51 56 52 76 53 39 54 40 55 55 57 77 58 42 59
REMARK SMILES IDX 25 60 26 61 35 62 27 63 28 64 34 65 36 66 29 67 30 68 31 69
REMARK SMILES IDX 32 70 33 71 59 72 60 73 69 74 61 75 62 76 68 77 70 78 63 79
REMARK SMILES IDX 64 80 65 81 66 82 67 83 43 84 44 85 53 86 45 87 46 88 52 89
REMARK SMILES IDX 54 90 47 91 48 92 49 93 50 94 51 95
REMARK H PARENT 8 7 1 15 1 16 13 26 75 45 41 56
REMARK Flexibility Score: inf
ROOT
ATOM      1  C   UNL     1       6.040  -3.320  -1.541  1.00  0.00     0.023 C 
ENDROOT
BRANCH   1   2
ATOM      2  C   UNL     1       4.677  -2.918  -2.104  1.00  0.00     0.023 C 
BRANCH   2   3
ATOM      3  C   UNL     1       3.657  -2.360  -1.123  1.00  0.00     0.116 C 
BRANCH   3   4
ATOM      4  N   UNL     1       3.993  -1.122  -0.465  1.00  0.00    -0.352 N 
ATOM      5  C   UNL     1       3.178  -0.206   0.158  1.00  0.00     0.255 C 
ATOM      6  O   UNL     1       3.729   0.744   0.719  1.00  0.00    -0.269 OA
ATOM      7  H   UNL     1       4.951  -0.898  -0.462  1.00  0.00     0.163 HD
BRANCH   5   8
ATOM      8  C   UNL     1       1.692  -0.209   0.131  1.00  0.00     0.084 A 
ATOM      9  C   UNL     1      -1.015   0.230   0.077  1.00  0.00     0.220 A 
ATOM     10  N   UNL     1      -0.223   1.291  -0.024  1.00  0.00    -0.221 NA
ATOM     11  N   UNL     1      -0.576  -1.018   0.214  1.00  0.00    -0.212 NA
ATOM     12  C   UNL     1       1.109   1.045   0.012  1.00  0.00     0.131 A 
ATOM     13  C   UNL     1       0.770  -1.238   0.258  1.00  0.00     0.089 A 
BRANCH   9  14
ATOM     14  N   UNL     1      -2.363   0.423   0.038  1.00  0.00    -0.368 N 
ATOM     15  H   UNL     1      -2.727   1.332  -0.062  1.00  0.00     0.159 HD
ATOM     16  H   UNL     1      -2.972  -0.347   0.110  1.00  0.00     0.159 HD
ENDBRANCH   9  14
BRANCH  13  17
ATOM     17  C   UNL     1       1.056  -2.666   0.431  1.00  0.00     0.001 A 
ATOM     18  C   UNL     1       1.696  -3.178   1.570  1.00  0.00     0.010 A 
ATOM     19  C   UNL     1       0.674  -3.571  -0.584  1.00  0.00     0.010 A 
ATOM     20  C   UNL     1       2.005  -4.541   1.655  1.00  0.00     0.001 A 
ATOM     21  C   UNL     1       1.001  -4.925  -0.507  1.00  0.00     0.001 A 
ATOM     22  C   UNL     1       1.674  -5.407   0.611  1.00  0.00     0.000 A 
ENDBRANCH  13  17
ENDBRANCH   5   8
ENDBRANCH   3   4
ENDBRANCH   2   3
ENDBRANCH   1   2
BRANCH   1  23
ATOM     23  C   UNL     1       6.066  -4.066  -0.208  1.00  0.00     0.116 C 
BRANCH  23  24
ATOM     24  N   UNL     1       5.295  -5.301  -0.182  1.00  0.00    -0.352 N 
ATOM     25  C   UNL     1       5.682  -6.608   0.041  1.00  0.00     0.251 C 
ATOM     26  H   UNL     1       4.332  -5.185  -0.351  1.00  0.00     0.163 HD
ATOM     27  O   UNL     1       4.852  -7.502   0.004  1.00  0.00    -0.269 OA
BRANCH  25  28
ATOM     28  C   UNL     1       7.112  -6.930   0.268  1.00  0.00     0.039 A 
ATOM     29  C   UNL     1       7.697  -7.957  -0.480  1.00  0.00     0.014 A 
ATOM     30  C   UNL     1       7.883  -6.201   1.172  1.00  0.00     0.014 A 
ATOM     31  C   UNL     1       9.079  -8.161  -0.416  1.00  0.00     0.010 A 
ATOM     32  C   UNL     1       9.268  -6.343   1.167  1.00  0.00     0.010 A 
ATOM     33  C   UNL     1       9.885  -7.308   0.355  1.00  0.00    -0.014 A 
BRANCH  33  34
ATOM     34  C   UNL     1      11.371  -7.366   0.297  1.00  0.00     0.031 A 
ATOM     35  C   UNL     1      12.168  -7.632   1.546  1.00  0.00     0.074 A 
ATOM     36  C   UNL     1      12.006  -7.066  -0.856  1.00  0.00     0.049 A 
ATOM     37  N   UNL     1      13.462  -7.575   1.730  1.00  0.00    -0.248 NA
ATOM     38  C   UNL     1      11.404  -7.967   2.758  1.00  0.00     0.031 C 
ATOM     39  C   UNL     1      11.351  -6.726  -2.122  1.00  0.00     0.029 A 
ATOM     40  N   UNL     1      13.345  -6.977  -1.147  1.00  0.00    -0.354 N 
ATOM     41  C   UNL     1      13.665  -7.832   3.081  1.00  0.00     0.074 A 
ATOM     42  C   UNL     1      12.357  -8.001   3.678  1.00  0.00     0.031 C 
ATOM     43  C   UNL     1      12.286  -6.489  -3.056  1.00  0.00     0.029 A 
ATOM     44  C   UNL     1      13.607  -6.617  -2.450  1.00  0.00     0.049 A 
ATOM     45  H   UNL     1      14.053  -7.154  -0.486  1.00  0.00     0.167 HD
ATOM     46  C   UNL     1      14.833  -7.939   3.758  1.00  0.00     0.037 A 
ATOM     47  C   UNL     1      14.777  -6.404  -3.083  1.00  0.00     0.037 A 
ATOM     48  C   UNL     1      16.131  -7.817   3.148  1.00  0.00     0.049 A 
ATOM     49  C   UNL     1      16.063  -6.570  -2.320  1.00  0.00     0.074 A 
ATOM     50  C   UNL     1      17.376  -7.983   3.731  1.00  0.00     0.029 A 
ATOM     51  N   UNL     1      16.353  -7.508   1.814  1.00  0.00    -0.354 N 
ATOM     52  N   UNL     1      16.236  -6.870  -1.055  1.00  0.00    -0.248 NA
ATOM     53  C   UNL     1      17.312  -6.372  -3.069  1.00  0.00     0.031 C 
ATOM     54  C   UNL     1      18.351  -7.745   2.756  1.00  0.00     0.029 A 
ATOM     55  C   UNL     1      17.713  -7.469   1.556  1.00  0.00     0.049 A 
ATOM     56  H   UNL     1      15.647  -7.341   1.148  1.00  0.00     0.167 HD
ATOM     57  C   UNL     1      17.611  -6.924  -0.863  1.00  0.00     0.074 A 
ATOM     58  C   UNL     1      18.224  -6.634  -2.143  1.00  0.00     0.031 C 
ATOM     59  C   UNL     1      18.305  -7.190   0.272  1.00  0.00     0.037 A 
BRANCH  46  60
ATOM     60  C   UNL     1      14.758  -8.212   5.236  1.00  0.00     0.058 A 
ATOM     61  C   UNL     1      14.333  -9.454   5.734  1.00  0.00     0.135 A 
ATOM     62  C   UNL     1      15.132  -7.228   6.165  1.00  0.00     0.135 A 
ATOM     63  F   UNL     1      13.951 -10.426   4.890  1.00  0.00    -0.206 F 
ATOM     64  C   UNL     1      14.246  -9.699   7.100  1.00  0.00     0.059 A 
ATOM     65  C   UNL     1      15.079  -7.461   7.537  1.00  0.00     0.059 A 
ATOM     66  F   UNL     1      15.547  -6.023   5.745  1.00  0.00    -0.206 F 
ATOM     67  C   UNL     1      14.617  -8.694   7.995  1.00  0.00     0.060 A 
BRANCH  67  68
ATOM     68  S   UNL     1      14.490  -9.025   9.765  1.00  0.00     0.124 S 
ATOM     69  O   UNL     1      13.048  -8.931   9.974  1.00  0.00    -0.237 OA
ATOM     70  O   UNL     1      15.060 -10.364   9.876  1.00  0.00    -0.237 OA
ATOM     71  O   UNL     1      15.283  -7.958  10.367  1.00  0.00    -0.744 OA
ENDBRANCH  67  68
ENDBRANCH  46  60
BRANCH  47  72
ATOM     72  C   UNL     1      14.788  -6.045  -4.527  1.00  0.00     0.058 A 
ATOM     73  C   UNL     1      15.203  -6.975  -5.492  1.00  0.00     0.135 A 
ATOM     74  C   UNL     1      14.369  -4.783  -4.973  1.00  0.00     0.135 A 
ATOM     75  F   UNL     1      15.619  -8.193  -5.114  1.00  0.00    -0.206 F 
ATOM     76  C   UNL     1      15.216  -6.663  -6.848  1.00  0.00     0.059 A 
ATOM     77  C   UNL     1      14.351  -4.455  -6.326  1.00  0.00     0.059 A 
ATOM     78  F   UNL     1      13.946  -3.864  -4.092  1.00  0.00    -0.206 F 
ATOM     79  C   UNL     1      14.786  -5.400  -7.256  1.00  0.00     0.060 A 
BRANCH  79  80
ATOM     80  S   UNL     1      14.752  -5.025  -9.023  1.00  0.00     0.124 S 
ATOM     81  O   UNL     1      16.168  -4.831  -9.309  1.00  0.00    -0.237 OA
ATOM     82  O   UNL     1      14.146  -6.230  -9.581  1.00  0.00    -0.237 OA
ATOM     83  O   UNL     1      13.922  -3.826  -9.094  1.00  0.00    -0.744 OA
ENDBRANCH  79  80
ENDBRANCH  47  72
BRANCH  59  84
ATOM     84  C   UNL     1      19.803  -7.216   0.174  1.00  0.00     0.058 A 
ATOM     85  C   UNL     1      20.555  -6.037   0.067  1.00  0.00     0.135 A 
ATOM     86  C   UNL     1      20.497  -8.435   0.244  1.00  0.00     0.135 A 
ATOM     87  F   UNL     1      19.938  -4.847  -0.010  1.00  0.00    -0.206 F 
ATOM     88  C   UNL     1      21.945  -6.066   0.014  1.00  0.00     0.059 A 
ATOM     89  C   UNL     1      21.886  -8.486   0.216  1.00  0.00     0.059 A 
ATOM     90  F   UNL     1      19.823  -9.591   0.356  1.00  0.00    -0.206 F 
ATOM     91  C   UNL     1      22.602  -7.295   0.091  1.00  0.00     0.060 A 
BRANCH  91  92
ATOM     92  S   UNL     1      24.407  -7.318   0.061  1.00  0.00     0.124 S 
ATOM     93  O   UNL     1      24.679  -7.084  -1.353  1.00  0.00    -0.237 OA
ATOM     94  O   UNL     1      24.750  -6.223   0.963  1.00  0.00    -0.237 OA
ATOM     95  O   UNL     1      24.737  -8.653   0.552  1.00  0.00    -0.744 OA
ENDBRANCH  91  92
ENDBRANCH  59  84
ENDBRANCH  33  34
ENDBRANCH  25  28
ENDBRANCH  23  24
ENDBRANCH   1  23
TORSDOF 16
