REMARK SMILES C[C@@H]1CC[C@@]1(SC1CCCCC1)C(=O)NCCCCNC(=O)c1ccc(-c2c3nc(c(-c4c(F)cc(S(=O)(=O)[O-])cc4F)c4ccc([nH]4)c(-c4c(F)cc(S(=O)(=O)[O-])cc4F)c4nc(c(-c5c(F)cc(S(=O)(=O)[O-])cc5F)c5ccc2[nH]5)C=C4)C=C3)cc1
REMARK SMILES IDX 18 1 17 2 16 3 15 4 13 5 14 6 5 8 1 9 2 10 3 11 4 12 6 13
REMARK SMILES IDX 7 14 8 15 12 16 9 17 11 18 10 19 19 20 20 21 21 22 22 24
REMARK SMILES IDX 23 25 24 26 88 27 25 28 87 29 26 30 27 31 28 32 81 33 29 34
REMARK SMILES IDX 86 35 80 36 82 37 30 38 85 39 79 40 78 41 31 43 65 44 44 45
REMARK SMILES IDX 64 46 45 47 48 48 63 49 83 50 46 51 47 52 62 54 84 55 49 56
REMARK SMILES IDX 32 57 33 58 42 59 34 60 35 61 41 62 43 63 36 64 37 65 38 66
REMARK SMILES IDX 39 67 40 68 66 69 67 70 76 71 68 72 69 73 75 74 77 75 70 76
REMARK SMILES IDX 71 77 72 78 73 79 74 80 50 81 51 82 60 83 52 84 53 85 59 86
REMARK SMILES IDX 61 87 54 88 55 89 56 90 57 91 58 92
REMARK H PARENT 15 7 20 23 82 42 48 53
REMARK Flexibility Score: inf
ROOT
ATOM      1  C   UNL     1       0.663   2.147  -4.925  1.00  0.00     0.023 C 
ENDROOT
BRANCH   1   2
ATOM      2  C   UNL     1       1.157   1.186  -3.842  1.00  0.00     0.023 C 
BRANCH   2   3
ATOM      3  C   UNL     1       1.636   1.887  -2.578  1.00  0.00     0.116 C 
BRANCH   3   4
ATOM      4  N   UNL     1       0.529   2.471  -1.853  1.00  0.00    -0.355 N 
ATOM      5  C   UNL     1       0.034   2.198  -0.599  1.00  0.00     0.236 C 
ATOM      6  O   UNL     1      -0.867   2.961  -0.218  1.00  0.00    -0.273 OA
ATOM      7  H   UNL     1       0.051   3.182  -2.338  1.00  0.00     0.163 HD
BRANCH   5   8
ATOM      8  C   UNL     1       0.559   0.985   0.263  1.00  0.00     0.097 C 
ATOM      9  C   UNL     1      -1.407   0.140   2.015  1.00  0.00     0.009 C 
ATOM     10  C   UNL     1      -0.673   0.043   0.689  1.00  0.00     0.012 C 
ATOM     11  C   UNL     1       0.252  -1.176   0.539  1.00  0.00     0.007 C 
ATOM     12  C   UNL     1       1.159  -0.320  -0.350  1.00  0.00     0.028 C 
BRANCH   8  13
ATOM     13  S   UNL     1       1.475   1.548   1.803  1.00  0.00    -0.141 SA
BRANCH  13  14
ATOM     14  C   UNL     1       2.972   2.442   1.243  1.00  0.00     0.047 C 
ATOM     15  C   UNL     1       4.021   1.512   0.628  1.00  0.00     0.014 C 
ATOM     16  C   UNL     1       2.741   3.716   0.424  1.00  0.00     0.014 C 
ATOM     17  C   UNL     1       5.313   2.260   0.303  1.00  0.00     0.001 C 
ATOM     18  C   UNL     1       4.047   4.414   0.034  1.00  0.00     0.001 C 
ATOM     19  C   UNL     1       5.040   3.450  -0.609  1.00  0.00     0.000 C 
ENDBRANCH  13  14
ENDBRANCH   8  13
ENDBRANCH   5   8
ENDBRANCH   3   4
ENDBRANCH   2   3
ENDBRANCH   1   2
BRANCH   1  20
ATOM     20  C   UNL     1       1.686   3.185  -5.376  1.00  0.00     0.116 C 
BRANCH  20  21
ATOM     21  N   UNL     1       2.907   2.581  -5.885  1.00  0.00    -0.352 N 
ATOM     22  C   UNL     1       3.635   2.930  -6.994  1.00  0.00     0.251 C 
ATOM     23  H   UNL     1       3.258   1.822  -5.365  1.00  0.00     0.163 HD
ATOM     24  O   UNL     1       4.552   2.205  -7.376  1.00  0.00    -0.269 OA
BRANCH  22  25
ATOM     25  C   UNL     1       3.296   4.162  -7.735  1.00  0.00     0.039 A 
ATOM     26  C   UNL     1       3.240   4.118  -9.129  1.00  0.00     0.014 A 
ATOM     27  C   UNL     1       3.033   5.356  -7.057  1.00  0.00     0.014 A 
ATOM     28  C   UNL     1       2.887   5.266  -9.841  1.00  0.00     0.010 A 
ATOM     29  C   UNL     1       2.600   6.474  -7.763  1.00  0.00     0.010 A 
ATOM     30  C   UNL     1       2.544   6.449  -9.164  1.00  0.00    -0.014 A 
BRANCH  30  31
ATOM     31  C   UNL     1       2.168   7.675  -9.915  1.00  0.00     0.031 A 
ATOM     32  C   UNL     1       3.022   8.913  -9.811  1.00  0.00     0.074 A 
ATOM     33  C   UNL     1       1.045   7.684 -10.663  1.00  0.00     0.049 A 
ATOM     34  N   UNL     1       2.855  10.080 -10.378  1.00  0.00    -0.248 NA
ATOM     35  C   UNL     1       4.205   8.842  -8.936  1.00  0.00     0.031 C 
ATOM     36  C   UNL     1       0.104   6.568 -10.794  1.00  0.00     0.029 A 
ATOM     37  N   UNL     1       0.500   8.667 -11.450  1.00  0.00    -0.354 N 
ATOM     38  C   UNL     1       3.892  10.882  -9.913  1.00  0.00     0.074 A 
ATOM     39  C   UNL     1       4.658  10.087  -8.981  1.00  0.00     0.031 C 
ATOM     40  C   UNL     1      -0.885   6.921 -11.632  1.00  0.00     0.029 A 
ATOM     41  C   UNL     1      -0.670   8.296 -12.072  1.00  0.00     0.049 A 
ATOM     42  H   UNL     1       0.909   9.556 -11.561  1.00  0.00     0.167 HD
ATOM     43  C   UNL     1       4.191  12.158 -10.252  1.00  0.00     0.037 A 
ATOM     44  C   UNL     1      -1.478   8.988 -12.899  1.00  0.00     0.037 A 
ATOM     45  C   UNL     1       3.453  12.928 -11.218  1.00  0.00     0.049 A 
ATOM     46  C   UNL     1      -1.097  10.395 -13.283  1.00  0.00     0.074 A 
ATOM     47  C   UNL     1       3.727  14.199 -11.692  1.00  0.00     0.029 A 
ATOM     48  N   UNL     1       2.299  12.502 -11.857  1.00  0.00    -0.354 N 
ATOM     49  N   UNL     1      -0.061  11.104 -12.901  1.00  0.00    -0.248 NA
ATOM     50  C   UNL     1      -1.984  11.089 -14.226  1.00  0.00     0.031 C 
ATOM     51  C   UNL     1       2.707  14.565 -12.576  1.00  0.00     0.029 A 
ATOM     52  C   UNL     1       1.837  13.495 -12.705  1.00  0.00     0.049 A 
ATOM     53  H   UNL     1       1.871  11.625 -11.728  1.00  0.00     0.167 HD
ATOM     54  C   UNL     1      -0.149  12.308 -13.593  1.00  0.00     0.074 A 
ATOM     55  C   UNL     1      -1.330  12.224 -14.426  1.00  0.00     0.031 C 
ATOM     56  C   UNL     1       0.672  13.387 -13.546  1.00  0.00     0.037 A 
BRANCH  43  57
ATOM     57  C   UNL     1       5.372  12.813  -9.589  1.00  0.00     0.058 A 
ATOM     58  C   UNL     1       6.692  12.444  -9.890  1.00  0.00     0.135 A 
ATOM     59  C   UNL     1       5.178  13.893  -8.711  1.00  0.00     0.135 A 
ATOM     60  F   UNL     1       6.935  11.406 -10.706  1.00  0.00    -0.206 F 
ATOM     61  C   UNL     1       7.778  13.120  -9.344  1.00  0.00     0.059 A 
ATOM     62  C   UNL     1       6.250  14.602  -8.176  1.00  0.00     0.059 A 
ATOM     63  F   UNL     1       3.936  14.283  -8.382  1.00  0.00    -0.206 F 
ATOM     64  C   UNL     1       7.547  14.206  -8.498  1.00  0.00     0.060 A 
BRANCH  64  65
ATOM     65  S   UNL     1       8.968  15.114  -7.853  1.00  0.00     0.124 S 
ATOM     66  O   UNL     1       9.523  14.151  -6.906  1.00  0.00    -0.237 OA
ATOM     67  O   UNL     1       9.759  15.347  -9.057  1.00  0.00    -0.237 OA
ATOM     68  O   UNL     1       8.370  16.305  -7.258  1.00  0.00    -0.744 OA
ENDBRANCH  64  65
ENDBRANCH  43  57
BRANCH  44  69
ATOM     69  C   UNL     1      -2.724   8.372 -13.435  1.00  0.00     0.058 A 
ATOM     70  C   UNL     1      -2.874   8.107 -14.806  1.00  0.00     0.135 A 
ATOM     71  C   UNL     1      -3.812   8.085 -12.595  1.00  0.00     0.135 A 
ATOM     72  F   UNL     1      -1.865   8.362 -15.652  1.00  0.00    -0.206 F 
ATOM     73  C   UNL     1      -4.073   7.634 -15.332  1.00  0.00     0.059 A 
ATOM     74  C   UNL     1      -5.008   7.579 -13.093  1.00  0.00     0.059 A 
ATOM     75  F   UNL     1      -3.715   8.295 -11.273  1.00  0.00    -0.206 F 
ATOM     76  C   UNL     1      -5.138   7.382 -14.467  1.00  0.00     0.060 A 
BRANCH  76  77
ATOM     77  S   UNL     1      -6.695   6.784 -15.158  1.00  0.00     0.124 S 
ATOM     78  O   UNL     1      -7.213   7.989 -15.796  1.00  0.00    -0.237 OA
ATOM     79  O   UNL     1      -6.247   5.726 -16.058  1.00  0.00    -0.237 OA
ATOM     80  O   UNL     1      -7.429   6.326 -13.982  1.00  0.00    -0.744 OA
ENDBRANCH  76  77
ENDBRANCH  44  69
BRANCH  56  81
ATOM     81  C   UNL     1       0.366  14.530 -14.475  1.00  0.00     0.058 A 
ATOM     82  C   UNL     1      -0.761  15.351 -14.307  1.00  0.00     0.135 A 
ATOM     83  C   UNL     1       1.229  14.816 -15.546  1.00  0.00     0.135 A 
ATOM     84  F   UNL     1      -1.618  15.124 -13.299  1.00  0.00    -0.206 F 
ATOM     85  C   UNL     1      -1.050  16.379 -15.199  1.00  0.00     0.059 A 
ATOM     86  C   UNL     1       0.980  15.862 -16.428  1.00  0.00     0.059 A 
ATOM     87  F   UNL     1       2.332  14.077 -15.744  1.00  0.00    -0.206 F 
ATOM     88  C   UNL     1      -0.176  16.622 -16.260  1.00  0.00     0.060 A 
BRANCH  88  89
ATOM     89  S   UNL     1      -0.569  17.949 -17.419  1.00  0.00     0.124 S 
ATOM     90  O   UNL     1      -1.659  17.355 -18.185  1.00  0.00    -0.237 OA
ATOM     91  O   UNL     1      -0.941  19.043 -16.529  1.00  0.00    -0.237 OA
ATOM     92  O   UNL     1       0.680  18.141 -18.151  1.00  0.00    -0.744 OA
ENDBRANCH  88  89
ENDBRANCH  56  81
ENDBRANCH  30  31
ENDBRANCH  22  25
ENDBRANCH  20  21
ENDBRANCH   1  20
TORSDOF 16
