REMARK SMILES C[C@@H](C(=O)NCCCCNC(=O)c1ccc(-c2c3nc(c(-c4c(F)cc(S(=O)(=O)[O-])cc4F)c4ccc([nH]4)c(-c4c(F)cc(S(=O)(=O)[O-])cc4F)c4nc(c(-c5c(F)cc(S(=O)(=O)[O-])cc5F)c5ccc2[nH]5)C=C4)C=C3)cc1)c1ccc2c3cc(Cl)ccc3n(C(=O)c3cocn3)c2c1
REMARK SMILES IDX 7 1 6 2 5 3 3 4 4 5 2 7 1 8 79 9 80 10 99 11 81 12 98 13
REMARK SMILES IDX 82 14 90 15 83 16 89 17 84 18 88 19 85 20 87 21 86 22 91 23
REMARK SMILES IDX 92 24 93 25 94 26 97 27 95 28 96 29 8 30 9 31 10 32 11 33
REMARK SMILES IDX 12 35 13 36 14 37 78 38 15 39 77 40 16 41 17 42 18 43 71 44
REMARK SMILES IDX 19 45 76 46 70 47 72 48 20 49 75 50 69 51 68 52 21 54 55 55
REMARK SMILES IDX 34 56 54 57 35 58 38 59 53 60 73 61 36 62 37 63 52 65 74 66
REMARK SMILES IDX 39 67 22 68 23 69 32 70 24 71 25 72 31 73 33 74 26 75 27 76
REMARK SMILES IDX 28 77 29 78 30 79 56 80 57 81 66 82 58 83 59 84 65 85 67 86
REMARK SMILES IDX 60 87 61 88 62 89 63 90 64 91 40 92 41 93 50 94 42 95 43 96
REMARK SMILES IDX 49 97 51 98 44 99 45 100 46 101 47 102 48 103
REMARK H PARENT 5 6 10 34 72 53 38 64
REMARK Flexibility Score: inf
ROOT
ATOM      1  C   UNL     1       4.215   0.852   0.802  1.00  0.00     0.023 C 
ENDROOT
BRANCH   1   2
ATOM      2  C   UNL     1       3.478   0.018   1.853  1.00  0.00     0.116 C 
BRANCH   2   3
ATOM      3  N   UNL     1       2.470   0.808   2.528  1.00  0.00    -0.356 N 
ATOM      4  C   UNL     1       1.130   0.906   2.287  1.00  0.00     0.227 C 
ATOM      5  O   UNL     1       0.516   1.764   2.924  1.00  0.00    -0.274 OA
ATOM      6  H   UNL     1       2.802   1.358   3.274  1.00  0.00     0.163 HD
BRANCH   4   7
ATOM      7  C   UNL     1       0.459  -0.057   1.294  1.00  0.00     0.105 C 
ATOM      8  C   UNL     1       0.854   0.196  -0.164  1.00  0.00     0.023 C 
BRANCH   7   9
ATOM      9  C   UNL     1      -1.065  -0.034   1.378  1.00  0.00    -0.034 A 
ATOM     10  C   UNL     1      -1.786   1.119   1.056  1.00  0.00     0.005 A 
ATOM     11  C   UNL     1      -1.753  -1.207   1.724  1.00  0.00     0.032 A 
ATOM     12  C   UNL     1      -3.179   1.105   1.018  1.00  0.00     0.011 A 
ATOM     13  C   UNL     1      -3.163  -1.209   1.722  1.00  0.00     0.058 A 
ATOM     14  C   UNL     1      -3.876  -0.079   1.331  1.00  0.00     0.008 A 
ATOM     15  N   UNL     1      -4.081  -2.227   2.026  1.00  0.00    -0.274 N 
ATOM     16  C   UNL     1      -5.255  -0.410   1.356  1.00  0.00     0.009 A 
ATOM     17  C   UNL     1      -5.378  -1.715   1.849  1.00  0.00     0.057 A 
ATOM     18  C   UNL     1      -6.411   0.334   1.032  1.00  0.00     0.031 A 
ATOM     19  C   UNL     1      -6.654  -2.242   2.136  1.00  0.00     0.029 A 
ATOM     20  C   UNL     1      -7.667  -0.221   1.253  1.00  0.00     0.041 A 
ATOM     21  C   UNL     1      -7.789  -1.483   1.816  1.00  0.00     0.023 A 
ATOM     22  Cl  UNL     1      -9.075   0.685   0.858  1.00  0.00    -0.084 Cl
BRANCH  15  23
ATOM     23  C   UNL     1      -3.709  -3.529   2.462  1.00  0.00     0.284 C 
ATOM     24  O   UNL     1      -2.618  -3.613   3.039  1.00  0.00    -0.266 OA
BRANCH  23  25
ATOM     25  C   UNL     1      -4.479  -4.747   2.239  1.00  0.00     0.167 A 
ATOM     26  C   UNL     1      -5.370  -5.042   1.228  1.00  0.00     0.231 A 
ATOM     27  N   UNL     1      -4.294  -5.894   3.002  1.00  0.00    -0.211 NA
ATOM     28  O   UNL     1      -5.763  -6.342   1.360  1.00  0.00    -0.451 OA
ATOM     29  C   UNL     1      -5.063  -6.790   2.436  1.00  0.00     0.308 A 
ENDBRANCH  23  25
ENDBRANCH  15  23
ENDBRANCH   7   9
ENDBRANCH   4   7
ENDBRANCH   2   3
ENDBRANCH   1   2
BRANCH   1  30
ATOM     30  C   UNL     1       4.991   2.047   1.362  1.00  0.00     0.023 C 
BRANCH  30  31
ATOM     31  C   UNL     1       5.990   1.708   2.459  1.00  0.00     0.116 C 
BRANCH  31  32
ATOM     32  N   UNL     1       6.964   0.716   2.041  1.00  0.00    -0.352 N 
ATOM     33  C   UNL     1       8.303   0.646   2.329  1.00  0.00     0.251 C 
ATOM     34  H   UNL     1       6.615  -0.007   1.471  1.00  0.00     0.163 HD
ATOM     35  O   UNL     1       9.001  -0.192   1.767  1.00  0.00    -0.269 OA
BRANCH  33  36
ATOM     36  C   UNL     1       8.903   1.594   3.293  1.00  0.00     0.039 A 
ATOM     37  C   UNL     1      10.146   2.157   2.991  1.00  0.00     0.014 A 
ATOM     38  C   UNL     1       8.263   1.911   4.495  1.00  0.00     0.014 A 
ATOM     39  C   UNL     1      10.733   3.057   3.882  1.00  0.00     0.010 A 
ATOM     40  C   UNL     1       8.812   2.866   5.345  1.00  0.00     0.010 A 
ATOM     41  C   UNL     1      10.065   3.428   5.061  1.00  0.00    -0.014 A 
BRANCH  41  42
ATOM     42  C   UNL     1      10.696   4.357   6.031  1.00  0.00     0.031 A 
ATOM     43  C   UNL     1      11.079   3.862   7.401  1.00  0.00     0.074 A 
ATOM     44  C   UNL     1      10.894   5.646   5.694  1.00  0.00     0.049 A 
ATOM     45  N   UNL     1      11.633   4.514   8.390  1.00  0.00    -0.248 NA
ATOM     46  C   UNL     1      10.774   2.455   7.710  1.00  0.00     0.031 C 
ATOM     47  C   UNL     1      10.513   6.255   4.417  1.00  0.00     0.029 A 
ATOM     48  N   UNL     1      11.466   6.676   6.396  1.00  0.00    -0.354 N 
ATOM     49  C   UNL     1      11.723   3.607   9.440  1.00  0.00     0.074 A 
ATOM     50  C   UNL     1      11.118   2.375   8.986  1.00  0.00     0.031 C 
ATOM     51  C   UNL     1      10.892   7.544   4.416  1.00  0.00     0.029 A 
ATOM     52  C   UNL     1      11.519   7.858   5.696  1.00  0.00     0.049 A 
ATOM     53  H   UNL     1      11.806   6.578   7.314  1.00  0.00     0.167 HD
ATOM     54  C   UNL     1      12.285   3.775  10.661  1.00  0.00     0.037 A 
ATOM     55  C   UNL     1      12.027   9.056   6.046  1.00  0.00     0.037 A 
ATOM     56  C   UNL     1      12.923   4.992  11.090  1.00  0.00     0.049 A 
ATOM     57  C   UNL     1      12.685   9.206   7.391  1.00  0.00     0.074 A 
ATOM     58  C   UNL     1      13.577   5.248  12.281  1.00  0.00     0.029 A 
ATOM     59  N   UNL     1      12.992   6.155  10.337  1.00  0.00    -0.354 N 
ATOM     60  N   UNL     1      12.822   8.317   8.347  1.00  0.00    -0.248 NA
ATOM     61  C   UNL     1      13.273  10.516   7.698  1.00  0.00     0.031 C 
ATOM     62  C   UNL     1      14.015   6.577  12.262  1.00  0.00     0.029 A 
ATOM     63  C   UNL     1      13.671   7.135  11.041  1.00  0.00     0.049 A 
ATOM     64  H   UNL     1      12.613   6.267   9.435  1.00  0.00     0.167 HD
ATOM     65  C   UNL     1      13.546   8.949   9.352  1.00  0.00     0.074 A 
ATOM     66  C   UNL     1      13.821  10.293   8.885  1.00  0.00     0.031 C 
ATOM     67  C   UNL     1      13.951   8.461  10.551  1.00  0.00     0.037 A 
BRANCH  54  68
ATOM     68  C   UNL     1      12.238   2.612  11.613  1.00  0.00     0.058 A 
ATOM     69  C   UNL     1      13.000   1.451  11.399  1.00  0.00     0.135 A 
ATOM     70  C   UNL     1      11.435   2.663  12.764  1.00  0.00     0.135 A 
ATOM     71  F   UNL     1      13.773   1.341  10.307  1.00  0.00    -0.206 F 
ATOM     72  C   UNL     1      12.941   0.370  12.273  1.00  0.00     0.059 A 
ATOM     73  C   UNL     1      11.383   1.604  13.667  1.00  0.00     0.059 A 
ATOM     74  F   UNL     1      10.686   3.747  13.018  1.00  0.00    -0.206 F 
ATOM     75  C   UNL     1      12.127   0.455  13.403  1.00  0.00     0.060 A 
BRANCH  75  76
ATOM     76  S   UNL     1      12.058  -0.957  14.525  1.00  0.00     0.124 S 
ATOM     77  O   UNL     1      11.232  -1.891  13.767  1.00  0.00    -0.237 OA
ATOM     78  O   UNL     1      13.465  -1.321  14.659  1.00  0.00    -0.237 OA
ATOM     79  O   UNL     1      11.440  -0.405  15.727  1.00  0.00    -0.744 OA
ENDBRANCH  75  76
ENDBRANCH  54  68
BRANCH  55  80
ATOM     80  C   UNL     1      11.986  10.190   5.085  1.00  0.00     0.058 A 
ATOM     81  C   UNL     1      13.156  10.641   4.456  1.00  0.00     0.135 A 
ATOM     82  C   UNL     1      10.783  10.838   4.770  1.00  0.00     0.135 A 
ATOM     83  F   UNL     1      14.332  10.055   4.728  1.00  0.00    -0.206 F 
ATOM     84  C   UNL     1      13.140  11.708   3.565  1.00  0.00     0.059 A 
ATOM     85  C   UNL     1      10.737  11.892   3.863  1.00  0.00     0.059 A 
ATOM     86  F   UNL     1       9.633  10.431   5.330  1.00  0.00    -0.206 F 
ATOM     87  C   UNL     1      11.924  12.328   3.274  1.00  0.00     0.060 A 
BRANCH  87  88
ATOM     88  S   UNL     1      11.906  13.685   2.082  1.00  0.00     0.124 S 
ATOM     89  O   UNL     1      12.489  14.770   2.864  1.00  0.00    -0.237 OA
ATOM     90  O   UNL     1      12.736  13.158   1.004  1.00  0.00    -0.237 OA
ATOM     91  O   UNL     1      10.490  13.828   1.759  1.00  0.00    -0.744 OA
ENDBRANCH  87  88
ENDBRANCH  55  80
BRANCH  67  92
ATOM     92  C   UNL     1      14.783   9.365  11.416  1.00  0.00     0.058 A 
ATOM     93  C   UNL     1      14.231  10.467  12.086  1.00  0.00     0.135 A 
ATOM     94  C   UNL     1      16.151   9.102  11.600  1.00  0.00     0.135 A 
ATOM     95  F   UNL     1      12.930  10.763  11.941  1.00  0.00    -0.206 F 
ATOM     96  C   UNL     1      15.013  11.300  12.880  1.00  0.00     0.059 A 
ATOM     97  C   UNL     1      16.945   9.905  12.411  1.00  0.00     0.059 A 
ATOM     98  F   UNL     1      16.726   8.052  10.993  1.00  0.00    -0.206 F 
ATOM     99  C   UNL     1      16.371  11.012  13.033  1.00  0.00     0.060 A 
BRANCH  99 100
ATOM    100  S   UNL     1      17.376  12.092  14.073  1.00  0.00     0.124 S 
ATOM    101  O   UNL     1      17.569  13.244  13.199  1.00  0.00    -0.237 OA
ATOM    102  O   UNL     1      16.511  12.311  15.229  1.00  0.00    -0.237 OA
ATOM    103  O   UNL     1      18.570  11.295  14.335  1.00  0.00    -0.744 OA
ENDBRANCH  99 100
ENDBRANCH  67  92
ENDBRANCH  41  42
ENDBRANCH  33  36
ENDBRANCH  31  32
ENDBRANCH  30  31
ENDBRANCH   1  30
TORSDOF 17
