REMARK SMILES O=C(NCCCCNC(=O)c1ccnc(S[C@@H]2CCO[C@]3(CCOC3)C2)c1)c1ccc(-c2c3nc(c(-c4c(F)cc(S(=O)(=O)[O-])cc4F)c4ccc([nH]4)c(-c4c(F)cc(S(=O)(=O)[O-])cc4F)c4nc(c(-c5c(F)cc(S(=O)(=O)[O-])cc5F)c5ccc2[nH]5)C=C4)C=C3)cc1
REMARK SMILES IDX 5 1 4 2 3 3 1 4 2 5 28 7 29 8 93 9 30 10 92 11 31 12 32 13
REMARK SMILES IDX 33 14 86 15 34 16 91 17 85 18 87 19 35 20 90 21 84 22 83 23
REMARK SMILES IDX 36 25 70 26 49 27 69 28 50 29 53 30 68 31 88 32 51 33 52 34
REMARK SMILES IDX 67 36 89 37 54 38 37 39 38 40 47 41 39 42 40 43 46 44 48 45
REMARK SMILES IDX 41 46 42 47 43 48 44 49 45 50 71 51 72 52 81 53 73 54 74 55
REMARK SMILES IDX 80 56 82 57 75 58 76 59 77 60 78 61 79 62 55 63 56 64 65 65
REMARK SMILES IDX 57 66 58 67 64 68 66 69 59 70 60 71 61 72 62 73 63 74 6 75
REMARK SMILES IDX 7 76 8 77 9 78 10 80 11 81 12 82 27 83 13 84 15 85 14 86
REMARK SMILES IDX 16 87 17 88 18 89 26 90 19 91 21 92 20 93 22 94 25 95 23 96
REMARK SMILES IDX 24 97
REMARK H PARENT 3 6 87 24 53 35 8 79
REMARK Flexibility Score: inf
ROOT
ATOM      1  C   UNL     1       4.699  -2.792  -0.167  1.00  0.00     0.023 C 
ENDROOT
BRANCH   1   2
ATOM      2  C   UNL     1       4.466  -1.315  -0.471  1.00  0.00     0.116 C 
BRANCH   2   3
ATOM      3  N   UNL     1       3.062  -0.953  -0.568  1.00  0.00    -0.352 N 
ATOM      4  O   UNL     1       1.171   0.195  -0.158  1.00  0.00    -0.269 OA
ATOM      5  C   UNL     1       2.383   0.096   0.005  1.00  0.00     0.251 C 
ATOM      6  H   UNL     1       2.514  -1.549  -1.128  1.00  0.00     0.163 HD
BRANCH   5   7
ATOM      7  C   UNL     1       3.102   1.069   0.855  1.00  0.00     0.039 A 
ATOM      8  C   UNL     1       4.313   1.631   0.448  1.00  0.00     0.014 A 
ATOM      9  C   UNL     1       2.556   1.401   2.099  1.00  0.00     0.014 A 
ATOM     10  C   UNL     1       5.054   2.393   1.347  1.00  0.00     0.010 A 
ATOM     11  C   UNL     1       3.266   2.229   2.971  1.00  0.00     0.010 A 
ATOM     12  C   UNL     1       4.544   2.692   2.622  1.00  0.00    -0.014 A 
BRANCH  12  13
ATOM     13  C   UNL     1       5.365   3.490   3.568  1.00  0.00     0.031 A 
ATOM     14  C   UNL     1       5.890   2.879   4.841  1.00  0.00     0.074 A 
ATOM     15  C   UNL     1       5.674   4.762   3.251  1.00  0.00     0.049 A 
ATOM     16  N   UNL     1       6.659   3.414   5.755  1.00  0.00    -0.248 NA
ATOM     17  C   UNL     1       5.493   1.493   5.133  1.00  0.00     0.031 C 
ATOM     18  C   UNL     1       5.208   5.468   2.055  1.00  0.00     0.029 A 
ATOM     19  N   UNL     1       6.470   5.678   3.889  1.00  0.00    -0.354 N 
ATOM     20  C   UNL     1       6.815   2.447   6.740  1.00  0.00     0.074 A 
ATOM     21  C   UNL     1       6.046   1.294   6.322  1.00  0.00     0.031 C 
ATOM     22  C   UNL     1       5.771   6.685   2.017  1.00  0.00     0.029 A 
ATOM     23  C   UNL     1       6.599   6.863   3.205  1.00  0.00     0.049 A 
ATOM     24  H   UNL     1       6.907   5.503   4.753  1.00  0.00     0.167 HD
ATOM     25  C   UNL     1       7.538   2.511   7.885  1.00  0.00     0.037 A 
ATOM     26  C   UNL     1       7.308   7.969   3.498  1.00  0.00     0.037 A 
ATOM     27  C   UNL     1       8.332   3.646   8.280  1.00  0.00     0.049 A 
ATOM     28  C   UNL     1       8.131   8.000   4.753  1.00  0.00     0.074 A 
ATOM     29  C   UNL     1       9.128   3.794   9.403  1.00  0.00     0.029 A 
ATOM     30  N   UNL     1       8.435   4.828   7.560  1.00  0.00    -0.354 N 
ATOM     31  N   UNL     1       8.282   7.066   5.661  1.00  0.00    -0.248 NA
ATOM     32  C   UNL     1       8.879   9.234   5.023  1.00  0.00     0.031 C 
ATOM     33  C   UNL     1       9.693   5.075   9.375  1.00  0.00     0.029 A 
ATOM     34  C   UNL     1       9.274   5.712   8.218  1.00  0.00     0.049 A 
ATOM     35  H   UNL     1       7.978   5.011   6.708  1.00  0.00     0.167 HD
ATOM     36  C   UNL     1       9.155   7.593   6.604  1.00  0.00     0.074 A 
ATOM     37  C   UNL     1       9.509   8.923   6.148  1.00  0.00     0.031 C 
ATOM     38  C   UNL     1       9.618   7.029   7.746  1.00  0.00     0.037 A 
BRANCH  25  39
ATOM     39  C   UNL     1       7.494   1.321   8.804  1.00  0.00     0.058 A 
ATOM     40  C   UNL     1       8.182   0.134   8.509  1.00  0.00     0.135 A 
ATOM     41  C   UNL     1       6.779   1.382  10.011  1.00  0.00     0.135 A 
ATOM     42  F   UNL     1       8.868   0.017   7.362  1.00  0.00    -0.206 F 
ATOM     43  C   UNL     1       8.140  -0.962   9.367  1.00  0.00     0.059 A 
ATOM     44  C   UNL     1       6.740   0.306  10.893  1.00  0.00     0.059 A 
ATOM     45  F   UNL     1       6.104   2.494  10.341  1.00  0.00    -0.206 F 
ATOM     46  C   UNL     1       7.412  -0.868  10.554  1.00  0.00     0.060 A 
BRANCH  46  47
ATOM     47  S   UNL     1       7.358  -2.298  11.656  1.00  0.00     0.124 S 
ATOM     48  O   UNL     1       6.396  -3.155  10.971  1.00  0.00    -0.237 OA
ATOM     49  O   UNL     1       8.742  -2.762  11.639  1.00  0.00    -0.237 OA
ATOM     50  O   UNL     1       6.907  -1.733  12.923  1.00  0.00    -0.744 OA
ENDBRANCH  46  47
ENDBRANCH  25  39
BRANCH  26  51
ATOM     51  C   UNL     1       7.286   9.123   2.564  1.00  0.00     0.058 A 
ATOM     52  C   UNL     1       8.398   9.422   1.764  1.00  0.00     0.135 A 
ATOM     53  C   UNL     1       6.141   9.921   2.425  1.00  0.00     0.135 A 
ATOM     54  F   UNL     1       9.515   8.686   1.866  1.00  0.00    -0.206 F 
ATOM     55  C   UNL     1       8.380  10.479   0.861  1.00  0.00     0.059 A 
ATOM     56  C   UNL     1       6.091  10.970   1.513  1.00  0.00     0.059 A 
ATOM     57  F   UNL     1       5.046   9.661   3.156  1.00  0.00    -0.206 F 
ATOM     58  C   UNL     1       7.219  11.245   0.740  1.00  0.00     0.060 A 
BRANCH  58  59
ATOM     59  S   UNL     1       7.175  12.573  -0.483  1.00  0.00     0.124 S 
ATOM     60  O   UNL     1       7.902  13.631   0.208  1.00  0.00    -0.237 OA
ATOM     61  O   UNL     1       7.856  11.969  -1.623  1.00  0.00    -0.237 OA
ATOM     62  O   UNL     1       5.745  12.805  -0.670  1.00  0.00    -0.744 OA
ENDBRANCH  58  59
ENDBRANCH  26  51
BRANCH  38  63
ATOM     63  C   UNL     1      10.580   7.842   8.563  1.00  0.00     0.058 A 
ATOM     64  C   UNL     1      10.145   8.917   9.353  1.00  0.00     0.135 A 
ATOM     65  C   UNL     1      11.948   7.529   8.569  1.00  0.00     0.135 A 
ATOM     66  F   UNL     1       8.847   9.258   9.375  1.00  0.00    -0.206 F 
ATOM     67  C   UNL     1      11.040   9.674  10.101  1.00  0.00     0.059 A 
ATOM     68  C   UNL     1      12.858   8.261   9.325  1.00  0.00     0.059 A 
ATOM     69  F   UNL     1      12.411   6.505   7.836  1.00  0.00    -0.206 F 
ATOM     70  C   UNL     1      12.396   9.342  10.076  1.00  0.00     0.060 A 
BRANCH  70  71
ATOM     71  S   UNL     1      13.552  10.322  11.057  1.00  0.00     0.124 S 
ATOM     72  O   UNL     1      13.742  11.490  10.204  1.00  0.00    -0.237 OA
ATOM     73  O   UNL     1      12.806  10.553  12.291  1.00  0.00    -0.237 OA
ATOM     74  O   UNL     1      14.710   9.443  11.190  1.00  0.00    -0.744 OA
ENDBRANCH  70  71
ENDBRANCH  38  63
ENDBRANCH  12  13
ENDBRANCH   5   7
ENDBRANCH   2   3
ENDBRANCH   1   2
BRANCH   1  75
ATOM     75  C   UNL     1       4.008  -3.801  -1.088  1.00  0.00     0.023 C 
BRANCH  75  76
ATOM     76  C   UNL     1       4.119  -3.522  -2.584  1.00  0.00     0.116 C 
BRANCH  76  77
ATOM     77  N   UNL     1       5.489  -3.338  -2.999  1.00  0.00    -0.352 N 
ATOM     78  C   UNL     1       6.234  -4.053  -3.885  1.00  0.00     0.251 C 
ATOM     79  H   UNL     1       5.955  -2.580  -2.577  1.00  0.00     0.163 HD
ATOM     80  O   UNL     1       7.372  -3.691  -4.157  1.00  0.00    -0.269 OA
BRANCH  78  81
ATOM     81  C   UNL     1       5.666  -5.226  -4.563  1.00  0.00     0.044 A 
ATOM     82  C   UNL     1       5.038  -5.046  -5.787  1.00  0.00     0.034 A 
ATOM     83  C   UNL     1       5.981  -6.502  -4.096  1.00  0.00     0.049 A 
ATOM     84  C   UNL     1       4.772  -6.180  -6.519  1.00  0.00     0.113 A 
ATOM     85  C   UNL     1       5.785  -7.571  -4.947  1.00  0.00     0.097 A 
ATOM     86  N   UNL     1       5.148  -7.422  -6.136  1.00  0.00    -0.250 NA
BRANCH  85  87
ATOM     87  S   UNL     1       6.300  -9.238  -4.611  1.00  0.00    -0.103 SA
BRANCH  87  88
ATOM     88  C   UNL     1       8.057  -9.185  -4.002  1.00  0.00     0.058 C 
ATOM     89  C   UNL     1       8.182  -8.740  -2.543  1.00  0.00     0.043 C 
ATOM     90  C   UNL     1       9.143  -8.583  -4.910  1.00  0.00     0.053 C 
ATOM     91  C   UNL     1       8.992  -7.461  -2.388  1.00  0.00     0.162 C 
ATOM     92  C   UNL     1       9.367  -7.069  -4.716  1.00  0.00     0.095 C 
ATOM     93  O   UNL     1       8.778  -6.606  -3.502  1.00  0.00    -0.372 OA
ATOM     94  C   UNL     1       8.839  -6.292  -5.921  1.00  0.00     0.066 C 
ATOM     95  C   UNL     1      10.841  -6.656  -4.760  1.00  0.00     0.195 C 
ATOM     96  C   UNL     1      10.044  -6.066  -6.819  1.00  0.00     0.163 C 
ATOM     97  O   UNL     1      11.192  -6.588  -6.143  1.00  0.00    -0.378 OA
ENDBRANCH  87  88
ENDBRANCH  85  87
ENDBRANCH  78  81
ENDBRANCH  76  77
ENDBRANCH  75  76
ENDBRANCH   1  75
TORSDOF 16
