REMARK SMILES O=C(NCCCCNC(=O)[C@@H]1[C@H](C(=O)NCc2ccncc2)[C@H]2C=C[C@@H]1O2)c1ccc(-c2c3nc(c(-c4c(F)cc(S(=O)(=O)[O-])cc4F)c4ccc([nH]4)c(-c4c(F)cc(S(=O)(=O)[O-])cc4F)c4nc(c(-c5c(F)cc(S(=O)(=O)[O-])cc5F)c5ccc2[nH]5)C=C4)C=C3)cc1
REMARK SMILES IDX 5 1 4 2 3 3 1 4 2 5 28 7 29 8 93 9 30 10 92 11 31 12 32 13
REMARK SMILES IDX 33 14 86 15 34 16 91 17 85 18 87 19 35 20 90 21 84 22 83 23
REMARK SMILES IDX 36 25 70 26 49 27 69 28 50 29 53 30 68 31 88 32 51 33 52 34
REMARK SMILES IDX 67 36 89 37 54 38 37 39 38 40 47 41 39 42 40 43 46 44 48 45
REMARK SMILES IDX 41 46 42 47 43 48 44 49 45 50 71 51 72 52 81 53 73 54 74 55
REMARK SMILES IDX 80 56 82 57 75 58 76 59 77 60 78 61 79 62 55 63 56 64 65 65
REMARK SMILES IDX 57 66 58 67 64 68 66 69 59 70 60 71 61 72 62 73 63 74 6 75
REMARK SMILES IDX 7 76 8 77 9 78 10 80 11 81 12 82 26 83 23 84 25 85 27 86
REMARK SMILES IDX 24 87 13 88 14 89 15 90 16 92 17 93 18 94 22 95 19 96 21 97
REMARK SMILES IDX 20 98
REMARK H PARENT 3 6 87 24 53 35 8 79 15 91
REMARK Flexibility Score: inf
ROOT
ATOM      1  C   UNL     1       4.646  -1.036  -1.201  1.00  0.00     0.023 C 
ENDROOT
BRANCH   1   2
ATOM      2  C   UNL     1       4.067   0.353  -1.294  1.00  0.00     0.116 C 
BRANCH   2   3
ATOM      3  N   UNL     1       2.628   0.387  -1.027  1.00  0.00    -0.352 N 
ATOM      4  O   UNL     1       0.716   0.635   0.151  1.00  0.00    -0.269 OA
ATOM      5  C   UNL     1       1.915   0.831   0.076  1.00  0.00     0.251 C 
ATOM      6  H   UNL     1       2.070   0.032  -1.757  1.00  0.00     0.163 HD
BRANCH   5   7
ATOM      7  C   UNL     1       2.635   1.511   1.178  1.00  0.00     0.039 A 
ATOM      8  C   UNL     1       3.694   2.351   0.876  1.00  0.00     0.014 A 
ATOM      9  C   UNL     1       2.306   1.270   2.515  1.00  0.00     0.014 A 
ATOM     10  C   UNL     1       4.612   2.662   1.857  1.00  0.00     0.010 A 
ATOM     11  C   UNL     1       3.112   1.803   3.533  1.00  0.00     0.010 A 
ATOM     12  C   UNL     1       4.305   2.467   3.212  1.00  0.00    -0.014 A 
BRANCH  12  13
ATOM     13  C   UNL     1       5.226   3.061   4.222  1.00  0.00     0.031 A 
ATOM     14  C   UNL     1       5.830   2.241   5.331  1.00  0.00     0.074 A 
ATOM     15  C   UNL     1       5.573   4.359   4.073  1.00  0.00     0.049 A 
ATOM     16  N   UNL     1       6.628   2.632   6.292  1.00  0.00    -0.248 NA
ATOM     17  C   UNL     1       5.484   0.813   5.390  1.00  0.00     0.031 C 
ATOM     18  C   UNL     1       5.041   5.261   3.040  1.00  0.00     0.029 A 
ATOM     19  N   UNL     1       6.485   5.138   4.733  1.00  0.00    -0.354 N 
ATOM     20  C   UNL     1       6.825   1.521   7.106  1.00  0.00     0.074 A 
ATOM     21  C   UNL     1       6.069   0.435   6.520  1.00  0.00     0.031 C 
ATOM     22  C   UNL     1       5.729   6.407   3.049  1.00  0.00     0.029 A 
ATOM     23  C   UNL     1       6.637   6.391   4.183  1.00  0.00     0.049 A 
ATOM     24  H   UNL     1       6.985   4.832   5.525  1.00  0.00     0.167 HD
ATOM     25  C   UNL     1       7.563   1.429   8.240  1.00  0.00     0.037 A 
ATOM     26  C   UNL     1       7.387   7.439   4.567  1.00  0.00     0.037 A 
ATOM     27  C   UNL     1       8.352   2.513   8.774  1.00  0.00     0.049 A 
ATOM     28  C   UNL     1       8.206   7.301   5.810  1.00  0.00     0.074 A 
ATOM     29  C   UNL     1       9.156   2.519   9.901  1.00  0.00     0.029 A 
ATOM     30  N   UNL     1       8.447   3.779   8.211  1.00  0.00    -0.354 N 
ATOM     31  N   UNL     1       8.345   6.253   6.587  1.00  0.00    -0.248 NA
ATOM     32  C   UNL     1       8.946   8.488   6.247  1.00  0.00     0.031 C 
ATOM     33  C   UNL     1       9.704   3.799  10.041  1.00  0.00     0.029 A 
ATOM     34  C   UNL     1       9.285   4.577   8.974  1.00  0.00     0.049 A 
ATOM     35  H   UNL     1       7.987   4.068   7.390  1.00  0.00     0.167 HD
ATOM     36  C   UNL     1       9.197   6.652   7.606  1.00  0.00     0.074 A 
ATOM     37  C   UNL     1       9.560   8.029   7.329  1.00  0.00     0.031 C 
ATOM     38  C   UNL     1       9.633   5.945   8.677  1.00  0.00     0.037 A 
BRANCH  25  39
ATOM     39  C   UNL     1       7.520   0.133   9.009  1.00  0.00     0.058 A 
ATOM     40  C   UNL     1       8.142  -1.037   8.549  1.00  0.00     0.135 A 
ATOM     41  C   UNL     1       6.873   0.077  10.257  1.00  0.00     0.135 A 
ATOM     42  F   UNL     1       8.763  -1.049   7.359  1.00  0.00    -0.206 F 
ATOM     43  C   UNL     1       8.103  -2.222   9.282  1.00  0.00     0.059 A 
ATOM     44  C   UNL     1       6.844  -1.087  11.019  1.00  0.00     0.059 A 
ATOM     45  F   UNL     1       6.262   1.166  10.750  1.00  0.00    -0.206 F 
ATOM     46  C   UNL     1       7.449  -2.237  10.516  1.00  0.00     0.060 A 
BRANCH  46  47
ATOM     47  S   UNL     1       7.403  -3.779  11.456  1.00  0.00     0.124 S 
ATOM     48  O   UNL     1       6.438  -4.560  10.688  1.00  0.00    -0.237 OA
ATOM     49  O   UNL     1       8.788  -4.234  11.381  1.00  0.00    -0.237 OA
ATOM     50  O   UNL     1       6.957  -3.358  12.780  1.00  0.00    -0.744 OA
ENDBRANCH  46  47
ENDBRANCH  25  39
BRANCH  26  51
ATOM     51  C   UNL     1       7.349   8.704   3.786  1.00  0.00     0.058 A 
ATOM     52  C   UNL     1       8.468   9.143   3.065  1.00  0.00     0.135 A 
ATOM     53  C   UNL     1       6.175   9.472   3.701  1.00  0.00     0.135 A 
ATOM     54  F   UNL     1       9.614   8.447   3.114  1.00  0.00    -0.206 F 
ATOM     55  C   UNL     1       8.428  10.300   2.293  1.00  0.00     0.059 A 
ATOM     56  C   UNL     1       6.100  10.611   2.908  1.00  0.00     0.059 A 
ATOM     57  F   UNL     1       5.068   9.084   4.354  1.00  0.00    -0.206 F 
ATOM     58  C   UNL     1       7.237  11.024   2.216  1.00  0.00     0.060 A 
BRANCH  58  59
ATOM     59  S   UNL     1       7.173  12.488   1.162  1.00  0.00     0.124 S 
ATOM     60  O   UNL     1       7.910  13.457   1.965  1.00  0.00    -0.237 OA
ATOM     61  O   UNL     1       7.839  12.024  -0.051  1.00  0.00    -0.237 OA
ATOM     62  O   UNL     1       5.741  12.739   1.024  1.00  0.00    -0.744 OA
ENDBRANCH  58  59
ENDBRANCH  26  51
BRANCH  38  63
ATOM     63  C   UNL     1      10.588   6.647   9.597  1.00  0.00     0.058 A 
ATOM     64  C   UNL     1      10.165   7.668  10.462  1.00  0.00     0.135 A 
ATOM     65  C   UNL     1      11.945   6.290   9.611  1.00  0.00     0.135 A 
ATOM     66  F   UNL     1       8.880   8.054  10.476  1.00  0.00    -0.206 F 
ATOM     67  C   UNL     1      11.064   8.337  11.285  1.00  0.00     0.059 A 
ATOM     68  C   UNL     1      12.856   6.926  10.446  1.00  0.00     0.059 A 
ATOM     69  F   UNL     1      12.396   5.315   8.806  1.00  0.00    -0.206 F 
ATOM     70  C   UNL     1      12.409   7.961  11.266  1.00  0.00     0.060 A 
BRANCH  70  71
ATOM     71  S   UNL     1      13.567   8.832  12.340  1.00  0.00     0.124 S 
ATOM     72  O   UNL     1      13.735  10.094  11.627  1.00  0.00    -0.237 OA
ATOM     73  O   UNL     1      12.832   8.908  13.599  1.00  0.00    -0.237 OA
ATOM     74  O   UNL     1      14.737   7.958  12.357  1.00  0.00    -0.744 OA
ENDBRANCH  70  71
ENDBRANCH  38  63
ENDBRANCH  12  13
ENDBRANCH   5   7
ENDBRANCH   2   3
ENDBRANCH   1   2
BRANCH   1  75
ATOM     75  C   UNL     1       4.327  -1.879  -2.425  1.00  0.00     0.023 C 
BRANCH  75  76
ATOM     76  C   UNL     1       5.211  -1.738  -3.679  1.00  0.00     0.116 C 
BRANCH  76  77
ATOM     77  N   UNL     1       6.463  -2.500  -3.637  1.00  0.00    -0.356 N 
ATOM     78  C   UNL     1       6.888  -3.702  -4.128  1.00  0.00     0.227 C 
ATOM     79  H   UNL     1       7.167  -2.033  -3.131  1.00  0.00     0.163 HD
ATOM     80  O   UNL     1       8.068  -3.989  -3.900  1.00  0.00    -0.275 OA
BRANCH  78  81
ATOM     81  C   UNL     1       6.085  -4.578  -5.072  1.00  0.00     0.127 C 
ATOM     82  C   UNL     1       4.621  -4.934  -4.824  1.00  0.00     0.127 C 
ATOM     83  C   UNL     1       6.684  -6.012  -5.266  1.00  0.00     0.155 C 
ATOM     84  C   UNL     1       4.543  -6.409  -5.227  1.00  0.00     0.155 C 
ATOM     85  C   UNL     1       6.333  -6.503  -6.640  1.00  0.00     0.004 C 
ATOM     86  O   UNL     1       5.735  -6.873  -4.558  1.00  0.00    -0.365 OA
ATOM     87  C   UNL     1       5.003  -6.688  -6.633  1.00  0.00     0.004 C 
BRANCH  82  88
ATOM     88  C   UNL     1       4.019  -4.774  -3.443  1.00  0.00     0.227 C 
ATOM     89  O   UNL     1       2.859  -4.332  -3.394  1.00  0.00    -0.275 OA
ATOM     90  N   UNL     1       4.600  -5.062  -2.246  1.00  0.00    -0.352 N 
ATOM     91  H   UNL     1       4.102  -4.678  -1.488  1.00  0.00     0.163 HD
BRANCH  90  92
ATOM     92  C   UNL     1       5.779  -5.798  -1.817  1.00  0.00     0.151 C 
BRANCH  92  93
ATOM     93  C   UNL     1       6.829  -5.132  -0.952  1.00  0.00    -0.026 A 
ATOM     94  C   UNL     1       7.796  -5.968  -0.377  1.00  0.00     0.025 A 
ATOM     95  C   UNL     1       7.024  -3.765  -0.785  1.00  0.00     0.025 A 
ATOM     96  C   UNL     1       8.883  -5.416   0.288  1.00  0.00     0.111 A 
ATOM     97  C   UNL     1       8.155  -3.293  -0.124  1.00  0.00     0.111 A 
ATOM     98  N   UNL     1       9.090  -4.093   0.418  1.00  0.00    -0.265 NA
ENDBRANCH  92  93
ENDBRANCH  90  92
ENDBRANCH  82  88
ENDBRANCH  78  81
ENDBRANCH  76  77
ENDBRANCH  75  76
ENDBRANCH   1  75
TORSDOF 17
