REMARK SMILES Cc1ccccc1OCCN1C(=O)CC[C@H](C(=O)NCCCCNC(=O)c2ccc(-c3c4nc(c(-c5c(F)cc(S(=O)(=O)[O-])cc5F)c5ccc([nH]5)c(-c5c(F)cc(S(=O)(=O)[O-])cc5F)c5nc(c(-c6c(F)cc(S(=O)(=O)[O-])cc6F)c6ccc3[nH]6)C=C5)C=C4)cc2)[C@@H]1c1ccco1
REMARK SMILES IDX 21 1 20 2 19 3 17 4 18 5 16 7 11 8 12 9 93 10 13 11 14 12
REMARK SMILES IDX 15 13 10 14 9 15 8 16 7 17 1 18 2 19 3 20 4 21 6 22 5 23
REMARK SMILES IDX 94 24 95 25 98 26 96 27 97 28 22 29 23 30 24 31 25 32 26 34
REMARK SMILES IDX 27 35 28 36 92 37 29 38 91 39 30 40 31 41 32 42 85 43 33 44
REMARK SMILES IDX 90 45 84 46 86 47 34 48 89 49 83 50 82 51 35 53 69 54 48 55
REMARK SMILES IDX 68 56 49 57 52 58 67 59 87 60 50 61 51 62 66 64 88 65 53 66
REMARK SMILES IDX 36 67 37 68 46 69 38 70 39 71 45 72 47 73 40 74 41 75 42 76
REMARK SMILES IDX 43 77 44 78 70 79 71 80 80 81 72 82 73 83 79 84 81 85 74 86
REMARK SMILES IDX 75 87 76 88 77 89 78 90 54 91 55 92 64 93 56 94 57 95 63 96
REMARK SMILES IDX 65 97 58 98 59 99 60 100 61 101 62 102
REMARK H PARENT 19 6 24 33 86 52 52 63
REMARK Flexibility Score: inf
ROOT
ATOM      1  C   UNL     1       2.377  -4.372   4.743  1.00  0.00     0.023 C 
ENDROOT
BRANCH   1   2
ATOM      2  C   UNL     1       3.232  -3.348   3.992  1.00  0.00     0.116 C 
BRANCH   2   3
ATOM      3  N   UNL     1       3.707  -3.788   2.685  1.00  0.00    -0.356 N 
ATOM      4  C   UNL     1       3.612  -3.189   1.463  1.00  0.00     0.225 C 
ATOM      5  O   UNL     1       4.331  -3.627   0.557  1.00  0.00    -0.275 OA
ATOM      6  H   UNL     1       4.170  -4.657   2.685  1.00  0.00     0.163 HD
BRANCH   4   7
ATOM      7  C   UNL     1       2.662  -2.023   1.168  1.00  0.00     0.109 C 
ATOM      8  N   UNL     1       2.202   0.431   1.590  1.00  0.00    -0.328 N 
ATOM      9  C   UNL     1       0.984   0.200   2.203  1.00  0.00     0.223 C 
ATOM     10  C   UNL     1       3.225  -0.619   1.452  1.00  0.00     0.164 C 
ATOM     11  O   UNL     1       0.223   1.105   2.554  1.00  0.00    -0.275 OA
ATOM     12  C   UNL     1       0.601  -1.230   2.489  1.00  0.00     0.101 C 
ATOM     13  C   UNL     1       1.227  -2.291   1.611  1.00  0.00     0.026 C 
BRANCH   8  14
ATOM     14  C   UNL     1       2.594   1.831   1.368  1.00  0.00     0.162 C 
BRANCH  14  15
ATOM     15  C   UNL     1       2.380   2.370  -0.055  1.00  0.00     0.251 C 
BRANCH  15  16
ATOM     16  O   UNL     1       1.029   2.472  -0.514  1.00  0.00    -0.491 OA
BRANCH  16  17
ATOM     17  C   UNL     1       0.323   1.332  -0.777  1.00  0.00     0.122 A 
ATOM     18  C   UNL     1       2.081   0.133  -2.206  1.00  0.00     0.048 C 
ATOM     19  C   UNL     1       0.756   0.219  -1.511  1.00  0.00    -0.009 A 
ATOM     20  C   UNL     1      -0.104  -0.892  -1.619  1.00  0.00     0.007 A 
ATOM     21  C   UNL     1      -1.389  -0.874  -1.074  1.00  0.00     0.001 A 
ATOM     22  C   UNL     1      -0.991   1.360  -0.283  1.00  0.00     0.047 A 
ATOM     23  C   UNL     1      -1.841   0.263  -0.422  1.00  0.00     0.004 A 
ENDBRANCH  16  17
ENDBRANCH  15  16
ENDBRANCH  14  15
ENDBRANCH   8  14
BRANCH  10  24
ATOM     24  C   UNL     1       4.174  -0.563   2.601  1.00  0.00     0.127 A 
ATOM     25  C   UNL     1       5.505  -0.908   2.706  1.00  0.00     0.048 A 
ATOM     26  O   UNL     1       3.703  -0.127   3.804  1.00  0.00    -0.467 OA
ATOM     27  C   UNL     1       5.839  -0.741   4.061  1.00  0.00     0.042 A 
ATOM     28  C   UNL     1       4.728  -0.230   4.687  1.00  0.00     0.195 A 
ENDBRANCH  10  24
ENDBRANCH   4   7
ENDBRANCH   2   3
ENDBRANCH   1   2
BRANCH   1  29
ATOM     29  C   UNL     1       3.052  -5.699   5.089  1.00  0.00     0.023 C 
BRANCH  29  30
ATOM     30  C   UNL     1       4.352  -5.590   5.862  1.00  0.00     0.116 C 
BRANCH  30  31
ATOM     31  N   UNL     1       4.269  -5.201   7.260  1.00  0.00    -0.352 N 
ATOM     32  C   UNL     1       5.276  -5.669   8.116  1.00  0.00     0.251 C 
ATOM     33  H   UNL     1       3.536  -4.633   7.591  1.00  0.00     0.163 HD
ATOM     34  O   UNL     1       5.277  -6.738   8.677  1.00  0.00    -0.269 OA
BRANCH  32  35
ATOM     35  C   UNL     1       6.513  -4.854   8.024  1.00  0.00     0.039 A 
ATOM     36  C   UNL     1       6.921  -3.974   9.026  1.00  0.00     0.014 A 
ATOM     37  C   UNL     1       7.167  -4.897   6.793  1.00  0.00     0.014 A 
ATOM     38  C   UNL     1       7.911  -3.031   8.733  1.00  0.00     0.010 A 
ATOM     39  C   UNL     1       8.050  -3.904   6.467  1.00  0.00     0.010 A 
ATOM     40  C   UNL     1       8.415  -2.963   7.432  1.00  0.00    -0.014 A 
BRANCH  40  41
ATOM     41  C   UNL     1       9.294  -1.930   6.911  1.00  0.00     0.031 A 
ATOM     42  C   UNL     1      10.710  -2.240   6.630  1.00  0.00     0.074 A 
ATOM     43  C   UNL     1       8.714  -0.818   6.415  1.00  0.00     0.049 A 
ATOM     44  N   UNL     1      11.609  -1.348   6.408  1.00  0.00    -0.248 NA
ATOM     45  C   UNL     1      11.231  -3.605   6.585  1.00  0.00     0.031 C 
ATOM     46  C   UNL     1       9.259   0.128   5.448  1.00  0.00     0.029 A 
ATOM     47  N   UNL     1       7.508  -0.238   6.807  1.00  0.00    -0.354 N 
ATOM     48  C   UNL     1      12.722  -1.994   5.919  1.00  0.00     0.074 A 
ATOM     49  C   UNL     1      12.463  -3.401   6.108  1.00  0.00     0.031 C 
ATOM     50  C   UNL     1       8.564   1.275   5.531  1.00  0.00     0.029 A 
ATOM     51  C   UNL     1       7.660   1.146   6.665  1.00  0.00     0.049 A 
ATOM     52  H   UNL     1       6.705  -0.711   7.122  1.00  0.00     0.167 HD
ATOM     53  C   UNL     1      13.684  -1.275   5.274  1.00  0.00     0.037 A 
ATOM     54  C   UNL     1       7.587   2.011   7.719  1.00  0.00     0.037 A 
ATOM     55  C   UNL     1      13.333   0.142   5.241  1.00  0.00     0.049 A 
ATOM     56  C   UNL     1       8.911   2.714   7.930  1.00  0.00     0.074 A 
ATOM     57  C   UNL     1      12.685   0.911   4.288  1.00  0.00     0.029 A 
ATOM     58  N   UNL     1      13.298   0.872   6.425  1.00  0.00    -0.354 N 
ATOM     59  N   UNL     1      10.043   2.276   7.448  1.00  0.00    -0.248 NA
ATOM     60  C   UNL     1       9.069   3.961   8.671  1.00  0.00     0.031 C 
ATOM     61  C   UNL     1      12.174   2.066   4.929  1.00  0.00     0.029 A 
ATOM     62  C   UNL     1      12.536   2.015   6.265  1.00  0.00     0.049 A 
ATOM     63  H   UNL     1      13.752   0.612   7.259  1.00  0.00     0.167 HD
ATOM     64  C   UNL     1      11.050   3.143   7.769  1.00  0.00     0.074 A 
ATOM     65  C   UNL     1      10.391   4.180   8.544  1.00  0.00     0.031 C 
ATOM     66  C   UNL     1      12.340   2.948   7.365  1.00  0.00     0.037 A 
BRANCH  53  67
ATOM     67  C   UNL     1      14.764  -1.912   4.434  1.00  0.00     0.058 A 
ATOM     68  C   UNL     1      15.172  -1.330   3.215  1.00  0.00     0.135 A 
ATOM     69  C   UNL     1      15.418  -3.115   4.769  1.00  0.00     0.135 A 
ATOM     70  F   UNL     1      14.666  -0.165   2.789  1.00  0.00    -0.206 F 
ATOM     71  C   UNL     1      16.101  -1.925   2.362  1.00  0.00     0.059 A 
ATOM     72  C   UNL     1      16.319  -3.756   3.909  1.00  0.00     0.059 A 
ATOM     73  F   UNL     1      15.219  -3.699   5.960  1.00  0.00    -0.206 F 
ATOM     74  C   UNL     1      16.655  -3.151   2.704  1.00  0.00     0.060 A 
BRANCH  74  75
ATOM     75  S   UNL     1      17.813  -3.921   1.555  1.00  0.00     0.124 S 
ATOM     76  O   UNL     1      17.047  -3.939   0.312  1.00  0.00    -0.237 OA
ATOM     77  O   UNL     1      18.938  -2.994   1.593  1.00  0.00    -0.237 OA
ATOM     78  O   UNL     1      18.059  -5.232   2.148  1.00  0.00    -0.744 OA
ENDBRANCH  74  75
ENDBRANCH  53  67
BRANCH  54  79
ATOM     79  C   UNL     1       6.621   1.579   8.773  1.00  0.00     0.058 A 
ATOM     80  C   UNL     1       5.254   1.613   8.424  1.00  0.00     0.135 A 
ATOM     81  C   UNL     1       7.008   0.682   9.780  1.00  0.00     0.135 A 
ATOM     82  F   UNL     1       4.825   2.475   7.488  1.00  0.00    -0.206 F 
ATOM     83  C   UNL     1       4.359   0.649   8.881  1.00  0.00     0.059 A 
ATOM     84  C   UNL     1       6.122  -0.290  10.257  1.00  0.00     0.059 A 
ATOM     85  F   UNL     1       8.294   0.592  10.146  1.00  0.00    -0.206 F 
ATOM     86  C   UNL     1       4.831  -0.352   9.725  1.00  0.00     0.060 A 
BRANCH  86  87
ATOM     87  S   UNL     1       3.809  -1.836   9.939  1.00  0.00     0.124 S 
ATOM     88  O   UNL     1       2.534  -1.273  10.364  1.00  0.00    -0.237 OA
ATOM     89  O   UNL     1       3.839  -2.413   8.592  1.00  0.00    -0.237 OA
ATOM     90  O   UNL     1       4.536  -2.592  10.951  1.00  0.00    -0.744 OA
ENDBRANCH  86  87
ENDBRANCH  54  79
BRANCH  66  91
ATOM     91  C   UNL     1      13.534   3.698   7.893  1.00  0.00     0.058 A 
ATOM     92  C   UNL     1      13.623   4.173   9.210  1.00  0.00     0.135 A 
ATOM     93  C   UNL     1      14.710   3.812   7.113  1.00  0.00     0.135 A 
ATOM     94  F   UNL     1      12.610   4.022  10.075  1.00  0.00    -0.206 F 
ATOM     95  C   UNL     1      14.776   4.780   9.704  1.00  0.00     0.059 A 
ATOM     96  C   UNL     1      15.889   4.360   7.605  1.00  0.00     0.059 A 
ATOM     97  F   UNL     1      14.757   3.376   5.845  1.00  0.00    -0.206 F 
ATOM     98  C   UNL     1      15.905   4.869   8.895  1.00  0.00     0.060 A 
BRANCH  98  99
ATOM     99  S   UNL     1      17.413   5.604   9.546  1.00  0.00     0.124 S 
ATOM    100  O   UNL     1      17.223   7.008   9.195  1.00  0.00    -0.237 OA
ATOM    101  O   UNL     1      17.335   5.294  10.970  1.00  0.00    -0.237 OA
ATOM    102  O   UNL     1      18.466   4.905   8.816  1.00  0.00    -0.744 OA
ENDBRANCH  98  99
ENDBRANCH  66  91
ENDBRANCH  40  41
ENDBRANCH  32  35
ENDBRANCH  30  31
ENDBRANCH  29  30
ENDBRANCH   1  29
TORSDOF 19
