REMARK SMILES N#C[C@@H]1CN(C(=O)Nc2cccc(F)c2C(=O)NCCCCNC(=O)c2ccc(-c3c4nc(c(-c5c(F)cc(S(=O)(=O)[O-])cc5F)c5ccc([nH]5)c(-c5c(F)cc(S(=O)(=O)[O-])cc5F)c5nc(c(-c6c(F)cc(S(=O)(=O)[O-])cc6F)c6ccc3[nH]6)C=C5)C=C4)cc2)CCO1
REMARK SMILES IDX 20 1 19 2 18 3 16 4 17 5 15 7 9 8 10 9 11 10 13 11 12 12
REMARK SMILES IDX 14 13 8 14 6 15 7 16 5 18 3 19 4 20 94 21 93 22 92 23 2 24
REMARK SMILES IDX 1 25 21 26 22 27 23 28 24 29 25 31 26 32 27 33 91 34 28 35
REMARK SMILES IDX 90 36 29 37 30 38 31 39 84 40 32 41 89 42 83 43 85 44 33 45
REMARK SMILES IDX 88 46 82 47 81 48 34 50 68 51 47 52 67 53 48 54 51 55 66 56
REMARK SMILES IDX 86 57 49 58 50 59 65 61 87 62 52 63 35 64 36 65 45 66 37 67
REMARK SMILES IDX 38 68 44 69 46 70 39 71 40 72 41 73 42 74 43 75 69 76 70 77
REMARK SMILES IDX 79 78 71 79 72 80 78 81 80 82 73 83 74 84 75 85 76 86 77 87
REMARK SMILES IDX 53 88 54 89 63 90 55 91 56 92 62 93 64 94 57 95 58 96 59 97
REMARK SMILES IDX 60 98 61 99
REMARK H PARENT 18 6 8 17 23 30 85 49 51 60
REMARK Flexibility Score: inf
ROOT
ATOM      1  C   UNL     1      -0.065   7.644   0.310  1.00  0.00     0.023 C 
ENDROOT
BRANCH   1   2
ATOM      2  C   UNL     1       0.403   6.242   0.666  1.00  0.00     0.116 C 
BRANCH   2   3
ATOM      3  N   UNL     1       0.167   5.250  -0.368  1.00  0.00    -0.352 N 
ATOM      4  C   UNL     1       1.014   4.384  -1.018  1.00  0.00     0.256 C 
ATOM      5  O   UNL     1       0.530   3.673  -1.901  1.00  0.00    -0.269 OA
ATOM      6  H   UNL     1      -0.773   5.187  -0.657  1.00  0.00     0.163 HD
BRANCH   4   7
ATOM      7  C   UNL     1       2.485   4.354  -0.785  1.00  0.00     0.099 A 
ATOM      8  C   UNL     1       3.365   3.905  -1.794  1.00  0.00     0.058 A 
ATOM      9  C   UNL     1       4.752   4.106  -1.674  1.00  0.00     0.027 A 
ATOM     10  C   UNL     1       5.290   4.566  -0.475  1.00  0.00     0.005 A 
ATOM     11  C   UNL     1       3.064   4.609   0.458  1.00  0.00     0.138 A 
ATOM     12  C   UNL     1       4.446   4.747   0.614  1.00  0.00     0.040 A 
ATOM     13  F   UNL     1       2.329   4.605   1.580  1.00  0.00    -0.206 F 
BRANCH   8  14
ATOM     14  N   UNL     1       2.889   3.049  -2.805  1.00  0.00    -0.307 N 
ATOM     15  C   UNL     1       3.364   1.836  -3.222  1.00  0.00     0.322 C 
ATOM     16  O   UNL     1       3.028   1.433  -4.338  1.00  0.00    -0.248 OA
ATOM     17  H   UNL     1       2.094   3.373  -3.286  1.00  0.00     0.171 HD
BRANCH  15  18
ATOM     18  N   UNL     1       4.099   1.031  -2.365  1.00  0.00    -0.319 N 
ATOM     19  C   UNL     1       3.791   0.062  -0.078  1.00  0.00     0.240 C 
ATOM     20  C   UNL     1       4.334   1.204  -0.922  1.00  0.00     0.169 C 
ATOM     21  O   UNL     1       4.321  -1.198  -0.563  1.00  0.00    -0.360 OA
ATOM     22  C   UNL     1       4.014  -1.414  -1.957  1.00  0.00     0.183 C 
ATOM     23  C   UNL     1       4.551  -0.282  -2.847  1.00  0.00     0.150 C 
BRANCH  19  24
ATOM     24  C   UNL     1       2.271   0.062  -0.078  1.00  0.00     0.096 C 
ATOM     25  N   UNL     1       1.010   0.062  -0.078  1.00  0.00    -0.195 NA
ENDBRANCH  19  24
ENDBRANCH  15  18
ENDBRANCH   8  14
ENDBRANCH   4   7
ENDBRANCH   2   3
ENDBRANCH   1   2
BRANCH   1  26
ATOM     26  C   UNL     1      -1.566   7.834   0.144  1.00  0.00     0.023 C 
BRANCH  26  27
ATOM     27  C   UNL     1      -2.440   7.283   1.265  1.00  0.00     0.116 C 
BRANCH  27  28
ATOM     28  N   UNL     1      -2.069   7.754   2.592  1.00  0.00    -0.352 N 
ATOM     29  C   UNL     1      -2.847   8.325   3.576  1.00  0.00     0.251 C 
ATOM     30  H   UNL     1      -1.117   7.649   2.822  1.00  0.00     0.163 HD
ATOM     31  O   UNL     1      -2.329   8.722   4.610  1.00  0.00    -0.269 OA
BRANCH  29  32
ATOM     32  C   UNL     1      -4.300   8.499   3.354  1.00  0.00     0.039 A 
ATOM     33  C   UNL     1      -4.876   9.743   3.623  1.00  0.00     0.014 A 
ATOM     34  C   UNL     1      -5.080   7.459   2.844  1.00  0.00     0.014 A 
ATOM     35  C   UNL     1      -6.212   9.973   3.287  1.00  0.00     0.010 A 
ATOM     36  C   UNL     1      -6.385   7.714   2.434  1.00  0.00     0.010 A 
ATOM     37  C   UNL     1      -6.962   8.976   2.641  1.00  0.00    -0.014 A 
BRANCH  37  38
ATOM     38  C   UNL     1      -8.337   9.240   2.146  1.00  0.00     0.031 A 
ATOM     39  C   UNL     1      -9.502   8.460   2.685  1.00  0.00     0.074 A 
ATOM     40  C   UNL     1      -8.523  10.120   1.141  1.00  0.00     0.049 A 
ATOM     41  N   UNL     1     -10.757   8.492   2.318  1.00  0.00    -0.248 NA
ATOM     42  C   UNL     1      -9.213   7.492   3.755  1.00  0.00     0.031 C 
ATOM     43  C   UNL     1      -7.464  10.891   0.486  1.00  0.00     0.029 A 
ATOM     44  N   UNL     1      -9.666  10.503   0.484  1.00  0.00    -0.354 N 
ATOM     45  C   UNL     1     -11.401   7.534   3.090  1.00  0.00     0.074 A 
ATOM     46  C   UNL     1     -10.390   6.906   3.913  1.00  0.00     0.031 C 
ATOM     47  C   UNL     1      -8.009  11.671  -0.460  1.00  0.00     0.029 A 
ATOM     48  C   UNL     1      -9.449  11.431  -0.507  1.00  0.00     0.049 A 
ATOM     49  H   UNL     1     -10.557  10.147   0.702  1.00  0.00     0.167 HD
ATOM     50  C   UNL     1     -12.718   7.220   3.124  1.00  0.00     0.037 A 
ATOM     51  C   UNL     1     -10.307  12.020  -1.362  1.00  0.00     0.037 A 
ATOM     52  C   UNL     1     -13.723   7.876   2.330  1.00  0.00     0.049 A 
ATOM     53  C   UNL     1     -11.769  11.685  -1.288  1.00  0.00     0.074 A 
ATOM     54  C   UNL     1     -15.095   7.698   2.363  1.00  0.00     0.029 A 
ATOM     55  N   UNL     1     -13.467   8.832   1.357  1.00  0.00    -0.354 N 
ATOM     56  N   UNL     1     -12.375  10.833  -0.496  1.00  0.00    -0.248 NA
ATOM     57  C   UNL     1     -12.665  12.388  -2.215  1.00  0.00     0.031 C 
ATOM     58  C   UNL     1     -15.665   8.515   1.381  1.00  0.00     0.029 A 
ATOM     59  C   UNL     1     -14.653   9.235   0.765  1.00  0.00     0.049 A 
ATOM     60  H   UNL     1     -12.574   9.174   1.122  1.00  0.00     0.167 HD
ATOM     61  C   UNL     1     -13.724  10.904  -0.821  1.00  0.00     0.074 A 
ATOM     62  C   UNL     1     -13.848  11.892  -1.874  1.00  0.00     0.031 C 
ATOM     63  C   UNL     1     -14.763  10.213  -0.291  1.00  0.00     0.037 A 
BRANCH  50  64
ATOM     64  C   UNL     1     -13.144   6.119   4.054  1.00  0.00     0.058 A 
ATOM     65  C   UNL     1     -13.583   4.886   3.545  1.00  0.00     0.135 A 
ATOM     66  C   UNL     1     -13.131   6.284   5.449  1.00  0.00     0.135 A 
ATOM     67  F   UNL     1     -13.612   4.673   2.220  1.00  0.00    -0.206 F 
ATOM     68  C   UNL     1     -13.988   3.854   4.385  1.00  0.00     0.059 A 
ATOM     69  C   UNL     1     -13.506   5.256   6.309  1.00  0.00     0.059 A 
ATOM     70  F   UNL     1     -12.702   7.435   5.989  1.00  0.00    -0.206 F 
ATOM     71  C   UNL     1     -13.941   4.047   5.767  1.00  0.00     0.060 A 
BRANCH  71  72
ATOM     72  S   UNL     1     -14.391   2.673   6.849  1.00  0.00     0.124 S 
ATOM     73  O   UNL     1     -15.844   2.661   6.729  1.00  0.00    -0.237 OA
ATOM     74  O   UNL     1     -13.691   1.550   6.232  1.00  0.00    -0.237 OA
ATOM     75  O   UNL     1     -13.868   3.085   8.149  1.00  0.00    -0.744 OA
ENDBRANCH  71  72
ENDBRANCH  50  64
BRANCH  51  76
ATOM     76  C   UNL     1      -9.785  13.023  -2.327  1.00  0.00     0.058 A 
ATOM     77  C   UNL     1      -9.006  12.636  -3.428  1.00  0.00     0.135 A 
ATOM     78  C   UNL     1      -9.965  14.395  -2.100  1.00  0.00     0.135 A 
ATOM     79  F   UNL     1      -8.796  11.335  -3.681  1.00  0.00    -0.206 F 
ATOM     80  C   UNL     1      -8.383  13.576  -4.243  1.00  0.00     0.059 A 
ATOM     81  C   UNL     1      -9.369  15.354  -2.912  1.00  0.00     0.059 A 
ATOM     82  F   UNL     1     -10.713  14.809  -1.066  1.00  0.00    -0.206 F 
ATOM     83  C   UNL     1      -8.556  14.933  -3.965  1.00  0.00     0.060 A 
BRANCH  83  84
ATOM     84  S   UNL     1      -7.667  16.136  -4.977  1.00  0.00     0.124 S 
ATOM     85  O   UNL     1      -6.286  15.892  -4.571  1.00  0.00    -0.237 OA
ATOM     86  O   UNL     1      -8.015  15.716  -6.330  1.00  0.00    -0.237 OA
ATOM     87  O   UNL     1      -8.228  17.415  -4.554  1.00  0.00    -0.744 OA
ENDBRANCH  83  84
ENDBRANCH  51  76
BRANCH  63  88
ATOM     88  C   UNL     1     -16.137  10.490  -0.833  1.00  0.00     0.058 A 
ATOM     89  C   UNL     1     -17.083  11.179  -0.058  1.00  0.00     0.135 A 
ATOM     90  C   UNL     1     -16.545   9.994  -2.081  1.00  0.00     0.135 A 
ATOM     91  F   UNL     1     -16.745  11.671   1.144  1.00  0.00    -0.206 F 
ATOM     92  C   UNL     1     -18.395  11.345  -0.490  1.00  0.00     0.059 A 
ATOM     93  C   UNL     1     -17.846  10.168  -2.543  1.00  0.00     0.059 A 
ATOM     94  F   UNL     1     -15.673   9.340  -2.865  1.00  0.00    -0.206 F 
ATOM     95  C   UNL     1     -18.769  10.828  -1.732  1.00  0.00     0.060 A 
BRANCH  95  96
ATOM     96  S   UNL     1     -20.476  11.048  -2.276  1.00  0.00     0.124 S 
ATOM     97  O   UNL     1     -21.189  10.120  -1.405  1.00  0.00    -0.237 OA
ATOM     98  O   UNL     1     -20.704  12.466  -2.015  1.00  0.00    -0.237 OA
ATOM     99  O   UNL     1     -20.432  10.678  -3.688  1.00  0.00    -0.744 OA
ENDBRANCH  95  96
ENDBRANCH  63  88
ENDBRANCH  37  38
ENDBRANCH  29  32
ENDBRANCH  27  28
ENDBRANCH  26  27
ENDBRANCH   1  26
TORSDOF 17
