REMARK SMILES O=C(NCCCCNC(=O)[C@@H]1CCCCC[C@H]1NS(=O)(=O)C(F)F)c1ccc(-c2c3nc(c(-c4c(F)cc(S(=O)(=O)[O-])cc4F)c4ccc([nH]4)c(-c4c(F)cc(S(=O)(=O)[O-])cc4F)c4nc(c(-c5c(F)cc(S(=O)(=O)[O-])cc5F)c5ccc2[nH]5)C=C4)C=C3)cc1
REMARK SMILES IDX 6 1 5 2 4 3 3 4 1 5 2 6 25 8 26 9 90 10 27 11 89 12 28 13
REMARK SMILES IDX 29 14 30 15 83 16 31 17 88 18 82 19 84 20 32 21 87 22 81 23
REMARK SMILES IDX 80 24 33 26 67 27 46 28 66 29 47 30 50 31 65 32 85 33 48 34
REMARK SMILES IDX 49 35 64 37 86 38 51 39 34 40 35 41 44 42 36 43 37 44 43 45
REMARK SMILES IDX 45 46 38 47 39 48 40 49 41 50 42 51 68 52 69 53 78 54 70 55
REMARK SMILES IDX 71 56 77 57 79 58 72 59 73 60 74 61 75 62 76 63 52 64 53 65
REMARK SMILES IDX 62 66 54 67 55 68 61 69 63 70 56 71 57 72 58 73 59 74 60 75
REMARK SMILES IDX 7 76 8 77 9 78 10 80 11 81 12 82 13 83 14 84 17 86 16 87
REMARK SMILES IDX 15 88 18 90 19 92 20 93 21 94 22 95 23 96 24 97
REMARK H PARENT 3 7 84 25 50 36 8 79 18 91
REMARK Flexibility Score: 100.00
ROOT
ATOM      1  C   UNL     1       4.464  -2.537   2.711  1.00  0.00     0.023 C 
ENDROOT
BRANCH   1   2
ATOM      2  C   UNL     1       4.947  -1.182   2.191  1.00  0.00     0.023 C 
BRANCH   2   3
ATOM      3  C   UNL     1       4.610  -0.894   0.732  1.00  0.00     0.116 C 
BRANCH   3   4
ATOM      4  N   UNL     1       3.179  -0.912   0.472  1.00  0.00    -0.352 N 
ATOM      5  O   UNL     1       1.165  -0.066  -0.083  1.00  0.00    -0.269 OA
ATOM      6  C   UNL     1       2.386   0.061  -0.088  1.00  0.00     0.251 C 
ATOM      7  H   UNL     1       2.712  -1.738   0.735  1.00  0.00     0.163 HD
BRANCH   6   8
ATOM      8  C   UNL     1       3.009   1.268  -0.670  1.00  0.00     0.039 A 
ATOM      9  C   UNL     1       4.120   1.163  -1.512  1.00  0.00     0.014 A 
ATOM     10  C   UNL     1       2.476   2.522  -0.362  1.00  0.00     0.014 A 
ATOM     11  C   UNL     1       4.781   2.313  -1.931  1.00  0.00     0.010 A 
ATOM     12  C   UNL     1       3.094   3.674  -0.852  1.00  0.00     0.010 A 
ATOM     13  C   UNL     1       4.270   3.581  -1.614  1.00  0.00    -0.014 A 
BRANCH  13  14
ATOM     14  C   UNL     1       4.945   4.805  -2.116  1.00  0.00     0.031 A 
ATOM     15  C   UNL     1       5.544   5.800  -1.162  1.00  0.00     0.074 A 
ATOM     16  C   UNL     1       4.997   5.024  -3.444  1.00  0.00     0.049 A 
ATOM     17  N   UNL     1       6.103   6.955  -1.418  1.00  0.00    -0.248 NA
ATOM     18  C   UNL     1       5.501   5.458   0.268  1.00  0.00     0.031 C 
ATOM     19  C   UNL     1       4.452   4.128  -4.467  1.00  0.00     0.029 A 
ATOM     20  N   UNL     1       5.522   6.068  -4.162  1.00  0.00    -0.354 N 
ATOM     21  C   UNL     1       6.458   7.490  -0.185  1.00  0.00     0.074 A 
ATOM     22  C   UNL     1       6.025   6.544   0.822  1.00  0.00     0.031 C 
ATOM     23  C   UNL     1       4.683   4.653  -5.679  1.00  0.00     0.029 A 
ATOM     24  C   UNL     1       5.330   5.950  -5.518  1.00  0.00     0.049 A 
ATOM     25  H   UNL     1       5.991   6.827  -3.747  1.00  0.00     0.167 HD
ATOM     26  C   UNL     1       7.090   8.660   0.080  1.00  0.00     0.037 A 
ATOM     27  C   UNL     1       5.609   6.804  -6.521  1.00  0.00     0.037 A 
ATOM     28  C   UNL     1       7.514   9.593  -0.934  1.00  0.00     0.049 A 
ATOM     29  C   UNL     1       6.268   8.115  -6.203  1.00  0.00     0.074 A 
ATOM     30  C   UNL     1       8.187  10.792  -0.773  1.00  0.00     0.029 A 
ATOM     31  N   UNL     1       7.294   9.441  -2.297  1.00  0.00    -0.354 N 
ATOM     32  N   UNL     1       6.623   8.595  -5.035  1.00  0.00    -0.248 NA
ATOM     33  C   UNL     1       6.569   9.001  -7.335  1.00  0.00     0.031 C 
ATOM     34  C   UNL     1       8.321  11.391  -2.030  1.00  0.00     0.029 A 
ATOM     35  C   UNL     1       7.795  10.535  -2.985  1.00  0.00     0.049 A 
ATOM     36  H   UNL     1       6.848   8.669  -2.714  1.00  0.00     0.167 HD
ATOM     37  C   UNL     1       7.217   9.824  -5.293  1.00  0.00     0.074 A 
ATOM     38  C   UNL     1       7.175  10.013  -6.729  1.00  0.00     0.031 C 
ATOM     39  C   UNL     1       7.757  10.709  -4.418  1.00  0.00     0.037 A 
BRANCH  26  40
ATOM     40  C   UNL     1       7.327   9.015   1.525  1.00  0.00     0.058 A 
ATOM     41  C   UNL     1       8.233   8.303   2.329  1.00  0.00     0.135 A 
ATOM     42  C   UNL     1       6.647  10.095   2.113  1.00  0.00     0.135 A 
ATOM     43  F   UNL     1       8.906   7.256   1.825  1.00  0.00    -0.206 F 
ATOM     44  C   UNL     1       8.421   8.619   3.671  1.00  0.00     0.059 A 
ATOM     45  C   UNL     1       6.843  10.449   3.446  1.00  0.00     0.059 A 
ATOM     46  F   UNL     1       5.773  10.816   1.394  1.00  0.00    -0.206 F 
ATOM     47  C   UNL     1       7.716   9.690   4.223  1.00  0.00     0.060 A 
BRANCH  47  48
ATOM     48  S   UNL     1       7.944  10.063   5.974  1.00  0.00     0.124 S 
ATOM     49  O   UNL     1       7.246   8.945   6.602  1.00  0.00    -0.237 OA
ATOM     50  O   UNL     1       9.397  10.057   6.108  1.00  0.00    -0.237 OA
ATOM     51  O   UNL     1       7.307  11.367   6.131  1.00  0.00    -0.744 OA
ENDBRANCH  47  48
ENDBRANCH  26  40
BRANCH  27  52
ATOM     52  C   UNL     1       5.255   6.428  -7.915  1.00  0.00     0.058 A 
ATOM     53  C   UNL     1       6.245   6.098  -8.850  1.00  0.00     0.135 A 
ATOM     54  C   UNL     1       3.913   6.330  -8.319  1.00  0.00     0.135 A 
ATOM     55  F   UNL     1       7.541   6.182  -8.512  1.00  0.00    -0.206 F 
ATOM     56  C   UNL     1       5.920   5.683 -10.137  1.00  0.00     0.059 A 
ATOM     57  C   UNL     1       3.563   5.890  -9.591  1.00  0.00     0.059 A 
ATOM     58  F   UNL     1       2.927   6.617  -7.455  1.00  0.00    -0.206 F 
ATOM     59  C   UNL     1       4.575   5.572 -10.494  1.00  0.00     0.060 A 
BRANCH  59  60
ATOM     60  S   UNL     1       4.167   4.954 -12.141  1.00  0.00     0.124 S 
ATOM     61  O   UNL     1       4.567   6.075 -12.983  1.00  0.00    -0.237 OA
ATOM     62  O   UNL     1       4.999   3.758 -12.231  1.00  0.00    -0.237 OA
ATOM     63  O   UNL     1       2.731   4.704 -12.061  1.00  0.00    -0.744 OA
ENDBRANCH  59  60
ENDBRANCH  27  52
BRANCH  39  64
ATOM     64  C   UNL     1       8.400  11.946  -4.984  1.00  0.00     0.058 A 
ATOM     65  C   UNL     1       7.646  12.999  -5.523  1.00  0.00     0.135 A 
ATOM     66  C   UNL     1       9.794  12.106  -4.915  1.00  0.00     0.135 A 
ATOM     67  F   UNL     1       6.312  12.893  -5.623  1.00  0.00    -0.206 F 
ATOM     68  C   UNL     1       8.252  14.164  -5.985  1.00  0.00     0.059 A 
ATOM     69  C   UNL     1      10.419  13.273  -5.343  1.00  0.00     0.059 A 
ATOM     70  F   UNL     1      10.563  11.131  -4.403  1.00  0.00    -0.206 F 
ATOM     71  C   UNL     1       9.639  14.295  -5.883  1.00  0.00     0.060 A 
BRANCH  71  72
ATOM     72  S   UNL     1      10.406  15.835  -6.430  1.00  0.00     0.124 S 
ATOM     73  O   UNL     1      10.282  15.727  -7.879  1.00  0.00    -0.237 OA
ATOM     74  O   UNL     1       9.566  16.844  -5.793  1.00  0.00    -0.237 OA
ATOM     75  O   UNL     1      11.767  15.742  -5.908  1.00  0.00    -0.744 OA
ENDBRANCH  71  72
ENDBRANCH  39  64
ENDBRANCH  13  14
ENDBRANCH   6   8
ENDBRANCH   3   4
ENDBRANCH   2   3
ENDBRANCH   1   2
BRANCH   1  76
ATOM     76  C   UNL     1       4.928  -3.733   1.884  1.00  0.00     0.116 C 
BRANCH  76  77
ATOM     77  N   UNL     1       6.370  -3.900   1.948  1.00  0.00    -0.356 N 
ATOM     78  C   UNL     1       7.099  -4.930   2.464  1.00  0.00     0.224 C 
ATOM     79  H   UNL     1       6.896  -3.162   1.564  1.00  0.00     0.163 HD
ATOM     80  O   UNL     1       8.327  -4.860   2.417  1.00  0.00    -0.275 OA
BRANCH  78  81
ATOM     81  C   UNL     1       6.371  -6.154   3.014  1.00  0.00     0.096 C 
BRANCH  81  82
ATOM     82  C   UNL     1       7.226  -6.797   4.118  1.00  0.00     0.015 C 
BRANCH  82  83
ATOM     83  C   UNL     1       6.652  -8.095   4.673  1.00  0.00     0.001 C 
BRANCH  83  84
ATOM     84  C   UNL     1       7.166  -9.324   3.933  1.00  0.00     0.000 CG0
ATOM     85  G   UNL     1       6.691  -9.467   2.494  1.00  0.00     0.000 G0
ENDBRANCH  83  84
ENDBRANCH  82  83
ENDBRANCH  81  82
BRANCH  81  86
ATOM     86  C   UNL     1       5.988  -7.057   1.810  1.00  0.00     0.082 C 
BRANCH  86  87
ATOM     87  C   UNL     1       6.923  -8.255   1.591  1.00  0.00     0.021 C 
BRANCH  87  88
ATOM     88  C   UNL     1       6.691  -9.467   2.494  1.00  0.00     0.002 CG0
ATOM     89  G   UNL     1       7.166  -9.324   3.933  1.00  0.00     0.000 G0
ENDBRANCH  87  88
ENDBRANCH  86  87
BRANCH  86  90
ATOM     90  N   UNL     1       4.563  -7.458   1.948  1.00  0.00    -0.206 NA
ATOM     91  H   UNL     1       4.057  -6.615   2.219  1.00  0.00     0.141 HD
BRANCH  90  92
ATOM     92  S   UNL     1       3.685  -8.143   0.683  1.00  0.00     0.274 S 
ATOM     93  O   UNL     1       4.436  -9.272   0.175  1.00  0.00    -0.206 OA
ATOM     94  O   UNL     1       2.368  -8.376   1.252  1.00  0.00    -0.206 OA
BRANCH  92  95
ATOM     95  C   UNL     1       3.565  -6.845  -0.608  1.00  0.00     0.473 C 
ATOM     96  F   UNL     1       3.014  -5.692  -0.131  1.00  0.00    -0.191 F 
ATOM     97  F   UNL     1       4.788  -6.505  -1.108  1.00  0.00    -0.191 F 
ENDBRANCH  92  95
ENDBRANCH  90  92
ENDBRANCH  86  90
ENDBRANCH  81  86
ENDBRANCH  78  81
ENDBRANCH  76  77
ENDBRANCH   1  76
TORSDOF 17
