REMARK SMILES [NH3+][C@@H]1C(=O)N2C(C(=O)NCCCCNC(=O)c3ccc(-c4c5nc(c(-c6c(F)cc(S(=O)(=O)[O-])cc6F)c6ccc([nH]6)c(-c6c(F)cc(S(=O)(=O)[O-])cc6F)c6nc(c(-c7c(F)cc(S(=O)(=O)[O-])cc7F)c7ccc4[nH]7)C=C6)C=C5)cc3)=CCS[C@@H]12
REMARK SMILES IDX 12 1 11 2 10 3 9 4 7 5 8 6 6 8 2 9 3 10 86 11 4 12 5 13
REMARK SMILES IDX 85 14 84 15 83 16 1 17 13 21 14 22 15 23 16 25 17 26 18 27
REMARK SMILES IDX 82 28 19 29 81 30 20 31 21 32 22 33 75 34 23 35 80 36 74 37
REMARK SMILES IDX 76 38 24 39 79 40 73 41 72 42 25 44 59 45 38 46 58 47 39 48
REMARK SMILES IDX 42 49 57 50 77 51 40 52 41 53 56 55 78 56 43 57 26 58 27 59
REMARK SMILES IDX 36 60 28 61 29 62 35 63 37 64 30 65 31 66 32 67 33 68 34 69
REMARK SMILES IDX 60 70 61 71 70 72 62 73 63 74 69 75 71 76 64 77 65 78 66 79
REMARK SMILES IDX 67 80 68 81 44 82 45 83 54 84 46 85 47 86 53 87 55 88 48 89
REMARK SMILES IDX 49 90 50 91 51 92 52 93
REMARK H PARENT 9 7 1 18 1 19 1 20 14 24 76 43 42 54
REMARK Flexibility Score: inf
ROOT
ATOM      1  C   UNL     1      -4.737  -7.739   0.329  1.00  0.00     0.023 C 
ENDROOT
BRANCH   1   2
ATOM      2  C   UNL     1      -3.281  -7.320   0.092  1.00  0.00     0.023 C 
BRANCH   2   3
ATOM      3  C   UNL     1      -3.078  -6.470  -1.169  1.00  0.00     0.116 C 
BRANCH   3   4
ATOM      4  N   UNL     1      -3.447  -5.093  -0.902  1.00  0.00    -0.351 N 
ATOM      5  C   UNL     1      -2.755  -3.977  -0.543  1.00  0.00     0.267 C 
ATOM      6  O   UNL     1      -3.431  -3.004  -0.206  1.00  0.00    -0.268 OA
ATOM      7  H   UNL     1      -4.413  -4.929  -1.003  1.00  0.00     0.163 HD
BRANCH   5   8
ATOM      8  C   UNL     1      -1.244  -3.888  -0.551  1.00  0.00     0.107 C 
ATOM      9  C   UNL     1       0.515  -0.977  -0.958  1.00  0.00     0.305 C 
ATOM     10  C   UNL     1      -1.007  -1.381  -1.018  1.00  0.00     0.289 C 
ATOM     11  C   UNL     1       0.697  -2.385  -0.327  1.00  0.00     0.217 C 
ATOM     12  O   UNL     1      -2.033  -0.814  -1.294  1.00  0.00    -0.267 OA
ATOM     13  N   UNL     1      -0.671  -2.661  -0.721  1.00  0.00    -0.283 N 
ATOM     14  S   UNL     1       1.793  -3.508  -1.224  1.00  0.00    -0.126 SA
ATOM     15  C   UNL     1       1.068  -4.984  -0.457  1.00  0.00     0.101 C 
ATOM     16  C   UNL     1      -0.432  -4.942  -0.331  1.00  0.00     0.016 C 
BRANCH   9  17
ATOM     17  N   UNL     1       0.886   0.068   0.028  1.00  0.00    -0.345 N 
ATOM     18  H   UNL     1       0.765   0.989  -0.392  1.00  0.00     0.345 HD
ATOM     19  H   UNL     1       1.861  -0.055   0.303  1.00  0.00     0.345 HD
ATOM     20  H   UNL     1       0.288  -0.013   0.850  1.00  0.00     0.345 HD
ENDBRANCH   9  17
ENDBRANCH   5   8
ENDBRANCH   3   4
ENDBRANCH   2   3
ENDBRANCH   1   2
BRANCH   1  21
ATOM     21  C   UNL     1      -5.345  -8.600  -0.774  1.00  0.00     0.116 C 
BRANCH  21  22
ATOM     22  N   UNL     1      -4.584  -9.813  -1.037  1.00  0.00    -0.352 N 
ATOM     23  C   UNL     1      -5.053 -11.072  -1.326  1.00  0.00     0.251 C 
ATOM     24  H   UNL     1      -3.604  -9.719  -1.002  1.00  0.00     0.163 HD
ATOM     25  O   UNL     1      -4.277 -12.020  -1.391  1.00  0.00    -0.269 OA
BRANCH  23  26
ATOM     26  C   UNL     1      -6.504 -11.271  -1.519  1.00  0.00     0.039 A 
ATOM     27  C   UNL     1      -7.144 -12.302  -0.831  1.00  0.00     0.014 A 
ATOM     28  C   UNL     1      -7.234 -10.404  -2.337  1.00  0.00     0.014 A 
ATOM     29  C   UNL     1      -8.532 -12.420  -0.908  1.00  0.00     0.010 A 
ATOM     30  C   UNL     1      -8.623 -10.472  -2.345  1.00  0.00     0.010 A 
ATOM     31  C   UNL     1      -9.287 -11.481  -1.631  1.00  0.00    -0.014 A 
BRANCH  31  32
ATOM     32  C   UNL     1     -10.772 -11.535  -1.647  1.00  0.00     0.031 A 
ATOM     33  C   UNL     1     -11.506 -11.744  -2.944  1.00  0.00     0.074 A 
ATOM     34  C   UNL     1     -11.458 -11.338  -0.503  1.00  0.00     0.049 A 
ATOM     35  N   UNL     1     -12.795 -11.763  -3.168  1.00  0.00    -0.248 NA
ATOM     36  C   UNL     1     -10.686 -11.929  -4.152  1.00  0.00     0.031 C 
ATOM     37  C   UNL     1     -10.860 -11.074   0.808  1.00  0.00     0.029 A 
ATOM     38  N   UNL     1     -12.809 -11.319  -0.258  1.00  0.00    -0.354 N 
ATOM     39  C   UNL     1     -12.938 -11.957  -4.537  1.00  0.00     0.074 A 
ATOM     40  C   UNL     1     -11.607 -11.982  -5.102  1.00  0.00     0.031 C 
ATOM     41  C   UNL     1     -11.836 -10.946   1.721  1.00  0.00     0.029 A 
ATOM     42  C   UNL     1     -13.130 -11.071   1.057  1.00  0.00     0.049 A 
ATOM     43  H   UNL     1     -13.485 -11.469  -0.957  1.00  0.00     0.167 HD
ATOM     44  C   UNL     1     -14.075 -12.126  -5.254  1.00  0.00     0.037 A 
ATOM     45  C   UNL     1     -14.329 -10.944   1.658  1.00  0.00     0.037 A 
ATOM     46  C   UNL     1     -15.396 -12.110  -4.681  1.00  0.00     0.049 A 
ATOM     47  C   UNL     1     -15.579 -11.112   0.835  1.00  0.00     0.074 A 
ATOM     48  C   UNL     1     -16.609 -12.318  -5.313  1.00  0.00     0.029 A 
ATOM     49  N   UNL     1     -15.679 -11.867  -3.344  1.00  0.00    -0.354 N 
ATOM     50  N   UNL     1     -15.694 -11.364  -0.448  1.00  0.00    -0.248 NA
ATOM     51  C   UNL     1     -16.862 -10.987   1.540  1.00  0.00     0.031 C 
ATOM     52  C   UNL     1     -17.628 -12.141  -4.373  1.00  0.00     0.029 A 
ATOM     53  C   UNL     1     -17.049 -11.893  -3.138  1.00  0.00     0.049 A 
ATOM     54  H   UNL     1     -15.006 -11.700  -2.645  1.00  0.00     0.167 HD
ATOM     55  C   UNL     1     -17.060 -11.458  -0.696  1.00  0.00     0.074 A 
ATOM     56  C   UNL     1     -17.728 -11.252   0.572  1.00  0.00     0.031 C 
ATOM     57  C   UNL     1     -17.701 -11.695  -1.867  1.00  0.00     0.037 A 
BRANCH  44  58
ATOM     58  C   UNL     1     -13.942 -12.346  -6.737  1.00  0.00     0.058 A 
ATOM     59  C   UNL     1     -13.383 -13.524  -7.262  1.00  0.00     0.135 A 
ATOM     60  C   UNL     1     -14.421 -11.390  -7.648  1.00  0.00     0.135 A 
ATOM     61  F   UNL     1     -12.893 -14.465  -6.439  1.00  0.00    -0.206 F 
ATOM     62  C   UNL     1     -13.279 -13.733  -8.633  1.00  0.00     0.059 A 
ATOM     63  C   UNL     1     -14.358 -11.594  -9.024  1.00  0.00     0.059 A 
ATOM     64  F   UNL     1     -14.963 -10.245  -7.205  1.00  0.00    -0.206 F 
ATOM     65  C   UNL     1     -13.773 -12.764  -9.506  1.00  0.00     0.060 A 
BRANCH  65  66
ATOM     66  S   UNL     1     -13.645 -13.063 -11.282  1.00  0.00     0.124 S 
ATOM     67  O   UNL     1     -12.206 -12.941 -11.495  1.00  0.00    -0.237 OA
ATOM     68  O   UNL     1     -14.193 -14.409 -11.409  1.00  0.00    -0.237 OA
ATOM     69  O   UNL     1     -14.457 -12.000 -11.866  1.00  0.00    -0.744 OA
ENDBRANCH  65  66
ENDBRANCH  44  58
BRANCH  45  70
ATOM     70  C   UNL     1     -14.408 -10.651   3.116  1.00  0.00     0.058 A 
ATOM     71  C   UNL     1     -14.910 -11.598   4.022  1.00  0.00     0.135 A 
ATOM     72  C   UNL     1     -13.982  -9.418   3.635  1.00  0.00     0.135 A 
ATOM     73  F   UNL     1     -15.335 -12.791   3.578  1.00  0.00    -0.206 F 
ATOM     74  C   UNL     1     -15.010 -11.326   5.383  1.00  0.00     0.059 A 
ATOM     75  C   UNL     1     -14.042  -9.134   4.995  1.00  0.00     0.059 A 
ATOM     76  F   UNL     1     -13.477  -8.482   2.815  1.00  0.00    -0.206 F 
ATOM     77  C   UNL     1     -14.570 -10.090   5.861  1.00  0.00     0.060 A 
BRANCH  77  78
ATOM     78  S   UNL     1     -14.668  -9.763   7.634  1.00  0.00     0.124 S 
ATOM     79  O   UNL     1     -16.107  -9.631   7.830  1.00  0.00    -0.237 OA
ATOM     80  O   UNL     1     -14.053 -10.961   8.198  1.00  0.00    -0.237 OA
ATOM     81  O   UNL     1     -13.894  -8.536   7.792  1.00  0.00    -0.744 OA
ENDBRANCH  77  78
ENDBRANCH  45  70
BRANCH  57  82
ATOM     82  C   UNL     1     -19.204 -11.790  -1.831  1.00  0.00     0.058 A 
ATOM     83  C   UNL     1     -20.015 -10.667  -1.609  1.00  0.00     0.135 A 
ATOM     84  C   UNL     1     -19.841 -13.018  -2.080  1.00  0.00     0.135 A 
ATOM     85  F   UNL     1     -19.460  -9.470  -1.361  1.00  0.00    -0.206 F 
ATOM     86  C   UNL     1     -21.403 -10.762  -1.607  1.00  0.00     0.059 A 
ATOM     87  C   UNL     1     -21.227 -13.129  -2.117  1.00  0.00     0.059 A 
ATOM     88  F   UNL     1     -19.114 -14.123  -2.309  1.00  0.00    -0.206 F 
ATOM     89  C   UNL     1     -22.000 -11.997  -1.867  1.00  0.00     0.060 A 
BRANCH  89  90
ATOM     90  S   UNL     1     -23.802 -12.098  -1.897  1.00  0.00     0.124 S 
ATOM     91  O   UNL     1     -24.129 -11.940  -0.484  1.00  0.00    -0.237 OA
ATOM     92  O   UNL     1     -24.161 -10.976  -2.760  1.00  0.00    -0.237 OA
ATOM     93  O   UNL     1     -24.061 -13.421  -2.457  1.00  0.00    -0.744 OA
ENDBRANCH  89  90
ENDBRANCH  57  82
ENDBRANCH  31  32
ENDBRANCH  23  26
ENDBRANCH  21  22
ENDBRANCH   1  21
TORSDOF 15
