REMARK SMILES Cc1cc(NS(=O)(=O)CC(=O)NCCCCNC(=O)c2ccc(-c3c4nc(c(-c5c(F)cc(S(=O)(=O)[O-])cc5F)c5ccc([nH]5)c(-c5c(F)cc(S(=O)(=O)[O-])cc5F)c5nc(c(-c6c(F)cc(S(=O)(=O)[O-])cc6F)c6ccc3[nH]6)C=C5)C=C4)cc2)ccn1
REMARK SMILES IDX 14 1 13 2 12 3 10 4 11 5 9 7 6 8 7 9 8 10 5 11 4 13 1 14
REMARK SMILES IDX 2 15 3 16 88 17 87 18 86 19 15 20 16 21 17 22 18 23 19 25
REMARK SMILES IDX 20 26 21 27 85 28 22 29 84 30 23 31 24 32 25 33 78 34 26 35
REMARK SMILES IDX 83 36 77 37 79 38 27 39 82 40 76 41 75 42 28 44 62 45 41 46
REMARK SMILES IDX 61 47 42 48 45 49 60 50 80 51 43 52 44 53 59 55 81 56 46 57
REMARK SMILES IDX 29 58 30 59 39 60 31 61 32 62 38 63 40 64 33 65 34 66 35 67
REMARK SMILES IDX 36 68 37 69 63 70 64 71 73 72 65 73 66 74 72 75 74 76 67 77
REMARK SMILES IDX 68 78 69 79 70 80 71 81 47 82 48 83 57 84 49 85 50 86 56 87
REMARK SMILES IDX 58 88 51 89 52 90 53 91 54 92 55 93
REMARK H PARENT 12 6 5 12 17 24 79 43 45 54
REMARK Flexibility Score: inf
ROOT
ATOM      1  C   UNL     1      -4.357  -2.794   3.379  1.00  0.00     0.023 C 
ENDROOT
BRANCH   1   2
ATOM      2  C   UNL     1      -5.275  -1.788   2.695  1.00  0.00     0.116 C 
BRANCH   2   3
ATOM      3  N   UNL     1      -4.579  -0.558   2.389  1.00  0.00    -0.355 N 
ATOM      4  C   UNL     1      -4.252  -0.036   1.179  1.00  0.00     0.237 C 
ATOM      5  O   UNL     1      -3.716   1.075   1.168  1.00  0.00    -0.274 OA
ATOM      6  H   UNL     1      -4.302  -0.023   3.168  1.00  0.00     0.163 HD
BRANCH   4   7
ATOM      7  C   UNL     1      -4.638  -0.718  -0.092  1.00  0.00     0.259 C 
BRANCH   7   8
ATOM      8  S   UNL     1      -3.540  -2.026  -0.592  1.00  0.00     0.241 S 
ATOM      9  O   UNL     1      -3.332  -1.931  -2.024  1.00  0.00    -0.206 OA
ATOM     10  O   UNL     1      -4.060  -3.257  -0.031  1.00  0.00    -0.206 OA
BRANCH   8  11
ATOM     11  N   UNL     1      -2.075  -1.812   0.169  1.00  0.00    -0.283 N 
ATOM     12  H   UNL     1      -1.869  -2.381   0.946  1.00  0.00     0.180 HD
BRANCH  11  13
ATOM     13  C   UNL     1      -1.097  -0.849  -0.241  1.00  0.00     0.052 A 
ATOM     14  C   UNL     1       2.643  -0.361   0.127  1.00  0.00     0.067 C 
ATOM     15  C   UNL     1       1.190  -0.119  -0.145  1.00  0.00     0.039 A 
ATOM     16  C   UNL     1       0.243  -1.125   0.032  1.00  0.00     0.050 A 
ATOM     17  N   UNL     1       0.856   1.137  -0.513  1.00  0.00    -0.261 NA
ATOM     18  C   UNL     1      -0.445   1.384  -0.753  1.00  0.00     0.113 A 
ATOM     19  C   UNL     1      -1.438   0.426  -0.668  1.00  0.00     0.047 A 
ENDBRANCH  11  13
ENDBRANCH   8  11
ENDBRANCH   7   8
ENDBRANCH   4   7
ENDBRANCH   2   3
ENDBRANCH   1   2
BRANCH   1  20
ATOM     20  C   UNL     1      -3.849  -2.362   4.757  1.00  0.00     0.023 C 
BRANCH  20  21
ATOM     21  C   UNL     1      -4.924  -1.894   5.730  1.00  0.00     0.116 C 
BRANCH  21  22
ATOM     22  N   UNL     1      -5.995  -2.863   5.899  1.00  0.00    -0.352 N 
ATOM     23  C   UNL     1      -6.621  -3.272   7.049  1.00  0.00     0.251 C 
ATOM     24  H   UNL     1      -6.315  -3.287   5.069  1.00  0.00     0.163 HD
ATOM     25  O   UNL     1      -7.415  -4.207   7.009  1.00  0.00    -0.269 OA
BRANCH  23  26
ATOM     26  C   UNL     1      -6.316  -2.604   8.331  1.00  0.00     0.039 A 
ATOM     27  C   UNL     1      -6.129  -3.390   9.469  1.00  0.00     0.014 A 
ATOM     28  C   UNL     1      -6.215  -1.212   8.413  1.00  0.00     0.014 A 
ATOM     29  C   UNL     1      -5.803  -2.781  10.681  1.00  0.00     0.010 A 
ATOM     30  C   UNL     1      -5.799  -0.616   9.600  1.00  0.00     0.010 A 
ATOM     31  C   UNL     1      -5.613  -1.390  10.753  1.00  0.00    -0.014 A 
BRANCH  31  32
ATOM     32  C   UNL     1      -5.259  -0.737  12.039  1.00  0.00     0.031 A 
ATOM     33  C   UNL     1      -6.202   0.257  12.665  1.00  0.00     0.074 A 
ATOM     34  C   UNL     1      -4.081  -1.020  12.630  1.00  0.00     0.049 A 
ATOM     35  N   UNL     1      -6.077   0.921  13.785  1.00  0.00    -0.248 NA
ATOM     36  C   UNL     1      -7.436   0.567  11.923  1.00  0.00     0.031 C 
ATOM     37  C   UNL     1      -3.058  -1.918  12.089  1.00  0.00     0.029 A 
ATOM     38  N   UNL     1      -3.546  -0.586  13.816  1.00  0.00    -0.354 N 
ATOM     39  C   UNL     1      -7.205   1.729  13.876  1.00  0.00     0.074 A 
ATOM     40  C   UNL     1      -7.968   1.526  12.665  1.00  0.00     0.031 C 
ATOM     41  C   UNL     1      -2.038  -1.998  12.959  1.00  0.00     0.029 A 
ATOM     42  C   UNL     1      -2.317  -1.133  14.101  1.00  0.00     0.049 A 
ATOM     43  H   UNL     1      -4.000   0.057  14.408  1.00  0.00     0.167 HD
ATOM     44  C   UNL     1      -7.589   2.541  14.890  1.00  0.00     0.037 A 
ATOM     45  C   UNL     1      -1.509  -0.961  15.165  1.00  0.00     0.037 A 
ATOM     46  C   UNL     1      -6.835   2.719  16.103  1.00  0.00     0.049 A 
ATOM     47  C   UNL     1      -1.962  -0.062  16.285  1.00  0.00     0.074 A 
ATOM     48  C   UNL     1      -7.159   3.474  17.216  1.00  0.00     0.029 A 
ATOM     49  N   UNL     1      -5.602   2.136  16.362  1.00  0.00    -0.354 N 
ATOM     50  N   UNL     1      -3.068   0.637  16.387  1.00  0.00    -0.248 NA
ATOM     51  C   UNL     1      -1.066   0.057  17.441  1.00  0.00     0.031 C 
ATOM     52  C   UNL     1      -6.100   3.390  18.126  1.00  0.00     0.029 A 
ATOM     53  C   UNL     1      -5.143   2.531  17.608  1.00  0.00     0.049 A 
ATOM     54  H   UNL     1      -5.125   1.530  15.750  1.00  0.00     0.167 HD
ATOM     55  C   UNL     1      -3.014   1.256  17.631  1.00  0.00     0.074 A 
ATOM     56  C   UNL     1      -1.775   0.831  18.251  1.00  0.00     0.031 C 
ATOM     57  C   UNL     1      -3.906   2.099  18.210  1.00  0.00     0.037 A 
BRANCH  44  58
ATOM     58  C   UNL     1      -8.885   3.292  14.731  1.00  0.00     0.058 A 
ATOM     59  C   UNL     1     -10.126   2.634  14.723  1.00  0.00     0.135 A 
ATOM     60  C   UNL     1      -8.890   4.692  14.614  1.00  0.00     0.135 A 
ATOM     61  F   UNL     1     -10.183   1.295  14.813  1.00  0.00    -0.206 F 
ATOM     62  C   UNL     1     -11.321   3.330  14.571  1.00  0.00     0.059 A 
ATOM     63  C   UNL     1     -10.075   5.412  14.495  1.00  0.00     0.059 A 
ATOM     64  F   UNL     1      -7.734   5.375  14.613  1.00  0.00    -0.206 F 
ATOM     65  C   UNL     1     -11.285   4.721  14.459  1.00  0.00     0.060 A 
BRANCH  65  66
ATOM     66  S   UNL     1     -12.845   5.609  14.272  1.00  0.00     0.124 S 
ATOM     67  O   UNL     1     -13.225   5.246  12.910  1.00  0.00    -0.237 OA
ATOM     68  O   UNL     1     -13.662   5.029  15.333  1.00  0.00    -0.237 OA
ATOM     69  O   UNL     1     -12.468   7.005  14.466  1.00  0.00    -0.744 OA
ENDBRANCH  65  66
ENDBRANCH  44  58
BRANCH  45  70
ATOM     70  C   UNL     1      -0.208  -1.679  15.238  1.00  0.00     0.058 A 
ATOM     71  C   UNL     1       0.004  -2.704  16.172  1.00  0.00     0.135 A 
ATOM     72  C   UNL     1       0.849  -1.360  14.370  1.00  0.00     0.135 A 
ATOM     73  F   UNL     1      -0.973  -3.045  17.027  1.00  0.00    -0.206 F 
ATOM     74  C   UNL     1       1.222  -3.371  16.261  1.00  0.00     0.059 A 
ATOM     75  C   UNL     1       2.066  -2.033  14.419  1.00  0.00     0.059 A 
ATOM     76  F   UNL     1       0.693  -0.400  13.445  1.00  0.00    -0.206 F 
ATOM     77  C   UNL     1       2.247  -3.030  15.377  1.00  0.00     0.060 A 
BRANCH  77  78
ATOM     78  S   UNL     1       3.808  -3.932  15.471  1.00  0.00     0.124 S 
ATOM     79  O   UNL     1       4.372  -3.416  16.713  1.00  0.00    -0.237 OA
ATOM     80  O   UNL     1       3.357  -5.320  15.502  1.00  0.00    -0.237 OA
ATOM     81  O   UNL     1       4.500  -3.533  14.249  1.00  0.00    -0.744 OA
ENDBRANCH  77  78
ENDBRANCH  45  70
BRANCH  57  82
ATOM     82  C   UNL     1      -3.591   2.585  19.600  1.00  0.00     0.058 A 
ATOM     83  C   UNL     1      -2.539   3.479  19.854  1.00  0.00     0.135 A 
ATOM     84  C   UNL     1      -4.368   2.162  20.691  1.00  0.00     0.135 A 
ATOM     85  F   UNL     1      -1.764   3.915  18.848  1.00  0.00    -0.206 F 
ATOM     86  C   UNL     1      -2.238   3.898  21.146  1.00  0.00     0.059 A 
ATOM     87  C   UNL     1      -4.107   2.596  21.986  1.00  0.00     0.059 A 
ATOM     88  F   UNL     1      -5.397   1.320  20.504  1.00  0.00    -0.206 F 
ATOM     89  C   UNL     1      -3.026   3.447  22.206  1.00  0.00     0.060 A 
BRANCH  89  90
ATOM     90  S   UNL     1      -2.621   3.994  23.878  1.00  0.00     0.124 S 
ATOM     91  O   UNL     1      -1.417   3.219  24.156  1.00  0.00    -0.237 OA
ATOM     92  O   UNL     1      -2.425   5.429  23.699  1.00  0.00    -0.237 OA
ATOM     93  O   UNL     1      -3.801   3.621  24.653  1.00  0.00    -0.744 OA
ENDBRANCH  89  90
ENDBRANCH  57  82
ENDBRANCH  31  32
ENDBRANCH  23  26
ENDBRANCH  21  22
ENDBRANCH  20  21
ENDBRANCH   1  20
TORSDOF 17
