REMARK SMILES O=C(NCCCCNC(=O)[C@@H](Cc1ccccc1)NS(=O)(=O)c1ccccc1C(F)(F)F)c1ccc(-c2c3nc(c(-c4c(F)cc(S(=O)(=O)[O-])cc4F)c4ccc([nH]4)c(-c4c(F)cc(S(=O)(=O)[O-])cc4F)c4nc(c(-c5c(F)cc(S(=O)(=O)[O-])cc5F)c5ccc2[nH]5)C=C4)C=C3)cc1
REMARK SMILES IDX 6 1 5 2 4 3 3 4 1 5 2 6 33 8 34 9 98 10 35 11 97 12 36 13
REMARK SMILES IDX 37 14 38 15 91 16 39 17 96 18 90 19 92 20 40 21 95 22 89 23
REMARK SMILES IDX 88 24 41 26 75 27 54 28 74 29 55 30 58 31 73 32 93 33 56 34
REMARK SMILES IDX 57 35 72 37 94 38 59 39 42 40 43 41 52 42 44 43 45 44 51 45
REMARK SMILES IDX 53 46 46 47 47 48 48 49 49 50 50 51 76 52 77 53 86 54 78 55
REMARK SMILES IDX 79 56 85 57 87 58 80 59 81 60 82 61 83 62 84 63 60 64 61 65
REMARK SMILES IDX 70 66 62 67 63 68 69 69 71 70 64 71 65 72 66 73 67 74 68 75
REMARK SMILES IDX 7 76 8 77 9 78 10 80 11 81 12 82 13 83 14 84 18 85 15 86
REMARK SMILES IDX 17 87 16 88 19 89 20 91 21 92 22 93 23 94 24 95 28 96 25 97
REMARK SMILES IDX 27 98 26 99 29 100 30 101 31 102 32 103
REMARK H PARENT 3 7 92 25 58 36 8 79 19 90
REMARK Flexibility Score: inf
ROOT
ATOM      1  C   UNL     1       5.552  -3.408   0.105  1.00  0.00     0.023 C 
ENDROOT
BRANCH   1   2
ATOM      2  C   UNL     1       5.658  -2.077   0.835  1.00  0.00     0.023 C 
BRANCH   2   3
ATOM      3  C   UNL     1       4.951  -0.911   0.159  1.00  0.00     0.116 C 
BRANCH   3   4
ATOM      4  N   UNL     1       3.503  -1.037   0.042  1.00  0.00    -0.352 N 
ATOM      5  O   UNL     1       1.362  -0.269   0.051  1.00  0.00    -0.269 OA
ATOM      6  C   UNL     1       2.560  -0.031   0.162  1.00  0.00     0.251 C 
ATOM      7  H   UNL     1       3.156  -1.940  -0.142  1.00  0.00     0.163 HD
BRANCH   6   8
ATOM      8  C   UNL     1       3.030   1.333   0.501  1.00  0.00     0.039 A 
ATOM      9  C   UNL     1       4.085   1.900  -0.214  1.00  0.00     0.014 A 
ATOM     10  C   UNL     1       2.534   1.961   1.646  1.00  0.00     0.014 A 
ATOM     11  C   UNL     1       4.798   2.949   0.352  1.00  0.00     0.010 A 
ATOM     12  C   UNL     1       3.184   3.095   2.146  1.00  0.00     0.010 A 
ATOM     13  C   UNL     1       4.367   3.555   1.546  1.00  0.00    -0.014 A 
BRANCH  13  14
ATOM     14  C   UNL     1       5.175   4.658   2.138  1.00  0.00     0.031 A 
ATOM     15  C   UNL     1       5.779   4.540   3.517  1.00  0.00     0.074 A 
ATOM     16  C   UNL     1       5.412   5.758   1.396  1.00  0.00     0.049 A 
ATOM     17  N   UNL     1       6.516   5.404   4.171  1.00  0.00    -0.248 NA
ATOM     18  C   UNL     1       5.518   3.300   4.263  1.00  0.00     0.031 C 
ATOM     19  C   UNL     1       4.889   5.990   0.047  1.00  0.00     0.029 A 
ATOM     20  N   UNL     1       6.170   6.871   1.651  1.00  0.00    -0.354 N 
ATOM     21  C   UNL     1       6.770   4.835   5.415  1.00  0.00     0.074 A 
ATOM     22  C   UNL     1       6.097   3.553   5.430  1.00  0.00     0.031 C 
ATOM     23  C   UNL     1       5.397   7.132  -0.433  1.00  0.00     0.029 A 
ATOM     24  C   UNL     1       6.212   7.758   0.602  1.00  0.00     0.049 A 
ATOM     25  H   UNL     1       6.640   7.021   2.503  1.00  0.00     0.167 HD
ATOM     26  C   UNL     1       7.495   5.333   6.448  1.00  0.00     0.037 A 
ATOM     27  C   UNL     1       6.820   8.953   0.484  1.00  0.00     0.037 A 
ATOM     28  C   UNL     1       8.189   6.598   6.412  1.00  0.00     0.049 A 
ATOM     29  C   UNL     1       7.611   9.485   1.641  1.00  0.00     0.074 A 
ATOM     30  C   UNL     1       8.982   7.174   7.391  1.00  0.00     0.029 A 
ATOM     31  N   UNL     1       8.176   7.482   5.342  1.00  0.00    -0.354 N 
ATOM     32  N   UNL     1       7.840   8.930   2.806  1.00  0.00    -0.248 NA
ATOM     33  C   UNL     1       8.219  10.810   1.471  1.00  0.00     0.031 C 
ATOM     34  C   UNL     1       9.409   8.425   6.931  1.00  0.00     0.029 A 
ATOM     35  C   UNL     1       8.928   8.607   5.644  1.00  0.00     0.049 A 
ATOM     36  H   UNL     1       7.701   7.332   4.492  1.00  0.00     0.167 HD
ATOM     37  C   UNL     1       8.638   9.828   3.503  1.00  0.00     0.074 A 
ATOM     38  C   UNL     1       8.860  10.958   2.622  1.00  0.00     0.031 C 
ATOM     39  C   UNL     1       9.142   9.725   4.758  1.00  0.00     0.037 A 
BRANCH  26  40
ATOM     40  C   UNL     1       7.547   4.530   7.723  1.00  0.00     0.058 A 
ATOM     41  C   UNL     1       8.259   3.324   7.821  1.00  0.00     0.135 A 
ATOM     42  C   UNL     1       6.891   4.993   8.878  1.00  0.00     0.135 A 
ATOM     43  F   UNL     1       8.899   2.828   6.750  1.00  0.00    -0.206 F 
ATOM     44  C   UNL     1       8.285   2.586   9.002  1.00  0.00     0.059 A 
ATOM     45  C   UNL     1       6.926   4.285  10.077  1.00  0.00     0.059 A 
ATOM     46  F   UNL     1       6.201   6.144   8.847  1.00  0.00    -0.206 F 
ATOM     47  C   UNL     1       7.609   3.072  10.123  1.00  0.00     0.060 A 
BRANCH  47  48
ATOM     48  S   UNL     1       7.626   2.090  11.639  1.00  0.00     0.124 S 
ATOM     49  O   UNL     1       6.707   1.010  11.295  1.00  0.00    -0.237 OA
ATOM     50  O   UNL     1       9.031   1.712  11.753  1.00  0.00    -0.237 OA
ATOM     51  O   UNL     1       7.147   3.023  12.655  1.00  0.00    -0.744 OA
ENDBRANCH  47  48
ENDBRANCH  26  40
BRANCH  27  52
ATOM     52  C   UNL     1       6.699   9.710  -0.789  1.00  0.00     0.058 A 
ATOM     53  C   UNL     1       7.795   9.849  -1.650  1.00  0.00     0.135 A 
ATOM     54  C   UNL     1       5.470  10.254  -1.196  1.00  0.00     0.135 A 
ATOM     55  F   UNL     1       8.990   9.349  -1.302  1.00  0.00    -0.206 F 
ATOM     56  C   UNL     1       7.680  10.501  -2.873  1.00  0.00     0.059 A 
ATOM     57  C   UNL     1       5.323  10.884  -2.426  1.00  0.00     0.059 A 
ATOM     58  F   UNL     1       4.386  10.129  -0.414  1.00  0.00    -0.206 F 
ATOM     59  C   UNL     1       6.436  11.007  -3.256  1.00  0.00     0.060 A 
BRANCH  59  60
ATOM     60  S   UNL     1       6.278  11.779  -4.881  1.00  0.00     0.124 S 
ATOM     61  O   UNL     1       6.950  13.055  -4.665  1.00  0.00    -0.237 OA
ATOM     62  O   UNL     1       6.973  10.827  -5.741  1.00  0.00    -0.237 OA
ATOM     63  O   UNL     1       4.833  11.850  -5.078  1.00  0.00    -0.744 OA
ENDBRANCH  59  60
ENDBRANCH  27  52
BRANCH  39  64
ATOM     64  C   UNL     1      10.020  10.847   5.235  1.00  0.00     0.058 A 
ATOM     65  C   UNL     1       9.496  12.104   5.577  1.00  0.00     0.135 A 
ATOM     66  C   UNL     1      11.404  10.653   5.372  1.00  0.00     0.135 A 
ATOM     67  F   UNL     1       8.181  12.344   5.455  1.00  0.00    -0.206 F 
ATOM     68  C   UNL     1      10.319  13.140   6.008  1.00  0.00     0.059 A 
ATOM     69  C   UNL     1      12.242  11.667   5.826  1.00  0.00     0.059 A 
ATOM     70  F   UNL     1      11.954   9.468   5.066  1.00  0.00    -0.206 F 
ATOM     71  C   UNL     1      11.691  12.912   6.127  1.00  0.00     0.060 A 
BRANCH  71  72
ATOM     72  S   UNL     1      12.749  14.258   6.701  1.00  0.00     0.124 S 
ATOM     73  O   UNL     1      12.818  15.103   5.514  1.00  0.00    -0.237 OA
ATOM     74  O   UNL     1      11.986  14.800   7.822  1.00  0.00    -0.237 OA
ATOM     75  O   UNL     1      13.990  13.582   7.065  1.00  0.00    -0.744 OA
ENDBRANCH  71  72
ENDBRANCH  39  64
ENDBRANCH  13  14
ENDBRANCH   6   8
ENDBRANCH   3   4
ENDBRANCH   2   3
ENDBRANCH   1   2
BRANCH   1  76
ATOM     76  C   UNL     1       6.119  -3.431  -1.317  1.00  0.00     0.116 C 
BRANCH  76  77
ATOM     77  N   UNL     1       7.266  -4.311  -1.413  1.00  0.00    -0.355 N 
ATOM     78  C   UNL     1       7.370  -5.644  -1.642  1.00  0.00     0.238 C 
ATOM     79  H   UNL     1       8.130  -3.857  -1.289  1.00  0.00     0.163 HD
ATOM     80  O   UNL     1       8.504  -6.129  -1.528  1.00  0.00    -0.273 OA
BRANCH  78  81
ATOM     81  C   UNL     1       6.201  -6.552  -2.058  1.00  0.00     0.163 C 
BRANCH  81  82
ATOM     82  C   UNL     1       5.192  -6.876  -0.940  1.00  0.00     0.065 C 
BRANCH  82  83
ATOM     83  C   UNL     1       3.897  -6.133  -0.683  1.00  0.00    -0.046 A 
ATOM     84  C   UNL     1       3.245  -5.295  -1.597  1.00  0.00     0.004 A 
ATOM     85  C   UNL     1       3.282  -6.332   0.569  1.00  0.00     0.004 A 
ATOM     86  C   UNL     1       2.083  -4.602  -1.240  1.00  0.00     0.000 A 
ATOM     87  C   UNL     1       2.110  -5.659   0.919  1.00  0.00     0.000 A 
ATOM     88  C   UNL     1       1.522  -4.774   0.022  1.00  0.00     0.000 A 
ENDBRANCH  82  83
ENDBRANCH  81  82
BRANCH  81  89
ATOM     89  N   UNL     1       5.645  -6.216  -3.378  1.00  0.00    -0.198 NA
ATOM     90  H   UNL     1       6.427  -5.887  -3.944  1.00  0.00     0.142 HD
BRANCH  89  91
ATOM     91  S   UNL     1       4.841  -7.352  -4.302  1.00  0.00     0.241 S 
ATOM     92  O   UNL     1       3.834  -7.963  -3.458  1.00  0.00    -0.207 OA
ATOM     93  O   UNL     1       4.482  -6.743  -5.556  1.00  0.00    -0.207 OA
BRANCH  91  94
ATOM     94  C   UNL     1       6.054  -8.612  -4.654  1.00  0.00     0.094 A 
ATOM     95  C   UNL     1       5.676  -9.943  -4.396  1.00  0.00     0.022 A 
ATOM     96  C   UNL     1       7.332  -8.320  -5.160  1.00  0.00     0.076 A 
ATOM     97  C   UNL     1       6.567 -10.991  -4.616  1.00  0.00     0.001 A 
ATOM     98  C   UNL     1       8.223  -9.399  -5.351  1.00  0.00     0.014 A 
ATOM     99  C   UNL     1       7.845 -10.717  -5.086  1.00  0.00     0.001 A 
BRANCH  96 100
ATOM    100  C   UNL     1       7.848  -6.934  -5.461  1.00  0.00     0.417 C 
ATOM    101  F   UNL     1       8.548  -6.420  -4.415  1.00  0.00    -0.166 F 
ATOM    102  F   UNL     1       8.710  -6.923  -6.518  1.00  0.00    -0.166 F 
ATOM    103  F   UNL     1       6.910  -6.003  -5.758  1.00  0.00    -0.166 F 
ENDBRANCH  96 100
ENDBRANCH  91  94
ENDBRANCH  89  91
ENDBRANCH  81  89
ENDBRANCH  78  81
ENDBRANCH  76  77
ENDBRANCH   1  76
TORSDOF 20
