REMARK SMILES C[C@](NC(=O)Cc1csc(N)n1)(C(=O)NCCCCNC(=O)c1ccc(-c2c3nc(c(-c4c(F)cc(S(=O)(=O)[O-])cc4F)c4ccc([nH]4)c(-c4c(F)cc(S(=O)(=O)[O-])cc4F)c4nc(c(-c5c(F)cc(S(=O)(=O)[O-])cc5F)c5ccc2[nH]5)C=C4)C=C3)cc1)C(F)(F)F
REMARK SMILES IDX 17 1 16 2 15 3 13 4 14 5 2 7 1 8 89 9 90 10 91 11 92 12 3 13
REMARK SMILES IDX 4 14 5 16 6 17 7 18 8 19 12 20 9 21 10 22 11 23 18 26 19 27
REMARK SMILES IDX 20 28 21 29 22 31 23 32 24 33 88 34 25 35 87 36 26 37 27 38
REMARK SMILES IDX 28 39 81 40 29 41 86 42 80 43 82 44 30 45 85 46 79 47 78 48
REMARK SMILES IDX 31 50 65 51 44 52 64 53 45 54 48 55 63 56 83 57 46 58 47 59
REMARK SMILES IDX 62 61 84 62 49 63 32 64 33 65 42 66 34 67 35 68 41 69 43 70
REMARK SMILES IDX 36 71 37 72 38 73 39 74 40 75 66 76 67 77 76 78 68 79 69 80
REMARK SMILES IDX 75 81 77 82 70 83 71 84 72 85 73 86 74 87 50 88 51 89 60 90
REMARK SMILES IDX 52 91 53 92 59 93 61 94 54 95 55 96 56 97 57 98 58 99
REMARK H PARENT 15 6 3 15 11 24 11 25 20 30 82 49 48 60
REMARK Flexibility Score: inf
ROOT
ATOM      1  C   UNL     1      -1.795   1.418  -1.802  1.00  0.00     0.023 C 
ENDROOT
BRANCH   1   2
ATOM      2  C   UNL     1      -1.676   1.486  -0.285  1.00  0.00     0.116 C 
BRANCH   2   3
ATOM      3  N   UNL     1      -1.596   0.216   0.411  1.00  0.00    -0.354 N 
ATOM      4  C   UNL     1      -0.802   0.053   1.530  1.00  0.00     0.254 C 
ATOM      5  O   UNL     1      -1.366  -0.273   2.578  1.00  0.00    -0.272 OA
ATOM      6  H   UNL     1      -2.121  -0.548   0.079  1.00  0.00     0.163 HD
BRANCH   4   7
ATOM      7  C   UNL     1       0.750   0.045   1.407  1.00  0.00     0.212 C 
ATOM      8  C   UNL     1       1.460   0.599   2.651  1.00  0.00     0.056 C 
BRANCH   7   9
ATOM      9  C   UNL     1       1.034  -1.492   1.451  1.00  0.00     0.420 C 
ATOM     10  F   UNL     1       0.392  -2.167   0.472  1.00  0.00    -0.168 F 
ATOM     11  F   UNL     1       2.363  -1.726   1.263  1.00  0.00    -0.168 F 
ATOM     12  F   UNL     1       0.717  -2.062   2.635  1.00  0.00    -0.168 F 
ENDBRANCH   7   9
BRANCH   7  13
ATOM     13  N   UNL     1       1.283   0.625   0.129  1.00  0.00    -0.334 N 
ATOM     14  C   UNL     1       1.606   1.850  -0.361  1.00  0.00     0.227 C 
ATOM     15  H   UNL     1       1.443  -0.078  -0.541  1.00  0.00     0.164 HD
ATOM     16  O   UNL     1       1.883   1.856  -1.568  1.00  0.00    -0.275 OA
BRANCH  14  17
ATOM     17  C   UNL     1       1.754   3.133   0.449  1.00  0.00     0.157 C 
BRANCH  17  18
ATOM     18  C   UNL     1       0.517   3.707   1.079  1.00  0.00     0.063 A 
ATOM     19  C   UNL     1       0.171   3.699   2.418  1.00  0.00     0.093 A 
ATOM     20  N   UNL     1      -0.381   4.418   0.285  1.00  0.00    -0.225 NA
ATOM     21  S   UNL     1      -1.330   4.479   2.665  1.00  0.00    -0.106 S 
ATOM     22  C   UNL     1      -1.367   4.899   1.006  1.00  0.00     0.180 A 
BRANCH  22  23
ATOM     23  N   UNL     1      -2.344   5.666   0.520  1.00  0.00    -0.375 N 
ATOM     24  H   UNL     1      -3.054   5.995   1.117  1.00  0.00     0.159 HD
ATOM     25  H   UNL     1      -2.354   5.904  -0.435  1.00  0.00     0.159 HD
ENDBRANCH  22  23
ENDBRANCH  17  18
ENDBRANCH  14  17
ENDBRANCH   7  13
ENDBRANCH   4   7
ENDBRANCH   2   3
ENDBRANCH   1   2
BRANCH   1  26
ATOM     26  C   UNL     1      -3.174   1.791  -2.353  1.00  0.00     0.023 C 
BRANCH  26  27
ATOM     27  C   UNL     1      -3.728   3.160  -1.948  1.00  0.00     0.116 C 
BRANCH  27  28
ATOM     28  N   UNL     1      -2.924   4.297  -2.368  1.00  0.00    -0.352 N 
ATOM     29  C   UNL     1      -3.358   5.572  -2.660  1.00  0.00     0.251 C 
ATOM     30  H   UNL     1      -1.956   4.138  -2.453  1.00  0.00     0.163 HD
ATOM     31  O   UNL     1      -2.561   6.448  -2.987  1.00  0.00    -0.269 OA
BRANCH  29  32
ATOM     32  C   UNL     1      -4.795   5.900  -2.545  1.00  0.00     0.039 A 
ATOM     33  C   UNL     1      -5.450   6.482  -3.632  1.00  0.00     0.014 A 
ATOM     34  C   UNL     1      -5.499   5.606  -1.373  1.00  0.00     0.014 A 
ATOM     35  C   UNL     1      -6.833   6.673  -3.581  1.00  0.00     0.010 A 
ATOM     36  C   UNL     1      -6.883   5.746  -1.343  1.00  0.00     0.010 A 
ATOM     37  C   UNL     1      -7.566   6.255  -2.457  1.00  0.00    -0.014 A 
BRANCH  37  38
ATOM     38  C   UNL     1      -9.051   6.245  -2.466  1.00  0.00     0.031 A 
ATOM     39  C   UNL     1      -9.835   7.114  -1.525  1.00  0.00     0.074 A 
ATOM     40  C   UNL     1      -9.685   5.367  -3.269  1.00  0.00     0.049 A 
ATOM     41  N   UNL     1     -11.131   7.196  -1.367  1.00  0.00    -0.248 NA
ATOM     42  C   UNL     1      -9.064   7.986  -0.625  1.00  0.00     0.031 C 
ATOM     43  C   UNL     1      -9.023   4.422  -4.174  1.00  0.00     0.029 A 
ATOM     44  N   UNL     1     -11.021   5.112  -3.448  1.00  0.00    -0.354 N 
ATOM     45  C   UNL     1     -11.333   8.121  -0.350  1.00  0.00     0.074 A 
ATOM     46  C   UNL     1     -10.024   8.535   0.107  1.00  0.00     0.031 C 
ATOM     47  C   UNL     1      -9.954   3.711  -4.828  1.00  0.00     0.029 A 
ATOM     48  C   UNL     1     -11.276   4.119  -4.366  1.00  0.00     0.049 A 
ATOM     49  H   UNL     1     -11.730   5.595  -2.966  1.00  0.00     0.167 HD
ATOM     50  C   UNL     1     -12.504   8.593   0.142  1.00  0.00     0.037 A 
ATOM     51  C   UNL     1     -12.443   3.593  -4.785  1.00  0.00     0.037 A 
ATOM     52  C   UNL     1     -13.801   8.174  -0.329  1.00  0.00     0.049 A 
ATOM     53  C   UNL     1     -13.729   4.135  -4.223  1.00  0.00     0.074 A 
ATOM     54  C   UNL     1     -15.047   8.642   0.053  1.00  0.00     0.029 A 
ATOM     55  N   UNL     1     -14.021   7.183  -1.275  1.00  0.00    -0.354 N 
ATOM     56  N   UNL     1     -13.903   5.078  -3.328  1.00  0.00    -0.248 NA
ATOM     57  C   UNL     1     -14.975   3.550  -4.734  1.00  0.00     0.031 C 
ATOM     58  C   UNL     1     -16.020   7.895  -0.619  1.00  0.00     0.029 A 
ATOM     59  C   UNL     1     -15.382   7.004  -1.467  1.00  0.00     0.049 A 
ATOM     60  H   UNL     1     -13.315   6.680  -1.740  1.00  0.00     0.167 HD
ATOM     61  C   UNL     1     -15.280   5.221  -3.191  1.00  0.00     0.074 A 
ATOM     62  C   UNL     1     -15.889   4.275  -4.104  1.00  0.00     0.031 C 
ATOM     63  C   UNL     1     -15.975   6.060  -2.384  1.00  0.00     0.037 A 
BRANCH  50  64
ATOM     64  C   UNL     1     -12.443   9.616   1.246  1.00  0.00     0.058 A 
ATOM     65  C   UNL     1     -11.974  10.920   1.018  1.00  0.00     0.135 A 
ATOM     66  C   UNL     1     -12.902   9.305   2.536  1.00  0.00     0.135 A 
ATOM     67  F   UNL     1     -11.511  11.271  -0.192  1.00  0.00    -0.206 F 
ATOM     68  C   UNL     1     -11.934  11.868   2.036  1.00  0.00     0.059 A 
ATOM     69  C   UNL     1     -12.901  10.247   3.562  1.00  0.00     0.059 A 
ATOM     70  F   UNL     1     -13.363   8.075   2.812  1.00  0.00    -0.206 F 
ATOM     71  C   UNL     1     -12.401  11.522   3.305  1.00  0.00     0.060 A 
BRANCH  71  72
ATOM     72  S   UNL     1     -12.346  12.767   4.611  1.00  0.00     0.124 S 
ATOM     73  O   UNL     1     -10.912  12.850   4.873  1.00  0.00    -0.237 OA
ATOM     74  O   UNL     1     -12.938  13.930   3.958  1.00  0.00    -0.237 OA
ATOM     75  O   UNL     1     -13.145  12.176   5.680  1.00  0.00    -0.744 OA
ENDBRANCH  71  72
ENDBRANCH  50  64
BRANCH  51  76
ATOM     76  C   UNL     1     -12.447   2.519  -5.814  1.00  0.00     0.058 A 
ATOM     77  C   UNL     1     -12.916   2.768  -7.112  1.00  0.00     0.135 A 
ATOM     78  C   UNL     1     -11.967   1.231  -5.530  1.00  0.00     0.135 A 
ATOM     79  F   UNL     1     -13.389   3.983  -7.433  1.00  0.00    -0.206 F 
ATOM     80  C   UNL     1     -12.928   1.777  -8.087  1.00  0.00     0.059 A 
ATOM     81  C   UNL     1     -11.942   0.230  -6.496  1.00  0.00     0.059 A 
ATOM     82  F   UNL     1     -11.487   0.945  -4.309  1.00  0.00    -0.206 F 
ATOM     83  C   UNL     1     -12.436   0.510  -7.770  1.00  0.00     0.060 A 
BRANCH  83  84
ATOM     84  S   UNL     1     -12.415  -0.757  -9.057  1.00  0.00     0.124 S 
ATOM     85  O   UNL     1     -13.833  -1.069  -9.185  1.00  0.00    -0.237 OA
ATOM     86  O   UNL     1     -11.813  -0.042 -10.178  1.00  0.00    -0.237 OA
ATOM     87  O   UNL     1     -11.586  -1.810  -8.477  1.00  0.00    -0.744 OA
ENDBRANCH  83  84
ENDBRANCH  51  76
BRANCH  63  88
ATOM     88  C   UNL     1     -17.476   6.023  -2.477  1.00  0.00     0.058 A 
ATOM     89  C   UNL     1     -18.223   4.943  -1.981  1.00  0.00     0.135 A 
ATOM     90  C   UNL     1     -18.179   7.108  -3.026  1.00  0.00     0.135 A 
ATOM     91  F   UNL     1     -17.601   3.877  -1.454  1.00  0.00    -0.206 F 
ATOM     92  C   UNL     1     -19.612   4.928  -2.050  1.00  0.00     0.059 A 
ATOM     93  C   UNL     1     -19.569   7.129  -3.076  1.00  0.00     0.059 A 
ATOM     94  F   UNL     1     -17.515   8.172  -3.506  1.00  0.00    -0.206 F 
ATOM     95  C   UNL     1     -20.277   6.028  -2.596  1.00  0.00     0.060 A 
BRANCH  95  96
ATOM     96  S   UNL     1     -22.081   6.011  -2.646  1.00  0.00     0.124 S 
ATOM     97  O   UNL     1     -22.337   5.040  -3.705  1.00  0.00    -0.237 OA
ATOM     98  O   UNL     1     -22.426   5.580  -1.295  1.00  0.00    -0.237 OA
ATOM     99  O   UNL     1     -22.426   7.393  -2.965  1.00  0.00    -0.744 OA
ENDBRANCH  95  96
ENDBRANCH  63  88
ENDBRANCH  37  38
ENDBRANCH  29  32
ENDBRANCH  27  28
ENDBRANCH  26  27
ENDBRANCH   1  26
TORSDOF 19
