REMARK SMILES CC(=O)N1CC[NH+]([C@@H](C(=O)NCCCCNC(=O)c2ccc(-c3c4nc(c(-c5c(F)cc(S(=O)(=O)[O-])cc5F)c5ccc([nH]5)c(-c5c(F)cc(S(=O)(=O)[O-])cc5F)c5nc(c(-c6c(F)cc(S(=O)(=O)[O-])cc6F)c6ccc3[nH]6)C=C5)C=C4)cc2)c2c[nH]c3ccc(Cl)cc23)CC1
REMARK SMILES IDX 14 1 13 2 12 3 11 4 9 5 10 6 8 8 7 9 1 10 2 11 3 12 4 13
REMARK SMILES IDX 5 14 96 15 6 16 95 17 85 19 86 20 94 21 87 22 88 23 93 24
REMARK SMILES IDX 89 26 91 27 90 28 92 29 15 30 16 31 17 32 18 34 19 35 20 36
REMARK SMILES IDX 84 37 21 38 83 39 22 40 23 41 24 42 77 43 25 44 82 45 76 46
REMARK SMILES IDX 78 47 26 48 81 49 75 50 74 51 27 53 61 54 40 55 60 56 41 57
REMARK SMILES IDX 44 58 59 59 79 60 42 61 43 62 58 64 80 65 45 66 28 67 29 68
REMARK SMILES IDX 38 69 30 70 31 71 37 72 39 73 32 74 33 75 34 76 35 77 36 78
REMARK SMILES IDX 62 79 63 80 72 81 64 82 65 83 71 84 73 85 66 86 67 87 68 88
REMARK SMILES IDX 69 89 70 90 46 91 47 92 56 93 48 94 49 95 55 96 57 97 50 98
REMARK SMILES IDX 51 99 52 100 53 101 54 102
REMARK H PARENT 11 7 7 18 87 25 16 33 78 52 44 63
REMARK Flexibility Score: inf
ROOT
ATOM      1  C   UNL     1       4.181   2.273   0.117  1.00  0.00     0.023 C 
ENDROOT
BRANCH   1   2
ATOM      2  C   UNL     1       4.437   2.637   1.585  1.00  0.00     0.023 C 
BRANCH   2   3
ATOM      3  C   UNL     1       3.912   4.016   2.075  1.00  0.00     0.116 C 
BRANCH   3   4
ATOM      4  N   UNL     1       2.691   4.522   1.437  1.00  0.00    -0.351 N 
ATOM      5  C   UNL     1       1.376   4.736   1.797  1.00  0.00     0.283 C 
ATOM      6  O   UNL     1       0.702   5.300   0.927  1.00  0.00    -0.268 OA
ATOM      7  H   UNL     1       2.854   4.778   0.500  1.00  0.00     0.163 HD
BRANCH   5   8
ATOM      8  C   UNL     1       0.786   4.365   3.189  1.00  0.00     0.307 C 
BRANCH   8   9
ATOM      9  N   UNL     1       0.492   2.905   3.480  1.00  0.00    -0.318 N 
ATOM     10  C   UNL     1       0.644  -0.409  -0.559  1.00  0.00     0.114 C 
ATOM     11  C   UNL     1      -0.346   0.631  -0.114  1.00  0.00     0.219 C 
ATOM     12  O   UNL     1      -1.409   0.787  -0.713  1.00  0.00    -0.275 OA
ATOM     13  N   UNL     1      -0.024   1.331   1.036  1.00  0.00    -0.332 N 
ATOM     14  C   UNL     1      -1.028   2.223   1.596  1.00  0.00     0.181 C 
ATOM     15  C   UNL     1       1.343   1.534   1.512  1.00  0.00     0.181 C 
ATOM     16  C   UNL     1      -0.802   2.317   3.096  1.00  0.00     0.285 C 
ATOM     17  C   UNL     1       1.484   1.945   3.004  1.00  0.00     0.285 C 
ATOM     18  H   UNL     1       0.499   3.028   4.492  1.00  0.00     0.349 HD
ENDBRANCH   8   9
BRANCH   8  19
ATOM     19  C   UNL     1      -0.422   5.245   3.658  1.00  0.00     0.044 A 
ATOM     20  C   UNL     1      -0.699   5.474   5.007  1.00  0.00     0.094 A 
ATOM     21  C   UNL     1      -1.746   5.369   3.079  1.00  0.00     0.011 A 
ATOM     22  N   UNL     1      -1.836   4.712   5.200  1.00  0.00    -0.361 N 
ATOM     23  C   UNL     1      -2.584   4.784   4.043  1.00  0.00     0.046 A 
ATOM     24  C   UNL     1      -2.323   5.704   1.836  1.00  0.00     0.031 A 
ATOM     25  H   UNL     1      -2.070   4.210   6.015  1.00  0.00     0.166 HD
ATOM     26  C   UNL     1      -3.852   4.271   3.748  1.00  0.00     0.028 A 
ATOM     27  C   UNL     1      -3.662   5.355   1.594  1.00  0.00     0.041 A 
ATOM     28  C   UNL     1      -4.379   4.569   2.494  1.00  0.00     0.022 A 
ATOM     29  Cl  UNL     1      -4.447   5.891   0.157  1.00  0.00    -0.084 Cl
ENDBRANCH   8  19
ENDBRANCH   5   8
ENDBRANCH   3   4
ENDBRANCH   2   3
ENDBRANCH   1   2
BRANCH   1  30
ATOM     30  C   UNL     1       5.419   2.307  -0.751  1.00  0.00     0.116 C 
BRANCH  30  31
ATOM     31  N   UNL     1       6.315   1.196  -0.475  1.00  0.00    -0.352 N 
ATOM     32  C   UNL     1       7.003   0.399  -1.368  1.00  0.00     0.251 C 
ATOM     33  H   UNL     1       6.449   0.983   0.477  1.00  0.00     0.163 HD
ATOM     34  O   UNL     1       7.574  -0.601  -0.973  1.00  0.00    -0.269 OA
BRANCH  32  35
ATOM     35  C   UNL     1       7.012   0.757  -2.810  1.00  0.00     0.039 A 
ATOM     36  C   UNL     1       6.942  -0.260  -3.765  1.00  0.00     0.014 A 
ATOM     37  C   UNL     1       7.080   2.091  -3.216  1.00  0.00     0.014 A 
ATOM     38  C   UNL     1       6.893   0.069  -5.122  1.00  0.00     0.010 A 
ATOM     39  C   UNL     1       6.912   2.421  -4.553  1.00  0.00     0.010 A 
ATOM     40  C   UNL     1       6.849   1.414  -5.524  1.00  0.00    -0.014 A 
BRANCH  40  41
ATOM     41  C   UNL     1       6.792   1.804  -6.954  1.00  0.00     0.031 A 
ATOM     42  C   UNL     1       7.909   2.627  -7.540  1.00  0.00     0.074 A 
ATOM     43  C   UNL     1       5.711   1.484  -7.691  1.00  0.00     0.049 A 
ATOM     44  N   UNL     1       8.013   3.150  -8.734  1.00  0.00    -0.248 NA
ATOM     45  C   UNL     1       9.043   2.939  -6.653  1.00  0.00     0.031 C 
ATOM     46  C   UNL     1       4.543   0.743  -7.206  1.00  0.00     0.029 A 
ATOM     47  N   UNL     1       5.412   1.749  -9.003  1.00  0.00    -0.354 N 
ATOM     48  C   UNL     1       9.205   3.866  -8.730  1.00  0.00     0.074 A 
ATOM     49  C   UNL     1       9.755   3.771  -7.398  1.00  0.00     0.031 C 
ATOM     50  C   UNL     1       3.670   0.588  -8.214  1.00  0.00     0.029 A 
ATOM     51  C   UNL     1       4.194   1.251  -9.403  1.00  0.00     0.049 A 
ATOM     52  H   UNL     1       6.013   2.249  -9.601  1.00  0.00     0.167 HD
ATOM     53  C   UNL     1       9.803   4.517  -9.756  1.00  0.00     0.037 A 
ATOM     54  C   UNL     1       3.572   1.328 -10.595  1.00  0.00     0.037 A 
ATOM     55  C   UNL     1       9.260   4.568 -11.087  1.00  0.00     0.049 A 
ATOM     56  C   UNL     1       4.264   2.041 -11.725  1.00  0.00     0.074 A 
ATOM     57  C   UNL     1       9.808   5.140 -12.219  1.00  0.00     0.029 A 
ATOM     58  N   UNL     1       8.041   4.019 -11.463  1.00  0.00    -0.354 N 
ATOM     59  N   UNL     1       5.425   2.655 -11.725  1.00  0.00    -0.248 NA
ATOM     60  C   UNL     1       3.571   2.065 -13.020  1.00  0.00     0.031 C 
ATOM     61  C   UNL     1       8.900   4.979 -13.270  1.00  0.00     0.029 A 
ATOM     62  C   UNL     1       7.811   4.257 -12.807  1.00  0.00     0.049 A 
ATOM     63  H   UNL     1       7.431   3.534 -10.863  1.00  0.00     0.167 HD
ATOM     64  C   UNL     1       5.613   3.114 -13.023  1.00  0.00     0.074 A 
ATOM     65  C   UNL     1       4.453   2.694 -13.784  1.00  0.00     0.031 C 
ATOM     66  C   UNL     1       6.651   3.817 -13.542  1.00  0.00     0.037 A 
BRANCH  53  67
ATOM     67  C   UNL     1      11.110   5.211  -9.479  1.00  0.00     0.058 A 
ATOM     68  C   UNL     1      12.282   4.492  -9.185  1.00  0.00     0.135 A 
ATOM     69  C   UNL     1      11.201   6.611  -9.530  1.00  0.00     0.135 A 
ATOM     70  F   UNL     1      12.252   3.153  -9.103  1.00  0.00    -0.206 F 
ATOM     71  C   UNL     1      13.486   5.137  -8.920  1.00  0.00     0.059 A 
ATOM     72  C   UNL     1      12.403   7.276  -9.301  1.00  0.00     0.059 A 
ATOM     73  F   UNL     1      10.115   7.350  -9.803  1.00  0.00    -0.206 F 
ATOM     74  C   UNL     1      13.537   6.530  -8.982  1.00  0.00     0.060 A 
BRANCH  74  75
ATOM     75  S   UNL     1      15.110   7.348  -8.642  1.00  0.00     0.124 S 
ATOM     76  O   UNL     1      15.233   7.155  -7.200  1.00  0.00    -0.237 OA
ATOM     77  O   UNL     1      16.042   6.585  -9.465  1.00  0.00    -0.237 OA
ATOM     78  O   UNL     1      14.878   8.724  -9.072  1.00  0.00    -0.744 OA
ENDBRANCH  74  75
ENDBRANCH  53  67
BRANCH  54  79
ATOM     79  C   UNL     1       2.244   0.684 -10.785  1.00  0.00     0.058 A 
ATOM     80  C   UNL     1       2.103  -0.454 -11.592  1.00  0.00     0.135 A 
ATOM     81  C   UNL     1       1.094   1.178 -10.149  1.00  0.00     0.135 A 
ATOM     82  F   UNL     1       3.171  -0.965 -12.224  1.00  0.00    -0.206 F 
ATOM     83  C   UNL     1       0.869  -1.070 -11.778  1.00  0.00     0.059 A 
ATOM     84  C   UNL     1      -0.147   0.564 -10.297  1.00  0.00     0.059 A 
ATOM     85  F   UNL     1       1.177   2.253  -9.350  1.00  0.00    -0.206 F 
ATOM     86  C   UNL     1      -0.251  -0.554 -11.124  1.00  0.00     0.060 A 
BRANCH  86  87
ATOM     87  S   UNL     1      -1.838  -1.388 -11.341  1.00  0.00     0.124 S 
ATOM     88  O   UNL     1      -2.169  -1.035 -12.717  1.00  0.00    -0.237 OA
ATOM     89  O   UNL     1      -1.483  -2.785 -11.108  1.00  0.00    -0.237 OA
ATOM     90  O   UNL     1      -2.680  -0.783 -10.314  1.00  0.00    -0.744 OA
ENDBRANCH  86  87
ENDBRANCH  54  79
BRANCH  66  91
ATOM     91  C   UNL     1       6.599   4.143 -15.008  1.00  0.00     0.058 A 
ATOM     92  C   UNL     1       5.719   5.107 -15.521  1.00  0.00     0.135 A 
ATOM     93  C   UNL     1       7.489   3.523 -15.901  1.00  0.00     0.135 A 
ATOM     94  F   UNL     1       4.845   5.725 -14.709  1.00  0.00    -0.206 F 
ATOM     95  C   UNL     1       5.705   5.429 -16.873  1.00  0.00     0.059 A 
ATOM     96  C   UNL     1       7.513   3.852 -17.252  1.00  0.00     0.059 A 
ATOM     97  F   UNL     1       8.360   2.602 -15.459  1.00  0.00    -0.206 F 
ATOM     98  C   UNL     1       6.609   4.799 -17.730  1.00  0.00     0.060 A 
BRANCH  98  99
ATOM     99  S   UNL     1       6.606   5.255 -19.476  1.00  0.00     0.124 S 
ATOM    100  O   UNL     1       5.378   4.622 -19.944  1.00  0.00    -0.237 OA
ATOM    101  O   UNL     1       6.586   6.713 -19.417  1.00  0.00    -0.237 OA
ATOM    102  O   UNL     1       7.846   4.672 -19.982  1.00  0.00    -0.744 OA
ENDBRANCH  98  99
ENDBRANCH  66  91
ENDBRANCH  40  41
ENDBRANCH  32  35
ENDBRANCH  30  31
ENDBRANCH   1  30
TORSDOF 16
