REMARK SMILES CC(C)N1C(=O)C[C@@H]([N@@H+]2CC[C@H](C(=O)NCCCCNC(=O)c3ccc(-c4c5nc(c(-c6c(F)cc(S(=O)(=O)[O-])cc6F)c6ccc([nH]6)c(-c6c(F)cc(S(=O)(=O)[O-])cc6F)c6nc(c(-c7c(F)cc(S(=O)(=O)[O-])cc7F)c7ccc4[nH]7)C=C6)C=C5)cc3)[C@@H]2C)C1=O
REMARK SMILES IDX 18 1 17 2 16 3 15 4 13 5 14 6 12 8 9 9 10 10 89 11 11 13
REMARK SMILES IDX 90 14 8 15 4 16 5 17 91 18 6 19 7 20 92 21 2 22 1 23 3 24
REMARK SMILES IDX 19 25 20 26 21 27 22 29 23 30 24 31 88 32 25 33 87 34 26 35
REMARK SMILES IDX 27 36 28 37 81 38 29 39 86 40 80 41 82 42 30 43 85 44 79 45
REMARK SMILES IDX 78 46 31 48 65 49 44 50 64 51 45 52 48 53 63 54 83 55 46 56
REMARK SMILES IDX 47 57 62 59 84 60 49 61 32 62 33 63 42 64 34 65 35 66 41 67
REMARK SMILES IDX 43 68 36 69 37 70 38 71 39 72 40 73 66 74 67 75 76 76 68 77
REMARK SMILES IDX 69 78 75 79 77 80 70 81 71 82 72 83 73 84 74 85 50 86 51 87
REMARK SMILES IDX 60 88 52 89 53 90 59 91 61 92 54 93 55 94 56 95 57 96 58 97
REMARK H PARENT 15 7 9 12 20 28 82 47 48 58
REMARK Flexibility Score: inf
ROOT
ATOM      1  C   UNL     1      -9.767   3.817  -2.292  1.00  0.00     0.023 C 
ENDROOT
BRANCH   1   2
ATOM      2  C   UNL     1      -9.282   2.367  -2.337  1.00  0.00     0.023 C 
BRANCH   2   3
ATOM      3  C   UNL     1      -8.092   2.105  -3.256  1.00  0.00     0.116 C 
BRANCH   3   4
ATOM      4  N   UNL     1      -6.905   2.834  -2.849  1.00  0.00    -0.356 N 
ATOM      5  C   UNL     1      -5.667   2.388  -2.501  1.00  0.00     0.229 C 
ATOM      6  O   UNL     1      -4.793   3.231  -2.287  1.00  0.00    -0.275 OA
ATOM      7  H   UNL     1      -7.014   3.812  -2.820  1.00  0.00     0.163 HD
BRANCH   5   8
ATOM      8  C   UNL     1      -5.398   0.896  -2.358  1.00  0.00     0.142 C 
ATOM      9  N   UNL     1      -3.772   0.266  -0.696  1.00  0.00    -0.321 N 
ATOM     10  C   UNL     1      -3.057   0.692  -1.900  1.00  0.00     0.264 C 
ATOM     11  C   UNL     1      -5.220   0.443  -0.897  1.00  0.00     0.194 C 
ATOM     12  H   UNL     1      -3.649  -0.738  -0.565  1.00  0.00     0.349 HD
ATOM     13  C   UNL     1      -4.070   0.531  -3.014  1.00  0.00     0.081 C 
ATOM     14  C   UNL     1      -6.030   1.230   0.134  1.00  0.00     0.076 C 
BRANCH   9  15
ATOM     15  C   UNL     1      -3.168   0.666   0.582  1.00  0.00     0.284 C 
ATOM     16  N   UNL     1      -0.887   1.276   0.642  1.00  0.00    -0.275 N 
ATOM     17  C   UNL     1      -1.585   2.399   0.998  1.00  0.00     0.236 C 
ATOM     18  C   UNL     1      -1.720   0.188   0.654  1.00  0.00     0.288 C 
ATOM     19  O   UNL     1      -1.120   3.447   1.421  1.00  0.00    -0.274 OA
ATOM     20  C   UNL     1      -3.055   2.156   0.865  1.00  0.00     0.176 C 
ATOM     21  O   UNL     1      -1.397  -0.991   0.731  1.00  0.00    -0.267 OA
BRANCH  16  22
ATOM     22  C   UNL     1       0.586   1.230   0.625  1.00  0.00     0.087 C 
ATOM     23  C   UNL     1       1.167  -0.056   0.022  1.00  0.00     0.031 C 
ATOM     24  C   UNL     1       1.181   2.411  -0.162  1.00  0.00     0.031 C 
ENDBRANCH  16  22
ENDBRANCH   9  15
ENDBRANCH   5   8
ENDBRANCH   3   4
ENDBRANCH   2   3
ENDBRANCH   1   2
BRANCH   1  25
ATOM     25  C   UNL     1     -10.056   4.463  -3.644  1.00  0.00     0.116 C 
BRANCH  25  26
ATOM     26  N   UNL     1     -11.033   3.728  -4.434  1.00  0.00    -0.352 N 
ATOM     27  C   UNL     1     -12.144   4.189  -5.100  1.00  0.00     0.251 C 
ATOM     28  H   UNL     1     -10.874   2.759  -4.501  1.00  0.00     0.163 HD
ATOM     29  O   UNL     1     -12.915   3.388  -5.622  1.00  0.00    -0.269 OA
BRANCH  27  30
ATOM     30  C   UNL     1     -12.430   5.639  -5.152  1.00  0.00     0.039 A 
ATOM     31  C   UNL     1     -13.723   6.079  -4.854  1.00  0.00     0.014 A 
ATOM     32  C   UNL     1     -11.430   6.563  -5.468  1.00  0.00     0.014 A 
ATOM     33  C   UNL     1     -13.990   7.448  -4.786  1.00  0.00     0.010 A 
ATOM     34  C   UNL     1     -11.681   7.927  -5.335  1.00  0.00     0.010 A 
ATOM     35  C   UNL     1     -12.959   8.383  -4.978  1.00  0.00    -0.014 A 
BRANCH  35  36
ATOM     36  C   UNL     1     -13.186   9.834  -4.750  1.00  0.00     0.031 A 
ATOM     37  C   UNL     1     -13.050  10.819  -5.877  1.00  0.00     0.074 A 
ATOM     38  C   UNL     1     -13.427  10.273  -3.498  1.00  0.00     0.049 A 
ATOM     39  N   UNL     1     -13.140  12.124  -5.846  1.00  0.00    -0.248 NA
ATOM     40  C   UNL     1     -12.747  10.268  -7.206  1.00  0.00     0.031 C 
ATOM     41  C   UNL     1     -13.516   9.423  -2.308  1.00  0.00     0.029 A 
ATOM     42  N   UNL     1     -13.620  11.542  -3.012  1.00  0.00    -0.354 N 
ATOM     43  C   UNL     1     -12.888  12.553  -7.144  1.00  0.00     0.074 A 
ATOM     44  C   UNL     1     -12.600  11.370  -7.928  1.00  0.00     0.031 C 
ATOM     45  C   UNL     1     -13.755  10.191  -1.234  1.00  0.00     0.029 A 
ATOM     46  C   UNL     1     -13.800  11.590  -1.650  1.00  0.00     0.049 A 
ATOM     47  H   UNL     1     -13.628  12.342  -3.585  1.00  0.00     0.167 HD
ATOM     48  C   UNL     1     -12.910  13.814  -7.638  1.00  0.00     0.037 A 
ATOM     49  C   UNL     1     -13.966  12.640  -0.822  1.00  0.00     0.037 A 
ATOM     50  C   UNL     1     -13.219  14.984  -6.856  1.00  0.00     0.049 A 
ATOM     51  C   UNL     1     -14.000  14.029  -1.393  1.00  0.00     0.074 A 
ATOM     52  C   UNL     1     -13.359  16.292  -7.284  1.00  0.00     0.029 A 
ATOM     53  N   UNL     1     -13.421  14.990  -5.483  1.00  0.00    -0.354 N 
ATOM     54  N   UNL     1     -13.854  14.408  -2.640  1.00  0.00    -0.248 NA
ATOM     55  C   UNL     1     -14.227  15.132  -0.450  1.00  0.00     0.031 C 
ATOM     56  C   UNL     1     -13.597  17.097  -6.164  1.00  0.00     0.029 A 
ATOM     57  C   UNL     1     -13.651  16.285  -5.043  1.00  0.00     0.049 A 
ATOM     58  H   UNL     1     -13.403  14.193  -4.906  1.00  0.00     0.167 HD
ATOM     59  C   UNL     1     -13.978  15.793  -2.634  1.00  0.00     0.074 A 
ATOM     60  C   UNL     1     -14.233  16.181  -1.261  1.00  0.00     0.031 C 
ATOM     61  C   UNL     1     -13.887  16.662  -3.671  1.00  0.00     0.037 A 
BRANCH  48  62
ATOM     62  C   UNL     1     -12.583  13.995  -9.095  1.00  0.00     0.058 A 
ATOM     63  C   UNL     1     -13.458  13.568 -10.108  1.00  0.00     0.135 A 
ATOM     64  C   UNL     1     -11.390  14.625  -9.485  1.00  0.00     0.135 A 
ATOM     65  F   UNL     1     -14.607  12.950  -9.792  1.00  0.00    -0.206 F 
ATOM     66  C   UNL     1     -13.144  13.724 -11.454  1.00  0.00     0.059 A 
ATOM     67  C   UNL     1     -11.068  14.816 -10.826  1.00  0.00     0.059 A 
ATOM     68  F   UNL     1     -10.519  15.055  -8.559  1.00  0.00    -0.206 F 
ATOM     69  C   UNL     1     -11.944  14.345 -11.803  1.00  0.00     0.060 A 
BRANCH  69  70
ATOM     70  S   UNL     1     -11.543  14.526 -13.554  1.00  0.00     0.124 S 
ATOM     71  O   UNL     1     -11.178  13.159 -13.911  1.00  0.00    -0.237 OA
ATOM     72  O   UNL     1     -12.800  15.012 -14.115  1.00  0.00    -0.237 OA
ATOM     73  O   UNL     1     -10.447  15.489 -13.555  1.00  0.00    -0.744 OA
ENDBRANCH  69  70
ENDBRANCH  48  62
BRANCH  49  74
ATOM     74  C   UNL     1     -14.124  12.402   0.637  1.00  0.00     0.058 A 
ATOM     75  C   UNL     1     -15.369  12.552   1.263  1.00  0.00     0.135 A 
ATOM     76  C   UNL     1     -13.043  11.970   1.422  1.00  0.00     0.135 A 
ATOM     77  F   UNL     1     -16.429  12.971   0.555  1.00  0.00    -0.206 F 
ATOM     78  C   UNL     1     -15.541  12.280   2.616  1.00  0.00     0.059 A 
ATOM     79  C   UNL     1     -13.195  11.670   2.772  1.00  0.00     0.059 A 
ATOM     80  F   UNL     1     -11.834  11.796   0.865  1.00  0.00    -0.206 F 
ATOM     81  C   UNL     1     -14.448  11.830   3.361  1.00  0.00     0.060 A 
BRANCH  81  82
ATOM     82  S   UNL     1     -14.702  11.394   5.095  1.00  0.00     0.124 S 
ATOM     83  O   UNL     1     -14.827  12.708   5.714  1.00  0.00    -0.237 OA
ATOM     84  O   UNL     1     -15.924  10.597   5.035  1.00  0.00    -0.237 OA
ATOM     85  O   UNL     1     -13.494  10.647   5.433  1.00  0.00    -0.744 OA
ENDBRANCH  81  82
ENDBRANCH  49  74
BRANCH  61  86
ATOM     86  C   UNL     1     -14.065  18.123  -3.364  1.00  0.00     0.058 A 
ATOM     87  C   UNL     1     -13.069  18.859  -2.702  1.00  0.00     0.135 A 
ATOM     88  C   UNL     1     -15.220  18.806  -3.777  1.00  0.00     0.135 A 
ATOM     89  F   UNL     1     -11.950  18.252  -2.278  1.00  0.00    -0.206 F 
ATOM     90  C   UNL     1     -13.221  20.217  -2.443  1.00  0.00     0.059 A 
ATOM     91  C   UNL     1     -15.382  20.170  -3.551  1.00  0.00     0.059 A 
ATOM     92  F   UNL     1     -16.199  18.151  -4.421  1.00  0.00    -0.206 F 
ATOM     93  C   UNL     1     -14.381  20.865  -2.874  1.00  0.00     0.060 A 
BRANCH  93  94
ATOM     94  S   UNL     1     -14.551  22.635  -2.562  1.00  0.00     0.124 S 
ATOM     95  O   UNL     1     -14.842  22.655  -1.132  1.00  0.00    -0.237 OA
ATOM     96  O   UNL     1     -13.241  23.149  -2.949  1.00  0.00    -0.237 OA
ATOM     97  O   UNL     1     -15.655  23.028  -3.433  1.00  0.00    -0.744 OA
ENDBRANCH  93  94
ENDBRANCH  61  86
ENDBRANCH  35  36
ENDBRANCH  27  30
ENDBRANCH  25  26
ENDBRANCH   1  25
TORSDOF 16
