REMARK SMILES CC[C@H]1CC[C@](C[C@@H](O)C(F)(F)F)(C(=O)NCCCCNC(=O)c2ccc(-c3c4nc(c(-c5c(F)cc(S(=O)(=O)[O-])cc5F)c5ccc([nH]5)c(-c5c(F)cc(S(=O)(=O)[O-])cc5F)c5nc(c(-c6c(F)cc(S(=O)(=O)[O-])cc6F)c6ccc3[nH]6)C=C5)C=C4)cc2)CC1
REMARK SMILES IDX 18 1 17 2 16 3 14 4 15 5 6 7 3 8 91 9 4 10 90 11 5 12 2 13
REMARK SMILES IDX 1 14 7 15 8 16 9 17 10 19 11 20 12 21 13 22 19 23 20 24
REMARK SMILES IDX 21 25 22 26 23 28 24 29 25 30 89 31 26 32 88 33 27 34 28 35
REMARK SMILES IDX 29 36 82 37 30 38 87 39 81 40 83 41 31 42 86 43 80 44 79 45
REMARK SMILES IDX 32 47 66 48 45 49 65 50 46 51 49 52 64 53 84 54 47 55 48 56
REMARK SMILES IDX 63 58 85 59 50 60 33 61 34 62 43 63 35 64 36 65 42 66 44 67
REMARK SMILES IDX 37 68 38 69 39 70 40 71 41 72 67 73 68 74 77 75 69 76 70 77
REMARK SMILES IDX 76 78 78 79 71 80 72 81 73 82 74 83 75 84 51 85 52 86 61 87
REMARK SMILES IDX 53 88 54 89 60 90 62 91 55 92 56 93 57 94 58 95 59 96
REMARK H PARENT 16 6 9 18 21 27 83 46 49 57
REMARK Flexibility Score: inf
ROOT
ATOM      1  C   UNL     1       6.216   5.223  -2.134  1.00  0.00     0.023 C 
ENDROOT
BRANCH   1   2
ATOM      2  C   UNL     1       5.322   5.690  -0.994  1.00  0.00     0.116 C 
BRANCH   2   3
ATOM      3  N   UNL     1       4.066   6.258  -1.448  1.00  0.00    -0.356 N 
ATOM      4  C   UNL     1       2.770   6.054  -1.102  1.00  0.00     0.226 C 
ATOM      5  O   UNL     1       1.978   6.904  -1.525  1.00  0.00    -0.274 OA
ATOM      6  H   UNL     1       4.178   6.934  -2.155  1.00  0.00     0.163 HD
BRANCH   4   7
ATOM      7  C   UNL     1       2.273   4.915  -0.171  1.00  0.00     0.052 C 
ATOM      8  C   UNL     1       0.727   2.258  -0.160  1.00  0.00    -0.011 C 
ATOM      9  C   UNL     1       0.056   3.583   0.215  1.00  0.00     0.005 C 
ATOM     10  C   UNL     1       2.231   2.331   0.100  1.00  0.00     0.005 C 
ATOM     11  C   UNL     1       0.732   4.775  -0.465  1.00  0.00     0.017 C 
ATOM     12  C   UNL     1       2.897   3.549  -0.537  1.00  0.00     0.017 C 
BRANCH   8  13
ATOM     13  C   UNL     1       0.075   1.095   0.612  1.00  0.00    -0.000 C 
ATOM     14  C   UNL     1       0.572  -0.276   0.173  1.00  0.00     0.004 C 
ENDBRANCH   8  13
BRANCH   7  15
ATOM     15  C   UNL     1       2.398   5.309   1.339  1.00  0.00     0.058 C 
BRANCH  15  16
ATOM     16  C   UNL     1       3.767   5.697   1.919  1.00  0.00     0.220 C 
BRANCH  16  17
ATOM     17  O   UNL     1       4.170   7.005   1.488  1.00  0.00    -0.384 OA
ATOM     18  H   UNL     1       3.533   7.662   1.809  1.00  0.00     0.211 HD
ENDBRANCH  16  17
BRANCH  16  19
ATOM     19  C   UNL     1       3.747   5.606   3.461  1.00  0.00     0.414 C 
ATOM     20  F   UNL     1       3.496   4.332   3.853  1.00  0.00    -0.168 F 
ATOM     21  F   UNL     1       4.936   5.956   3.998  1.00  0.00    -0.168 F 
ATOM     22  F   UNL     1       2.791   6.392   4.001  1.00  0.00    -0.168 F 
ENDBRANCH  16  19
ENDBRANCH  15  16
ENDBRANCH   7  15
ENDBRANCH   4   7
ENDBRANCH   2   3
ENDBRANCH   1   2
BRANCH   1  23
ATOM     23  C   UNL     1       6.953   6.345  -2.861  1.00  0.00     0.023 C 
BRANCH  23  24
ATOM     24  C   UNL     1       7.710   7.324  -1.967  1.00  0.00     0.116 C 
BRANCH  24  25
ATOM     25  N   UNL     1       8.618   6.685  -1.021  1.00  0.00    -0.352 N 
ATOM     26  C   UNL     1       9.858   7.126  -0.613  1.00  0.00     0.251 C 
ATOM     27  H   UNL     1       8.308   5.838  -0.627  1.00  0.00     0.163 HD
ATOM     28  O   UNL     1      10.546   6.466   0.153  1.00  0.00    -0.269 OA
BRANCH  26  29
ATOM     29  C   UNL     1      10.352   8.397  -1.173  1.00  0.00     0.039 A 
ATOM     30  C   UNL     1      11.502   8.381  -1.965  1.00  0.00     0.014 A 
ATOM     31  C   UNL     1       9.583   9.555  -1.039  1.00  0.00     0.014 A 
ATOM     32  C   UNL     1      11.830   9.513  -2.712  1.00  0.00     0.010 A 
ATOM     33  C   UNL     1       9.876  10.656  -1.833  1.00  0.00     0.010 A 
ATOM     34  C   UNL     1      10.987  10.636  -2.694  1.00  0.00    -0.014 A 
BRANCH  34  35
ATOM     35  C   UNL     1      11.214  11.798  -3.587  1.00  0.00     0.031 A 
ATOM     36  C   UNL     1      11.491  13.147  -2.991  1.00  0.00     0.074 A 
ATOM     37  C   UNL     1      11.042  11.664  -4.917  1.00  0.00     0.049 A 
ATOM     38  N   UNL     1      11.530  14.316  -3.574  1.00  0.00    -0.248 NA
ATOM     39  C   UNL     1      11.713  13.186  -1.538  1.00  0.00     0.031 C 
ATOM     40  C   UNL     1      10.716  10.416  -5.610  1.00  0.00     0.029 A 
ATOM     41  N   UNL     1      11.088  12.598  -5.922  1.00  0.00    -0.354 N 
ATOM     42  C   UNL     1      11.742  15.235  -2.555  1.00  0.00     0.074 A 
ATOM     43  C   UNL     1      11.788  14.490  -1.315  1.00  0.00     0.031 C 
ATOM     44  C   UNL     1      10.593  10.661  -6.924  1.00  0.00     0.029 A 
ATOM     45  C   UNL     1      10.794  12.087  -7.163  1.00  0.00     0.049 A 
ATOM     46  H   UNL     1      11.311  13.545  -5.768  1.00  0.00     0.167 HD
ATOM     47  C   UNL     1      11.895  16.578  -2.646  1.00  0.00     0.037 A 
ATOM     48  C   UNL     1      10.680  12.700  -8.357  1.00  0.00     0.037 A 
ATOM     49  C   UNL     1      11.883  17.308  -3.885  1.00  0.00     0.049 A 
ATOM     50  C   UNL     1      10.907  14.183  -8.446  1.00  0.00     0.074 A 
ATOM     51  C   UNL     1      12.085  18.660  -4.091  1.00  0.00     0.029 A 
ATOM     52  N   UNL     1      11.661  16.740  -5.132  1.00  0.00    -0.354 N 
ATOM     53  N   UNL     1      11.150  15.035  -7.479  1.00  0.00    -0.248 NA
ATOM     54  C   UNL     1      10.851  14.788  -9.784  1.00  0.00     0.031 C 
ATOM     55  C   UNL     1      11.967  18.914  -5.463  1.00  0.00     0.029 A 
ATOM     56  C   UNL     1      11.721  17.715  -6.113  1.00  0.00     0.049 A 
ATOM     57  H   UNL     1      11.487  15.785  -5.295  1.00  0.00     0.167 HD
ATOM     58  C   UNL     1      11.296  16.274  -8.091  1.00  0.00     0.074 A 
ATOM     59  C   UNL     1      11.119  16.059  -9.514  1.00  0.00     0.031 C 
ATOM     60  C   UNL     1      11.554  17.479  -7.526  1.00  0.00     0.037 A 
BRANCH  47  61
ATOM     61  C   UNL     1      12.079  17.328  -1.358  1.00  0.00     0.058 A 
ATOM     62  C   UNL     1      13.266  17.228  -0.614  1.00  0.00     0.135 A 
ATOM     63  C   UNL     1      11.046  18.126  -0.842  1.00  0.00     0.135 A 
ATOM     64  F   UNL     1      14.278  16.463  -1.054  1.00  0.00    -0.206 F 
ATOM     65  C   UNL     1      13.403  17.850   0.623  1.00  0.00     0.059 A 
ATOM     66  C   UNL     1      11.171  18.778   0.381  1.00  0.00     0.059 A 
ATOM     67  F   UNL     1       9.892  18.256  -1.514  1.00  0.00    -0.206 F 
ATOM     68  C   UNL     1      12.343  18.612   1.118  1.00  0.00     0.060 A 
BRANCH  68  69
ATOM     69  S   UNL     1      12.508  19.375   2.745  1.00  0.00     0.124 S 
ATOM     70  O   UNL     1      12.215  18.246   3.623  1.00  0.00    -0.237 OA
ATOM     71  O   UNL     1      13.894  19.832   2.744  1.00  0.00    -0.237 OA
ATOM     72  O   UNL     1      11.504  20.433   2.723  1.00  0.00    -0.744 OA
ENDBRANCH  68  69
ENDBRANCH  47  61
BRANCH  48  73
ATOM     73  C   UNL     1      10.357  11.896  -9.563  1.00  0.00     0.058 A 
ATOM     74  C   UNL     1      11.354  11.567 -10.493  1.00  0.00     0.135 A 
ATOM     75  C   UNL     1       9.067  11.387  -9.776  1.00  0.00     0.135 A 
ATOM     76  F   UNL     1      12.601  12.036 -10.333  1.00  0.00    -0.206 F 
ATOM     77  C   UNL     1      11.086  10.757 -11.592  1.00  0.00     0.059 A 
ATOM     78  C   UNL     1       8.778  10.561 -10.858  1.00  0.00     0.059 A 
ATOM     79  F   UNL     1       8.085  11.659  -8.904  1.00  0.00    -0.206 F 
ATOM     80  C   UNL     1       9.795  10.252 -11.761  1.00  0.00     0.060 A 
BRANCH  80  81
ATOM     81  S   UNL     1       9.479   9.123 -13.136  1.00  0.00     0.124 S 
ATOM     82  O   UNL     1       9.412  10.044 -14.264  1.00  0.00    -0.237 OA
ATOM     83  O   UNL     1      10.648   8.249 -13.093  1.00  0.00    -0.237 OA
ATOM     84  O   UNL     1       8.220   8.486 -12.762  1.00  0.00    -0.744 OA
ENDBRANCH  80  81
ENDBRANCH  48  73
BRANCH  60  85
ATOM     85  C   UNL     1      11.697  18.657  -8.444  1.00  0.00     0.058 A 
ATOM     86  C   UNL     1      10.578  19.290  -9.005  1.00  0.00     0.135 A 
ATOM     87  C   UNL     1      12.964  19.202  -8.705  1.00  0.00     0.135 A 
ATOM     88  F   UNL     1       9.346  18.802  -8.790  1.00  0.00    -0.206 F 
ATOM     89  C   UNL     1      10.710  20.424  -9.801  1.00  0.00     0.059 A 
ATOM     90  C   UNL     1      13.118  20.345  -9.483  1.00  0.00     0.059 A 
ATOM     91  F   UNL     1      14.064  18.635  -8.185  1.00  0.00    -0.206 F 
ATOM     92  C   UNL     1      11.985  20.945 -10.032  1.00  0.00     0.060 A 
BRANCH  92  93
ATOM     93  S   UNL     1      12.144  22.449 -11.019  1.00  0.00     0.124 S 
ATOM     94  O   UNL     1      11.985  21.929 -12.373  1.00  0.00    -0.237 OA
ATOM     95  O   UNL     1      11.045  23.271 -10.522  1.00  0.00    -0.237 OA
ATOM     96  O   UNL     1      13.480  22.933 -10.684  1.00  0.00    -0.744 OA
ENDBRANCH  92  93
ENDBRANCH  60  85
ENDBRANCH  34  35
ENDBRANCH  26  29
ENDBRANCH  24  25
ENDBRANCH  23  24
ENDBRANCH   1  23
TORSDOF 19
