REMARK SMILES [NH3+]CCOCC(=O)Nc1ccc(C(=O)NCCCCNC(=O)c2ccc(-c3c4nc(c(-c5c(F)cc(S(=O)(=O)[O-])cc5F)c5ccc([nH]5)c(-c5c(F)cc(S(=O)(=O)[O-])cc5F)c5nc(c(-c6c(F)cc(S(=O)(=O)[O-])cc6F)c6ccc3[nH]6)C=C5)C=C4)cc2)c(Cl)c1
REMARK SMILES IDX 16 1 15 2 13 3 14 4 12 6 9 7 10 8 91 9 11 10 89 11 90 12
REMARK SMILES IDX 8 13 6 14 7 15 5 17 4 18 3 19 2 20 1 21 17 25 18 26 19 27
REMARK SMILES IDX 20 28 21 29 22 31 23 32 24 33 88 34 25 35 87 36 26 37 27 38
REMARK SMILES IDX 28 39 81 40 29 41 86 42 80 43 82 44 30 45 85 46 79 47 78 48
REMARK SMILES IDX 31 50 65 51 44 52 64 53 45 54 48 55 63 56 83 57 46 58 47 59
REMARK SMILES IDX 62 61 84 62 49 63 32 64 33 65 42 66 34 67 35 68 41 69 43 70
REMARK SMILES IDX 36 71 37 72 38 73 39 74 40 75 66 76 67 77 76 78 68 79 69 80
REMARK SMILES IDX 75 81 77 82 70 83 71 84 72 85 73 86 74 87 50 88 51 89 60 90
REMARK SMILES IDX 52 91 53 92 59 93 61 94 54 95 55 96 56 97 57 98 58 99
REMARK H PARENT 15 5 8 16 1 22 1 23 1 24 20 30 82 49 48 60
REMARK Flexibility Score: inf
ROOT
ATOM      1  C   UNL     1       1.832   0.613  10.101  1.00  0.00     0.116 C 
ENDROOT
BRANCH   1   2
ATOM      2  N   UNL     1       0.771  -0.078   9.408  1.00  0.00    -0.352 N 
ATOM      3  C   UNL     1       0.521  -0.329   8.090  1.00  0.00     0.252 C 
ATOM      4  O   UNL     1      -0.595  -0.800   7.843  1.00  0.00    -0.269 OA
ATOM      5  H   UNL     1       0.085  -0.444  10.012  1.00  0.00     0.163 HD
BRANCH   3   6
ATOM      6  C   UNL     1       1.479  -0.191   6.950  1.00  0.00     0.058 A 
ATOM      7  C   UNL     1       2.827  -0.123   4.459  1.00  0.00     0.042 A 
ATOM      8  C   UNL     1       1.903  -1.123   4.713  1.00  0.00     0.027 A 
ATOM      9  C   UNL     1       3.159   0.774   5.461  1.00  0.00     0.047 A 
ATOM     10  C   UNL     1       1.266  -1.173   5.954  1.00  0.00     0.017 A 
ATOM     11  C   UNL     1       2.430   0.800   6.664  1.00  0.00     0.055 A 
ATOM     12  Cl  UNL     1       2.693   2.262   7.526  1.00  0.00    -0.083 Cl
BRANCH   7  13
ATOM     13  N   UNL     1       3.374   0.091   3.193  1.00  0.00    -0.324 N 
ATOM     14  C   UNL     1       2.669   0.318   2.038  1.00  0.00     0.250 C 
ATOM     15  O   UNL     1       3.282   0.490   0.980  1.00  0.00    -0.272 OA
ATOM     16  H   UNL     1       4.356   0.078   3.122  1.00  0.00     0.170 HD
BRANCH  14  17
ATOM     17  C   UNL     1       1.130   0.425   2.087  1.00  0.00     0.260 C 
BRANCH  17  18
ATOM     18  O   UNL     1       0.350  -0.754   2.054  1.00  0.00    -0.366 OA
BRANCH  18  19
ATOM     19  C   UNL     1       0.800  -1.766   1.156  1.00  0.00     0.222 C 
BRANCH  19  20
ATOM     20  C   UNL     1       0.402  -1.534  -0.308  1.00  0.00     0.287 C 
BRANCH  20  21
ATOM     21  N   UNL     1       1.082  -0.427  -0.981  1.00  0.00    -0.356 N 
ATOM     22  H   UNL     1       0.749  -0.358  -1.943  1.00  0.00     0.344 HD
ATOM     23  H   UNL     1       2.088  -0.596  -0.981  1.00  0.00     0.344 HD
ATOM     24  H   UNL     1       0.884   0.444  -0.489  1.00  0.00     0.344 HD
ENDBRANCH  20  21
ENDBRANCH  19  20
ENDBRANCH  18  19
ENDBRANCH  17  18
ENDBRANCH  14  17
ENDBRANCH   7  13
ENDBRANCH   3   6
ENDBRANCH   1   2
BRANCH   1  25
ATOM     25  C   UNL     1       1.431   2.080  10.291  1.00  0.00     0.023 C 
BRANCH  25  26
ATOM     26  C   UNL     1       0.680   2.396  11.578  1.00  0.00     0.023 C 
BRANCH  26  27
ATOM     27  C   UNL     1       1.495   2.177  12.842  1.00  0.00     0.116 C 
BRANCH  27  28
ATOM     28  N   UNL     1       2.788   2.852  12.834  1.00  0.00    -0.352 N 
ATOM     29  C   UNL     1       3.527   3.264  13.915  1.00  0.00     0.251 C 
ATOM     30  H   UNL     1       3.177   3.033  11.947  1.00  0.00     0.163 HD
ATOM     31  O   UNL     1       4.572   3.886  13.762  1.00  0.00    -0.269 OA
BRANCH  29  32
ATOM     32  C   UNL     1       2.999   2.988  15.261  1.00  0.00     0.039 A 
ATOM     33  C   UNL     1       2.811   4.055  16.140  1.00  0.00     0.014 A 
ATOM     34  C   UNL     1       2.594   1.695  15.602  1.00  0.00     0.014 A 
ATOM     35  C   UNL     1       2.147   3.833  17.345  1.00  0.00     0.010 A 
ATOM     36  C   UNL     1       1.862   1.494  16.763  1.00  0.00     0.010 A 
ATOM     37  C   UNL     1       1.636   2.560  17.646  1.00  0.00    -0.014 A 
BRANCH  37  38
ATOM     38  C   UNL     1       0.871   2.317  18.891  1.00  0.00     0.031 A 
ATOM     39  C   UNL     1       1.424   1.385  19.931  1.00  0.00     0.074 A 
ATOM     40  C   UNL     1      -0.340   2.884  19.051  1.00  0.00     0.049 A 
ATOM     41  N   UNL     1       0.888   0.993  21.056  1.00  0.00    -0.248 NA
ATOM     42  C   UNL     1       2.740   0.786  19.651  1.00  0.00     0.031 C 
ATOM     43  C   UNL     1      -1.003   3.759  18.080  1.00  0.00     0.029 A 
ATOM     44  N   UNL     1      -1.233   2.805  20.088  1.00  0.00    -0.354 N 
ATOM     45  C   UNL     1       1.790   0.094  21.610  1.00  0.00     0.074 A 
ATOM     46  C   UNL     1       2.879  -0.049  20.669  1.00  0.00     0.031 C 
ATOM     47  C   UNL     1      -2.183   4.159  18.582  1.00  0.00     0.029 A 
ATOM     48  C   UNL     1      -2.373   3.548  19.893  1.00  0.00     0.049 A 
ATOM     49  H   UNL     1      -1.073   2.266  20.896  1.00  0.00     0.167 HD
ATOM     50  C   UNL     1       1.732  -0.532  22.809  1.00  0.00     0.037 A 
ATOM     51  C   UNL     1      -3.446   3.720  20.689  1.00  0.00     0.037 A 
ATOM     52  C   UNL     1       0.662  -0.356  23.753  1.00  0.00     0.049 A 
ATOM     53  C   UNL     1      -3.476   3.035  22.028  1.00  0.00     0.074 A 
ATOM     54  C   UNL     1       0.529  -0.901  25.017  1.00  0.00     0.029 A 
ATOM     55  N   UNL     1      -0.459   0.433  23.536  1.00  0.00    -0.354 N 
ATOM     56  N   UNL     1      -2.587   2.232  22.563  1.00  0.00    -0.248 NA
ATOM     57  C   UNL     1      -4.649   3.287  22.875  1.00  0.00     0.031 C 
ATOM     58  C   UNL     1      -0.686  -0.461  25.555  1.00  0.00     0.029 A 
ATOM     59  C   UNL     1      -1.292   0.385  24.640  1.00  0.00     0.049 A 
ATOM     60  H   UNL     1      -0.635   0.951  22.717  1.00  0.00     0.167 HD
ATOM     61  C   UNL     1      -3.080   1.903  23.820  1.00  0.00     0.074 A 
ATOM     62  C   UNL     1      -4.341   2.602  23.968  1.00  0.00     0.031 C 
ATOM     63  C   UNL     1      -2.539   1.098  24.767  1.00  0.00     0.037 A 
BRANCH  50  64
ATOM     64  C   UNL     1       2.868  -1.451  23.160  1.00  0.00     0.058 A 
ATOM     65  C   UNL     1       4.147  -0.954  23.457  1.00  0.00     0.135 A 
ATOM     66  C   UNL     1       2.679  -2.841  23.201  1.00  0.00     0.135 A 
ATOM     67  F   UNL     1       4.387   0.366  23.413  1.00  0.00    -0.206 F 
ATOM     68  C   UNL     1       5.210  -1.804  23.744  1.00  0.00     0.059 A 
ATOM     69  C   UNL     1       3.721  -3.710  23.512  1.00  0.00     0.059 A 
ATOM     70  F   UNL     1       1.477  -3.369  22.923  1.00  0.00    -0.206 F 
ATOM     71  C   UNL     1       4.988  -3.182  23.764  1.00  0.00     0.060 A 
BRANCH  71  72
ATOM     72  S   UNL     1       6.378  -4.275  24.123  1.00  0.00     0.124 S 
ATOM     73  O   UNL     1       7.106  -4.244  22.858  1.00  0.00    -0.237 OA
ATOM     74  O   UNL     1       7.027  -3.601  25.243  1.00  0.00    -0.237 OA
ATOM     75  O   UNL     1       5.736  -5.545  24.447  1.00  0.00    -0.744 OA
ENDBRANCH  71  72
ENDBRANCH  50  64
BRANCH  51  76
ATOM     76  C   UNL     1      -4.553   4.613  20.260  1.00  0.00     0.058 A 
ATOM     77  C   UNL     1      -4.736   5.867  20.861  1.00  0.00     0.135 A 
ATOM     78  C   UNL     1      -5.437   4.243  19.235  1.00  0.00     0.135 A 
ATOM     79  F   UNL     1      -3.917   6.262  21.848  1.00  0.00    -0.206 F 
ATOM     80  C   UNL     1      -5.764   6.719  20.474  1.00  0.00     0.059 A 
ATOM     81  C   UNL     1      -6.461   5.087  18.815  1.00  0.00     0.059 A 
ATOM     82  F   UNL     1      -5.292   3.061  18.616  1.00  0.00    -0.206 F 
ATOM     83  C   UNL     1      -6.622   6.319  19.448  1.00  0.00     0.060 A 
BRANCH  83  84
ATOM     84  S   UNL     1      -7.924   7.453  18.916  1.00  0.00     0.124 S 
ATOM     85  O   UNL     1      -8.889   7.321  20.002  1.00  0.00    -0.237 OA
ATOM     86  O   UNL     1      -7.214   8.726  18.843  1.00  0.00    -0.237 OA
ATOM     87  O   UNL     1      -8.341   6.903  17.629  1.00  0.00    -0.744 OA
ENDBRANCH  83  84
ENDBRANCH  51  76
BRANCH  63  88
ATOM     88  C   UNL     1      -3.292   0.956  26.059  1.00  0.00     0.058 A 
ATOM     89  C   UNL     1      -4.456   0.179  26.149  1.00  0.00     0.135 A 
ATOM     90  C   UNL     1      -2.813   1.566  27.229  1.00  0.00     0.135 A 
ATOM     91  F   UNL     1      -4.956  -0.420  25.056  1.00  0.00    -0.206 F 
ATOM     92  C   UNL     1      -5.134   0.029  27.354  1.00  0.00     0.059 A 
ATOM     93  C   UNL     1      -3.462   1.410  28.449  1.00  0.00     0.059 A 
ATOM     94  F   UNL     1      -1.696   2.311  27.195  1.00  0.00    -0.206 F 
ATOM     95  C   UNL     1      -4.630   0.649  28.498  1.00  0.00     0.060 A 
BRANCH  95  96
ATOM     96  S   UNL     1      -5.499   0.422  30.064  1.00  0.00     0.124 S 
ATOM     97  O   UNL     1      -6.632   1.327  29.903  1.00  0.00    -0.237 OA
ATOM     98  O   UNL     1      -5.818  -1.002  30.043  1.00  0.00    -0.237 OA
ATOM     99  O   UNL     1      -4.511   0.821  31.061  1.00  0.00    -0.744 OA
ENDBRANCH  95  96
ENDBRANCH  63  88
ENDBRANCH  37  38
ENDBRANCH  29  32
ENDBRANCH  27  28
ENDBRANCH  26  27
ENDBRANCH  25  26
ENDBRANCH   1  25
TORSDOF 20
