REMARK SMILES CN(CCS(C)(=O)=O)S(=O)(=O)c1cc(C(=O)NCCCCNC(=O)c2ccc(-c3c4nc(c(-c5c(F)cc(S(=O)(=O)[O-])cc5F)c5ccc([nH]5)c(-c5c(F)cc(S(=O)(=O)[O-])cc5F)c5nc(c(-c6c(F)cc(S(=O)(=O)[O-])cc6F)c6ccc3[nH]6)C=C5)C=C4)cc2)ccc1F
REMARK SMILES IDX 18 1 17 2 15 3 16 4 14 6 12 7 13 8 93 9 92 10 94 11 91 12
REMARK SMILES IDX 9 13 10 14 11 15 2 16 1 17 3 18 4 19 5 20 6 21 7 22 8 23
REMARK SMILES IDX 19 24 20 25 21 26 22 27 23 28 24 30 25 31 26 32 90 33 27 34
REMARK SMILES IDX 89 35 28 36 29 37 30 38 83 39 31 40 88 41 82 42 84 43 32 44
REMARK SMILES IDX 87 45 81 46 80 47 33 49 67 50 46 51 66 52 47 53 50 54 65 55
REMARK SMILES IDX 85 56 48 57 49 58 64 60 86 61 51 62 34 63 35 64 44 65 36 66
REMARK SMILES IDX 37 67 43 68 45 69 38 70 39 71 40 72 41 73 42 74 68 75 69 76
REMARK SMILES IDX 78 77 70 78 71 79 77 80 79 81 72 82 73 83 74 84 75 85 76 86
REMARK SMILES IDX 52 87 53 88 62 89 54 90 55 91 61 92 63 93 56 94 57 95 58 96
REMARK SMILES IDX 59 97 60 98
REMARK H PARENT 17 5 22 29 84 48 50 59
REMARK Flexibility Score: inf
ROOT
ATOM      1  C   UNL     1      -0.469  -4.456   8.177  1.00  0.00     0.116 C 
ENDROOT
BRANCH   1   2
ATOM      2  N   UNL     1      -0.280  -5.170   6.928  1.00  0.00    -0.352 N 
ATOM      3  C   UNL     1      -0.015  -4.757   5.649  1.00  0.00     0.251 C 
ATOM      4  O   UNL     1       0.113  -5.622   4.784  1.00  0.00    -0.269 OA
ATOM      5  H   UNL     1      -0.357  -6.147   7.017  1.00  0.00     0.163 HD
BRANCH   3   6
ATOM      6  C   UNL     1       0.140  -3.328   5.250  1.00  0.00     0.041 A 
ATOM      7  C   UNL     1       1.024  -1.740   3.630  1.00  0.00     0.119 A 
ATOM      8  C   UNL     1       0.889  -3.057   4.088  1.00  0.00     0.038 A 
ATOM      9  C   UNL     1       0.473  -0.689   4.349  1.00  0.00     0.143 A 
ATOM     10  C   UNL     1      -0.303  -0.946   5.471  1.00  0.00     0.041 A 
ATOM     11  F   UNL     1       0.581   0.579   3.930  1.00  0.00    -0.206 F 
ATOM     12  C   UNL     1      -0.501  -2.263   5.895  1.00  0.00     0.017 A 
BRANCH   7  13
ATOM     13  S   UNL     1       1.761  -1.391   2.070  1.00  0.00     0.245 S 
ATOM     14  O   UNL     1       1.986  -2.627   1.360  1.00  0.00    -0.207 OA
ATOM     15  O   UNL     1       2.862  -0.481   2.309  1.00  0.00    -0.207 OA
BRANCH  13  16
ATOM     16  N   UNL     1       0.556  -0.549   1.210  1.00  0.00    -0.200 NA
ATOM     17  C   UNL     1       1.008   0.076  -0.048  1.00  0.00     0.124 C 
BRANCH  16  18
ATOM     18  C   UNL     1      -0.877  -0.941   1.255  1.00  0.00     0.118 C 
BRANCH  18  19
ATOM     19  C   UNL     1      -1.378  -1.962   0.254  1.00  0.00     0.153 C 
BRANCH  19  20
ATOM     20  S   UNL     1      -1.634  -3.624   0.852  1.00  0.00     0.148 S 
ATOM     21  C   UNL     1      -2.492  -3.512   2.407  1.00  0.00     0.158 C 
ATOM     22  O   UNL     1      -2.553  -4.254  -0.080  1.00  0.00    -0.229 OA
ATOM     23  O   UNL     1      -0.344  -4.219   1.117  1.00  0.00    -0.229 OA
ENDBRANCH  19  20
ENDBRANCH  18  19
ENDBRANCH  16  18
ENDBRANCH  13  16
ENDBRANCH   7  13
ENDBRANCH   3   6
ENDBRANCH   1   2
BRANCH   1  24
ATOM     24  C   UNL     1      -1.958  -4.374   8.526  1.00  0.00     0.023 C 
BRANCH  24  25
ATOM     25  C   UNL     1      -2.504  -5.621   9.231  1.00  0.00     0.023 C 
BRANCH  25  26
ATOM     26  C   UNL     1      -1.895  -5.909  10.601  1.00  0.00     0.116 C 
BRANCH  26  27
ATOM     27  N   UNL     1      -2.046  -4.808  11.541  1.00  0.00    -0.352 N 
ATOM     28  C   UNL     1      -2.225  -4.859  12.902  1.00  0.00     0.251 C 
ATOM     29  H   UNL     1      -2.017  -3.906  11.148  1.00  0.00     0.163 HD
ATOM     30  O   UNL     1      -2.444  -3.828  13.530  1.00  0.00    -0.269 OA
BRANCH  28  31
ATOM     31  C   UNL     1      -2.195  -6.165  13.594  1.00  0.00     0.039 A 
ATOM     32  C   UNL     1      -3.222  -6.477  14.488  1.00  0.00     0.014 A 
ATOM     33  C   UNL     1      -1.177  -7.089  13.339  1.00  0.00     0.014 A 
ATOM     34  C   UNL     1      -3.267  -7.744  15.072  1.00  0.00     0.010 A 
ATOM     35  C   UNL     1      -1.262  -8.374  13.869  1.00  0.00     0.010 A 
ATOM     36  C   UNL     1      -2.309  -8.716  14.736  1.00  0.00    -0.014 A 
BRANCH  36  37
ATOM     37  C   UNL     1      -2.402 -10.100  15.268  1.00  0.00     0.031 A 
ATOM     38  C   UNL     1      -1.330 -10.639  16.174  1.00  0.00     0.074 A 
ATOM     39  C   UNL     1      -3.428 -10.889  14.889  1.00  0.00     0.049 A 
ATOM     40  N   UNL     1      -1.214 -11.834  16.692  1.00  0.00    -0.248 NA
ATOM     41  C   UNL     1      -0.231  -9.723  16.524  1.00  0.00     0.031 C 
ATOM     42  C   UNL     1      -4.504 -10.495  13.977  1.00  0.00     0.029 A 
ATOM     43  N   UNL     1      -3.732 -12.186  15.218  1.00  0.00    -0.354 N 
ATOM     44  C   UNL     1      -0.032 -11.817  17.423  1.00  0.00     0.074 A 
ATOM     45  C   UNL     1       0.562 -10.511  17.235  1.00  0.00     0.031 C 
ATOM     46  C   UNL     1      -5.367 -11.515  13.847  1.00  0.00     0.029 A 
ATOM     47  C   UNL     1      -4.888 -12.648  14.633  1.00  0.00     0.049 A 
ATOM     48  H   UNL     1      -3.175 -12.734  15.816  1.00  0.00     0.167 HD
ATOM     49  C   UNL     1       0.495 -12.791  18.201  1.00  0.00     0.037 A 
ATOM     50  C   UNL     1      -5.495 -13.848  14.719  1.00  0.00     0.037 A 
ATOM     51  C   UNL     1      -0.114 -14.081  18.403  1.00  0.00     0.049 A 
ATOM     52  C   UNL     1      -4.888 -14.917  15.586  1.00  0.00     0.074 A 
ATOM     53  C   UNL     1       0.321 -15.119  19.208  1.00  0.00     0.029 A 
ATOM     54  N   UNL     1      -1.287 -14.508  17.799  1.00  0.00    -0.354 N 
ATOM     55  N   UNL     1      -3.793 -14.867  16.307  1.00  0.00    -0.248 NA
ATOM     56  C   UNL     1      -5.599 -16.201  15.657  1.00  0.00     0.031 C 
ATOM     57  C   UNL     1      -0.568 -16.188  19.060  1.00  0.00     0.029 A 
ATOM     58  C   UNL     1      -1.584 -15.799  18.202  1.00  0.00     0.049 A 
ATOM     59  H   UNL     1      -1.829 -13.972  17.175  1.00  0.00     0.167 HD
ATOM     60  C   UNL     1      -3.696 -16.103  16.936  1.00  0.00     0.074 A 
ATOM     61  C   UNL     1      -4.849 -16.875  16.519  1.00  0.00     0.031 C 
ATOM     62  C   UNL     1      -2.739 -16.555  17.783  1.00  0.00     0.037 A 
BRANCH  49  63
ATOM     63  C   UNL     1       1.788 -12.498  18.912  1.00  0.00     0.058 A 
ATOM     64  C   UNL     1       2.971 -13.162  18.552  1.00  0.00     0.135 A 
ATOM     65  C   UNL     1       1.843 -11.600  19.990  1.00  0.00     0.135 A 
ATOM     66  F   UNL     1       2.978 -14.026  17.525  1.00  0.00    -0.206 F 
ATOM     67  C   UNL     1       4.160 -12.955  19.244  1.00  0.00     0.059 A 
ATOM     68  C   UNL     1       3.027 -11.357  20.679  1.00  0.00     0.059 A 
ATOM     69  F   UNL     1       0.745 -10.922  20.362  1.00  0.00    -0.206 F 
ATOM     70  C   UNL     1       4.178 -12.051  20.308  1.00  0.00     0.060 A 
BRANCH  70  71
ATOM     71  S   UNL     1       5.737 -11.768  21.174  1.00  0.00     0.124 S 
ATOM     72  O   UNL     1       5.913 -13.024  21.893  1.00  0.00    -0.237 OA
ATOM     73  O   UNL     1       6.662 -11.529  20.069  1.00  0.00    -0.237 OA
ATOM     74  O   UNL     1       5.454 -10.600  22.004  1.00  0.00    -0.744 OA
ENDBRANCH  70  71
ENDBRANCH  49  63
BRANCH  50  75
ATOM     75  C   UNL     1      -6.772 -14.081  13.992  1.00  0.00     0.058 A 
ATOM     76  C   UNL     1      -6.811 -14.173  12.593  1.00  0.00     0.135 A 
ATOM     77  C   UNL     1      -7.987 -14.169  14.688  1.00  0.00     0.135 A 
ATOM     78  F   UNL     1      -5.678 -14.083  11.880  1.00  0.00    -0.206 F 
ATOM     79  C   UNL     1      -8.012 -14.317  11.906  1.00  0.00     0.059 A 
ATOM     80  C   UNL     1      -9.199 -14.338  14.025  1.00  0.00     0.059 A 
ATOM     81  F   UNL     1      -7.998 -14.098  16.028  1.00  0.00    -0.206 F 
ATOM     82  C   UNL     1      -9.202 -14.392  12.632  1.00  0.00     0.060 A 
BRANCH  82  83
ATOM     83  S   UNL     1     -10.753 -14.550  11.720  1.00  0.00     0.124 S 
ATOM     84  O   UNL     1     -10.857 -13.237  11.093  1.00  0.00    -0.237 OA
ATOM     85  O   UNL     1     -10.467 -15.663  10.822  1.00  0.00    -0.237 OA
ATOM     86  O   UNL     1     -11.733 -14.826  12.766  1.00  0.00    -0.744 OA
ENDBRANCH  82  83
ENDBRANCH  50  75
BRANCH  62  87
ATOM     87  C   UNL     1      -2.899 -17.941  18.343  1.00  0.00     0.058 A 
ATOM     88  C   UNL     1      -3.205 -18.126  19.701  1.00  0.00     0.135 A 
ATOM     89  C   UNL     1      -2.674 -19.083  17.559  1.00  0.00     0.135 A 
ATOM     90  F   UNL     1      -3.424 -17.067  20.497  1.00  0.00    -0.206 F 
ATOM     91  C   UNL     1      -3.263 -19.395  20.267  1.00  0.00     0.059 A 
ATOM     92  C   UNL     1      -2.754 -20.364  18.098  1.00  0.00     0.059 A 
ATOM     93  F   UNL     1      -2.390 -18.959  16.253  1.00  0.00    -0.206 F 
ATOM     94  C   UNL     1      -3.033 -20.508  19.457  1.00  0.00     0.060 A 
BRANCH  94  95
ATOM     95  S   UNL     1      -3.124 -22.149  20.205  1.00  0.00     0.124 S 
ATOM     96  O   UNL     1      -1.913 -22.175  21.018  1.00  0.00    -0.237 OA
ATOM     97  O   UNL     1      -4.383 -22.083  20.942  1.00  0.00    -0.237 OA
ATOM     98  O   UNL     1      -3.127 -23.046  19.054  1.00  0.00    -0.744 OA
ENDBRANCH  94  95
ENDBRANCH  62  87
ENDBRANCH  36  37
ENDBRANCH  28  31
ENDBRANCH  26  27
ENDBRANCH  25  26
ENDBRANCH  24  25
ENDBRANCH   1  24
TORSDOF 19
