REMARK SMILES C[C@](C(=O)NCCCCNC(=O)c1ccc(-c2c3nc(c(-c4c(F)cc(S(=O)(=O)[O-])cc4F)c4ccc([nH]4)c(-c4c(F)cc(S(=O)(=O)[O-])cc4F)c4nc(c(-c5c(F)cc(S(=O)(=O)[O-])cc5F)c5ccc2[nH]5)C=C4)C=C3)cc1)(c1cc(F)cc(F)c1)[NH+]1CCCC1
REMARK SMILES IDX 8 1 7 2 6 3 5 4 3 5 4 6 2 8 1 9 79 10 80 11 86 12 81 13
REMARK SMILES IDX 84 14 82 15 83 16 85 17 87 18 88 19 91 20 89 22 90 23 9 24
REMARK SMILES IDX 10 25 11 26 12 28 13 29 14 30 78 31 15 32 77 33 16 34 17 35
REMARK SMILES IDX 18 36 71 37 19 38 76 39 70 40 72 41 20 42 75 43 69 44 68 45
REMARK SMILES IDX 21 47 55 48 34 49 54 50 35 51 38 52 53 53 73 54 36 55 37 56
REMARK SMILES IDX 52 58 74 59 39 60 22 61 23 62 32 63 24 64 25 65 31 66 33 67
REMARK SMILES IDX 26 68 27 69 28 70 29 71 30 72 56 73 57 74 66 75 58 76 59 77
REMARK SMILES IDX 65 78 67 79 60 80 61 81 62 82 63 83 64 84 40 85 41 86 50 87
REMARK SMILES IDX 42 88 43 89 49 90 51 91 44 92 45 93 46 94 47 95 48 96
REMARK H PARENT 5 7 87 21 10 27 72 46 38 57
REMARK Flexibility Score: inf
ROOT
ATOM      1  C   UNL     1       2.730   1.893   3.520  1.00  0.00     0.023 C 
ENDROOT
BRANCH   1   2
ATOM      2  C   UNL     1       1.576   0.889   3.504  1.00  0.00     0.023 C 
BRANCH   2   3
ATOM      3  C   UNL     1       0.562   1.108   2.384  1.00  0.00     0.116 C 
BRANCH   3   4
ATOM      4  N   UNL     1       1.152   0.909   1.079  1.00  0.00    -0.350 N 
ATOM      5  C   UNL     1       1.113  -0.135   0.204  1.00  0.00     0.286 C 
ATOM      6  O   UNL     1       1.649   0.111  -0.887  1.00  0.00    -0.267 OA
ATOM      7  H   UNL     1       1.684   1.675   0.762  1.00  0.00     0.163 HD
BRANCH   5   8
ATOM      8  C   UNL     1       0.389  -1.547   0.514  1.00  0.00     0.200 C 
ATOM      9  C   UNL     1       0.777  -2.035   1.933  1.00  0.00     0.096 C 
BRANCH   8  10
ATOM     10  C   UNL     1      -1.160  -1.383   0.469  1.00  0.00     0.028 A 
ATOM     11  C   UNL     1      -1.796  -0.182   0.101  1.00  0.00     0.050 A 
ATOM     12  C   UNL     1      -2.004  -2.436   0.887  1.00  0.00     0.050 A 
ATOM     13  C   UNL     1      -3.185  -0.047   0.183  1.00  0.00     0.126 A 
ATOM     14  C   UNL     1      -3.391  -2.299   0.905  1.00  0.00     0.126 A 
ATOM     15  F   UNL     1      -3.746   1.136  -0.102  1.00  0.00    -0.207 F 
ATOM     16  C   UNL     1      -3.994  -1.101   0.572  1.00  0.00     0.078 A 
ATOM     17  F   UNL     1      -4.148  -3.344   1.265  1.00  0.00    -0.207 F 
ENDBRANCH   8  10
BRANCH   8  18
ATOM     18  N   UNL     1       0.927  -2.461  -0.557  1.00  0.00    -0.319 N 
ATOM     19  C   UNL     1       0.244  -3.681  -0.962  1.00  0.00     0.263 C 
ATOM     20  C   UNL     1       2.324  -2.889  -0.355  1.00  0.00     0.263 C 
ATOM     21  H   UNL     1       0.770  -1.781  -1.301  1.00  0.00     0.349 HD
ATOM     22  C   UNL     1       0.822  -4.777  -0.088  1.00  0.00     0.067 C 
ATOM     23  C   UNL     1       2.250  -4.319   0.183  1.00  0.00     0.067 C 
ENDBRANCH   8  18
ENDBRANCH   5   8
ENDBRANCH   3   4
ENDBRANCH   2   3
ENDBRANCH   1   2
BRANCH   1  24
ATOM     24  C   UNL     1       2.308   3.350   3.654  1.00  0.00     0.116 C 
BRANCH  24  25
ATOM     25  N   UNL     1       1.497   3.588   4.838  1.00  0.00    -0.352 N 
ATOM     26  C   UNL     1       1.636   4.551   5.806  1.00  0.00     0.251 C 
ATOM     27  H   UNL     1       0.740   2.971   4.963  1.00  0.00     0.163 HD
ATOM     28  O   UNL     1       0.959   4.488   6.829  1.00  0.00    -0.269 OA
BRANCH  26  29
ATOM     29  C   UNL     1       2.618   5.640   5.623  1.00  0.00     0.039 A 
ATOM     30  C   UNL     1       3.425   6.009   6.700  1.00  0.00     0.014 A 
ATOM     31  C   UNL     1       2.749   6.287   4.391  1.00  0.00     0.014 A 
ATOM     32  C   UNL     1       4.406   6.986   6.522  1.00  0.00     0.010 A 
ATOM     33  C   UNL     1       3.784   7.194   4.191  1.00  0.00     0.010 A 
ATOM     34  C   UNL     1       4.618   7.561   5.257  1.00  0.00    -0.014 A 
BRANCH  34  35
ATOM     35  C   UNL     1       5.703   8.552   5.041  1.00  0.00     0.031 A 
ATOM     36  C   UNL     1       5.371   9.959   4.619  1.00  0.00     0.074 A 
ATOM     37  C   UNL     1       6.988   8.173   5.188  1.00  0.00     0.049 A 
ATOM     38  N   UNL     1       6.179  10.954   4.359  1.00  0.00    -0.248 NA
ATOM     39  C   UNL     1       3.946  10.284   4.441  1.00  0.00     0.031 C 
ATOM     40  C   UNL     1       7.437   6.821   5.534  1.00  0.00     0.029 A 
ATOM     41  N   UNL     1       8.154   8.885   5.062  1.00  0.00    -0.354 N 
ATOM     42  C   UNL     1       5.364  12.019   3.993  1.00  0.00     0.074 A 
ATOM     43  C   UNL     1       4.003  11.528   3.990  1.00  0.00     0.031 C 
ATOM     44  C   UNL     1       8.777   6.810   5.620  1.00  0.00     0.029 A 
ATOM     45  C   UNL     1       9.285   8.140   5.301  1.00  0.00     0.049 A 
ATOM     46  H   UNL     1       8.178   9.840   4.824  1.00  0.00     0.167 HD
ATOM     47  C   UNL     1       5.712  13.299   3.719  1.00  0.00     0.037 A 
ATOM     48  C   UNL     1      10.586   8.489   5.262  1.00  0.00     0.037 A 
ATOM     49  C   UNL     1       7.067  13.784   3.734  1.00  0.00     0.049 A 
ATOM     50  C   UNL     1      10.948   9.915   4.943  1.00  0.00     0.074 A 
ATOM     51  C   UNL     1       7.525  15.069   3.500  1.00  0.00     0.029 A 
ATOM     52  N   UNL     1       8.185  13.005   4.000  1.00  0.00    -0.354 N 
ATOM     53  N   UNL     1      10.158  10.924   4.660  1.00  0.00    -0.248 NA
ATOM     54  C   UNL     1      12.377  10.255   4.950  1.00  0.00     0.031 C 
ATOM     55  C   UNL     1       8.922  15.057   3.582  1.00  0.00     0.029 A 
ATOM     56  C   UNL     1       9.331  13.778   3.922  1.00  0.00     0.049 A 
ATOM     57  H   UNL     1       8.165  12.044   4.212  1.00  0.00     0.167 HD
ATOM     58  C   UNL     1      10.992  12.023   4.484  1.00  0.00     0.074 A 
ATOM     59  C   UNL     1      12.345  11.558   4.713  1.00  0.00     0.031 C 
ATOM     60  C   UNL     1      10.670  13.300   4.162  1.00  0.00     0.037 A 
BRANCH  47  61
ATOM     61  C   UNL     1       4.606  14.269   3.400  1.00  0.00     0.058 A 
ATOM     62  C   UNL     1       3.689  14.683   4.381  1.00  0.00     0.135 A 
ATOM     63  C   UNL     1       4.480  14.823   2.116  1.00  0.00     0.135 A 
ATOM     64  F   UNL     1       3.750  14.173   5.622  1.00  0.00    -0.206 F 
ATOM     65  C   UNL     1       2.673  15.588   4.095  1.00  0.00     0.059 A 
ATOM     66  C   UNL     1       3.490  15.754   1.814  1.00  0.00     0.059 A 
ATOM     67  F   UNL     1       5.327  14.463   1.138  1.00  0.00    -0.206 F 
ATOM     68  C   UNL     1       2.583  16.120   2.808  1.00  0.00     0.060 A 
BRANCH  68  69
ATOM     69  S   UNL     1       1.266  17.305   2.460  1.00  0.00     0.124 S 
ATOM     70  O   UNL     1       0.088  16.443   2.473  1.00  0.00    -0.237 OA
ATOM     71  O   UNL     1       1.382  18.236   3.577  1.00  0.00    -0.237 OA
ATOM     72  O   UNL     1       1.631  17.846   1.155  1.00  0.00    -0.744 OA
ENDBRANCH  68  69
ENDBRANCH  47  61
BRANCH  48  73
ATOM     73  C   UNL     1      11.642   7.478   5.545  1.00  0.00     0.058 A 
ATOM     74  C   UNL     1      12.438   7.562   6.698  1.00  0.00     0.135 A 
ATOM     75  C   UNL     1      11.884   6.414   4.663  1.00  0.00     0.135 A 
ATOM     76  F   UNL     1      12.248   8.562   7.573  1.00  0.00    -0.206 F 
ATOM     77  C   UNL     1      13.458   6.649   6.949  1.00  0.00     0.059 A 
ATOM     78  C   UNL     1      12.877   5.471   4.907  1.00  0.00     0.059 A 
ATOM     79  F   UNL     1      11.138   6.274   3.556  1.00  0.00    -0.206 F 
ATOM     80  C   UNL     1      13.671   5.607   6.045  1.00  0.00     0.060 A 
BRANCH  80  81
ATOM     81  S   UNL     1      14.983   4.415   6.390  1.00  0.00     0.124 S 
ATOM     82  O   UNL     1      16.176   5.204   6.109  1.00  0.00    -0.237 OA
ATOM     83  O   UNL     1      14.744   4.093   7.793  1.00  0.00    -0.237 OA
ATOM     84  O   UNL     1      14.706   3.332   5.451  1.00  0.00    -0.744 OA
ENDBRANCH  80  81
ENDBRANCH  48  73
BRANCH  60  85
ATOM     85  C   UNL     1      11.796  14.295   4.077  1.00  0.00     0.058 A 
ATOM     86  C   UNL     1      12.738  14.262   3.036  1.00  0.00     0.135 A 
ATOM     87  C   UNL     1      11.915  15.315   5.035  1.00  0.00     0.135 A 
ATOM     88  F   UNL     1      12.673  13.305   2.096  1.00  0.00    -0.206 F 
ATOM     89  C   UNL     1      13.778  15.182   2.968  1.00  0.00     0.059 A 
ATOM     90  C   UNL     1      12.928  16.266   4.968  1.00  0.00     0.059 A 
ATOM     91  F   UNL     1      11.034  15.402   6.044  1.00  0.00    -0.206 F 
ATOM     92  C   UNL     1      13.865  16.181   3.940  1.00  0.00     0.060 A 
BRANCH  92  93
ATOM     93  S   UNL     1      15.212  17.378   3.831  1.00  0.00     0.124 S 
ATOM     94  O   UNL     1      16.356  16.571   4.241  1.00  0.00    -0.237 OA
ATOM     95  O   UNL     1      15.177  17.760   2.423  1.00  0.00    -0.237 OA
ATOM     96  O   UNL     1      14.813  18.424   4.768  1.00  0.00    -0.744 OA
ENDBRANCH  92  93
ENDBRANCH  60  85
ENDBRANCH  34  35
ENDBRANCH  26  29
ENDBRANCH  24  25
ENDBRANCH   1  24
TORSDOF 16
