REMARK SMILES O=C(CCC(=O)N1CCCn2nc(-c3ccccc3)cc21)NCCCCNC(=O)c1ccc(-c2c3nc(c(-c4c(F)cc(S(=O)(=O)[O-])cc4F)c4ccc([nH]4)c(-c4c(F)cc(S(=O)(=O)[O-])cc4F)c4nc(c(-c5c(F)cc(S(=O)(=O)[O-])cc5F)c5ccc2[nH]5)C=C4)C=C3)cc1
REMARK SMILES IDX 24 1 23 2 22 3 1 4 2 5 3 7 4 8 5 9 6 10 7 11 8 12 21 13 9 14
REMARK SMILES IDX 11 15 20 16 10 17 12 18 13 19 14 20 15 21 19 22 16 23 18 24
REMARK SMILES IDX 17 25 25 26 26 27 27 28 28 29 29 31 30 32 31 33 95 34 32 35
REMARK SMILES IDX 94 36 33 37 34 38 35 39 88 40 36 41 93 42 87 43 89 44 37 45
REMARK SMILES IDX 92 46 86 47 85 48 38 50 72 51 51 52 71 53 52 54 55 55 70 56
REMARK SMILES IDX 90 57 53 58 54 59 69 61 91 62 56 63 39 64 40 65 49 66 41 67
REMARK SMILES IDX 42 68 48 69 50 70 43 71 44 72 45 73 46 74 47 75 73 76 74 77
REMARK SMILES IDX 83 78 75 79 76 80 82 81 84 82 77 83 78 84 79 85 80 86 81 87
REMARK SMILES IDX 57 88 58 89 67 90 59 91 60 92 66 93 68 94 61 95 62 96 63 97
REMARK SMILES IDX 64 98 65 99
REMARK H PARENT 22 6 27 30 89 49 55 60
REMARK Flexibility Score: inf
ROOT
ATOM      1  C   UNL     1       2.368   2.052  -3.672  1.00  0.00     0.023 C 
ENDROOT
BRANCH   1   2
ATOM      2  C   UNL     1       1.648   1.585  -2.381  1.00  0.00     0.116 C 
BRANCH   2   3
ATOM      3  N   UNL     1       2.427   1.650  -1.149  1.00  0.00    -0.356 N 
ATOM      4  O   UNL     1       1.203   0.041  -0.063  1.00  0.00    -0.275 OA
ATOM      5  C   UNL     1       2.199   0.757  -0.114  1.00  0.00     0.220 C 
ATOM      6  H   UNL     1       3.125   2.337  -1.052  1.00  0.00     0.163 HD
BRANCH   5   7
ATOM      7  C   UNL     1       3.382   0.551   0.828  1.00  0.00     0.110 C 
BRANCH   7   8
ATOM      8  C   UNL     1       3.632  -0.946   1.107  1.00  0.00     0.110 C 
BRANCH   8   9
ATOM      9  C   UNL     1       4.735  -1.652   0.307  1.00  0.00     0.228 C 
ATOM     10  O   UNL     1       5.833  -1.896   0.803  1.00  0.00    -0.274 OA
BRANCH   9  11
ATOM     11  N   UNL     1       4.448  -2.114  -1.042  1.00  0.00    -0.297 N 
ATOM     12  C   UNL     1       3.324  -1.511  -1.778  1.00  0.00     0.129 C 
ATOM     13  C   UNL     1       5.198  -3.085  -1.719  1.00  0.00     0.134 A 
ATOM     14  C   UNL     1       3.456  -1.611  -3.286  1.00  0.00     0.046 C 
ATOM     15  N   UNL     1       4.847  -3.512  -2.973  1.00  0.00    -0.249 N 
ATOM     16  C   UNL     1       6.320  -3.822  -1.404  1.00  0.00     0.077 A 
ATOM     17  C   UNL     1       3.696  -3.034  -3.701  1.00  0.00     0.148 C 
ATOM     18  N   UNL     1       5.686  -4.357  -3.538  1.00  0.00    -0.171 NA
ATOM     19  C   UNL     1       6.586  -4.603  -2.576  1.00  0.00     0.095 A 
BRANCH  19  20
ATOM     20  C   UNL     1       7.594  -5.608  -2.861  1.00  0.00     0.002 A 
ATOM     21  C   UNL     1       8.522  -5.380  -3.888  1.00  0.00     0.010 A 
ATOM     22  C   UNL     1       7.478  -6.883  -2.298  1.00  0.00     0.010 A 
ATOM     23  C   UNL     1       9.313  -6.427  -4.361  1.00  0.00     0.001 A 
ATOM     24  C   UNL     1       8.265  -7.929  -2.783  1.00  0.00     0.001 A 
ATOM     25  C   UNL     1       9.174  -7.702  -3.818  1.00  0.00     0.000 A 
ENDBRANCH  19  20
ENDBRANCH   9  11
ENDBRANCH   8   9
ENDBRANCH   7   8
ENDBRANCH   5   7
ENDBRANCH   2   3
ENDBRANCH   1   2
BRANCH   1  26
ATOM     26  C   UNL     1       3.900   1.898  -3.691  1.00  0.00     0.023 C 
BRANCH  26  27
ATOM     27  C   UNL     1       4.620   1.446  -4.982  1.00  0.00     0.116 C 
BRANCH  27  28
ATOM     28  N   UNL     1       3.941   0.464  -5.808  1.00  0.00    -0.352 N 
ATOM     29  C   UNL     1       4.492  -0.310  -6.812  1.00  0.00     0.251 C 
ATOM     30  H   UNL     1       2.980   0.335  -5.634  1.00  0.00     0.163 HD
ATOM     31  O   UNL     1       3.751  -0.858  -7.622  1.00  0.00    -0.269 OA
BRANCH  29  32
ATOM     32  C   UNL     1       5.960  -0.467  -6.927  1.00  0.00     0.039 A 
ATOM     33  C   UNL     1       6.615  -0.007  -8.074  1.00  0.00     0.014 A 
ATOM     34  C   UNL     1       6.686  -1.119  -5.927  1.00  0.00     0.014 A 
ATOM     35  C   UNL     1       8.007  -0.134  -8.182  1.00  0.00     0.010 A 
ATOM     36  C   UNL     1       8.079  -1.221  -6.026  1.00  0.00     0.010 A 
ATOM     37  C   UNL     1       8.759  -0.711  -7.143  1.00  0.00    -0.014 A 
BRANCH  37  38
ATOM     38  C   UNL     1      10.251  -0.705  -7.174  1.00  0.00     0.031 A 
ATOM     39  C   UNL     1      11.046  -1.978  -7.300  1.00  0.00     0.074 A 
ATOM     40  C   UNL     1      10.905   0.464  -7.015  1.00  0.00     0.049 A 
ATOM     41  N   UNL     1      12.345  -2.142  -7.289  1.00  0.00    -0.248 NA
ATOM     42  C   UNL     1      10.284  -3.227  -7.442  1.00  0.00     0.031 C 
ATOM     43  C   UNL     1      10.266   1.770  -6.840  1.00  0.00     0.029 A 
ATOM     44  N   UNL     1      12.250   0.745  -6.959  1.00  0.00    -0.354 N 
ATOM     45  C   UNL     1      12.563  -3.509  -7.424  1.00  0.00     0.074 A 
ATOM     46  C   UNL     1      11.255  -4.132  -7.476  1.00  0.00     0.031 C 
ATOM     47  C   UNL     1      11.214   2.710  -6.704  1.00  0.00     0.029 A 
ATOM     48  C   UNL     1      12.529   2.075  -6.750  1.00  0.00     0.049 A 
ATOM     49  H   UNL     1      12.947   0.058  -7.059  1.00  0.00     0.167 HD
ATOM     50  C   UNL     1      13.739  -4.180  -7.511  1.00  0.00     0.037 A 
ATOM     51  C   UNL     1      13.704   2.718  -6.600  1.00  0.00     0.037 A 
ATOM     52  C   UNL     1      15.043  -3.565  -7.470  1.00  0.00     0.049 A 
ATOM     53  C   UNL     1      14.994   1.951  -6.688  1.00  0.00     0.074 A 
ATOM     54  C   UNL     1      16.284  -4.168  -7.608  1.00  0.00     0.029 A 
ATOM     55  N   UNL     1      15.283  -2.213  -7.272  1.00  0.00    -0.354 N 
ATOM     56  N   UNL     1      15.176   0.667  -6.880  1.00  0.00    -0.248 NA
ATOM     57  C   UNL     1      16.239   2.720  -6.549  1.00  0.00     0.031 C 
ATOM     58  C   UNL     1      17.272  -3.190  -7.449  1.00  0.00     0.029 A 
ATOM     59  C   UNL     1      16.648  -1.968  -7.259  1.00  0.00     0.049 A 
ATOM     60  H   UNL     1      14.585  -1.528  -7.156  1.00  0.00     0.167 HD
ATOM     61  C   UNL     1      16.554   0.479  -6.910  1.00  0.00     0.074 A 
ATOM     62  C   UNL     1      17.159   1.781  -6.727  1.00  0.00     0.031 C 
ATOM     63  C   UNL     1      17.251  -0.671  -7.079  1.00  0.00     0.037 A 
BRANCH  50  64
ATOM     64  C   UNL     1      13.678  -5.677  -7.660  1.00  0.00     0.058 A 
ATOM     65  C   UNL     1      13.262  -6.279  -8.858  1.00  0.00     0.135 A 
ATOM     66  C   UNL     1      14.093  -6.518  -6.614  1.00  0.00     0.135 A 
ATOM     67  F   UNL     1      12.849  -5.523  -9.887  1.00  0.00    -0.206 F 
ATOM     68  C   UNL     1      13.228  -7.663  -9.003  1.00  0.00     0.059 A 
ATOM     69  C   UNL     1      14.092  -7.904  -6.746  1.00  0.00     0.059 A 
ATOM     70  F   UNL     1      14.508  -5.995  -5.450  1.00  0.00    -0.206 F 
ATOM     71  C   UNL     1      13.640  -8.467  -7.939  1.00  0.00     0.060 A 
BRANCH  71  72
ATOM     72  S   UNL     1      13.571 -10.260  -8.133  1.00  0.00     0.124 S 
ATOM     73  O   UNL     1      12.136 -10.505  -8.023  1.00  0.00    -0.237 OA
ATOM     74  O   UNL     1      14.148 -10.454  -9.460  1.00  0.00    -0.237 OA
ATOM     75  O   UNL     1      14.378 -10.753  -7.022  1.00  0.00    -0.744 OA
ENDBRANCH  71  72
ENDBRANCH  50  64
BRANCH  51  76
ATOM     76  C   UNL     1      13.715   4.186  -6.365  1.00  0.00     0.058 A 
ATOM     77  C   UNL     1      14.139   5.074  -7.365  1.00  0.00     0.135 A 
ATOM     78  C   UNL     1      13.285   4.729  -5.145  1.00  0.00     0.135 A 
ATOM     79  F   UNL     1      14.566   4.599  -8.545  1.00  0.00    -0.206 F 
ATOM     80  C   UNL     1      14.146   6.449  -7.161  1.00  0.00     0.059 A 
ATOM     81  C   UNL     1      13.261   6.102  -4.925  1.00  0.00     0.059 A 
ATOM     82  F   UNL     1      12.852   3.921  -4.164  1.00  0.00    -0.206 F 
ATOM     83  C   UNL     1      13.701   6.954  -5.938  1.00  0.00     0.060 A 
BRANCH  83  84
ATOM     84  S   UNL     1      13.646   8.743  -5.704  1.00  0.00     0.124 S 
ATOM     85  O   UNL     1      15.056   9.057  -5.513  1.00  0.00    -0.237 OA
ATOM     86  O   UNL     1      13.052   9.197  -6.958  1.00  0.00    -0.237 OA
ATOM     87  O   UNL     1      12.796   8.898  -4.527  1.00  0.00    -0.744 OA
ENDBRANCH  83  84
ENDBRANCH  51  76
BRANCH  63  88
ATOM     88  C   UNL     1      18.753  -0.578  -7.103  1.00  0.00     0.058 A 
ATOM     89  C   UNL     1      19.497  -0.342  -5.936  1.00  0.00     0.135 A 
ATOM     90  C   UNL     1      19.459  -0.767  -8.302  1.00  0.00     0.135 A 
ATOM     91  F   UNL     1      18.872  -0.145  -4.764  1.00  0.00    -0.206 F 
ATOM     92  C   UNL     1      20.887  -0.276  -5.960  1.00  0.00     0.059 A 
ATOM     93  C   UNL     1      20.850  -0.730  -8.345  1.00  0.00     0.059 A 
ATOM     94  F   UNL     1      18.798  -1.002  -9.446  1.00  0.00    -0.206 F 
ATOM     95  C   UNL     1      21.555  -0.472  -7.171  1.00  0.00     0.060 A 
BRANCH  95  96
ATOM     96  S   UNL     1      23.360  -0.416  -7.184  1.00  0.00     0.124 S 
ATOM     97  O   UNL     1      23.610   1.017  -7.071  1.00  0.00    -0.237 OA
ATOM     98  O   UNL     1      23.707  -1.214  -6.012  1.00  0.00    -0.237 OA
ATOM     99  O   UNL     1      23.709  -1.016  -8.468  1.00  0.00    -0.744 OA
ENDBRANCH  95  96
ENDBRANCH  63  88
ENDBRANCH  37  38
ENDBRANCH  29  32
ENDBRANCH  27  28
ENDBRANCH  26  27
ENDBRANCH   1  26
TORSDOF 18
