REMARK SMILES Cc1cccc(OC2(C(=O)NCCCCNC(=O)c3ccc(-c4c5nc(c(-c6c(F)cc(S(=O)(=O)[O-])cc6F)c6ccc([nH]6)c(-c6c(F)cc(S(=O)(=O)[O-])cc6F)c6nc(c(-c7c(F)cc(S(=O)(=O)[O-])cc7F)c7ccc4[nH]7)C=C6)C=C5)cc3)CCN(C(=O)c3cnc[nH]c3=O)CC2)c1
REMARK SMILES IDX 14 1 13 2 12 3 11 4 9 5 10 6 8 8 85 9 98 10 86 11 97 12
REMARK SMILES IDX 87 13 88 14 89 15 7 16 6 17 1 18 2 19 3 20 99 21 4 22 5 23
REMARK SMILES IDX 90 24 91 25 95 26 92 27 94 28 96 29 93 30 15 32 16 33 17 34
REMARK SMILES IDX 18 36 19 37 20 38 84 39 21 40 83 41 22 42 23 43 24 44 77 45
REMARK SMILES IDX 25 46 82 47 76 48 78 49 26 50 81 51 75 52 74 53 27 55 61 56
REMARK SMILES IDX 40 57 60 58 41 59 44 60 59 61 79 62 42 63 43 64 58 66 80 67
REMARK SMILES IDX 45 68 28 69 29 70 38 71 30 72 31 73 37 74 39 75 32 76 33 77
REMARK SMILES IDX 34 78 35 79 36 80 62 81 63 82 72 83 64 84 65 85 71 86 73 87
REMARK SMILES IDX 66 88 67 89 68 90 69 91 70 92 46 93 47 94 56 95 48 96 49 97
REMARK SMILES IDX 55 98 57 99 50 100 51 101 52 102 53 103 54 104
REMARK H PARENT 11 7 94 31 16 35 78 54 44 65
REMARK Flexibility Score: inf
ROOT
ATOM      1  C   UNL     1       2.121   6.145  -3.002  1.00  0.00     0.023 C 
ENDROOT
BRANCH   1   2
ATOM      2  C   UNL     1       1.661   6.543  -1.606  1.00  0.00     0.023 C 
BRANCH   2   3
ATOM      3  C   UNL     1       0.131   6.600  -1.383  1.00  0.00     0.116 C 
BRANCH   3   4
ATOM      4  N   UNL     1      -0.672   5.461  -1.849  1.00  0.00    -0.353 N 
ATOM      5  C   UNL     1      -1.159   4.312  -1.285  1.00  0.00     0.264 C 
ATOM      6  O   UNL     1      -2.065   3.763  -1.930  1.00  0.00    -0.270 OA
ATOM      7  H   UNL     1      -0.921   5.544  -2.798  1.00  0.00     0.163 HD
BRANCH   5   8
ATOM      8  C   UNL     1      -0.656   3.689   0.061  1.00  0.00     0.190 C 
ATOM      9  C   UNL     1       0.841   3.919   0.210  1.00  0.00     0.080 C 
ATOM     10  C   UNL     1      -1.397   4.359   1.254  1.00  0.00     0.080 C 
ATOM     11  C   UNL     1       1.420   3.576   1.562  1.00  0.00     0.124 C 
ATOM     12  C   UNL     1      -0.752   3.978   2.601  1.00  0.00     0.124 C 
ATOM     13  N   UNL     1       0.669   4.304   2.563  1.00  0.00    -0.338 N 
ATOM     14  C   UNL     1       1.166   5.522   3.000  1.00  0.00     0.261 C 
ATOM     15  O   UNL     1       1.960   6.201   2.356  1.00  0.00    -0.269 OA
BRANCH   8  16
ATOM     16  O   UNL     1      -1.153   2.333   0.088  1.00  0.00    -0.477 OA
BRANCH  16  17
ATOM     17  C   UNL     1      -0.546   1.132  -0.027  1.00  0.00     0.121 A 
ATOM     18  C   UNL     1       2.760  -0.747  -0.113  1.00  0.00     0.044 C 
ATOM     19  C   UNL     1       1.283  -0.478  -0.091  1.00  0.00    -0.047 A 
ATOM     20  C   UNL     1       0.376  -1.533   0.018  1.00  0.00     0.003 A 
ATOM     21  C   UNL     1       0.804   0.842  -0.165  1.00  0.00     0.049 A 
ATOM     22  C   UNL     1      -0.988  -1.268   0.075  1.00  0.00     0.004 A 
ATOM     23  C   UNL     1      -1.437   0.055   0.065  1.00  0.00     0.046 A 
ENDBRANCH  16  17
ENDBRANCH   8  16
BRANCH  14  24
ATOM     24  C   UNL     1       0.755   5.930   4.350  1.00  0.00     0.123 A 
ATOM     25  C   UNL     1       0.191   7.126   4.564  1.00  0.00     0.132 A 
ATOM     26  C   UNL     1       1.041   5.092   5.528  1.00  0.00     0.263 A 
ATOM     27  N   UNL     1      -0.194   7.604   5.796  1.00  0.00    -0.246 NA
ATOM     28  N   UNL     1       0.672   5.635   6.725  1.00  0.00    -0.312 N 
ATOM     29  O   UNL     1       1.579   3.991   5.473  1.00  0.00    -0.269 OA
ATOM     30  C   UNL     1       0.072   6.855   6.811  1.00  0.00     0.199 A 
ATOM     31  H   UNL     1       0.846   5.130   7.552  1.00  0.00     0.171 HD
ENDBRANCH  14  24
ENDBRANCH   5   8
ENDBRANCH   3   4
ENDBRANCH   2   3
ENDBRANCH   1   2
BRANCH   1  32
ATOM     32  C   UNL     1       2.143   7.332  -3.942  1.00  0.00     0.116 C 
BRANCH  32  33
ATOM     33  N   UNL     1       3.413   8.048  -3.982  1.00  0.00    -0.352 N 
ATOM     34  C   UNL     1       3.706   9.189  -4.715  1.00  0.00     0.251 C 
ATOM     35  H   UNL     1       4.141   7.682  -3.429  1.00  0.00     0.163 HD
ATOM     36  O   UNL     1       4.841   9.604  -4.867  1.00  0.00    -0.269 OA
BRANCH  34  37
ATOM     37  C   UNL     1       2.543   9.941  -5.232  1.00  0.00     0.039 A 
ATOM     38  C   UNL     1       2.216  11.132  -4.574  1.00  0.00     0.014 A 
ATOM     39  C   UNL     1       1.621   9.279  -6.037  1.00  0.00     0.014 A 
ATOM     40  C   UNL     1       0.891  11.556  -4.555  1.00  0.00     0.010 A 
ATOM     41  C   UNL     1       0.294   9.638  -5.925  1.00  0.00     0.010 A 
ATOM     42  C   UNL     1      -0.077  10.749  -5.148  1.00  0.00    -0.014 A 
BRANCH  42  43
ATOM     43  C   UNL     1      -1.513  10.948  -4.981  1.00  0.00     0.031 A 
ATOM     44  C   UNL     1      -2.315  11.406  -6.138  1.00  0.00     0.074 A 
ATOM     45  C   UNL     1      -2.121  10.615  -3.821  1.00  0.00     0.049 A 
ATOM     46  N   UNL     1      -3.513  11.875  -6.070  1.00  0.00    -0.248 NA
ATOM     47  C   UNL     1      -1.778  11.413  -7.494  1.00  0.00     0.031 C 
ATOM     48  C   UNL     1      -3.549  10.401  -3.604  1.00  0.00     0.029 A 
ATOM     49  N   UNL     1      -1.572  10.600  -2.539  1.00  0.00    -0.354 N 
ATOM     50  C   UNL     1      -4.001  11.987  -7.355  1.00  0.00     0.074 A 
ATOM     51  C   UNL     1      -2.862  11.733  -8.204  1.00  0.00     0.031 C 
ATOM     52  C   UNL     1      -3.814  10.508  -2.293  1.00  0.00     0.029 A 
ATOM     53  C   UNL     1      -2.596  10.955  -1.641  1.00  0.00     0.049 A 
ATOM     54  H   UNL     1      -0.641  10.382  -2.305  1.00  0.00     0.167 HD
ATOM     55  C   UNL     1      -5.342  12.158  -7.546  1.00  0.00     0.037 A 
ATOM     56  C   UNL     1      -2.503  12.087  -0.881  1.00  0.00     0.037 A 
ATOM     57  C   UNL     1      -6.021  12.376  -6.268  1.00  0.00     0.049 A 
ATOM     58  C   UNL     1      -3.574  13.117  -1.178  1.00  0.00     0.074 A 
ATOM     59  C   UNL     1      -6.711  11.531  -5.413  1.00  0.00     0.029 A 
ATOM     60  N   UNL     1      -5.767  13.540  -5.547  1.00  0.00    -0.354 N 
ATOM     61  N   UNL     1      -4.323  13.107  -2.246  1.00  0.00    -0.248 NA
ATOM     62  C   UNL     1      -3.875  14.245  -0.300  1.00  0.00     0.031 C 
ATOM     63  C   UNL     1      -6.798  12.162  -4.146  1.00  0.00     0.029 A 
ATOM     64  C   UNL     1      -6.186  13.401  -4.237  1.00  0.00     0.049 A 
ATOM     65  H   UNL     1      -5.346  14.348  -5.918  1.00  0.00     0.167 HD
ATOM     66  C   UNL     1      -5.150  14.202  -2.241  1.00  0.00     0.074 A 
ATOM     67  C   UNL     1      -4.853  14.865  -0.984  1.00  0.00     0.031 C 
ATOM     68  C   UNL     1      -6.000  14.479  -3.275  1.00  0.00     0.037 A 
BRANCH  55  69
ATOM     69  C   UNL     1      -6.058  11.817  -8.844  1.00  0.00     0.058 A 
ATOM     70  C   UNL     1      -7.395  11.358  -8.830  1.00  0.00     0.135 A 
ATOM     71  C   UNL     1      -5.469  11.836 -10.124  1.00  0.00     0.135 A 
ATOM     72  F   UNL     1      -8.134  11.386  -7.713  1.00  0.00    -0.206 F 
ATOM     73  C   UNL     1      -8.038  10.840  -9.958  1.00  0.00     0.059 A 
ATOM     74  C   UNL     1      -6.066  11.267 -11.254  1.00  0.00     0.059 A 
ATOM     75  F   UNL     1      -4.311  12.466 -10.351  1.00  0.00    -0.206 F 
ATOM     76  C   UNL     1      -7.351  10.758 -11.159  1.00  0.00     0.060 A 
BRANCH  76  77
ATOM     77  S   UNL     1      -8.158  10.004 -12.583  1.00  0.00     0.124 S 
ATOM     78  O   UNL     1      -8.553   8.699 -12.060  1.00  0.00    -0.237 OA
ATOM     79  O   UNL     1      -9.247  10.939 -12.845  1.00  0.00    -0.237 OA
ATOM     80  O   UNL     1      -7.105   9.971 -13.595  1.00  0.00    -0.744 OA
ENDBRANCH  76  77
ENDBRANCH  55  69
BRANCH  56  81
ATOM     81  C   UNL     1      -1.108  12.385  -0.453  1.00  0.00     0.058 A 
ATOM     82  C   UNL     1      -0.488  11.472   0.424  1.00  0.00     0.135 A 
ATOM     83  C   UNL     1      -0.279  13.229  -1.204  1.00  0.00     0.135 A 
ATOM     84  F   UNL     1      -1.238  10.648   1.175  1.00  0.00    -0.206 F 
ATOM     85  C   UNL     1       0.888  11.283   0.429  1.00  0.00     0.059 A 
ATOM     86  C   UNL     1       1.108  13.063  -1.207  1.00  0.00     0.059 A 
ATOM     87  F   UNL     1      -0.811  14.118  -2.056  1.00  0.00    -0.206 F 
ATOM     88  C   UNL     1       1.670  12.040  -0.442  1.00  0.00     0.060 A 
BRANCH  88  89
ATOM     89  S   UNL     1       3.381  11.515  -0.704  1.00  0.00     0.124 S 
ATOM     90  O   UNL     1       3.950  11.662   0.631  1.00  0.00    -0.237 OA
ATOM     91  O   UNL     1       3.191  10.142  -1.168  1.00  0.00    -0.237 OA
ATOM     92  O   UNL     1       3.869  12.455  -1.706  1.00  0.00    -0.744 OA
ENDBRANCH  88  89
ENDBRANCH  56  81
BRANCH  68  93
ATOM     93  C   UNL     1      -6.801  15.749  -3.443  1.00  0.00     0.058 A 
ATOM     94  C   UNL     1      -6.378  17.012  -2.995  1.00  0.00     0.135 A 
ATOM     95  C   UNL     1      -7.992  15.743  -4.210  1.00  0.00     0.135 A 
ATOM     96  F   UNL     1      -5.212  17.168  -2.353  1.00  0.00    -0.206 F 
ATOM     97  C   UNL     1      -7.115  18.176  -3.230  1.00  0.00     0.059 A 
ATOM     98  C   UNL     1      -8.712  16.898  -4.504  1.00  0.00     0.059 A 
ATOM     99  F   UNL     1      -8.493  14.604  -4.714  1.00  0.00    -0.206 F 
ATOM    100  C   UNL     1      -8.281  18.110  -3.986  1.00  0.00     0.060 A 
BRANCH 100 101
ATOM    101  S   UNL     1      -9.207  19.612  -4.351  1.00  0.00     0.124 S 
ATOM    102  O   UNL     1     -10.181  19.625  -3.264  1.00  0.00    -0.237 OA
ATOM    103  O   UNL     1      -8.183  20.651  -4.291  1.00  0.00    -0.237 OA
ATOM    104  O   UNL     1      -9.746  19.353  -5.682  1.00  0.00    -0.744 OA
ENDBRANCH 100 101
ENDBRANCH  68  93
ENDBRANCH  42  43
ENDBRANCH  34  37
ENDBRANCH  32  33
ENDBRANCH   1  32
TORSDOF 17
