REMARK SMILES O=C(NCCCCNC(=O)c1ccc(N[C@@H]2CCCS(=O)(=O)C2)c(F)c1F)c1ccc(-c2c3nc(c(-c4c(F)cc(S(=O)(=O)[O-])cc4F)c4ccc([nH]4)c(-c4c(F)cc(S(=O)(=O)[O-])cc4F)c4nc(c(-c5c(F)cc(S(=O)(=O)[O-])cc5F)c5ccc2[nH]5)C=C4)C=C3)cc1
REMARK SMILES IDX 5 1 4 2 3 3 1 4 2 5 28 7 29 8 93 9 30 10 92 11 31 12 32 13
REMARK SMILES IDX 33 14 86 15 34 16 91 17 85 18 87 19 35 20 90 21 84 22 83 23
REMARK SMILES IDX 36 25 70 26 49 27 69 28 50 29 53 30 68 31 88 32 51 33 52 34
REMARK SMILES IDX 67 36 89 37 54 38 37 39 38 40 47 41 39 42 40 43 46 44 48 45
REMARK SMILES IDX 41 46 42 47 43 48 44 49 45 50 71 51 72 52 81 53 73 54 74 55
REMARK SMILES IDX 80 56 82 57 75 58 76 59 77 60 78 61 79 62 55 63 56 64 65 65
REMARK SMILES IDX 57 66 58 67 64 68 66 69 59 70 60 71 61 72 62 73 63 74 6 75
REMARK SMILES IDX 7 76 8 77 9 78 10 80 11 81 12 82 26 83 13 84 24 85 27 86
REMARK SMILES IDX 14 87 25 88 15 89 16 91 17 92 23 93 18 94 20 95 19 96 21 97
REMARK SMILES IDX 22 98
REMARK H PARENT 3 6 87 24 53 35 8 79 15 90
REMARK Flexibility Score: inf
ROOT
ATOM      1  C   UNL     1       4.939   1.859  -1.862  1.00  0.00     0.023 C 
ENDROOT
BRANCH   1   2
ATOM      2  C   UNL     1       4.582   1.275  -0.503  1.00  0.00     0.116 C 
BRANCH   2   3
ATOM      3  N   UNL     1       3.145   1.189  -0.279  1.00  0.00    -0.352 N 
ATOM      4  O   UNL     1       1.155   0.168   0.018  1.00  0.00    -0.269 OA
ATOM      5  C   UNL     1       2.378   0.081  -0.000  1.00  0.00     0.251 C 
ATOM      6  H   UNL     1       2.655   2.041  -0.334  1.00  0.00     0.163 HD
BRANCH   5   7
ATOM      7  C   UNL     1       3.041  -1.218   0.247  1.00  0.00     0.039 A 
ATOM      8  C   UNL     1       4.154  -1.289   1.087  1.00  0.00     0.014 A 
ATOM      9  C   UNL     1       2.566  -2.366  -0.391  1.00  0.00     0.014 A 
ATOM     10  C   UNL     1       4.889  -2.465   1.156  1.00  0.00     0.010 A 
ATOM     11  C   UNL     1       3.249  -3.577  -0.235  1.00  0.00     0.010 A 
ATOM     12  C   UNL     1       4.435  -3.629   0.514  1.00  0.00    -0.014 A 
BRANCH  12  13
ATOM     13  C   UNL     1       5.179  -4.899   0.716  1.00  0.00     0.031 A 
ATOM     14  C   UNL     1       5.840  -5.615  -0.429  1.00  0.00     0.074 A 
ATOM     15  C   UNL     1       5.278  -5.385   1.970  1.00  0.00     0.049 A 
ATOM     16  N   UNL     1       6.539  -6.722  -0.411  1.00  0.00    -0.248 NA
ATOM     17  C   UNL     1       5.695  -5.023  -1.768  1.00  0.00     0.031 C 
ATOM     18  C   UNL     1       4.665  -4.779   3.156  1.00  0.00     0.029 A 
ATOM     19  N   UNL     1       5.939  -6.479   2.463  1.00  0.00    -0.354 N 
ATOM     20  C   UNL     1       6.903  -6.969  -1.730  1.00  0.00     0.074 A 
ATOM     21  C   UNL     1       6.326  -5.909  -2.528  1.00  0.00     0.031 C 
ATOM     22  C   UNL     1       5.017  -5.480   4.242  1.00  0.00     0.029 A 
ATOM     23  C   UNL     1       5.817  -6.624   3.825  1.00  0.00     0.049 A 
ATOM     24  H   UNL     1       6.450  -7.101   1.898  1.00  0.00     0.167 HD
ATOM     25  C   UNL     1       7.656  -7.984  -2.222  1.00  0.00     0.037 A 
ATOM     26  C   UNL     1       6.276  -7.584   4.649  1.00  0.00     0.037 A 
ATOM     27  C   UNL     1       8.233  -9.028  -1.411  1.00  0.00     0.049 A 
ATOM     28  C   UNL     1       7.082  -8.710   4.072  1.00  0.00     0.074 A 
ATOM     29  C   UNL     1       9.039 -10.081  -1.811  1.00  0.00     0.029 A 
ATOM     30  N   UNL     1       8.063  -9.158  -0.040  1.00  0.00    -0.354 N 
ATOM     31  N   UNL     1       7.444  -8.908   2.827  1.00  0.00    -0.248 NA
ATOM     32  C   UNL     1       7.540  -9.744   5.007  1.00  0.00     0.031 C 
ATOM     33  C   UNL     1       9.313 -10.875  -0.692  1.00  0.00     0.029 A 
ATOM     34  C   UNL     1       8.726 -10.286   0.417  1.00  0.00     0.049 A 
ATOM     35  H   UNL     1       7.548  -8.539   0.526  1.00  0.00     0.167 HD
ATOM     36  C   UNL     1       8.187 -10.082   2.831  1.00  0.00     0.074 A 
ATOM     37  C   UNL     1       8.240 -10.536   4.206  1.00  0.00     0.031 C 
ATOM     38  C   UNL     1       8.769 -10.726   1.790  1.00  0.00     0.037 A 
BRANCH  25  39
ATOM     39  C   UNL     1       7.889  -8.033  -3.709  1.00  0.00     0.058 A 
ATOM     40  C   UNL     1       8.731  -7.116  -4.359  1.00  0.00     0.135 A 
ATOM     41  C   UNL     1       7.310  -9.050  -4.488  1.00  0.00     0.135 A 
ATOM     42  F   UNL     1       9.302  -6.116  -3.669  1.00  0.00    -0.206 F 
ATOM     43  C   UNL     1       8.972  -7.191  -5.728  1.00  0.00     0.059 A 
ATOM     44  C   UNL     1       7.558  -9.160  -5.854  1.00  0.00     0.059 A 
ATOM     45  F   UNL     1       6.498  -9.956  -3.920  1.00  0.00    -0.206 F 
ATOM     46  C   UNL     1       8.382  -8.218  -6.467  1.00  0.00     0.060 A 
BRANCH  46  47
ATOM     47  S   UNL     1       8.713  -8.306  -8.240  1.00  0.00     0.124 S 
ATOM     48  O   UNL     1       7.950  -7.164  -8.736  1.00  0.00    -0.237 OA
ATOM     49  O   UNL     1      10.165  -8.169  -8.294  1.00  0.00    -0.237 OA
ATOM     50  O   UNL     1       8.196  -9.617  -8.620  1.00  0.00    -0.744 OA
ENDBRANCH  46  47
ENDBRANCH  25  39
BRANCH  26  51
ATOM     51  C   UNL     1       5.965  -7.519   6.101  1.00  0.00     0.058 A 
ATOM     52  C   UNL     1       6.967  -7.269   7.048  1.00  0.00     0.135 A 
ATOM     53  C   UNL     1       4.649  -7.679   6.567  1.00  0.00     0.135 A 
ATOM     54  F   UNL     1       8.240  -7.111   6.652  1.00  0.00    -0.206 F 
ATOM     55  C   UNL     1       6.682  -7.195   8.407  1.00  0.00     0.059 A 
ATOM     56  C   UNL     1       4.334  -7.578   7.917  1.00  0.00     0.059 A 
ATOM     57  F   UNL     1       3.650  -7.899   5.698  1.00  0.00    -0.206 F 
ATOM     58  C   UNL     1       5.360  -7.349   8.831  1.00  0.00     0.060 A 
BRANCH  58  59
ATOM     59  S   UNL     1       4.992  -7.206  10.592  1.00  0.00     0.124 S 
ATOM     60  O   UNL     1       5.523  -8.463  11.105  1.00  0.00    -0.237 OA
ATOM     61  O   UNL     1       5.730  -6.002  10.963  1.00  0.00    -0.237 OA
ATOM     62  O   UNL     1       3.539  -7.074  10.622  1.00  0.00    -0.744 OA
ENDBRANCH  58  59
ENDBRANCH  26  51
BRANCH  38  63
ATOM     63  C   UNL     1       9.539 -11.979   2.106  1.00  0.00     0.058 A 
ATOM     64  C   UNL     1       8.892 -13.170   2.470  1.00  0.00     0.135 A 
ATOM     65  C   UNL     1      10.940 -11.995   2.012  1.00  0.00     0.135 A 
ATOM     66  F   UNL     1       7.555 -13.206   2.585  1.00  0.00    -0.206 F 
ATOM     67  C   UNL     1       9.610 -14.327   2.759  1.00  0.00     0.059 A 
ATOM     68  C   UNL     1      11.675 -13.148   2.266  1.00  0.00     0.059 A 
ATOM     69  F   UNL     1      11.607 -10.884   1.659  1.00  0.00    -0.206 F 
ATOM     70  C   UNL     1      11.002 -14.305   2.652  1.00  0.00     0.060 A 
BRANCH  70  71
ATOM     71  S   UNL     1      11.919 -15.820   3.004  1.00  0.00     0.124 S 
ATOM     72  O   UNL     1      11.821 -15.892   4.458  1.00  0.00    -0.237 OA
ATOM     73  O   UNL     1      11.159 -16.824   2.266  1.00  0.00    -0.237 OA
ATOM     74  O   UNL     1      13.252 -15.540   2.477  1.00  0.00    -0.744 OA
ENDBRANCH  70  71
ENDBRANCH  38  63
ENDBRANCH  12  13
ENDBRANCH   5   7
ENDBRANCH   2   3
ENDBRANCH   1   2
BRANCH   1  75
ATOM     75  C   UNL     1       4.500   3.301  -2.077  1.00  0.00     0.023 C 
BRANCH  75  76
ATOM     76  C   UNL     1       4.968   4.280  -1.008  1.00  0.00     0.116 C 
BRANCH  76  77
ATOM     77  N   UNL     1       6.420   4.384  -0.920  1.00  0.00    -0.352 N 
ATOM     78  C   UNL     1       7.207   5.512  -0.964  1.00  0.00     0.254 C 
ATOM     79  H   UNL     1       6.902   3.532  -0.815  1.00  0.00     0.163 HD
ATOM     80  O   UNL     1       8.428   5.443  -0.923  1.00  0.00    -0.269 OA
BRANCH  78  81
ATOM     81  C   UNL     1       6.544   6.820  -1.020  1.00  0.00     0.078 A 
ATOM     82  C   UNL     1       5.615   7.151  -0.035  1.00  0.00     0.019 A 
ATOM     83  C   UNL     1       6.773   7.684  -2.081  1.00  0.00     0.173 A 
ATOM     84  C   UNL     1       4.823   8.286  -0.186  1.00  0.00     0.030 A 
ATOM     85  C   UNL     1       6.007   8.842  -2.192  1.00  0.00     0.182 A 
ATOM     86  F   UNL     1       7.669   7.390  -3.034  1.00  0.00    -0.203 F 
ATOM     87  C   UNL     1       4.988   9.158  -1.269  1.00  0.00     0.074 A 
ATOM     88  F   UNL     1       6.206   9.660  -3.241  1.00  0.00    -0.201 F 
BRANCH  87  89
ATOM     89  N   UNL     1       4.196  10.276  -1.483  1.00  0.00    -0.379 N 
ATOM     90  H   UNL     1       4.494  10.883  -2.199  1.00  0.00     0.160 HD
BRANCH  89  91
ATOM     91  C   UNL     1       2.969  10.670  -0.779  1.00  0.00     0.094 C 
ATOM     92  C   UNL     1       3.304  11.087   0.670  1.00  0.00     0.027 C 
ATOM     93  C   UNL     1       1.879   9.621  -0.989  1.00  0.00     0.161 C 
ATOM     94  C   UNL     1       2.104  11.348   1.576  1.00  0.00     0.018 C 
ATOM     95  S   UNL     1       0.429   9.968  -0.042  1.00  0.00     0.152 S 
ATOM     96  C   UNL     1       1.117  10.197   1.580  1.00  0.00     0.137 C 
ATOM     97  O   UNL     1      -0.384   8.769  -0.015  1.00  0.00    -0.229 OA
ATOM     98  O   UNL     1      -0.121  11.232  -0.491  1.00  0.00    -0.229 OA
ENDBRANCH  89  91
ENDBRANCH  87  89
ENDBRANCH  78  81
ENDBRANCH  76  77
ENDBRANCH  75  76
ENDBRANCH   1  75
TORSDOF 16
