REMARK SMILES CC[C@@](C)([NH2+]CC(=O)N[C@@H](C)C(C)C)C(=O)NCCCCNC(=O)c1ccc(-c2c3nc(c(-c4c(F)cc(S(=O)(=O)[O-])cc4F)c4ccc([nH]4)c(-c4c(F)cc(S(=O)(=O)[O-])cc4F)c4nc(c(-c5c(F)cc(S(=O)(=O)[O-])cc5F)c5ccc2[nH]5)C=C4)C=C3)cc1
REMARK SMILES IDX 18 1 17 2 15 3 16 4 3 6 4 7 2 8 1 9 5 10 6 13 7 14 8 15 9 16
REMARK SMILES IDX 10 18 11 19 12 20 13 21 14 22 19 23 20 24 21 25 22 26 23 27
REMARK SMILES IDX 24 29 25 30 26 31 90 32 27 33 89 34 28 35 29 36 30 37 83 38
REMARK SMILES IDX 31 39 88 40 82 41 84 42 32 43 87 44 81 45 80 46 33 48 67 49
REMARK SMILES IDX 46 50 66 51 47 52 50 53 65 54 85 55 48 56 49 57 64 59 86 60
REMARK SMILES IDX 51 61 34 62 35 63 44 64 36 65 37 66 43 67 45 68 38 69 39 70
REMARK SMILES IDX 40 71 41 72 42 73 68 74 69 75 78 76 70 77 71 78 77 79 79 80
REMARK SMILES IDX 72 81 73 82 74 83 75 84 76 85 52 86 53 87 62 88 54 89 55 90
REMARK SMILES IDX 61 91 63 92 56 93 57 94 58 95 59 96 60 97
REMARK H PARENT 17 5 5 11 5 12 9 17 22 28 84 47 50 58
REMARK Flexibility Score: inf
ROOT
ATOM      1  C   UNL     1       3.493   2.102   3.976  1.00  0.00     0.116 C 
ENDROOT
BRANCH   1   2
ATOM      2  N   UNL     1       2.846   0.858   3.552  1.00  0.00    -0.351 N 
ATOM      3  C   UNL     1       2.223   0.763   2.316  1.00  0.00     0.281 C 
ATOM      4  O   UNL     1       2.922   0.625   1.310  1.00  0.00    -0.268 OA
ATOM      5  H   UNL     1       2.854   0.078   4.153  1.00  0.00     0.163 HD
BRANCH   3   6
ATOM      6  C   UNL     1       0.647   0.598   2.273  1.00  0.00     0.172 C 
ATOM      7  C   UNL     1      -0.157   1.212   1.119  1.00  0.00     0.090 C 
BRANCH   6   8
ATOM      8  C   UNL     1       0.447  -0.954   2.119  1.00  0.00     0.075 C 
ATOM      9  C   UNL     1       0.642  -1.463   0.672  1.00  0.00     0.011 C 
ENDBRANCH   6   8
BRANCH   6  10
ATOM     10  N   UNL     1       0.011   1.113   3.497  1.00  0.00    -0.326 N 
ATOM     11  H   UNL     1       0.320   0.511   4.261  1.00  0.00     0.347 HD
ATOM     12  H   UNL     1      -0.981   1.109   3.256  1.00  0.00     0.347 HD
BRANCH  10  13
ATOM     13  C   UNL     1       0.236   2.508   3.940  1.00  0.00     0.362 C 
BRANCH  13  14
ATOM     14  C   UNL     1       0.083   3.792   3.075  1.00  0.00     0.275 C 
ATOM     15  O   UNL     1      -0.861   4.554   3.345  1.00  0.00    -0.268 OA
ATOM     16  N   UNL     1       0.992   4.327   2.193  1.00  0.00    -0.349 N 
ATOM     17  H   UNL     1       1.168   5.283   2.349  1.00  0.00     0.163 HD
BRANCH  16  18
ATOM     18  C   UNL     1       1.759   3.772   1.063  1.00  0.00     0.081 C 
ATOM     19  C   UNL     1       0.917   3.892  -0.228  1.00  0.00     0.031 C 
BRANCH  18  20
ATOM     20  C   UNL     1       3.148   4.418   0.765  1.00  0.00     0.005 C 
ATOM     21  C   UNL     1       3.903   4.987   1.961  1.00  0.00     0.009 C 
ATOM     22  C   UNL     1       4.068   3.413   0.041  1.00  0.00     0.009 C 
ENDBRANCH  18  20
ENDBRANCH  16  18
ENDBRANCH  13  14
ENDBRANCH  10  13
ENDBRANCH   6  10
ENDBRANCH   3   6
ENDBRANCH   1   2
BRANCH   1  23
ATOM     23  C   UNL     1       3.507   2.286   5.502  1.00  0.00     0.023 C 
BRANCH  23  24
ATOM     24  C   UNL     1       4.828   2.803   6.070  1.00  0.00     0.023 C 
BRANCH  24  25
ATOM     25  C   UNL     1       5.294   4.168   5.571  1.00  0.00     0.116 C 
BRANCH  25  26
ATOM     26  N   UNL     1       4.477   5.288   6.007  1.00  0.00    -0.352 N 
ATOM     27  C   UNL     1       4.902   6.560   6.363  1.00  0.00     0.251 C 
ATOM     28  H   UNL     1       3.507   5.126   6.056  1.00  0.00     0.163 HD
ATOM     29  O   UNL     1       4.121   7.393   6.765  1.00  0.00    -0.269 OA
BRANCH  27  30
ATOM     30  C   UNL     1       6.355   6.861   6.288  1.00  0.00     0.039 A 
ATOM     31  C   UNL     1       7.017   7.280   7.444  1.00  0.00     0.014 A 
ATOM     32  C   UNL     1       7.067   6.637   5.107  1.00  0.00     0.014 A 
ATOM     33  C   UNL     1       8.412   7.380   7.442  1.00  0.00     0.010 A 
ATOM     34  C   UNL     1       8.460   6.677   5.125  1.00  0.00     0.010 A 
ATOM     35  C   UNL     1       9.148   7.028   6.298  1.00  0.00    -0.014 A 
BRANCH  35  36
ATOM     36  C   UNL     1      10.635   6.981   6.324  1.00  0.00     0.031 A 
ATOM     37  C   UNL     1      11.442   7.911   5.460  1.00  0.00     0.074 A 
ATOM     38  C   UNL     1      11.260   6.048   7.073  1.00  0.00     0.049 A 
ATOM     39  N   UNL     1      12.739   7.977   5.306  1.00  0.00    -0.248 NA
ATOM     40  C   UNL     1      10.690   8.876   4.642  1.00  0.00     0.031 C 
ATOM     41  C   UNL     1      10.593   5.048   7.911  1.00  0.00     0.029 A 
ATOM     42  N   UNL     1      12.596   5.780   7.243  1.00  0.00    -0.354 N 
ATOM     43  C   UNL     1      12.960   8.975   4.365  1.00  0.00     0.074 A 
ATOM     44  C   UNL     1      11.659   9.456   3.949  1.00  0.00     0.031 C 
ATOM     45  C   UNL     1      11.521   4.295   8.523  1.00  0.00     0.029 A 
ATOM     46  C   UNL     1      12.848   4.733   8.099  1.00  0.00     0.049 A 
ATOM     47  H   UNL     1      13.308   6.290   6.794  1.00  0.00     0.167 HD
ATOM     48  C   UNL     1      14.137   9.463   3.905  1.00  0.00     0.037 A 
ATOM     49  C   UNL     1      14.013   4.186   8.498  1.00  0.00     0.037 A 
ATOM     50  C   UNL     1      15.430   9.006   4.345  1.00  0.00     0.049 A 
ATOM     51  C   UNL     1      15.308   4.756   7.986  1.00  0.00     0.074 A 
ATOM     52  C   UNL     1      16.678   9.487   3.990  1.00  0.00     0.029 A 
ATOM     53  N   UNL     1      15.642   7.962   5.233  1.00  0.00    -0.354 N 
ATOM     54  N   UNL     1      15.497   5.750   7.151  1.00  0.00    -0.248 NA
ATOM     55  C   UNL     1      16.548   4.135   8.472  1.00  0.00     0.031 C 
ATOM     56  C   UNL     1      17.647   8.711   4.636  1.00  0.00     0.029 A 
ATOM     57  C   UNL     1      17.001   7.773   5.425  1.00  0.00     0.049 A 
ATOM     58  H   UNL     1      14.932   7.434   5.664  1.00  0.00     0.167 HD
ATOM     59  C   UNL     1      16.876   5.892   7.035  1.00  0.00     0.074 A 
ATOM     60  C   UNL     1      17.473   4.887   7.891  1.00  0.00     0.031 C 
ATOM     61  C   UNL     1      17.582   6.776   6.289  1.00  0.00     0.037 A 
BRANCH  48  62
ATOM     62  C   UNL     1      14.081  10.558   2.877  1.00  0.00     0.058 A 
ATOM     63  C   UNL     1      13.673  11.859   3.210  1.00  0.00     0.135 A 
ATOM     64  C   UNL     1      14.470  10.313   1.550  1.00  0.00     0.135 A 
ATOM     65  F   UNL     1      13.277  12.144   4.461  1.00  0.00    -0.206 F 
ATOM     66  C   UNL     1      13.622  12.871   2.258  1.00  0.00     0.059 A 
ATOM     67  C   UNL     1      14.453  11.317   0.587  1.00  0.00     0.059 A 
ATOM     68  F   UNL     1      14.870   9.086   1.178  1.00  0.00    -0.206 F 
ATOM     69  C   UNL     1      14.011  12.590   0.947  1.00  0.00     0.060 A 
BRANCH  69  70
ATOM     70  S   UNL     1      13.939  13.914  -0.278  1.00  0.00     0.124 S 
ATOM     71  O   UNL     1      12.503  14.005  -0.521  1.00  0.00    -0.237 OA
ATOM     72  O   UNL     1      14.533  15.038   0.440  1.00  0.00    -0.237 OA
ATOM     73  O   UNL     1      14.732  13.393  -1.387  1.00  0.00    -0.744 OA
ENDBRANCH  69  70
ENDBRANCH  48  62
BRANCH  49  74
ATOM     74  C   UNL     1      14.014   3.052   9.461  1.00  0.00     0.058 A 
ATOM     75  C   UNL     1      14.440   3.234  10.785  1.00  0.00     0.135 A 
ATOM     76  C   UNL     1      13.589   1.770   9.081  1.00  0.00     0.135 A 
ATOM     77  F   UNL     1      14.863   4.440  11.193  1.00  0.00    -0.206 F 
ATOM     78  C   UNL     1      14.463   2.183  11.695  1.00  0.00     0.059 A 
ATOM     79  C   UNL     1      13.581   0.707   9.980  1.00  0.00     0.059 A 
ATOM     80  F   UNL     1      13.157   1.547   7.830  1.00  0.00    -0.206 F 
ATOM     81  C   UNL     1      14.030   0.921  11.283  1.00  0.00     0.060 A 
BRANCH  81  82
ATOM     82  S   UNL     1      14.019  -0.428  12.484  1.00  0.00     0.124 S 
ATOM     83  O   UNL     1      15.438  -0.751  12.575  1.00  0.00    -0.237 OA
ATOM     84  O   UNL     1      13.432   0.210  13.658  1.00  0.00    -0.237 OA
ATOM     85  O   UNL     1      13.180  -1.437  11.844  1.00  0.00    -0.744 OA
ENDBRANCH  81  82
ENDBRANCH  49  74
BRANCH  61  86
ATOM     86  C   UNL     1      19.081   6.723   6.387  1.00  0.00     0.058 A 
ATOM     87  C   UNL     1      19.824   5.701   5.778  1.00  0.00     0.135 A 
ATOM     88  C   UNL     1      19.785   7.740   7.052  1.00  0.00     0.135 A 
ATOM     89  F   UNL     1      19.199   4.701   5.136  1.00  0.00    -0.206 F 
ATOM     90  C   UNL     1      21.214   5.677   5.841  1.00  0.00     0.059 A 
ATOM     91  C   UNL     1      21.175   7.750   7.107  1.00  0.00     0.059 A 
ATOM     92  F   UNL     1      19.122   8.747   7.643  1.00  0.00    -0.206 F 
ATOM     93  C   UNL     1      21.881   6.707   6.507  1.00  0.00     0.060 A 
BRANCH  93  94
ATOM     94  S   UNL     1      23.686   6.688   6.550  1.00  0.00     0.124 S 
ATOM     95  O   UNL     1      23.945   5.658   7.550  1.00  0.00    -0.237 OA
ATOM     96  O   UNL     1      24.029   6.336   5.175  1.00  0.00    -0.237 OA
ATOM     97  O   UNL     1      24.030   8.050   6.946  1.00  0.00    -0.744 OA
ENDBRANCH  93  94
ENDBRANCH  61  86
ENDBRANCH  35  36
ENDBRANCH  27  30
ENDBRANCH  25  26
ENDBRANCH  24  25
ENDBRANCH  23  24
ENDBRANCH   1  23
TORSDOF 20
