REMARK SMILES CC[C@@H](C(=O)NCCCCNC(=O)c1ccc(-c2c3nc(c(-c4c(F)cc(S(=O)(=O)[O-])cc4F)c4ccc([nH]4)c(-c4c(F)cc(S(=O)(=O)[O-])cc4F)c4nc(c(-c5c(F)cc(S(=O)(=O)[O-])cc5F)c5ccc2[nH]5)C=C4)C=C3)cc1)n1c(SCc2cccc(C(F)(F)F)c2)nc2ccncc21
REMARK SMILES IDX 7 1 6 2 4 3 5 4 3 6 2 7 1 8 80 9 81 10 100 11 94 12 95 13
REMARK SMILES IDX 99 14 96 15 98 16 97 17 82 18 83 19 84 20 85 21 93 22 86 23
REMARK SMILES IDX 88 24 87 25 89 26 90 27 91 28 92 29 8 30 9 31 10 32 11 33
REMARK SMILES IDX 12 34 13 36 14 37 15 38 79 39 16 40 78 41 17 42 18 43 19 44
REMARK SMILES IDX 72 45 20 46 77 47 71 48 73 49 21 50 76 51 70 52 69 53 22 55
REMARK SMILES IDX 56 56 35 57 55 58 36 59 39 60 54 61 74 62 37 63 38 64 53 66
REMARK SMILES IDX 75 67 40 68 23 69 24 70 33 71 25 72 26 73 32 74 34 75 27 76
REMARK SMILES IDX 28 77 29 78 30 79 31 80 57 81 58 82 67 83 59 84 60 85 66 86
REMARK SMILES IDX 68 87 61 88 62 89 63 90 64 91 65 92 41 93 42 94 51 95 43 96
REMARK SMILES IDX 44 97 50 98 52 99 45 100 46 101 47 102 48 103 49 104
REMARK H PARENT 6 5 11 35 73 54 39 65
REMARK Flexibility Score: inf
ROOT
ATOM      1  C   UNL     1       1.127  -1.419   1.333  1.00  0.00     0.116 C 
ENDROOT
BRANCH   1   2
ATOM      2  N   UNL     1       0.014  -2.231   0.859  1.00  0.00    -0.354 N 
ATOM      3  C   UNL     1      -0.572  -2.336  -0.374  1.00  0.00     0.243 C 
ATOM      4  O   UNL     1      -1.579  -3.042  -0.463  1.00  0.00    -0.273 OA
ATOM      5  H   UNL     1      -0.389  -2.806   1.548  1.00  0.00     0.163 HD
BRANCH   3   6
ATOM      6  C   UNL     1       0.005  -1.617  -1.591  1.00  0.00     0.178 C 
BRANCH   6   7
ATOM      7  C   UNL     1      -0.645  -0.232  -1.810  1.00  0.00     0.032 C 
ATOM      8  C   UNL     1      -0.307   0.815  -0.761  1.00  0.00     0.006 C 
ENDBRANCH   6   7
BRANCH   6   9
ATOM      9  N   UNL     1       0.018  -2.510  -2.770  1.00  0.00    -0.305 N 
ATOM     10  C   UNL     1       0.940  -3.534  -2.990  1.00  0.00     0.170 A 
ATOM     11  C   UNL     1      -0.532  -2.226  -4.011  1.00  0.00     0.088 A 
ATOM     12  N   UNL     1       1.309  -3.540  -4.256  1.00  0.00    -0.222 NA
ATOM     13  C   UNL     1       0.342  -2.822  -4.914  1.00  0.00     0.093 A 
ATOM     14  C   UNL     1      -1.643  -1.514  -4.447  1.00  0.00     0.139 A 
ATOM     15  C   UNL     1       0.125  -2.678  -6.285  1.00  0.00     0.051 A 
ATOM     16  N   UNL     1      -1.859  -1.380  -5.776  1.00  0.00    -0.262 NA
ATOM     17  C   UNL     1      -0.998  -1.952  -6.645  1.00  0.00     0.113 A 
BRANCH  10  18
ATOM     18  S   UNL     1       0.895  -5.057  -2.132  1.00  0.00    -0.083 SA
BRANCH  18  19
ATOM     19  C   UNL     1       2.034  -5.086  -0.746  1.00  0.00     0.113 C 
BRANCH  19  20
ATOM     20  C   UNL     1       3.356  -4.371  -0.838  1.00  0.00    -0.037 A 
ATOM     21  C   UNL     1       4.587  -5.023  -0.774  1.00  0.00     0.004 A 
ATOM     22  C   UNL     1       3.372  -2.980  -0.847  1.00  0.00     0.017 A 
ATOM     23  C   UNL     1       5.778  -4.282  -0.731  1.00  0.00     0.001 A 
ATOM     24  C   UNL     1       4.539  -2.213  -0.851  1.00  0.00     0.056 A 
ATOM     25  C   UNL     1       5.756  -2.884  -0.773  1.00  0.00     0.013 A 
BRANCH  24  26
ATOM     26  C   UNL     1       4.424  -0.712  -0.881  1.00  0.00     0.416 C 
ATOM     27  F   UNL     1       4.287  -0.181   0.366  1.00  0.00    -0.166 F 
ATOM     28  F   UNL     1       5.482  -0.084  -1.456  1.00  0.00    -0.166 F 
ATOM     29  F   UNL     1       3.319  -0.288  -1.567  1.00  0.00    -0.166 F 
ENDBRANCH  24  26
ENDBRANCH  19  20
ENDBRANCH  18  19
ENDBRANCH  10  18
ENDBRANCH   6   9
ENDBRANCH   3   6
ENDBRANCH   1   2
BRANCH   1  30
ATOM     30  C   UNL     1       0.684  -0.380   2.361  1.00  0.00     0.023 C 
BRANCH  30  31
ATOM     31  C   UNL     1       0.381  -0.947   3.741  1.00  0.00     0.023 C 
BRANCH  31  32
ATOM     32  C   UNL     1       1.602  -1.457   4.489  1.00  0.00     0.116 C 
BRANCH  32  33
ATOM     33  N   UNL     1       2.566  -0.404   4.777  1.00  0.00    -0.352 N 
ATOM     34  C   UNL     1       3.094  -0.017   5.984  1.00  0.00     0.251 C 
ATOM     35  H   UNL     1       2.884   0.102   3.995  1.00  0.00     0.163 HD
ATOM     36  O   UNL     1       3.761   1.014   6.056  1.00  0.00    -0.269 OA
BRANCH  34  37
ATOM     37  C   UNL     1       2.841  -0.828   7.193  1.00  0.00     0.039 A 
ATOM     38  C   UNL     1       2.562  -0.186   8.401  1.00  0.00     0.014 A 
ATOM     39  C   UNL     1       2.870  -2.224   7.133  1.00  0.00     0.014 A 
ATOM     40  C   UNL     1       2.268  -0.947   9.533  1.00  0.00     0.010 A 
ATOM     41  C   UNL     1       2.460  -2.974   8.227  1.00  0.00     0.010 A 
ATOM     42  C   UNL     1       2.187  -2.348   9.450  1.00  0.00    -0.014 A 
BRANCH  42  43
ATOM     43  C   UNL     1       1.877  -3.173  10.645  1.00  0.00     0.031 A 
ATOM     44  C   UNL     1       2.882  -4.180  11.144  1.00  0.00     0.074 A 
ATOM     45  C   UNL     1       0.685  -3.040  11.260  1.00  0.00     0.049 A 
ATOM     46  N   UNL     1       2.800  -4.994  12.164  1.00  0.00    -0.248 NA
ATOM     47  C   UNL     1       4.132  -4.316  10.375  1.00  0.00     0.031 C 
ATOM     48  C   UNL     1      -0.397  -2.150  10.830  1.00  0.00     0.029 A 
ATOM     49  N   UNL     1       0.183  -3.651  12.381  1.00  0.00    -0.354 N 
ATOM     50  C   UNL     1       3.974  -5.739  12.150  1.00  0.00     0.074 A 
ATOM     51  C   UNL     1       4.715  -5.340  10.977  1.00  0.00     0.031 C 
ATOM     52  C   UNL     1      -1.414  -2.240  11.701  1.00  0.00     0.029 A 
ATOM     53  C   UNL     1      -1.075  -3.218  12.730  1.00  0.00     0.049 A 
ATOM     54  H   UNL     1       0.677  -4.335  12.888  1.00  0.00     0.167 HD
ATOM     55  C   UNL     1       4.415  -6.646  13.054  1.00  0.00     0.037 A 
ATOM     56  C   UNL     1      -1.861  -3.565  13.768  1.00  0.00     0.037 A 
ATOM     57  C   UNL     1       3.684  -7.014  14.237  1.00  0.00     0.049 A 
ATOM     58  C   UNL     1      -1.342  -4.563  14.769  1.00  0.00     0.074 A 
ATOM     59  C   UNL     1       4.064  -7.876  15.250  1.00  0.00     0.029 A 
ATOM     60  N   UNL     1       2.423  -6.540  14.567  1.00  0.00    -0.354 N 
ATOM     61  N   UNL     1      -0.195  -5.201  14.781  1.00  0.00    -0.248 NA
ATOM     62  C   UNL     1      -2.218  -4.877  15.905  1.00  0.00     0.031 C 
ATOM     63  C   UNL     1       3.010  -7.963  16.166  1.00  0.00     0.029 A 
ATOM     64  C   UNL     1       1.999  -7.108  15.757  1.00  0.00     0.049 A 
ATOM     65  H   UNL     1       1.905  -5.894  14.034  1.00  0.00     0.167 HD
ATOM     66  C   UNL     1      -0.201  -5.971  15.940  1.00  0.00     0.074 A 
ATOM     67  C   UNL     1      -1.456  -5.699  16.611  1.00  0.00     0.031 C 
ATOM     68  C   UNL     1       0.744  -6.826  16.407  1.00  0.00     0.037 A 
BRANCH  55  69
ATOM     69  C   UNL     1       5.752  -7.291  12.800  1.00  0.00     0.058 A 
ATOM     70  C   UNL     1       6.951  -6.560  12.864  1.00  0.00     0.135 A 
ATOM     71  C   UNL     1       5.841  -8.662  12.511  1.00  0.00     0.135 A 
ATOM     72  F   UNL     1       6.927  -5.242  13.117  1.00  0.00    -0.206 F 
ATOM     73  C   UNL     1       8.183  -7.156  12.618  1.00  0.00     0.059 A 
ATOM     74  C   UNL     1       7.066  -9.287  12.295  1.00  0.00     0.059 A 
ATOM     75  F   UNL     1       4.729  -9.410  12.433  1.00  0.00    -0.206 F 
ATOM     76  C   UNL     1       8.231  -8.522  12.335  1.00  0.00     0.060 A 
BRANCH  76  77
ATOM     77  S   UNL     1       9.839  -9.280  12.025  1.00  0.00     0.124 S 
ATOM     78  O   UNL     1      10.173  -8.729  10.716  1.00  0.00    -0.237 OA
ATOM     79  O   UNL     1      10.636  -8.786  13.143  1.00  0.00    -0.237 OA
ATOM     80  O   UNL     1       9.551 -10.711  12.048  1.00  0.00    -0.744 OA
ENDBRANCH  76  77
ENDBRANCH  55  69
BRANCH  56  81
ATOM     81  C   UNL     1      -3.200  -2.938  13.933  1.00  0.00     0.058 A 
ATOM     82  C   UNL     1      -3.459  -2.049  14.988  1.00  0.00     0.135 A 
ATOM     83  C   UNL     1      -4.247  -3.209  13.038  1.00  0.00     0.135 A 
ATOM     84  F   UNL     1      -2.494  -1.760  15.874  1.00  0.00    -0.206 F 
ATOM     85  C   UNL     1      -4.712  -1.469  15.163  1.00  0.00     0.059 A 
ATOM     86  C   UNL     1      -5.499  -2.618  13.175  1.00  0.00     0.059 A 
ATOM     87  F   UNL     1      -4.047  -4.037  12.001  1.00  0.00    -0.206 F 
ATOM     88  C   UNL     1      -5.726  -1.759  14.249  1.00  0.00     0.060 A 
BRANCH  88  89
ATOM     89  S   UNL     1      -7.335  -0.967  14.461  1.00  0.00     0.124 S 
ATOM     90  O   UNL     1      -7.852  -1.662  15.634  1.00  0.00    -0.237 OA
ATOM     91  O   UNL     1      -6.964   0.431  14.658  1.00  0.00    -0.237 OA
ATOM     92  O   UNL     1      -8.019  -1.255  13.203  1.00  0.00    -0.744 OA
ENDBRANCH  88  89
ENDBRANCH  56  81
BRANCH  68  93
ATOM     93  C   UNL     1       0.466  -7.503  17.723  1.00  0.00     0.058 A 
ATOM     94  C   UNL     1      -0.530  -8.483  17.856  1.00  0.00     0.135 A 
ATOM     95  C   UNL     1       1.222  -7.179  18.861  1.00  0.00     0.135 A 
ATOM     96  F   UNL     1      -1.283  -8.830  16.800  1.00  0.00    -0.206 F 
ATOM     97  C   UNL     1      -0.800  -9.083  19.082  1.00  0.00     0.059 A 
ATOM     98  C   UNL     1       0.995  -7.792  20.088  1.00  0.00     0.059 A 
ATOM     99  F   UNL     1       2.200  -6.262  18.786  1.00  0.00    -0.206 F 
ATOM    100  C   UNL     1      -0.034  -8.727  20.194  1.00  0.00     0.060 A 
BRANCH 100 101
ATOM    101  S   UNL     1      -0.396  -9.508  21.779  1.00  0.00     0.124 S 
ATOM    102  O   UNL     1      -1.644  -8.849  22.152  1.00  0.00    -0.237 OA
ATOM    103  O   UNL     1      -0.507 -10.917  21.415  1.00  0.00    -0.237 OA
ATOM    104  O   UNL     1       0.763  -9.168  22.599  1.00  0.00    -0.744 OA
ENDBRANCH 100 101
ENDBRANCH  68  93
ENDBRANCH  42  43
ENDBRANCH  34  37
ENDBRANCH  32  33
ENDBRANCH  31  32
ENDBRANCH  30  31
ENDBRANCH   1  30
TORSDOF 20
