REMARK SMILES O=C(NCCCCNC(=O)c1ccc(-c2c3nc(c(-c4c(F)cc(S(=O)(=O)[O-])cc4F)c4ccc([nH]4)c(-c4c(F)cc(S(=O)(=O)[O-])cc4F)c4nc(c(-c5c(F)cc(S(=O)(=O)[O-])cc5F)c5ccc2[nH]5)C=C4)C=C3)cc1)c1ccc(C[C@H]2SC(=O)N(c3ccccc3)C2=O)cc1
REMARK SMILES IDX 5 1 4 2 3 3 1 4 2 5 77 7 78 8 96 9 79 10 95 11 80 12 81 13
REMARK SMILES IDX 82 14 83 15 93 16 84 17 86 18 94 19 85 20 87 21 88 22 92 23
REMARK SMILES IDX 89 24 91 25 90 26 6 27 7 28 8 29 9 30 10 32 11 33 12 34
REMARK SMILES IDX 76 35 13 36 75 37 14 38 15 39 16 40 69 41 17 42 74 43 68 44
REMARK SMILES IDX 70 45 18 46 73 47 67 48 66 49 19 51 53 52 32 53 52 54 33 55
REMARK SMILES IDX 36 56 51 57 71 58 34 59 35 60 50 62 72 63 37 64 20 65 21 66
REMARK SMILES IDX 30 67 22 68 23 69 29 70 31 71 24 72 25 73 26 74 27 75 28 76
REMARK SMILES IDX 54 77 55 78 64 79 56 80 57 81 63 82 65 83 58 84 59 85 60 86
REMARK SMILES IDX 61 87 62 88 38 89 39 90 48 91 40 92 41 93 47 94 49 95 42 96
REMARK SMILES IDX 43 97 44 98 45 99 46 100
REMARK H PARENT 3 6 8 31 70 50 36 61
REMARK Flexibility Score: inf
ROOT
ATOM      1  C   UNL     1       5.215  -6.887  -5.127  1.00  0.00     0.023 C 
ENDROOT
BRANCH   1   2
ATOM      2  C   UNL     1       6.583  -6.371  -5.562  1.00  0.00     0.116 C 
BRANCH   2   3
ATOM      3  N   UNL     1       6.841  -6.596  -6.977  1.00  0.00    -0.352 N 
ATOM      4  O   UNL     1       7.153  -5.997  -9.141  1.00  0.00    -0.269 OA
ATOM      5  C   UNL     1       7.090  -5.670  -7.961  1.00  0.00     0.251 C 
ATOM      6  H   UNL     1       6.837  -7.537  -7.267  1.00  0.00     0.163 HD
BRANCH   5   7
ATOM      7  C   UNL     1       7.256  -4.256  -7.581  1.00  0.00     0.039 A 
ATOM      8  C   UNL     1       8.251  -3.885  -6.675  1.00  0.00     0.014 A 
ATOM      9  C   UNL     1       6.383  -3.303  -8.108  1.00  0.00     0.014 A 
ATOM     10  C   UNL     1       8.310  -2.570  -6.221  1.00  0.00     0.004 A 
ATOM     11  C   UNL     1       6.441  -1.987  -7.645  1.00  0.00     0.004 A 
ATOM     12  C   UNL     1       7.382  -1.617  -6.672  1.00  0.00    -0.046 A 
BRANCH  12  13
ATOM     13  C   UNL     1       7.390  -0.220  -6.096  1.00  0.00     0.060 C 
BRANCH  13  14
ATOM     14  C   UNL     1       6.593  -0.057  -4.788  1.00  0.00     0.151 C 
ATOM     15  S   UNL     1       7.303  -0.959  -3.387  1.00  0.00    -0.050 SA
ATOM     16  C   UNL     1       6.658   1.399  -4.371  1.00  0.00     0.248 C 
ATOM     17  C   UNL     1       8.082   0.472  -2.749  1.00  0.00     0.293 C 
ATOM     18  N   UNL     1       7.580   1.603  -3.353  1.00  0.00    -0.240 N 
ATOM     19  O   UNL     1       6.027   2.258  -4.984  1.00  0.00    -0.273 OA
ATOM     20  O   UNL     1       8.909   0.377  -1.858  1.00  0.00    -0.261 OA
BRANCH  18  21
ATOM     21  C   UNL     1       7.995   2.910  -2.953  1.00  0.00     0.053 A 
ATOM     22  C   UNL     1       7.097   3.987  -2.943  1.00  0.00     0.027 A 
ATOM     23  C   UNL     1       9.325   3.156  -2.575  1.00  0.00     0.027 A 
ATOM     24  C   UNL     1       7.513   5.268  -2.567  1.00  0.00     0.002 A 
ATOM     25  C   UNL     1       9.748   4.442  -2.226  1.00  0.00     0.002 A 
ATOM     26  C   UNL     1       8.841   5.497  -2.219  1.00  0.00     0.000 A 
ENDBRANCH  18  21
ENDBRANCH  13  14
ENDBRANCH  12  13
ENDBRANCH   5   7
ENDBRANCH   2   3
ENDBRANCH   1   2
BRANCH   1  27
ATOM     27  C   UNL     1       5.024  -8.398  -5.244  1.00  0.00     0.023 C 
BRANCH  27  28
ATOM     28  C   UNL     1       6.076  -9.246  -4.540  1.00  0.00     0.116 C 
BRANCH  28  29
ATOM     29  N   UNL     1       6.138  -9.005  -3.106  1.00  0.00    -0.352 N 
ATOM     30  C   UNL     1       6.092  -9.907  -2.068  1.00  0.00     0.251 C 
ATOM     31  H   UNL     1       6.225  -8.061  -2.841  1.00  0.00     0.163 HD
ATOM     32  O   UNL     1       6.020  -9.502  -0.912  1.00  0.00    -0.269 OA
BRANCH  30  33
ATOM     33  C   UNL     1       6.096 -11.360  -2.350  1.00  0.00     0.039 A 
ATOM     34  C   UNL     1       5.189 -12.181  -1.675  1.00  0.00     0.014 A 
ATOM     35  C   UNL     1       6.973 -11.910  -3.288  1.00  0.00     0.014 A 
ATOM     36  C   UNL     1       5.112 -13.539  -1.996  1.00  0.00     0.010 A 
ATOM     37  C   UNL     1       6.836 -13.242  -3.667  1.00  0.00     0.010 A 
ATOM     38  C   UNL     1       5.905 -14.073  -3.026  1.00  0.00    -0.014 A 
BRANCH  38  39
ATOM     39  C   UNL     1       5.768 -15.492  -3.450  1.00  0.00     0.031 A 
ATOM     40  C   UNL     1       6.929 -16.440  -3.314  1.00  0.00     0.074 A 
ATOM     41  C   UNL     1       4.618 -15.912  -4.015  1.00  0.00     0.049 A 
ATOM     42  N   UNL     1       7.018 -17.696  -3.671  1.00  0.00    -0.248 NA
ATOM     43  C   UNL     1       8.163 -15.898  -2.722  1.00  0.00     0.031 C 
ATOM     44  C   UNL     1       3.435 -15.079  -4.245  1.00  0.00     0.029 A 
ATOM     45  N   UNL     1       4.256 -17.142  -4.505  1.00  0.00    -0.354 N 
ATOM     46  C   UNL     1       8.315 -18.089  -3.361  1.00  0.00     0.074 A 
ATOM     47  C   UNL     1       8.995 -16.922  -2.843  1.00  0.00     0.031 C 
ATOM     48  C   UNL     1       2.468 -15.830  -4.797  1.00  0.00     0.029 A 
ATOM     49  C   UNL     1       2.974 -17.184  -5.002  1.00  0.00     0.049 A 
ATOM     50  H   UNL     1       4.857 -17.921  -4.501  1.00  0.00     0.167 HD
ATOM     51  C   UNL     1       8.881 -19.315  -3.475  1.00  0.00     0.037 A 
ATOM     52  C   UNL     1       2.284 -18.197  -5.563  1.00  0.00     0.037 A 
ATOM     53  C   UNL     1       8.193 -20.476  -3.979  1.00  0.00     0.049 A 
ATOM     54  C   UNL     1       2.942 -19.544  -5.700  1.00  0.00     0.074 A 
ATOM     55  C   UNL     1       8.659 -21.775  -4.080  1.00  0.00     0.029 A 
ATOM     56  N   UNL     1       6.897 -20.477  -4.474  1.00  0.00    -0.354 N 
ATOM     57  N   UNL     1       4.146 -19.916  -5.336  1.00  0.00    -0.248 NA
ATOM     58  C   UNL     1       2.145 -20.610  -6.322  1.00  0.00     0.031 C 
ATOM     59  C   UNL     1       7.665 -22.550  -4.687  1.00  0.00     0.029 A 
ATOM     60  C   UNL     1       6.556 -21.748  -4.909  1.00  0.00     0.049 A 
ATOM     61  H   UNL     1       6.306 -19.691  -4.511  1.00  0.00     0.167 HD
ATOM     62  C   UNL     1       4.239 -21.267  -5.652  1.00  0.00     0.074 A 
ATOM     63  C   UNL     1       2.965 -21.648  -6.229  1.00  0.00     0.031 C 
ATOM     64  C   UNL     1       5.282 -22.116  -5.478  1.00  0.00     0.037 A 
BRANCH  51  65
ATOM     65  C   UNL     1      10.320 -19.457  -3.053  1.00  0.00     0.058 A 
ATOM     66  C   UNL     1      10.713 -19.342  -1.709  1.00  0.00     0.135 A 
ATOM     67  C   UNL     1      11.320 -19.727  -4.003  1.00  0.00     0.135 A 
ATOM     68  F   UNL     1       9.803 -19.073  -0.759  1.00  0.00    -0.206 F 
ATOM     69  C   UNL     1      12.047 -19.442  -1.328  1.00  0.00     0.059 A 
ATOM     70  C   UNL     1      12.657 -19.864  -3.639  1.00  0.00     0.059 A 
ATOM     71  F   UNL     1      11.004 -19.852  -5.301  1.00  0.00    -0.206 F 
ATOM     72  C   UNL     1      13.013 -19.699  -2.302  1.00  0.00     0.060 A 
BRANCH  72  73
ATOM     73  S   UNL     1      14.742 -19.806  -1.793  1.00  0.00     0.124 S 
ATOM     74  O   UNL     1      15.047 -18.407  -1.508  1.00  0.00    -0.237 OA
ATOM     75  O   UNL     1      14.672 -20.688  -0.633  1.00  0.00    -0.237 OA
ATOM     76  O   UNL     1      15.408 -20.367  -2.965  1.00  0.00    -0.744 OA
ENDBRANCH  72  73
ENDBRANCH  51  65
BRANCH  52  77
ATOM     77  C   UNL     1       0.878 -17.987  -6.003  1.00  0.00     0.058 A 
ATOM     78  C   UNL     1      -0.186 -18.597  -5.322  1.00  0.00     0.135 A 
ATOM     79  C   UNL     1       0.566 -17.170  -7.101  1.00  0.00     0.135 A 
ATOM     80  F   UNL     1       0.061 -19.395  -4.271  1.00  0.00    -0.206 F 
ATOM     81  C   UNL     1      -1.507 -18.419  -5.720  1.00  0.00     0.059 A 
ATOM     82  C   UNL     1      -0.749 -16.953  -7.502  1.00  0.00     0.059 A 
ATOM     83  F   UNL     1       1.545 -16.550  -7.778  1.00  0.00    -0.206 F 
ATOM     84  C   UNL     1      -1.778 -17.591  -6.810  1.00  0.00     0.060 A 
BRANCH  84  85
ATOM     85  S   UNL     1      -3.501 -17.328  -7.286  1.00  0.00     0.124 S 
ATOM     86  O   UNL     1      -3.848 -18.622  -7.861  1.00  0.00    -0.237 OA
ATOM     87  O   UNL     1      -4.125 -17.008  -6.006  1.00  0.00    -0.237 OA
ATOM     88  O   UNL     1      -3.422 -16.217  -8.231  1.00  0.00    -0.744 OA
ENDBRANCH  84  85
ENDBRANCH  52  77
BRANCH  64  89
ATOM     89  C   UNL     1       5.081 -23.554  -5.876  1.00  0.00     0.058 A 
ATOM     90  C   UNL     1       4.994 -23.946  -7.221  1.00  0.00     0.135 A 
ATOM     91  C   UNL     1       5.018 -24.559  -4.896  1.00  0.00     0.135 A 
ATOM     92  F   UNL     1       5.040 -23.027  -8.198  1.00  0.00    -0.206 F 
ATOM     93  C   UNL     1       4.825 -25.280  -7.580  1.00  0.00     0.059 A 
ATOM     94  C   UNL     1       4.882 -25.902  -5.233  1.00  0.00     0.059 A 
ATOM     95  F   UNL     1       5.107 -24.241  -3.595  1.00  0.00    -0.206 F 
ATOM     96  C   UNL     1       4.772 -26.251  -6.578  1.00  0.00     0.060 A 
BRANCH  96  97
ATOM     97  S   UNL     1       4.583 -27.981  -7.059  1.00  0.00     0.124 S 
ATOM     98  O   UNL     1       3.187 -28.018  -7.483  1.00  0.00    -0.237 OA
ATOM     99  O   UNL     1       5.572 -28.119  -8.123  1.00  0.00    -0.237 OA
ATOM    100  O   UNL     1       4.885 -28.711  -5.831  1.00  0.00    -0.744 OA
ENDBRANCH  96  97
ENDBRANCH  64  89
ENDBRANCH  38  39
ENDBRANCH  30  33
ENDBRANCH  28  29
ENDBRANCH  27  28
ENDBRANCH   1  27
TORSDOF 17
