REMARK SMILES CCCSc1nc(=O)cc(CC(=O)NCCCCNC(=O)c2ccc(-c3c4nc(c(-c5c(F)cc(S(=O)(=O)[O-])cc5F)c5ccc([nH]5)c(-c5c(F)cc(S(=O)(=O)[O-])cc5F)c5nc(c(-c6c(F)cc(S(=O)(=O)[O-])cc6F)c6ccc3[nH]6)C=C5)C=C4)cc2)[nH]1
REMARK SMILES IDX 16 1 15 2 14 3 12 4 13 5 11 7 10 8 5 9 6 10 88 11 7 12 8 14
REMARK SMILES IDX 9 15 4 16 3 17 2 18 1 19 17 20 18 21 19 22 20 23 21 25 22 26
REMARK SMILES IDX 23 27 87 28 24 29 86 30 25 31 26 32 27 33 80 34 28 35 85 36
REMARK SMILES IDX 79 37 81 38 29 39 84 40 78 41 77 42 30 44 64 45 43 46 63 47
REMARK SMILES IDX 44 48 47 49 62 50 82 51 45 52 46 53 61 55 83 56 48 57 31 58
REMARK SMILES IDX 32 59 41 60 33 61 34 62 40 63 42 64 35 65 36 66 37 67 38 68
REMARK SMILES IDX 39 69 65 70 66 71 75 72 67 73 68 74 74 75 76 76 69 77 70 78
REMARK SMILES IDX 71 79 72 80 73 81 49 82 50 83 59 84 51 85 52 86 58 87 60 88
REMARK SMILES IDX 53 89 54 90 55 91 56 92 57 93
REMARK H PARENT 14 6 88 13 19 24 81 43 47 54
REMARK Flexibility Score: inf
ROOT
ATOM      1  C   UNL     1      -2.033   1.486  -3.083  1.00  0.00     0.023 C 
ENDROOT
BRANCH   1   2
ATOM      2  C   UNL     1      -1.579   0.025  -3.126  1.00  0.00     0.116 C 
BRANCH   2   3
ATOM      3  N   UNL     1      -0.883  -0.291  -4.358  1.00  0.00    -0.356 N 
ATOM      4  C   UNL     1       0.457  -0.331  -4.616  1.00  0.00     0.225 C 
ATOM      5  O   UNL     1       0.834  -0.547  -5.768  1.00  0.00    -0.275 OA
ATOM      6  H   UNL     1      -1.463  -0.510  -5.123  1.00  0.00     0.163 HD
BRANCH   4   7
ATOM      7  C   UNL     1       1.464  -0.163  -3.486  1.00  0.00     0.154 C 
BRANCH   7   8
ATOM      8  C   UNL     1       1.542   1.243  -2.956  1.00  0.00     0.032 A 
ATOM      9  C   UNL     1       0.983   2.726  -1.177  1.00  0.00     0.169 A 
ATOM     10  N   UNL     1       1.439   3.787  -1.751  1.00  0.00    -0.185 NA
ATOM     11  N   UNL     1       1.067   1.478  -1.694  1.00  0.00    -0.337 N 
ATOM     12  C   UNL     1       2.060   3.633  -2.977  1.00  0.00     0.273 A 
ATOM     13  H   UNL     1       0.776   0.714  -1.145  1.00  0.00     0.168 HD
ATOM     14  O   UNL     1       2.623   4.553  -3.566  1.00  0.00    -0.267 OA
ATOM     15  C   UNL     1       2.039   2.287  -3.636  1.00  0.00     0.095 A 
BRANCH   9  16
ATOM     16  S   UNL     1       0.079   2.842   0.313  1.00  0.00    -0.088 SA
BRANCH  16  17
ATOM     17  C   UNL     1       1.113   1.884   1.458  1.00  0.00     0.078 C 
BRANCH  17  18
ATOM     18  C   UNL     1       0.530   0.521   1.855  1.00  0.00     0.008 C 
ATOM     19  C   UNL     1       0.708  -0.592   0.833  1.00  0.00     0.005 C 
ENDBRANCH  17  18
ENDBRANCH  16  17
ENDBRANCH   9  16
ENDBRANCH   7   8
ENDBRANCH   4   7
ENDBRANCH   2   3
ENDBRANCH   1   2
BRANCH   1  20
ATOM     20  C   UNL     1      -3.143   1.830  -4.074  1.00  0.00     0.023 C 
BRANCH  20  21
ATOM     21  C   UNL     1      -4.421   1.020  -3.916  1.00  0.00     0.116 C 
BRANCH  21  22
ATOM     22  N   UNL     1      -5.074   1.201  -2.625  1.00  0.00    -0.352 N 
ATOM     23  C   UNL     1      -6.422   1.325  -2.365  1.00  0.00     0.251 C 
ATOM     24  H   UNL     1      -4.478   1.240  -1.842  1.00  0.00     0.163 HD
ATOM     25  O   UNL     1      -6.819   1.565  -1.230  1.00  0.00    -0.269 OA
BRANCH  23  26
ATOM     26  C   UNL     1      -7.374   1.213  -3.491  1.00  0.00     0.039 A 
ATOM     27  C   UNL     1      -7.259   0.161  -4.401  1.00  0.00     0.014 A 
ATOM     28  C   UNL     1      -8.311   2.228  -3.698  1.00  0.00     0.014 A 
ATOM     29  C   UNL     1      -7.932   0.233  -5.614  1.00  0.00     0.010 A 
ATOM     30  C   UNL     1      -9.063   2.240  -4.876  1.00  0.00     0.010 A 
ATOM     31  C   UNL     1      -8.835   1.278  -5.873  1.00  0.00    -0.014 A 
BRANCH  31  32
ATOM     32  C   UNL     1      -9.504   1.354  -7.200  1.00  0.00     0.031 A 
ATOM     33  C   UNL     1      -9.269   2.527  -8.119  1.00  0.00     0.074 A 
ATOM     34  C   UNL     1     -10.276   0.327  -7.606  1.00  0.00     0.049 A 
ATOM     35  N   UNL     1      -9.765   2.754  -9.309  1.00  0.00    -0.248 NA
ATOM     36  C   UNL     1      -8.362   3.584  -7.642  1.00  0.00     0.031 C 
ATOM     37  C   UNL     1     -10.557  -0.877  -6.820  1.00  0.00     0.029 A 
ATOM     38  N   UNL     1     -10.942   0.113  -8.786  1.00  0.00    -0.354 N 
ATOM     39  C   UNL     1      -9.242   3.977  -9.718  1.00  0.00     0.074 A 
ATOM     40  C   UNL     1      -8.423   4.466  -8.631  1.00  0.00     0.031 C 
ATOM     41  C   UNL     1     -11.286  -1.725  -7.559  1.00  0.00     0.029 A 
ATOM     42  C   UNL     1     -11.591  -1.098  -8.840  1.00  0.00     0.049 A 
ATOM     43  H   UNL     1     -10.955   0.765  -9.524  1.00  0.00     0.167 HD
ATOM     44  C   UNL     1      -9.414   4.623 -10.897  1.00  0.00     0.037 A 
ATOM     45  C   UNL     1     -12.361  -1.640  -9.802  1.00  0.00     0.037 A 
ATOM     46  C   UNL     1     -10.222   4.123 -11.982  1.00  0.00     0.049 A 
ATOM     47  C   UNL     1     -12.601  -0.867 -11.068  1.00  0.00     0.074 A 
ATOM     48  C   UNL     1     -10.457   4.703 -13.216  1.00  0.00     0.029 A 
ATOM     49  N   UNL     1     -10.923   2.925 -11.965  1.00  0.00    -0.354 N 
ATOM     50  N   UNL     1     -12.105   0.292 -11.431  1.00  0.00    -0.248 NA
ATOM     51  C   UNL     1     -13.512  -1.469 -12.050  1.00  0.00     0.031 C 
ATOM     52  C   UNL     1     -11.340   3.883 -13.925  1.00  0.00     0.029 A 
ATOM     53  C   UNL     1     -11.610   2.762 -13.158  1.00  0.00     0.049 A 
ATOM     54  H   UNL     1     -10.931   2.286 -11.217  1.00  0.00     0.167 HD
ATOM     55  C   UNL     1     -12.630   0.550 -12.692  1.00  0.00     0.074 A 
ATOM     56  C   UNL     1     -13.466  -0.583 -13.035  1.00  0.00     0.031 C 
ATOM     57  C   UNL     1     -12.439   1.629 -13.490  1.00  0.00     0.037 A 
BRANCH  44  58
ATOM     58  C   UNL     1      -8.721   5.948 -11.084  1.00  0.00     0.058 A 
ATOM     59  C   UNL     1      -7.329   6.036 -11.239  1.00  0.00     0.135 A 
ATOM     60  C   UNL     1      -9.463   7.138 -11.171  1.00  0.00     0.135 A 
ATOM     61  F   UNL     1      -6.567   4.934 -11.151  1.00  0.00    -0.206 F 
ATOM     62  C   UNL     1      -6.694   7.257 -11.449  1.00  0.00     0.059 A 
ATOM     63  C   UNL     1      -8.853   8.367 -11.410  1.00  0.00     0.059 A 
ATOM     64  F   UNL     1     -10.798   7.114 -11.033  1.00  0.00    -0.206 F 
ATOM     65  C   UNL     1      -7.466   8.417 -11.537  1.00  0.00     0.060 A 
BRANCH  65  66
ATOM     66  S   UNL     1      -6.625   9.989 -11.820  1.00  0.00     0.124 S 
ATOM     67  O   UNL     1      -5.909  10.167 -10.560  1.00  0.00    -0.237 OA
ATOM     68  O   UNL     1      -5.796   9.691 -12.983  1.00  0.00    -0.237 OA
ATOM     69  O   UNL     1      -7.719  10.926 -12.056  1.00  0.00    -0.744 OA
ENDBRANCH  65  66
ENDBRANCH  44  58
BRANCH  45  70
ATOM     70  C   UNL     1     -12.957  -2.987  -9.597  1.00  0.00     0.058 A 
ATOM     71  C   UNL     1     -12.530  -4.085 -10.357  1.00  0.00     0.135 A 
ATOM     72  C   UNL     1     -13.935  -3.212  -8.614  1.00  0.00     0.135 A 
ATOM     73  F   UNL     1     -11.604  -3.920 -11.313  1.00  0.00    -0.206 F 
ATOM     74  C   UNL     1     -13.052  -5.358 -10.154  1.00  0.00     0.059 A 
ATOM     75  C   UNL     1     -14.450  -4.481  -8.371  1.00  0.00     0.059 A 
ATOM     76  F   UNL     1     -14.367  -2.197  -7.850  1.00  0.00    -0.206 F 
ATOM     77  C   UNL     1     -14.005  -5.547  -9.152  1.00  0.00     0.060 A 
BRANCH  77  78
ATOM     78  S   UNL     1     -14.627  -7.216  -8.857  1.00  0.00     0.124 S 
ATOM     79  O   UNL     1     -15.400  -7.461 -10.069  1.00  0.00    -0.237 OA
ATOM     80  O   UNL     1     -13.390  -7.980  -8.723  1.00  0.00    -0.237 OA
ATOM     81  O   UNL     1     -15.404  -7.075  -7.630  1.00  0.00    -0.744 OA
ENDBRANCH  77  78
ENDBRANCH  45  70
BRANCH  57  82
ATOM     82  C   UNL     1     -13.131   1.638 -14.826  1.00  0.00     0.058 A 
ATOM     83  C   UNL     1     -14.518   1.823 -14.935  1.00  0.00     0.135 A 
ATOM     84  C   UNL     1     -12.389   1.527 -16.014  1.00  0.00     0.135 A 
ATOM     85  F   UNL     1     -15.275   1.925 -13.832  1.00  0.00    -0.206 F 
ATOM     86  C   UNL     1     -15.147   1.881 -16.174  1.00  0.00     0.059 A 
ATOM     87  C   UNL     1     -12.993   1.613 -17.264  1.00  0.00     0.059 A 
ATOM     88  F   UNL     1     -11.058   1.357 -15.967  1.00  0.00    -0.206 F 
ATOM     89  C   UNL     1     -14.375   1.783 -17.333  1.00  0.00     0.060 A 
BRANCH  89  90
ATOM     90  S   UNL     1     -15.205   1.905 -18.932  1.00  0.00     0.124 S 
ATOM     91  O   UNL     1     -15.962   0.658 -18.968  1.00  0.00    -0.237 OA
ATOM     92  O   UNL     1     -15.995   3.122 -18.778  1.00  0.00    -0.237 OA
ATOM     93  O   UNL     1     -14.101   1.996 -19.884  1.00  0.00    -0.744 OA
ENDBRANCH  89  90
ENDBRANCH  57  82
ENDBRANCH  31  32
ENDBRANCH  23  26
ENDBRANCH  21  22
ENDBRANCH  20  21
ENDBRANCH   1  20
TORSDOF 18
