REMARK SMILES CCNC(=O)N1[C@@H](C(=O)NCCCCNC(=O)c2ccc(-c3c4nc(c(-c5c(F)cc(S(=O)(=O)[O-])cc5F)c5ccc([nH]5)c(-c5c(F)cc(S(=O)(=O)[O-])cc5F)c5nc(c(-c6c(F)cc(S(=O)(=O)[O-])cc6F)c6ccc3[nH]6)C=C5)C=C4)cc2)CC[C@@H]2CCCC[C@H]21
REMARK SMILES IDX 13 1 12 2 11 3 10 4 8 5 9 6 7 8 6 9 91 10 84 11 86 12 90 13
REMARK SMILES IDX 85 14 87 15 89 16 88 17 4 18 3 19 5 21 2 22 1 23 14 24 15 25
REMARK SMILES IDX 16 26 17 28 18 29 19 30 83 31 20 32 82 33 21 34 22 35 23 36
REMARK SMILES IDX 76 37 24 38 81 39 75 40 77 41 25 42 80 43 74 44 73 45 26 47
REMARK SMILES IDX 60 48 39 49 59 50 40 51 43 52 58 53 78 54 41 55 42 56 57 58
REMARK SMILES IDX 79 59 44 60 27 61 28 62 37 63 29 64 30 65 36 66 38 67 31 68
REMARK SMILES IDX 32 69 33 70 34 71 35 72 61 73 62 74 71 75 63 76 64 77 70 78
REMARK SMILES IDX 72 79 65 80 66 81 67 82 68 83 69 84 45 85 46 86 55 87 47 88
REMARK SMILES IDX 48 89 54 90 56 91 49 92 50 93 51 94 52 95 53 96
REMARK H PARENT 10 7 3 20 15 27 77 46 43 57
REMARK Flexibility Score: inf
ROOT
ATOM      1  C   UNL     1      -0.146  -6.612  -3.929  1.00  0.00     0.023 C 
ENDROOT
BRANCH   1   2
ATOM      2  C   UNL     1      -1.050  -6.368  -2.719  1.00  0.00     0.023 C 
BRANCH   2   3
ATOM      3  C   UNL     1      -0.557  -5.272  -1.777  1.00  0.00     0.116 C 
BRANCH   3   4
ATOM      4  N   UNL     1      -0.605  -3.975  -2.427  1.00  0.00    -0.354 N 
ATOM      5  C   UNL     1      -1.297  -2.854  -2.083  1.00  0.00     0.242 C 
ATOM      6  O   UNL     1      -1.328  -1.926  -2.899  1.00  0.00    -0.273 OA
ATOM      7  H   UNL     1      -0.054  -3.894  -3.239  1.00  0.00     0.163 HD
BRANCH   5   8
ATOM      8  C   UNL     1      -2.146  -2.778  -0.791  1.00  0.00     0.176 C 
ATOM      9  N   UNL     1      -1.490  -3.218   0.466  1.00  0.00    -0.310 N 
ATOM     10  C   UNL     1      -2.389  -3.440   1.629  1.00  0.00     0.091 C 
ATOM     11  C   UNL     1      -3.429  -3.578  -1.113  1.00  0.00     0.036 C 
ATOM     12  C   UNL     1      -3.568  -4.367   1.261  1.00  0.00     0.012 C 
ATOM     13  C   UNL     1      -1.722  -3.913   2.939  1.00  0.00     0.025 C 
ATOM     14  C   UNL     1      -4.342  -3.776   0.081  1.00  0.00     0.008 C 
ATOM     15  C   UNL     1      -4.537  -4.592   2.433  1.00  0.00     0.006 C 
ATOM     16  C   UNL     1      -2.724  -4.068   4.079  1.00  0.00     0.002 C 
ATOM     17  C   UNL     1      -3.825  -5.045   3.700  1.00  0.00     0.000 C 
BRANCH   9  18
ATOM     18  C   UNL     1      -0.129  -3.196   0.652  1.00  0.00     0.318 C 
ATOM     19  N   UNL     1       0.653  -2.255   0.090  1.00  0.00    -0.338 N 
ATOM     20  H   UNL     1       1.596  -2.528   0.013  1.00  0.00     0.165 HD
ATOM     21  O   UNL     1       0.457  -4.059   1.308  1.00  0.00    -0.249 OA
BRANCH  19  22
ATOM     22  C   UNL     1       0.398  -0.923  -0.425  1.00  0.00     0.114 C 
ATOM     23  C   UNL     1       1.213   0.111   0.332  1.00  0.00     0.027 C 
ENDBRANCH  19  22
ENDBRANCH   9  18
ENDBRANCH   5   8
ENDBRANCH   3   4
ENDBRANCH   2   3
ENDBRANCH   1   2
BRANCH   1  24
ATOM     24  C   UNL     1       1.300  -6.955  -3.588  1.00  0.00     0.116 C 
BRANCH  24  25
ATOM     25  N   UNL     1       1.411  -8.143  -2.754  1.00  0.00    -0.352 N 
ATOM     26  C   UNL     1       2.254  -9.217  -2.902  1.00  0.00     0.251 C 
ATOM     27  H   UNL     1       0.801  -8.181  -1.982  1.00  0.00     0.163 HD
ATOM     28  O   UNL     1       2.113 -10.218  -2.206  1.00  0.00    -0.269 OA
BRANCH  26  29
ATOM     29  C   UNL     1       3.313  -9.163  -3.930  1.00  0.00     0.039 A 
ATOM     30  C   UNL     1       3.451 -10.231  -4.818  1.00  0.00     0.014 A 
ATOM     31  C   UNL     1       4.138  -8.040  -4.035  1.00  0.00     0.014 A 
ATOM     32  C   UNL     1       4.378 -10.144  -5.858  1.00  0.00     0.010 A 
ATOM     33  C   UNL     1       5.011  -7.926  -5.112  1.00  0.00     0.010 A 
ATOM     34  C   UNL     1       5.139  -8.976  -6.034  1.00  0.00    -0.014 A 
BRANCH  34  35
ATOM     35  C   UNL     1       6.074  -8.831  -7.178  1.00  0.00     0.031 A 
ATOM     36  C   UNL     1       7.550  -8.692  -6.930  1.00  0.00     0.074 A 
ATOM     37  C   UNL     1       5.585  -8.752  -8.432  1.00  0.00     0.049 A 
ATOM     38  N   UNL     1       8.514  -8.478  -7.787  1.00  0.00    -0.248 NA
ATOM     39  C   UNL     1       7.998  -8.776  -5.530  1.00  0.00     0.031 C 
ATOM     40  C   UNL     1       4.167  -8.820  -8.794  1.00  0.00     0.029 A 
ATOM     41  N   UNL     1       6.225  -8.585  -9.634  1.00  0.00    -0.354 N 
ATOM     42  C   UNL     1       9.678  -8.386  -7.032  1.00  0.00     0.074 A 
ATOM     43  C   UNL     1       9.293  -8.516  -5.644  1.00  0.00     0.031 C 
ATOM     44  C   UNL     1       4.047  -8.715 -10.127  1.00  0.00     0.029 A 
ATOM     45  C   UNL     1       5.373  -8.537 -10.712  1.00  0.00     0.049 A 
ATOM     46  H   UNL     1       7.202  -8.505  -9.717  1.00  0.00     0.167 HD
ATOM     47  C   UNL     1      10.954  -8.230  -7.459  1.00  0.00     0.037 A 
ATOM     48  C   UNL     1       5.630  -8.364 -12.023  1.00  0.00     0.037 A 
ATOM     49  C   UNL     1      11.332  -8.132  -8.844  1.00  0.00     0.049 A 
ATOM     50  C   UNL     1       7.056  -8.204 -12.474  1.00  0.00     0.074 A 
ATOM     51  C   UNL     1      12.603  -8.035  -9.384  1.00  0.00     0.029 A 
ATOM     52  N   UNL     1      10.443  -8.119  -9.909  1.00  0.00    -0.354 N 
ATOM     53  N   UNL     1       8.151  -8.183 -11.752  1.00  0.00    -0.248 NA
ATOM     54  C   UNL     1       7.284  -8.052 -13.918  1.00  0.00     0.031 C 
ATOM     55  C   UNL     1      12.480  -7.925 -10.773  1.00  0.00     0.029 A 
ATOM     56  C   UNL     1      11.136  -7.998 -11.103  1.00  0.00     0.049 A 
ATOM     57  H   UNL     1       9.464  -8.185  -9.829  1.00  0.00     0.167 HD
ATOM     58  C   UNL     1       9.199  -8.041 -12.654  1.00  0.00     0.074 A 
ATOM     59  C   UNL     1       8.608  -7.992 -13.976  1.00  0.00     0.031 C 
ATOM     60  C   UNL     1      10.531  -7.960 -12.411  1.00  0.00     0.037 A 
BRANCH  47  61
ATOM     61  C   UNL     1      12.033  -8.165  -6.415  1.00  0.00     0.058 A 
ATOM     62  C   UNL     1      12.407  -9.297  -5.671  1.00  0.00     0.135 A 
ATOM     63  C   UNL     1      12.723  -6.967  -6.173  1.00  0.00     0.135 A 
ATOM     64  F   UNL     1      11.769 -10.465  -5.851  1.00  0.00    -0.206 F 
ATOM     65  C   UNL     1      13.404  -9.235  -4.703  1.00  0.00     0.059 A 
ATOM     66  C   UNL     1      13.744  -6.889  -5.229  1.00  0.00     0.059 A 
ATOM     67  F   UNL     1      12.407  -5.855  -6.854  1.00  0.00    -0.206 F 
ATOM     68  C   UNL     1      14.066  -8.026  -4.488  1.00  0.00     0.060 A 
BRANCH  68  69
ATOM     69  S   UNL     1      15.359  -7.963  -3.231  1.00  0.00     0.124 S 
ATOM     70  O   UNL     1      14.572  -7.986  -2.002  1.00  0.00    -0.237 OA
ATOM     71  O   UNL     1      16.129  -9.170  -3.512  1.00  0.00    -0.237 OA
ATOM     72  O   UNL     1      16.046  -6.706  -3.512  1.00  0.00    -0.744 OA
ENDBRANCH  68  69
ENDBRANCH  47  61
BRANCH  48  73
ATOM     73  C   UNL     1       4.513  -8.357 -13.004  1.00  0.00     0.058 A 
ATOM     74  C   UNL     1       4.327  -9.428 -13.890  1.00  0.00     0.135 A 
ATOM     75  C   UNL     1       3.602  -7.291 -13.067  1.00  0.00     0.135 A 
ATOM     76  F   UNL     1       5.175 -10.468 -13.872  1.00  0.00    -0.206 F 
ATOM     77  C   UNL     1       3.287  -9.438 -14.814  1.00  0.00     0.059 A 
ATOM     78  C   UNL     1       2.540  -7.289 -13.966  1.00  0.00     0.059 A 
ATOM     79  F   UNL     1       3.726  -6.250 -12.229  1.00  0.00    -0.206 F 
ATOM     80  C   UNL     1       2.397  -8.364 -14.843  1.00  0.00     0.060 A 
BRANCH  80  81
ATOM     81  S   UNL     1       1.021  -8.409 -16.013  1.00  0.00     0.124 S 
ATOM     82  O   UNL     1       1.699  -8.129 -17.273  1.00  0.00    -0.237 OA
ATOM     83  O   UNL     1       0.520  -9.769 -15.845  1.00  0.00    -0.237 OA
ATOM     84  O   UNL     1       0.133  -7.358 -15.525  1.00  0.00    -0.744 OA
ENDBRANCH  80  81
ENDBRANCH  48  73
BRANCH  60  85
ATOM     85  C   UNL     1      11.445  -7.843 -13.598  1.00  0.00     0.058 A 
ATOM     86  C   UNL     1      11.555  -6.650 -14.328  1.00  0.00     0.135 A 
ATOM     87  C   UNL     1      12.262  -8.922 -13.973  1.00  0.00     0.135 A 
ATOM     88  F   UNL     1      10.791  -5.592 -14.014  1.00  0.00    -0.206 F 
ATOM     89  C   UNL     1      12.431  -6.537 -15.403  1.00  0.00     0.059 A 
ATOM     90  C   UNL     1      13.163  -8.822 -15.028  1.00  0.00     0.059 A 
ATOM     91  F   UNL     1      12.202 -10.082 -13.300  1.00  0.00    -0.206 F 
ATOM     92  C   UNL     1      13.233  -7.628 -15.744  1.00  0.00     0.060 A 
BRANCH  92  93
ATOM     93  S   UNL     1      14.393  -7.455 -17.116  1.00  0.00     0.124 S 
ATOM     94  O   UNL     1      13.499  -7.526 -18.267  1.00  0.00    -0.237 OA
ATOM     95  O   UNL     1      14.993  -6.150 -16.858  1.00  0.00    -0.237 OA
ATOM     96  O   UNL     1      15.291  -8.595 -16.947  1.00  0.00    -0.744 OA
ENDBRANCH  92  93
ENDBRANCH  60  85
ENDBRANCH  34  35
ENDBRANCH  26  29
ENDBRANCH  24  25
ENDBRANCH   1  24
TORSDOF 16
