REMARK SMILES COc1cccc([C@@H]2CC(c3cccc(C)c3)=NN2C(=O)CCC(=O)NCCCCNC(=O)c2ccc(-c3c4nc(c(-c5c(F)cc(S(=O)(=O)[O-])cc5F)c5ccc([nH]5)c(-c5c(F)cc(S(=O)(=O)[O-])cc5F)c5nc(c(-c6c(F)cc(S(=O)(=O)[O-])cc6F)c6ccc3[nH]6)C=C5)C=C4)cc2)c1
REMARK SMILES IDX 27 1 26 2 24 3 25 4 23 6 22 7 20 8 21 9 19 10 8 11 9 12
REMARK SMILES IDX 10 13 18 14 7 15 3 16 4 17 100 18 5 19 6 20 2 21 1 22 11 23
REMARK SMILES IDX 12 24 17 25 13 26 15 27 14 28 16 29 28 30 29 31 30 32 31 33
REMARK SMILES IDX 32 34 33 36 34 37 35 38 99 39 36 40 98 41 37 42 38 43 39 44
REMARK SMILES IDX 92 45 40 46 97 47 91 48 93 49 41 50 96 51 90 52 89 53 42 55
REMARK SMILES IDX 76 56 55 57 75 58 56 59 59 60 74 61 94 62 57 63 58 64 73 66
REMARK SMILES IDX 95 67 60 68 43 69 44 70 53 71 45 72 46 73 52 74 54 75 47 76
REMARK SMILES IDX 48 77 49 78 50 79 51 80 77 81 78 82 87 83 79 84 80 85 86 86
REMARK SMILES IDX 88 87 81 88 82 89 83 90 84 91 85 92 61 93 62 94 71 95 63 96
REMARK SMILES IDX 64 97 70 98 72 99 65 100 66 101 67 102 68 103 69 104
REMARK H PARENT 26 5 31 35 93 54 59 65
REMARK Flexibility Score: inf
ROOT
ATOM      1  C   UNL     1       4.706   2.855   0.885  1.00  0.00     0.116 C 
ENDROOT
BRANCH   1   2
ATOM      2  N   UNL     1       3.294   3.248   0.251  1.00  0.00    -0.356 N 
ATOM      3  C   UNL     1       2.798   4.360  -0.349  1.00  0.00     0.220 C 
ATOM      4  O   UNL     1       1.599   4.340  -0.642  1.00  0.00    -0.275 OA
ATOM      5  H   UNL     1       2.634   2.519   0.309  1.00  0.00     0.163 HD
BRANCH   3   6
ATOM      6  C   UNL     1       3.662   5.562  -0.650  1.00  0.00     0.110 C 
BRANCH   6   7
ATOM      7  C   UNL     1       4.479   6.205   0.473  1.00  0.00     0.112 C 
BRANCH   7   8
ATOM      8  C   UNL     1       5.773   5.451   0.796  1.00  0.00     0.243 C 
ATOM      9  O   UNL     1       6.801   5.665   0.159  1.00  0.00    -0.273 OA
BRANCH   8  10
ATOM     10  N   UNL     1       5.599   4.402   1.728  1.00  0.00    -0.225 N 
ATOM     11  C   UNL     1       3.904   4.021   2.423  1.00  0.00     0.147 C 
ATOM     12  C   UNL     1       3.856   1.977   2.278  1.00  0.00     0.091 C 
ATOM     13  C   UNL     1       5.891   1.559   1.785  1.00  0.00     0.071 C 
ATOM     14  N   UNL     1       6.630   2.902   1.466  1.00  0.00    -0.174 NA
BRANCH  11  15
ATOM     15  C   UNL     1       3.861   5.021   3.691  1.00  0.00    -0.019 A 
ATOM     16  C   UNL     1       2.679   6.617   5.097  1.00  0.00     0.119 A 
ATOM     17  C   UNL     1       3.890   7.087   5.618  1.00  0.00     0.046 A 
ATOM     18  C   UNL     1       2.657   5.572   4.152  1.00  0.00     0.052 A 
ATOM     19  C   UNL     1       5.088   6.537   5.207  1.00  0.00     0.004 A 
ATOM     20  C   UNL     1       5.070   5.532   4.247  1.00  0.00     0.006 A 
BRANCH  16  21
ATOM     21  O   UNL     1       1.598   7.311   5.569  1.00  0.00    -0.497 OA
ATOM     22  C   UNL     1       0.317   6.841   5.190  1.00  0.00     0.278 C 
ENDBRANCH  16  21
ENDBRANCH  11  15
BRANCH  13  23
ATOM     23  C   UNL     1       7.035   0.344   2.260  1.00  0.00    -0.002 A 
ATOM     24  C   UNL     1       8.377   0.653   2.170  1.00  0.00     0.010 A 
ATOM     25  C   UNL     1       6.824  -0.931   2.955  1.00  0.00     0.013 A 
ATOM     26  C   UNL     1       9.307  -0.239   2.735  1.00  0.00     0.001 A 
ATOM     27  C   UNL     1       7.602  -2.189   2.963  1.00  0.00    -0.050 A 
ATOM     28  C   UNL     1       8.947  -1.575   3.142  1.00  0.00     0.003 A 
ATOM     29  C   UNL     1       7.003  -4.071   2.142  1.00  0.00     0.044 C 
ENDBRANCH  13  23
ENDBRANCH   8  10
ENDBRANCH   7   8
ENDBRANCH   6   7
ENDBRANCH   3   6
ENDBRANCH   1   2
BRANCH   1  30
ATOM     30  C   UNL     1       5.309   2.761   3.028  1.00  0.00     0.023 C 
BRANCH  30  31
ATOM     31  C   UNL     1       5.051   1.074   3.883  1.00  0.00     0.023 C 
BRANCH  31  32
ATOM     32  C   UNL     1       4.244  -0.287   3.005  1.00  0.00     0.116 C 
BRANCH  32  33
ATOM     33  N   UNL     1       4.506  -0.625   1.433  1.00  0.00    -0.352 N 
ATOM     34  C   UNL     1       5.409  -1.375   0.608  1.00  0.00     0.251 C 
ATOM     35  H   UNL     1       3.834  -0.173   0.873  1.00  0.00     0.163 HD
ATOM     36  O   UNL     1       5.460  -1.179  -0.601  1.00  0.00    -0.269 OA
BRANCH  34  37
ATOM     37  C   UNL     1       6.289  -2.396   1.233  1.00  0.00     0.039 A 
ATOM     38  C   UNL     1       8.087  -2.811   1.004  1.00  0.00     0.014 A 
ATOM     39  C   UNL     1       5.447  -2.882   2.759  1.00  0.00     0.014 A 
ATOM     40  C   UNL     1       8.964  -3.767   2.351  1.00  0.00     0.010 A 
ATOM     41  C   UNL     1       6.338  -3.642   4.096  1.00  0.00     0.010 A 
ATOM     42  C   UNL     1       8.054  -4.139   3.926  1.00  0.00    -0.014 A 
BRANCH  42  43
ATOM     43  C   UNL     1       8.271  -5.166   5.044  1.00  0.00     0.031 A 
ATOM     44  C   UNL     1       7.460  -6.499   5.058  1.00  0.00     0.074 A 
ATOM     45  C   UNL     1       8.664  -4.723   6.263  1.00  0.00     0.049 A 
ATOM     46  N   UNL     1       7.312  -7.396   6.014  1.00  0.00    -0.248 NA
ATOM     47  C   UNL     1       6.647  -6.831   3.879  1.00  0.00     0.031 C 
ATOM     48  C   UNL     1       9.154  -3.377   6.559  1.00  0.00     0.029 A 
ATOM     49  N   UNL     1       8.624  -5.331   7.505  1.00  0.00    -0.354 N 
ATOM     50  C   UNL     1       6.434  -8.372   5.519  1.00  0.00     0.074 A 
ATOM     51  C   UNL     1       5.998  -7.925   4.231  1.00  0.00     0.031 C 
ATOM     52  C   UNL     1       9.364  -3.259   7.884  1.00  0.00     0.029 A 
ATOM     53  C   UNL     1       9.021  -4.517   8.546  1.00  0.00     0.049 A 
ATOM     54  H   UNL     1       8.338  -6.264   7.635  1.00  0.00     0.167 HD
ATOM     55  C   UNL     1       6.018  -9.554   6.040  1.00  0.00     0.037 A 
ATOM     56  C   UNL     1       9.109  -4.745   9.877  1.00  0.00     0.037 A 
ATOM     57  C   UNL     1       6.352 -10.009   7.355  1.00  0.00     0.049 A 
ATOM     58  C   UNL     1       8.745  -6.096  10.449  1.00  0.00     0.074 A 
ATOM     59  C   UNL     1       6.107 -11.242   7.934  1.00  0.00     0.029 A 
ATOM     60  N   UNL     1       6.952  -9.220   8.314  1.00  0.00    -0.354 N 
ATOM     61  N   UNL     1       8.193  -7.126   9.853  1.00  0.00    -0.248 NA
ATOM     62  C   UNL     1       9.040  -6.324  11.875  1.00  0.00     0.031 C 
ATOM     63  C   UNL     1       6.511 -11.177   9.271  1.00  0.00     0.029 A 
ATOM     64  C   UNL     1       7.055  -9.923   9.497  1.00  0.00     0.049 A 
ATOM     65  H   UNL     1       7.260  -8.295   8.176  1.00  0.00     0.167 HD
ATOM     66  C   UNL     1       8.115  -8.129  10.818  1.00  0.00     0.074 A 
ATOM     67  C   UNL     1       8.675  -7.589  12.035  1.00  0.00     0.031 C 
ATOM     68  C   UNL     1       7.628  -9.389  10.701  1.00  0.00     0.037 A 
BRANCH  55  69
ATOM     69  C   UNL     1       5.193 -10.477   5.169  1.00  0.00     0.058 A 
ATOM     70  C   UNL     1       5.774 -11.136   4.071  1.00  0.00     0.135 A 
ATOM     71  C   UNL     1       3.856 -10.779   5.473  1.00  0.00     0.135 A 
ATOM     72  F   UNL     1       7.044 -10.877   3.723  1.00  0.00    -0.206 F 
ATOM     73  C   UNL     1       5.060 -12.052   3.304  1.00  0.00     0.059 A 
ATOM     74  C   UNL     1       3.128 -11.711   4.732  1.00  0.00     0.059 A 
ATOM     75  F   UNL     1       3.244 -10.177   6.505  1.00  0.00    -0.206 F 
ATOM     76  C   UNL     1       3.738 -12.339   3.647  1.00  0.00     0.060 A 
BRANCH  76  77
ATOM     77  S   UNL     1       2.847 -13.569   2.668  1.00  0.00     0.124 S 
ATOM     78  O   UNL     1       2.622 -12.843   1.422  1.00  0.00    -0.237 OA
ATOM     79  O   UNL     1       3.807 -14.666   2.597  1.00  0.00    -0.237 OA
ATOM     80  O   UNL     1       1.652 -13.836   3.463  1.00  0.00    -0.744 OA
ENDBRANCH  76  77
ENDBRANCH  55  69
BRANCH  56  81
ATOM     81  C   UNL     1       9.653  -3.690  10.783  1.00  0.00     0.058 A 
ATOM     82  C   UNL     1      10.952  -3.804  11.305  1.00  0.00     0.135 A 
ATOM     83  C   UNL     1       8.897  -2.570  11.160  1.00  0.00     0.135 A 
ATOM     84  F   UNL     1      11.709  -4.865  10.987  1.00  0.00    -0.206 F 
ATOM     85  C   UNL     1      11.475  -2.861  12.184  1.00  0.00     0.059 A 
ATOM     86  C   UNL     1       9.408  -1.599  12.021  1.00  0.00     0.059 A 
ATOM     87  F   UNL     1       7.654  -2.406  10.682  1.00  0.00    -0.206 F 
ATOM     88  C   UNL     1      10.695  -1.760  12.537  1.00  0.00     0.060 A 
BRANCH  88  89
ATOM     89  S   UNL     1      11.402  -0.517  13.642  1.00  0.00     0.124 S 
ATOM     90  O   UNL     1      11.321  -1.191  14.932  1.00  0.00    -0.237 OA
ATOM     91  O   UNL     1      12.745  -0.346  13.094  1.00  0.00    -0.237 OA
ATOM     92  O   UNL     1      10.513   0.628  13.468  1.00  0.00    -0.744 OA
ENDBRANCH  88  89
ENDBRANCH  56  81
BRANCH  68  93
ATOM     93  C   UNL     1       7.713 -10.304  11.888  1.00  0.00     0.058 A 
ATOM     94  C   UNL     1       6.866 -10.160  12.996  1.00  0.00     0.135 A 
ATOM     95  C   UNL     1       8.599 -11.394  11.873  1.00  0.00     0.135 A 
ATOM     96  F   UNL     1       5.997  -9.139  13.054  1.00  0.00    -0.206 F 
ATOM     97  C   UNL     1       6.910 -11.053  14.061  1.00  0.00     0.059 A 
ATOM     98  C   UNL     1       8.643 -12.313  12.915  1.00  0.00     0.059 A 
ATOM     99  F   UNL     1       9.417 -11.586  10.826  1.00  0.00    -0.206 F 
ATOM    100  C   UNL     1       7.802 -12.127  14.011  1.00  0.00     0.060 A 
BRANCH 100 101
ATOM    101  S   UNL     1       7.827 -13.300  15.383  1.00  0.00     0.124 S 
ATOM    102  O   UNL     1       8.551 -12.545  16.400  1.00  0.00    -0.237 OA
ATOM    103  O   UNL     1       6.407 -13.513  15.642  1.00  0.00    -0.237 OA
ATOM    104  O   UNL     1       8.536 -14.451  14.831  1.00  0.00    -0.744 OA
ENDBRANCH 100 101
ENDBRANCH  68  93
ENDBRANCH  42  43
ENDBRANCH  34  37
ENDBRANCH  32  33
ENDBRANCH  31  32
ENDBRANCH  30  31
ENDBRANCH   1  30
TORSDOF 20
