REMARK SMILES CC(C)(C)OC(=O)N1CCC[C@H]1C(=O)N[C@@H](Cc1ccccc1)C(=O)NCCCCNC(=O)c1ccc(-c2c3nc(c(-c4c(F)cc(S(=O)(=O)[O-])cc4F)c4ccc([nH]4)c(-c4c(F)cc(S(=O)(=O)[O-])cc4F)c4nc(c(-c5c(F)cc(S(=O)(=O)[O-])cc5F)c5ccc2[nH]5)C=C4)C=C3)cc1
REMARK SMILES IDX 27 1 26 2 24 3 25 4 16 6 15 7 13 8 14 9 12 11 8 12 9 13
REMARK SMILES IDX 10 14 11 15 6 16 7 17 5 18 2 19 1 20 3 21 4 22 17 23 18 24
REMARK SMILES IDX 19 25 23 26 20 27 22 28 21 29 28 30 29 31 30 32 31 33 32 34
REMARK SMILES IDX 33 36 34 37 35 38 99 39 36 40 98 41 37 42 38 43 39 44 92 45
REMARK SMILES IDX 40 46 97 47 91 48 93 49 41 50 96 51 90 52 89 53 42 55 76 56
REMARK SMILES IDX 55 57 75 58 56 59 59 60 74 61 94 62 57 63 58 64 73 66 95 67
REMARK SMILES IDX 60 68 43 69 44 70 53 71 45 72 46 73 52 74 54 75 47 76 48 77
REMARK SMILES IDX 49 78 50 79 51 80 77 81 78 82 87 83 79 84 80 85 86 86 88 87
REMARK SMILES IDX 81 88 82 89 83 90 84 91 85 92 61 93 62 94 71 95 63 96 64 97
REMARK SMILES IDX 70 98 72 99 65 100 66 101 67 102 68 103 69 104
REMARK H PARENT 26 5 15 10 31 35 93 54 59 65
REMARK Flexibility Score: inf
ROOT
ATOM      1  C   UNL     1      -2.966  -4.741   7.852  1.00  0.00     0.116 C 
ENDROOT
BRANCH   1   2
ATOM      2  N   UNL     1      -3.419  -4.670   6.479  1.00  0.00    -0.354 N 
ATOM      3  C   UNL     1      -3.079  -5.450   5.411  1.00  0.00     0.242 C 
ATOM      4  O   UNL     1      -3.915  -5.553   4.505  1.00  0.00    -0.273 OA
ATOM      5  H   UNL     1      -4.067  -3.954   6.287  1.00  0.00     0.163 HD
BRANCH   3   6
ATOM      6  C   UNL     1      -1.777  -6.288   5.333  1.00  0.00     0.175 C 
BRANCH   6   7
ATOM      7  N   UNL     1      -0.582  -5.624   5.862  1.00  0.00    -0.342 N 
ATOM      8  C   UNL     1       0.310  -4.822   5.194  1.00  0.00     0.243 C 
ATOM      9  O   UNL     1       1.141  -4.199   5.859  1.00  0.00    -0.273 OA
ATOM     10  H   UNL     1      -0.395  -5.773   6.817  1.00  0.00     0.164 HD
BRANCH   8  11
ATOM     11  C   UNL     1       0.369  -4.899   3.654  1.00  0.00     0.178 C 
ATOM     12  N   UNL     1       1.035  -3.777   3.007  1.00  0.00    -0.296 N 
ATOM     13  C   UNL     1       2.308  -4.159   2.439  1.00  0.00     0.124 C 
ATOM     14  C   UNL     1       2.139  -5.641   2.159  1.00  0.00     0.024 C 
ATOM     15  C   UNL     1       1.224  -6.122   3.280  1.00  0.00     0.037 C 
BRANCH  12  16
ATOM     16  C   UNL     1       0.395  -2.576   2.841  1.00  0.00     0.410 C 
ATOM     17  O   UNL     1      -0.650  -2.295   3.413  1.00  0.00    -0.224 OA
BRANCH  16  18
ATOM     18  O   UNL     1       1.019  -1.794   1.925  1.00  0.00    -0.444 OA
BRANCH  18  19
ATOM     19  C   UNL     1       0.515  -0.482   1.559  1.00  0.00     0.106 C 
ATOM     20  C   UNL     1       1.231  -0.140   0.242  1.00  0.00     0.056 C 
ATOM     21  C   UNL     1       0.928   0.523   2.635  1.00  0.00     0.056 C 
ATOM     22  C   UNL     1      -0.996  -0.440   1.296  1.00  0.00     0.056 C 
ENDBRANCH  18  19
ENDBRANCH  16  18
ENDBRANCH  12  16
ENDBRANCH   8  11
ENDBRANCH   6   7
BRANCH   6  23
ATOM     23  C   UNL     1      -1.942  -7.759   5.769  1.00  0.00     0.070 C 
BRANCH  23  24
ATOM     24  C   UNL     1      -2.060  -8.056   7.242  1.00  0.00    -0.045 A 
ATOM     25  C   UNL     1      -3.293  -7.933   7.896  1.00  0.00     0.004 A 
ATOM     26  C   UNL     1      -0.949  -8.491   7.978  1.00  0.00     0.004 A 
ATOM     27  C   UNL     1      -3.395  -8.150   9.271  1.00  0.00     0.000 A 
ATOM     28  C   UNL     1      -1.061  -8.746   9.347  1.00  0.00     0.000 A 
ATOM     29  C   UNL     1      -2.278  -8.551   9.998  1.00  0.00     0.000 A 
ENDBRANCH  23  24
ENDBRANCH   6  23
ENDBRANCH   3   6
ENDBRANCH   1   2
BRANCH   1  30
ATOM     30  C   UNL     1      -2.985  -3.415   8.601  1.00  0.00     0.023 C 
BRANCH  30  31
ATOM     31  C   UNL     1      -4.351  -2.993   9.150  1.00  0.00     0.023 C 
BRANCH  31  32
ATOM     32  C   UNL     1      -5.123  -4.028   9.973  1.00  0.00     0.116 C 
BRANCH  32  33
ATOM     33  N   UNL     1      -4.373  -4.619  11.073  1.00  0.00    -0.352 N 
ATOM     34  C   UNL     1      -4.812  -4.936  12.341  1.00  0.00     0.251 C 
ATOM     35  H   UNL     1      -3.427  -4.819  10.886  1.00  0.00     0.163 HD
ATOM     36  O   UNL     1      -4.040  -5.417  13.164  1.00  0.00    -0.269 OA
BRANCH  34  37
ATOM     37  C   UNL     1      -6.214  -4.645  12.716  1.00  0.00     0.039 A 
ATOM     38  C   UNL     1      -6.458  -3.842  13.833  1.00  0.00     0.014 A 
ATOM     39  C   UNL     1      -7.274  -5.099  11.928  1.00  0.00     0.014 A 
ATOM     40  C   UNL     1      -7.759  -3.402  14.095  1.00  0.00     0.010 A 
ATOM     41  C   UNL     1      -8.561  -4.612  12.158  1.00  0.00     0.010 A 
ATOM     42  C   UNL     1      -8.811  -3.736  13.225  1.00  0.00    -0.014 A 
BRANCH  42  43
ATOM     43  C   UNL     1     -10.161  -3.129  13.381  1.00  0.00     0.031 A 
ATOM     44  C   UNL     1     -11.352  -3.989  13.701  1.00  0.00     0.074 A 
ATOM     45  C   UNL     1     -10.322  -1.807  13.164  1.00  0.00     0.049 A 
ATOM     46  N   UNL     1     -12.614  -3.652  13.783  1.00  0.00    -0.248 NA
ATOM     47  C   UNL     1     -11.095  -5.418  13.942  1.00  0.00     0.031 C 
ATOM     48  C   UNL     1      -9.255  -0.870  12.800  1.00  0.00     0.029 A 
ATOM     49  N   UNL     1     -11.448  -1.021  13.203  1.00  0.00    -0.354 N 
ATOM     50  C   UNL     1     -13.301  -4.822  14.086  1.00  0.00     0.074 A 
ATOM     51  C   UNL     1     -12.322  -5.888  14.121  1.00  0.00     0.031 C 
ATOM     52  C   UNL     1      -9.775   0.361  12.663  1.00  0.00     0.029 A 
ATOM     53  C   UNL     1     -11.214   0.299  12.893  1.00  0.00     0.049 A 
ATOM     54  H   UNL     1     -12.340  -1.370  13.431  1.00  0.00     0.167 HD
ATOM     55  C   UNL     1     -14.621  -4.988  14.339  1.00  0.00     0.037 A 
ATOM     56  C   UNL     1     -12.064   1.341  12.792  1.00  0.00     0.037 A 
ATOM     57  C   UNL     1     -15.593  -3.925  14.318  1.00  0.00     0.049 A 
ATOM     58  C   UNL     1     -13.529   1.123  13.062  1.00  0.00     0.074 A 
ATOM     59  C   UNL     1     -16.951  -3.995  14.577  1.00  0.00     0.029 A 
ATOM     60  N   UNL     1     -15.311  -2.598  14.030  1.00  0.00    -0.354 N 
ATOM     61  N   UNL     1     -14.152   0.015  13.387  1.00  0.00    -0.248 NA
ATOM     62  C   UNL     1     -14.408   2.297  12.957  1.00  0.00     0.031 C 
ATOM     63  C   UNL     1     -17.495  -2.716  14.421  1.00  0.00     0.029 A 
ATOM     64  C   UNL     1     -16.469  -1.842  14.102  1.00  0.00     0.049 A 
ATOM     65  H   UNL     1     -14.419  -2.245  13.807  1.00  0.00     0.167 HD
ATOM     66  C   UNL     1     -15.487   0.366  13.553  1.00  0.00     0.074 A 
ATOM     67  C   UNL     1     -15.581   1.789  13.308  1.00  0.00     0.031 C 
ATOM     68  C   UNL     1     -16.542  -0.421  13.877  1.00  0.00     0.037 A 
BRANCH  55  69
ATOM     69  C   UNL     1     -15.095  -6.370  14.693  1.00  0.00     0.058 A 
ATOM     70  C   UNL     1     -14.803  -6.939  15.942  1.00  0.00     0.135 A 
ATOM     71  C   UNL     1     -15.900  -7.105  13.808  1.00  0.00     0.135 A 
ATOM     72  F   UNL     1     -14.024  -6.284  16.818  1.00  0.00    -0.206 F 
ATOM     73  C   UNL     1     -15.279  -8.196  16.298  1.00  0.00     0.059 A 
ATOM     74  C   UNL     1     -16.408  -8.355  14.153  1.00  0.00     0.059 A 
ATOM     75  F   UNL     1     -16.208  -6.607  12.601  1.00  0.00    -0.206 F 
ATOM     76  C   UNL     1     -16.085  -8.895  15.397  1.00  0.00     0.060 A 
BRANCH  76  77
ATOM     77  S   UNL     1     -16.718 -10.513  15.888  1.00  0.00     0.124 S 
ATOM     78  O   UNL     1     -15.514 -11.334  15.805  1.00  0.00    -0.237 OA
ATOM     79  O   UNL     1     -17.218 -10.257  17.235  1.00  0.00    -0.237 OA
ATOM     80  O   UNL     1     -17.741 -10.796  14.887  1.00  0.00    -0.744 OA
ENDBRANCH  76  77
ENDBRANCH  55  69
BRANCH  56  81
ATOM     81  C   UNL     1     -11.564   2.692  12.421  1.00  0.00     0.058 A 
ATOM     82  C   UNL     1     -11.570   3.745  13.349  1.00  0.00     0.135 A 
ATOM     83  C   UNL     1     -11.113   2.970  11.121  1.00  0.00     0.135 A 
ATOM     84  F   UNL     1     -11.997   3.530  14.603  1.00  0.00    -0.206 F 
ATOM     85  C   UNL     1     -11.187   5.034  12.993  1.00  0.00     0.059 A 
ATOM     86  C   UNL     1     -10.699   4.246  10.748  1.00  0.00     0.059 A 
ATOM     87  F   UNL     1     -11.068   1.994  10.201  1.00  0.00    -0.206 F 
ATOM     88  C   UNL     1     -10.761   5.276  11.686  1.00  0.00     0.060 A 
BRANCH  88  89
ATOM     89  S   UNL     1     -10.271   6.952  11.227  1.00  0.00     0.124 S 
ATOM     90  O   UNL     1     -11.566   7.605  11.078  1.00  0.00    -0.237 OA
ATOM     91  O   UNL     1      -9.474   7.368  12.377  1.00  0.00    -0.237 OA
ATOM     92  O   UNL     1      -9.517   6.752   9.992  1.00  0.00    -0.744 OA
ENDBRANCH  88  89
ENDBRANCH  56  81
BRANCH  68  93
ATOM     93  C   UNL     1     -17.881   0.245  14.030  1.00  0.00     0.058 A 
ATOM     94  C   UNL     1     -18.616   0.686  12.919  1.00  0.00     0.135 A 
ATOM     95  C   UNL     1     -18.455   0.401  15.302  1.00  0.00     0.135 A 
ATOM     96  F   UNL     1     -18.108   0.567  11.682  1.00  0.00    -0.206 F 
ATOM     97  C   UNL     1     -19.865   1.280  13.065  1.00  0.00     0.059 A 
ATOM     98  C   UNL     1     -19.714   0.969  15.469  1.00  0.00     0.059 A 
ATOM     99  F   UNL     1     -17.797  -0.013  16.396  1.00  0.00    -0.206 F 
ATOM    100  C   UNL     1     -20.407   1.416  14.345  1.00  0.00     0.060 A 
BRANCH 100 101
ATOM    101  S   UNL     1     -22.045   2.155  14.519  1.00  0.00     0.124 S 
ATOM    102  O   UNL     1     -21.753   3.570  14.314  1.00  0.00    -0.237 OA
ATOM    103  O   UNL     1     -22.799   1.502  13.453  1.00  0.00    -0.237 OA
ATOM    104  O   UNL     1     -22.442   1.785  15.875  1.00  0.00    -0.744 OA
ENDBRANCH 100 101
ENDBRANCH  68  93
ENDBRANCH  42  43
ENDBRANCH  34  37
ENDBRANCH  32  33
ENDBRANCH  31  32
ENDBRANCH  30  31
ENDBRANCH   1  30
TORSDOF 21
