REMARK SMILES COc1ccc(C(=O)NCCCCNC(=O)c2ccc(-c3c4nc(c(-c5c(F)cc(S(=O)(=O)[O-])cc5F)c5ccc([nH]5)c(-c5c(F)cc(S(=O)(=O)[O-])cc5F)c5nc(c(-c6c(F)cc(S(=O)(=O)[O-])cc6F)c6ccc3[nH]6)C=C5)C=C4)cc2)cc1S(=O)(=O)N(C)Cc1cccc(F)c1
REMARK SMILES IDX 11 1 10 2 9 3 7 4 8 5 6 7 3 8 4 9 84 10 5 11 83 12 2 13 1 14
REMARK SMILES IDX 85 15 86 16 87 17 88 18 89 19 90 20 91 21 92 22 97 23 93 24
REMARK SMILES IDX 95 25 94 26 96 27 12 28 13 29 14 30 15 31 16 33 17 34 18 35
REMARK SMILES IDX 82 36 19 37 81 38 20 39 21 40 22 41 75 42 23 43 80 44 74 45
REMARK SMILES IDX 76 46 24 47 79 48 73 49 72 50 25 52 59 53 38 54 58 55 39 56
REMARK SMILES IDX 42 57 57 58 77 59 40 60 41 61 56 63 78 64 43 65 26 66 27 67
REMARK SMILES IDX 36 68 28 69 29 70 35 71 37 72 30 73 31 74 32 75 33 76 34 77
REMARK SMILES IDX 60 78 61 79 70 80 62 81 63 82 69 83 71 84 64 85 65 86 66 87
REMARK SMILES IDX 67 88 68 89 44 90 45 91 54 92 46 93 47 94 53 95 55 96 48 97
REMARK SMILES IDX 49 98 50 99 51 100 52 101
REMARK H PARENT 9 6 14 32 76 51 42 62
REMARK Flexibility Score: inf
ROOT
ATOM      1  C   UNL     1       5.393   5.626   1.332  1.00  0.00     0.023 C 
ENDROOT
BRANCH   1   2
ATOM      2  C   UNL     1       4.235   5.739   2.331  1.00  0.00     0.116 C 
BRANCH   2   3
ATOM      3  N   UNL     1       3.156   6.558   1.794  1.00  0.00    -0.352 N 
ATOM      4  C   UNL     1       1.961   6.253   1.189  1.00  0.00     0.251 C 
ATOM      5  O   UNL     1       1.210   7.183   0.894  1.00  0.00    -0.269 OA
ATOM      6  H   UNL     1       3.316   7.525   1.884  1.00  0.00     0.163 HD
BRANCH   4   7
ATOM      7  C   UNL     1       1.509   4.859   0.902  1.00  0.00     0.041 A 
ATOM      8  C   UNL     1       0.541   2.241   0.421  1.00  0.00     0.138 A 
ATOM      9  C   UNL     1      -0.343   3.322   0.496  1.00  0.00     0.049 A 
ATOM     10  C   UNL     1       1.904   2.477   0.547  1.00  0.00     0.125 A 
ATOM     11  C   UNL     1       0.136   4.615   0.762  1.00  0.00     0.018 A 
ATOM     12  C   UNL     1       2.378   3.789   0.728  1.00  0.00     0.039 A 
BRANCH   8  13
ATOM     13  O   UNL     1       0.039   1.025   0.058  1.00  0.00    -0.495 OA
ATOM     14  C   UNL     1      -0.341   0.248   1.191  1.00  0.00     0.278 C 
ENDBRANCH   8  13
BRANCH  10  15
ATOM     15  S   UNL     1       3.140   1.211   0.620  1.00  0.00     0.246 S 
ATOM     16  O   UNL     1       4.382   1.838   0.247  1.00  0.00    -0.207 OA
ATOM     17  O   UNL     1       3.010   0.600   1.935  1.00  0.00    -0.207 OA
BRANCH  15  18
ATOM     18  N   UNL     1       2.813   0.018  -0.522  1.00  0.00    -0.196 NA
ATOM     19  C   UNL     1       2.304   0.340  -1.859  1.00  0.00     0.125 C 
BRANCH  18  20
ATOM     20  C   UNL     1       3.714  -1.161  -0.455  1.00  0.00     0.137 C 
BRANCH  20  21
ATOM     21  C   UNL     1       5.015  -1.151  -1.243  1.00  0.00    -0.030 A 
ATOM     22  C   UNL     1       5.747  -2.349  -1.336  1.00  0.00     0.005 A 
ATOM     23  C   UNL     1       5.559  -0.011  -1.854  1.00  0.00     0.044 A 
ATOM     24  C   UNL     1       6.962  -2.406  -2.030  1.00  0.00     0.003 A 
ATOM     25  C   UNL     1       6.765  -0.075  -2.545  1.00  0.00     0.123 A 
ATOM     26  C   UNL     1       7.470  -1.264  -2.641  1.00  0.00     0.039 A 
ATOM     27  F   UNL     1       7.244   1.029  -3.133  1.00  0.00    -0.207 F 
ENDBRANCH  20  21
ENDBRANCH  18  20
ENDBRANCH  15  18
ENDBRANCH  10  15
ENDBRANCH   4   7
ENDBRANCH   2   3
ENDBRANCH   1   2
BRANCH   1  28
ATOM     28  C   UNL     1       6.352   6.822   1.342  1.00  0.00     0.023 C 
BRANCH  28  29
ATOM     29  C   UNL     1       7.166   6.974   2.624  1.00  0.00     0.116 C 
BRANCH  29  30
ATOM     30  N   UNL     1       8.035   5.840   2.889  1.00  0.00    -0.352 N 
ATOM     31  C   UNL     1       9.210   5.807   3.600  1.00  0.00     0.251 C 
ATOM     32  H   UNL     1       7.743   4.981   2.508  1.00  0.00     0.163 HD
ATOM     33  O   UNL     1       9.878   4.778   3.630  1.00  0.00    -0.269 OA
BRANCH  31  34
ATOM     34  C   UNL     1       9.691   7.022   4.296  1.00  0.00     0.039 A 
ATOM     35  C   UNL     1      11.041   7.366   4.184  1.00  0.00     0.014 A 
ATOM     36  C   UNL     1       8.830   7.811   5.065  1.00  0.00     0.014 A 
ATOM     37  C   UNL     1      11.519   8.520   4.809  1.00  0.00     0.010 A 
ATOM     38  C   UNL     1       9.292   8.996   5.632  1.00  0.00     0.010 A 
ATOM     39  C   UNL     1      10.644   9.354   5.523  1.00  0.00    -0.014 A 
BRANCH  39  40
ATOM     40  C   UNL     1      11.137  10.586   6.188  1.00  0.00     0.031 A 
ATOM     41  C   UNL     1      11.120  10.690   7.689  1.00  0.00     0.074 A 
ATOM     42  C   UNL     1      11.548  11.629   5.443  1.00  0.00     0.049 A 
ATOM     43  N   UNL     1      11.482  11.688   8.453  1.00  0.00    -0.248 NA
ATOM     44  C   UNL     1      10.595   9.530   8.425  1.00  0.00     0.031 C 
ATOM     45  C   UNL     1      11.547  11.675   3.980  1.00  0.00     0.029 A 
ATOM     46  N   UNL     1      12.037  12.855   5.815  1.00  0.00    -0.354 N 
ATOM     47  C   UNL     1      11.212  11.285   9.755  1.00  0.00     0.074 A 
ATOM     48  C   UNL     1      10.605   9.974   9.673  1.00  0.00     0.031 C 
ATOM     49  C   UNL     1      12.031  12.861   3.578  1.00  0.00     0.029 A 
ATOM     50  C   UNL     1      12.358  13.665   4.752  1.00  0.00     0.049 A 
ATOM     51  H   UNL     1      12.147  13.129   6.754  1.00  0.00     0.167 HD
ATOM     52  C   UNL     1      11.468  11.936  10.916  1.00  0.00     0.037 A 
ATOM     53  C   UNL     1      12.868  14.912   4.728  1.00  0.00     0.037 A 
ATOM     54  C   UNL     1      12.097  13.228  10.993  1.00  0.00     0.049 A 
ATOM     55  C   UNL     1      13.207  15.591   6.025  1.00  0.00     0.074 A 
ATOM     56  C   UNL     1      12.450  13.953  12.118  1.00  0.00     0.029 A 
ATOM     57  N   UNL     1      12.471  13.990   9.894  1.00  0.00    -0.354 N 
ATOM     58  N   UNL     1      13.008  15.169   7.252  1.00  0.00    -0.248 NA
ATOM     59  C   UNL     1      13.860  16.903   5.936  1.00  0.00     0.031 C 
ATOM     60  C   UNL     1      13.016  15.164  11.699  1.00  0.00     0.029 A 
ATOM     61  C   UNL     1      13.049  15.177  10.313  1.00  0.00     0.049 A 
ATOM     62  H   UNL     1      12.344  13.725   8.955  1.00  0.00     0.167 HD
ATOM     63  C   UNL     1      13.536  16.152   8.082  1.00  0.00     0.074 A 
ATOM     64  C   UNL     1      14.069  17.185   7.215  1.00  0.00     0.031 C 
ATOM     65  C   UNL     1      13.579  16.193   9.437  1.00  0.00     0.037 A 
BRANCH  52  66
ATOM     66  C   UNL     1      11.060  11.246  12.190  1.00  0.00     0.058 A 
ATOM     67  C   UNL     1      11.719  10.091  12.644  1.00  0.00     0.135 A 
ATOM     68  C   UNL     1       9.981  11.724  12.949  1.00  0.00     0.135 A 
ATOM     69  F   UNL     1      12.749   9.582  11.949  1.00  0.00    -0.206 F 
ATOM     70  C   UNL     1      11.288   9.403  13.774  1.00  0.00     0.059 A 
ATOM     71  C   UNL     1       9.550  11.068  14.099  1.00  0.00     0.059 A 
ATOM     72  F   UNL     1       9.318  12.826  12.564  1.00  0.00    -0.206 F 
ATOM     73  C   UNL     1      10.193   9.893  14.488  1.00  0.00     0.060 A 
BRANCH  73  74
ATOM     74  S   UNL     1       9.610   8.968  15.924  1.00  0.00     0.124 S 
ATOM     75  O   UNL     1       8.868   7.883  15.287  1.00  0.00    -0.237 OA
ATOM     76  O   UNL     1      10.855   8.582  16.580  1.00  0.00    -0.237 OA
ATOM     77  O   UNL     1       8.801   9.943  16.648  1.00  0.00    -0.744 OA
ENDBRANCH  73  74
ENDBRANCH  52  66
BRANCH  53  78
ATOM     78  C   UNL     1      13.141  15.561   3.420  1.00  0.00     0.058 A 
ATOM     79  C   UNL     1      14.450  15.665   2.929  1.00  0.00     0.135 A 
ATOM     80  C   UNL     1      12.097  16.032   2.610  1.00  0.00     0.135 A 
ATOM     81  F   UNL     1      15.481  15.231   3.670  1.00  0.00    -0.206 F 
ATOM     82  C   UNL     1      14.717  16.214   1.679  1.00  0.00     0.059 A 
ATOM     83  C   UNL     1      12.337  16.567   1.349  1.00  0.00     0.059 A 
ATOM     84  F   UNL     1      10.825  15.937   3.030  1.00  0.00    -0.206 F 
ATOM     85  C   UNL     1      13.652  16.656   0.892  1.00  0.00     0.060 A 
BRANCH  85  86
ATOM     86  S   UNL     1      14.001  17.284  -0.765  1.00  0.00     0.124 S 
ATOM     87  O   UNL     1      14.550  18.602  -0.470  1.00  0.00    -0.237 OA
ATOM     88  O   UNL     1      14.948  16.297  -1.275  1.00  0.00    -0.237 OA
ATOM     89  O   UNL     1      12.691  17.274  -1.409  1.00  0.00    -0.744 OA
ENDBRANCH  85  86
ENDBRANCH  53  78
BRANCH  65  90
ATOM     90  C   UNL     1      14.258  17.376  10.066  1.00  0.00     0.058 A 
ATOM     91  C   UNL     1      13.659  18.645  10.093  1.00  0.00     0.135 A 
ATOM     92  C   UNL     1      15.514  17.230  10.676  1.00  0.00     0.135 A 
ATOM     93  F   UNL     1      12.460  18.838   9.521  1.00  0.00    -0.206 F 
ATOM     94  C   UNL     1      14.295  19.736  10.677  1.00  0.00     0.059 A 
ATOM     95  C   UNL     1      16.159  18.301  11.286  1.00  0.00     0.059 A 
ATOM     96  F   UNL     1      16.125  16.034  10.688  1.00  0.00    -0.206 F 
ATOM     97  C   UNL     1      15.548  19.555  11.266  1.00  0.00     0.060 A 
BRANCH  97  98
ATOM     98  S   UNL     1      16.362  20.972  12.032  1.00  0.00     0.124 S 
ATOM     99  O   UNL     1      16.882  21.677  10.865  1.00  0.00    -0.237 OA
ATOM    100  O   UNL     1      15.262  21.630  12.732  1.00  0.00    -0.237 OA
ATOM    101  O   UNL     1      17.367  20.359  12.896  1.00  0.00    -0.744 OA
ENDBRANCH  97  98
ENDBRANCH  65  90
ENDBRANCH  39  40
ENDBRANCH  31  34
ENDBRANCH  29  30
ENDBRANCH  28  29
ENDBRANCH   1  28
TORSDOF 19
