REMARK SMILES COc1ccc(NS(=O)(=O)c2ccc(NC(=O)[C@H]3CCCC[C@@H]3C(=O)NCCCCNC(=O)c3ccc(-c4c5nc(c(-c6c(F)cc(S(=O)(=O)[O-])cc6F)c6ccc([nH]6)c(-c6c(F)cc(S(=O)(=O)[O-])cc6F)c6nc(c(-c7c(F)cc(S(=O)(=O)[O-])cc7F)c7ccc4[nH]7)C=C6)C=C5)cc3)cc2)cc1
REMARK SMILES IDX 27 1 26 2 24 3 25 4 23 6 18 7 19 8 20 9 22 10 21 11 16 12
REMARK SMILES IDX 15 13 17 15 14 16 11 17 12 18 101 19 13 20 100 21 8 22 9 23
REMARK SMILES IDX 10 24 7 25 6 27 3 28 4 29 103 30 5 31 102 32 2 33 1 34 28 35
REMARK SMILES IDX 29 36 30 37 31 38 32 39 33 41 34 42 35 43 99 44 36 45 98 46
REMARK SMILES IDX 37 47 38 48 39 49 92 50 40 51 97 52 91 53 93 54 41 55 96 56
REMARK SMILES IDX 90 57 89 58 42 60 76 61 55 62 75 63 56 64 59 65 74 66 94 67
REMARK SMILES IDX 57 68 58 69 73 71 95 72 60 73 43 74 44 75 53 76 45 77 46 78
REMARK SMILES IDX 52 79 54 80 47 81 48 82 49 83 50 84 51 85 77 86 78 87 87 88
REMARK SMILES IDX 79 89 80 90 86 91 88 92 81 93 82 94 83 95 84 96 85 97 61 98
REMARK SMILES IDX 62 99 71 100 63 101 64 102 70 103 72 104 65 105 66 106
REMARK SMILES IDX 67 107 68 108 69 109
REMARK H PARENT 26 5 15 14 7 26 31 40 93 59 59 70
REMARK Flexibility Score: inf
ROOT
ATOM      1  C   UNL     1      -6.221  -2.185   3.607  1.00  0.00     0.116 C 
ENDROOT
BRANCH   1   2
ATOM      2  N   UNL     1      -5.125  -2.703   4.402  1.00  0.00    -0.356 N 
ATOM      3  C   UNL     1      -3.778  -2.501   4.230  1.00  0.00     0.223 C 
ATOM      4  O   UNL     1      -3.016  -2.937   5.090  1.00  0.00    -0.275 OA
ATOM      5  H   UNL     1      -5.379  -3.272   5.163  1.00  0.00     0.163 HD
BRANCH   3   6
ATOM      6  C   UNL     1      -3.277  -1.786   2.961  1.00  0.00     0.091 C 
ATOM      7  C   UNL     1      -3.268  -2.752   1.767  1.00  0.00     0.091 C 
ATOM      8  C   UNL     1      -2.089  -3.756   1.958  1.00  0.00     0.014 C 
ATOM      9  C   UNL     1      -0.731  -3.069   2.125  1.00  0.00     0.001 C 
ATOM     10  C   UNL     1      -1.914  -1.095   3.129  1.00  0.00     0.014 C 
ATOM     11  C   UNL     1      -0.735  -2.046   3.249  1.00  0.00     0.001 C 
BRANCH   7  12
ATOM     12  C   UNL     1      -3.231  -2.220   0.312  1.00  0.00     0.228 C 
ATOM     13  N   UNL     1      -3.455  -0.952  -0.122  1.00  0.00    -0.326 N 
ATOM     14  H   UNL     1      -3.241  -0.838  -1.076  1.00  0.00     0.169 HD
ATOM     15  O   UNL     1      -2.922  -3.009  -0.597  1.00  0.00    -0.274 OA
BRANCH  13  16
ATOM     16  C   UNL     1      -3.917   0.226   0.465  1.00  0.00     0.041 A 
ATOM     17  C   UNL     1      -4.485   2.562   1.873  1.00  0.00     0.087 A 
ATOM     18  C   UNL     1      -5.336   1.463   1.992  1.00  0.00     0.024 A 
ATOM     19  C   UNL     1      -3.450   2.550   0.933  1.00  0.00     0.024 A 
ATOM     20  C   UNL     1      -5.058   0.301   1.260  1.00  0.00     0.027 A 
ATOM     21  C   UNL     1      -3.187   1.389   0.208  1.00  0.00     0.027 A 
BRANCH  17  22
ATOM     22  S   UNL     1      -4.561   3.946   2.991  1.00  0.00     0.261 S 
ATOM     23  O   UNL     1      -5.431   4.918   2.363  1.00  0.00    -0.201 OA
ATOM     24  O   UNL     1      -3.201   4.277   3.355  1.00  0.00    -0.201 OA
BRANCH  22  25
ATOM     25  N   UNL     1      -5.369   3.408   4.350  1.00  0.00    -0.280 N 
ATOM     26  H   UNL     1      -6.266   3.783   4.506  1.00  0.00     0.180 HD
BRANCH  25  27
ATOM     27  C   UNL     1      -4.896   2.464   5.306  1.00  0.00     0.049 A 
ATOM     28  C   UNL     1      -4.357   0.364   7.098  1.00  0.00     0.119 A 
ATOM     29  C   UNL     1      -3.490   0.640   6.047  1.00  0.00     0.048 A 
ATOM     30  C   UNL     1      -5.446   1.198   7.319  1.00  0.00     0.048 A 
ATOM     31  C   UNL     1      -3.763   1.672   5.139  1.00  0.00     0.030 A 
ATOM     32  C   UNL     1      -5.714   2.239   6.422  1.00  0.00     0.030 A 
BRANCH  28  33
ATOM     33  O   UNL     1      -4.037  -0.722   7.859  1.00  0.00    -0.497 OA
ATOM     34  C   UNL     1      -5.152  -1.458   8.356  1.00  0.00     0.278 C 
ENDBRANCH  28  33
ENDBRANCH  25  27
ENDBRANCH  22  25
ENDBRANCH  17  22
ENDBRANCH  13  16
ENDBRANCH   7  12
ENDBRANCH   3   6
ENDBRANCH   1   2
BRANCH   1  35
ATOM     35  C   UNL     1      -7.575  -2.833   3.897  1.00  0.00     0.023 C 
BRANCH  35  36
ATOM     36  C   UNL     1      -8.195  -2.489   5.254  1.00  0.00     0.023 C 
BRANCH  36  37
ATOM     37  C   UNL     1      -8.568  -1.019   5.450  1.00  0.00     0.116 C 
BRANCH  37  38
ATOM     38  N   UNL     1      -9.677  -0.595   4.606  1.00  0.00    -0.352 N 
ATOM     39  C   UNL     1     -10.989  -0.315   4.915  1.00  0.00     0.251 C 
ATOM     40  H   UNL     1      -9.450  -0.492   3.654  1.00  0.00     0.163 HD
ATOM     41  O   UNL     1     -11.789  -0.128   4.000  1.00  0.00    -0.269 OA
BRANCH  39  42
ATOM     42  C   UNL     1     -11.458  -0.261   6.320  1.00  0.00     0.039 A 
ATOM     43  C   UNL     1     -12.673  -0.874   6.648  1.00  0.00     0.014 A 
ATOM     44  C   UNL     1     -10.739   0.416   7.307  1.00  0.00     0.014 A 
ATOM     45  C   UNL     1     -13.115  -0.889   7.976  1.00  0.00     0.010 A 
ATOM     46  C   UNL     1     -11.147   0.345   8.640  1.00  0.00     0.010 A 
ATOM     47  C   UNL     1     -12.331  -0.322   8.992  1.00  0.00    -0.014 A 
BRANCH  47  48
ATOM     48  C   UNL     1     -12.704  -0.454  10.427  1.00  0.00     0.031 A 
ATOM     49  C   UNL     1     -13.026   0.762  11.254  1.00  0.00     0.074 A 
ATOM     50  C   UNL     1     -12.665  -1.668  11.013  1.00  0.00     0.049 A 
ATOM     51  N   UNL     1     -13.258   0.848  12.539  1.00  0.00    -0.248 NA
ATOM     52  C   UNL     1     -13.069   2.051  10.548  1.00  0.00     0.031 C 
ATOM     53  C   UNL     1     -12.323  -2.923  10.338  1.00  0.00     0.029 A 
ATOM     54  N   UNL     1     -12.893  -2.046  12.313  1.00  0.00    -0.354 N 
ATOM     55  C   UNL     1     -13.454   2.199  12.802  1.00  0.00     0.074 A 
ATOM     56  C   UNL     1     -13.279   2.899  11.546  1.00  0.00     0.031 C 
ATOM     57  C   UNL     1     -12.374  -3.929  11.225  1.00  0.00     0.029 A 
ATOM     58  C   UNL     1     -12.714  -3.391  12.538  1.00  0.00     0.049 A 
ATOM     59  H   UNL     1     -13.161  -1.413  13.018  1.00  0.00     0.167 HD
ATOM     60  C   UNL     1     -13.766   2.799  13.976  1.00  0.00     0.037 A 
ATOM     61  C   UNL     1     -12.797  -4.112  13.674  1.00  0.00     0.037 A 
ATOM     62  C   UNL     1     -13.973   2.099  15.218  1.00  0.00     0.049 A 
ATOM     63  C   UNL     1     -13.154  -3.425  14.962  1.00  0.00     0.074 A 
ATOM     64  C   UNL     1     -14.362   2.616  16.442  1.00  0.00     0.029 A 
ATOM     65  N   UNL     1     -13.811   0.734  15.397  1.00  0.00    -0.354 N 
ATOM     66  N   UNL     1     -13.390  -2.153  15.178  1.00  0.00    -0.248 NA
ATOM     67  C   UNL     1     -13.256  -4.269  16.161  1.00  0.00     0.031 C 
ATOM     68  C   UNL     1     -14.401   1.569  17.369  1.00  0.00     0.029 A 
ATOM     69  C   UNL     1     -14.072   0.394  16.714  1.00  0.00     0.049 A 
ATOM     70  H   UNL     1     -13.548   0.099  14.691  1.00  0.00     0.167 HD
ATOM     71  C   UNL     1     -13.689  -2.048  16.532  1.00  0.00     0.074 A 
ATOM     72  C   UNL     1     -13.614  -3.385  17.083  1.00  0.00     0.031 C 
ATOM     73  C   UNL     1     -13.997  -0.942  17.252  1.00  0.00     0.037 A 
BRANCH  60  74
ATOM     74  C   UNL     1     -13.907   4.296  13.977  1.00  0.00     0.058 A 
ATOM     75  C   UNL     1     -15.012   4.930  13.389  1.00  0.00     0.135 A 
ATOM     76  C   UNL     1     -12.946   5.103  14.606  1.00  0.00     0.135 A 
ATOM     77  F   UNL     1     -15.953   4.205  12.763  1.00  0.00    -0.206 F 
ATOM     78  C   UNL     1     -15.146   6.314  13.398  1.00  0.00     0.059 A 
ATOM     79  C   UNL     1     -13.071   6.489  14.649  1.00  0.00     0.059 A 
ATOM     80  F   UNL     1     -11.870   4.548  15.185  1.00  0.00    -0.206 F 
ATOM     81  C   UNL     1     -14.168   7.086  14.027  1.00  0.00     0.060 A 
BRANCH  81  82
ATOM     82  S   UNL     1     -14.351   8.882  14.027  1.00  0.00     0.124 S 
ATOM     83  O   UNL     1     -13.972   9.210  12.656  1.00  0.00    -0.237 OA
ATOM     84  O   UNL     1     -15.764   9.054  14.352  1.00  0.00    -0.237 OA
ATOM     85  O   UNL     1     -13.416   9.318  15.059  1.00  0.00    -0.744 OA
ENDBRANCH  81  82
ENDBRANCH  60  74
BRANCH  61  86
ATOM     86  C   UNL     1     -12.549  -5.576  13.638  1.00  0.00     0.058 A 
ATOM     87  C   UNL     1     -13.606  -6.488  13.768  1.00  0.00     0.135 A 
ATOM     88  C   UNL     1     -11.256  -6.092  13.455  1.00  0.00     0.135 A 
ATOM     89  F   UNL     1     -14.858  -6.040  13.952  1.00  0.00    -0.206 F 
ATOM     90  C   UNL     1     -13.392  -7.861  13.728  1.00  0.00     0.059 A 
ATOM     91  C   UNL     1     -11.020  -7.461  13.391  1.00  0.00     0.059 A 
ATOM     92  F   UNL     1     -10.214  -5.258  13.309  1.00  0.00    -0.206 F 
ATOM     93  C   UNL     1     -12.094  -8.338  13.536  1.00  0.00     0.060 A 
BRANCH  93  94
ATOM     94  S   UNL     1     -11.832 -10.122  13.424  1.00  0.00     0.124 S 
ATOM     95  O   UNL     1     -11.924 -10.520  14.823  1.00  0.00    -0.237 OA
ATOM     96  O   UNL     1     -12.936 -10.542  12.566  1.00  0.00    -0.237 OA
ATOM     97  O   UNL     1     -10.507 -10.225  12.820  1.00  0.00    -0.744 OA
ENDBRANCH  93  94
ENDBRANCH  61  86
BRANCH  73  98
ATOM     98  C   UNL     1     -14.299  -1.129  18.712  1.00  0.00     0.058 A 
ATOM     99  C   UNL     1     -13.280  -1.365  19.647  1.00  0.00     0.135 A 
ATOM    100  C   UNL     1     -15.615  -1.018  19.187  1.00  0.00     0.135 A 
ATOM    101  F   UNL     1     -12.006  -1.488  19.242  1.00  0.00    -0.206 F 
ATOM    102  C   UNL     1     -13.558  -1.502  21.003  1.00  0.00     0.059 A 
ATOM    103  C   UNL     1     -15.913  -1.130  20.541  1.00  0.00     0.059 A 
ATOM    104  F   UNL     1     -16.625  -0.785  18.333  1.00  0.00    -0.206 F 
ATOM    105  C   UNL     1     -14.878  -1.381  21.441  1.00  0.00     0.060 A 
BRANCH 105 106
ATOM    106  S   UNL     1     -15.223  -1.520  23.208  1.00  0.00     0.124 S 
ATOM    107  O   UNL     1     -15.136  -2.962  23.412  1.00  0.00    -0.237 OA
ATOM    108  O   UNL     1     -14.149  -0.729  23.802  1.00  0.00    -0.237 OA
ATOM    109  O   UNL     1     -16.559  -0.946  23.338  1.00  0.00    -0.744 OA
ENDBRANCH 105 106
ENDBRANCH  73  98
ENDBRANCH  47  48
ENDBRANCH  39  42
ENDBRANCH  37  38
ENDBRANCH  36  37
ENDBRANCH  35  36
ENDBRANCH   1  35
TORSDOF 20
