REMARK SMILES CCCCCCNC(=O)Oc1cccc(-c2ccc([C@H](C)C(=O)NCCCCNC(=O)c3ccc(-c4c5nc(c(-c6c(F)cc(S(=O)(=O)[O-])cc6F)c6ccc([nH]6)c(-c6c(F)cc(S(=O)(=O)[O-])cc6F)c6nc(c(-c7c(F)cc(S(=O)(=O)[O-])cc7F)c7ccc4[nH]7)C=C6)C=C5)cc3)cc2F)c1
REMARK SMILES IDX 20 1 21 2 19 3 16 4 17 5 99 6 18 7 98 8 100 9 15 10 11 11
REMARK SMILES IDX 12 12 101 13 13 14 14 15 10 16 8 17 7 18 9 20 6 21 5 22 4 23
REMARK SMILES IDX 3 24 2 25 1 26 22 27 23 28 24 29 25 31 26 32 27 33 28 34
REMARK SMILES IDX 29 35 30 36 31 38 32 39 33 40 97 41 34 42 96 43 35 44 36 45
REMARK SMILES IDX 37 46 90 47 38 48 95 49 89 50 91 51 39 52 94 53 88 54 87 55
REMARK SMILES IDX 40 57 74 58 53 59 73 60 54 61 57 62 72 63 92 64 55 65 56 66
REMARK SMILES IDX 71 68 93 69 58 70 41 71 42 72 51 73 43 74 44 75 50 76 52 77
REMARK SMILES IDX 45 78 46 79 47 80 48 81 49 82 75 83 76 84 85 85 77 86 78 87
REMARK SMILES IDX 84 88 86 89 79 90 80 91 81 92 82 93 83 94 59 95 60 96 69 97
REMARK SMILES IDX 61 98 62 99 68 100 70 101 63 102 64 103 65 104 66 105 67 106
REMARK H PARENT 7 19 24 30 29 37 91 56 57 67
REMARK Flexibility Score: inf
ROOT
ATOM      1  C   UNL     1      -4.261  -8.884 -10.353  1.00  0.00     0.105 C 
ATOM      2  C   UNL     1      -4.557  -7.727  -9.383  1.00  0.00     0.023 C 
ENDROOT
BRANCH   1   3
ATOM      3  C   UNL     1      -5.394  -9.290 -11.297  1.00  0.00    -0.033 A 
ATOM      4  C   UNL     1      -7.522  -9.934 -13.092  1.00  0.00     0.018 A 
ATOM      5  C   UNL     1      -6.184 -10.007 -13.499  1.00  0.00     0.012 A 
ATOM      6  C   UNL     1      -7.764  -9.606 -11.752  1.00  0.00     0.131 A 
ATOM      7  C   UNL     1      -5.141  -9.720 -12.611  1.00  0.00     0.005 A 
ATOM      8  C   UNL     1      -6.728  -9.296 -10.868  1.00  0.00     0.044 A 
ATOM      9  F   UNL     1      -9.020  -9.573 -11.278  1.00  0.00    -0.206 F 
BRANCH   4  10
ATOM     10  C   UNL     1      -8.613 -10.162 -14.053  1.00  0.00    -0.012 A 
ATOM     11  C   UNL     1     -10.669  -9.434 -15.120  1.00  0.00     0.133 A 
ATOM     12  C   UNL     1     -10.670 -10.552 -15.949  1.00  0.00     0.047 A 
ATOM     13  C   UNL     1      -9.668  -9.242 -14.168  1.00  0.00     0.056 A 
ATOM     14  C   UNL     1      -9.634 -11.476 -15.844  1.00  0.00     0.004 A 
ATOM     15  C   UNL     1      -8.615 -11.281 -14.906  1.00  0.00     0.009 A 
BRANCH  11  16
ATOM     16  O   UNL     1     -11.769  -8.568 -15.209  1.00  0.00    -0.410 OA
BRANCH  16  17
ATOM     17  C   UNL     1     -11.512  -7.219 -15.394  1.00  0.00     0.412 C 
ATOM     18  N   UNL     1     -12.643  -6.452 -15.409  1.00  0.00    -0.321 N 
ATOM     19  H   UNL     1     -12.519  -5.487 -15.558  1.00  0.00     0.167 HD
ATOM     20  O   UNL     1     -10.405  -6.704 -15.541  1.00  0.00    -0.224 OA
BRANCH  18  21
ATOM     21  C   UNL     1     -14.004  -6.913 -15.230  1.00  0.00     0.119 C 
BRANCH  21  22
ATOM     22  C   UNL     1     -14.663  -6.277 -14.006  1.00  0.00     0.021 C 
BRANCH  22  23
ATOM     23  C   UNL     1     -14.841  -4.756 -14.090  1.00  0.00     0.002 C 
BRANCH  23  24
ATOM     24  C   UNL     1     -15.678  -4.255 -15.273  1.00  0.00    -0.000 C 
BRANCH  24  25
ATOM     25  C   UNL     1     -17.105  -4.805 -15.347  1.00  0.00    -0.003 C 
ATOM     26  C   UNL     1     -17.964  -4.412 -14.155  1.00  0.00     0.004 C 
ENDBRANCH  24  25
ENDBRANCH  23  24
ENDBRANCH  22  23
ENDBRANCH  21  22
ENDBRANCH  18  21
ENDBRANCH  16  17
ENDBRANCH  11  16
ENDBRANCH   4  10
ENDBRANCH   1   3
BRANCH   1  27
ATOM     27  C   UNL     1      -2.930  -8.582 -11.053  1.00  0.00     0.227 C 
ATOM     28  O   UNL     1      -1.918  -9.240 -10.798  1.00  0.00    -0.274 OA
ATOM     29  N   UNL     1      -2.823  -7.567 -11.963  1.00  0.00    -0.356 N 
ATOM     30  H   UNL     1      -1.911  -7.391 -12.291  1.00  0.00     0.163 HD
BRANCH  29  31
ATOM     31  C   UNL     1      -3.858  -6.707 -12.518  1.00  0.00     0.116 C 
BRANCH  31  32
ATOM     32  C   UNL     1      -3.465  -5.236 -12.469  1.00  0.00     0.023 C 
BRANCH  32  33
ATOM     33  C   UNL     1      -2.310  -4.860 -13.396  1.00  0.00     0.023 C 
BRANCH  33  34
ATOM     34  C   UNL     1      -2.532  -5.181 -14.870  1.00  0.00     0.116 C 
BRANCH  34  35
ATOM     35  N   UNL     1      -3.691  -4.500 -15.428  1.00  0.00    -0.352 N 
ATOM     36  C   UNL     1      -3.773  -3.715 -16.554  1.00  0.00     0.251 C 
ATOM     37  H   UNL     1      -4.533  -4.618 -14.931  1.00  0.00     0.163 HD
ATOM     38  O   UNL     1      -4.794  -3.077 -16.788  1.00  0.00    -0.269 OA
BRANCH  36  39
ATOM     39  C   UNL     1      -2.610  -3.619 -17.462  1.00  0.00     0.039 A 
ATOM     40  C   UNL     1      -2.192  -2.359 -17.895  1.00  0.00     0.014 A 
ATOM     41  C   UNL     1      -1.919  -4.767 -17.861  1.00  0.00     0.014 A 
ATOM     42  C   UNL     1      -1.034  -2.245 -18.669  1.00  0.00     0.010 A 
ATOM     43  C   UNL     1      -0.725  -4.644 -18.565  1.00  0.00     0.010 A 
ATOM     44  C   UNL     1      -0.268  -3.382 -18.975  1.00  0.00    -0.014 A 
BRANCH  44  45
ATOM     45  C   UNL     1       1.018  -3.269 -19.713  1.00  0.00     0.031 A 
ATOM     46  C   UNL     1       1.180  -3.930 -21.055  1.00  0.00     0.074 A 
ATOM     47  C   UNL     1       2.061  -2.632 -19.140  1.00  0.00     0.049 A 
ATOM     48  N   UNL     1       2.244  -4.008 -21.812  1.00  0.00    -0.248 NA
ATOM     49  C   UNL     1       0.001  -4.618 -21.610  1.00  0.00     0.031 C 
ATOM     50  C   UNL     1       2.047  -2.002 -17.817  1.00  0.00     0.029 A 
ATOM     51  N   UNL     1       3.342  -2.421 -19.589  1.00  0.00    -0.354 N 
ATOM     52  C   UNL     1       1.871  -4.768 -22.915  1.00  0.00     0.074 A 
ATOM     53  C   UNL     1       0.495  -5.163 -22.713  1.00  0.00     0.031 C 
ATOM     54  C   UNL     1       3.254  -1.468 -17.568  1.00  0.00     0.029 A 
ATOM     55  C   UNL     1       4.140  -1.748 -18.693  1.00  0.00     0.049 A 
ATOM     56  H   UNL     1       3.659  -2.724 -20.470  1.00  0.00     0.167 HD
ATOM     57  C   UNL     1       2.605  -5.089 -24.006  1.00  0.00     0.037 A 
ATOM     58  C   UNL     1       5.443  -1.410 -18.761  1.00  0.00     0.037 A 
ATOM     59  C   UNL     1       3.960  -4.654 -24.223  1.00  0.00     0.049 A 
ATOM     60  C   UNL     1       6.228  -1.764 -19.997  1.00  0.00     0.074 A 
ATOM     61  C   UNL     1       4.756  -4.854 -25.338  1.00  0.00     0.029 A 
ATOM     62  N   UNL     1       4.721  -3.938 -23.312  1.00  0.00    -0.354 N 
ATOM     63  N   UNL     1       5.829  -2.405 -21.071  1.00  0.00    -0.248 NA
ATOM     64  C   UNL     1       7.635  -1.343 -20.039  1.00  0.00     0.031 C 
ATOM     65  C   UNL     1       6.015  -4.304 -25.081  1.00  0.00     0.029 A 
ATOM     66  C   UNL     1       5.985  -3.711 -23.829  1.00  0.00     0.049 A 
ATOM     67  H   UNL     1       4.408  -3.635 -22.429  1.00  0.00     0.167 HD
ATOM     68  C   UNL     1       6.927  -2.436 -21.924  1.00  0.00     0.074 A 
ATOM     69  C   UNL     1       8.000  -1.736 -21.251  1.00  0.00     0.031 C 
ATOM     70  C   UNL     1       7.038  -2.994 -23.155  1.00  0.00     0.037 A 
BRANCH  57  71
ATOM     71  C   UNL     1       1.968  -5.943 -25.068  1.00  0.00     0.058 A 
ATOM     72  C   UNL     1       0.975  -5.440 -25.923  1.00  0.00     0.135 A 
ATOM     73  C   UNL     1       2.428  -7.251 -25.296  1.00  0.00     0.135 A 
ATOM     74  F   UNL     1       0.487  -4.203 -25.739  1.00  0.00    -0.206 F 
ATOM     75  C   UNL     1       0.459  -6.203 -26.965  1.00  0.00     0.059 A 
ATOM     76  C   UNL     1       1.944  -8.022 -26.348  1.00  0.00     0.059 A 
ATOM     77  F   UNL     1       3.373  -7.782 -24.504  1.00  0.00    -0.206 F 
ATOM     78  C   UNL     1       0.958  -7.490 -27.176  1.00  0.00     0.060 A 
BRANCH  78  79
ATOM     79  S   UNL     1       0.319  -8.442 -28.570  1.00  0.00     0.124 S 
ATOM     80  O   UNL     1      -1.030  -8.760 -28.113  1.00  0.00    -0.237 OA
ATOM     81  O   UNL     1       0.406  -7.483 -29.667  1.00  0.00    -0.237 OA
ATOM     82  O   UNL     1       1.235  -9.575 -28.658  1.00  0.00    -0.744 OA
ENDBRANCH  78  79
ENDBRANCH  57  71
BRANCH  58  83
ATOM     83  C   UNL     1       6.100  -0.702 -17.627  1.00  0.00     0.058 A 
ATOM     84  C   UNL     1       6.551   0.620 -17.758  1.00  0.00     0.135 A 
ATOM     85  C   UNL     1       6.322  -1.347 -16.400  1.00  0.00     0.135 A 
ATOM     86  F   UNL     1       6.366   1.280 -18.912  1.00  0.00    -0.206 F 
ATOM     87  C   UNL     1       7.234   1.264 -16.731  1.00  0.00     0.059 A 
ATOM     88  C   UNL     1       6.976  -0.714 -15.347  1.00  0.00     0.059 A 
ATOM     89  F   UNL     1       5.894  -2.605 -16.213  1.00  0.00    -0.206 F 
ATOM     90  C   UNL     1       7.448   0.585 -15.531  1.00  0.00     0.060 A 
BRANCH  90  91
ATOM     91  S   UNL     1       8.336   1.427 -14.203  1.00  0.00     0.124 S 
ATOM     92  O   UNL     1       9.705   1.396 -14.701  1.00  0.00    -0.237 OA
ATOM     93  O   UNL     1       7.692   2.737 -14.184  1.00  0.00    -0.237 OA
ATOM     94  O   UNL     1       8.068   0.589 -13.037  1.00  0.00    -0.744 OA
ENDBRANCH  90  91
ENDBRANCH  58  83
BRANCH  70  95
ATOM     95  C   UNL     1       8.347  -2.834 -23.878  1.00  0.00     0.058 A 
ATOM     96  C   UNL     1       9.501  -3.528 -23.483  1.00  0.00     0.135 A 
ATOM     97  C   UNL     1       8.430  -2.017 -25.017  1.00  0.00     0.135 A 
ATOM     98  F   UNL     1       9.477  -4.318 -22.398  1.00  0.00    -0.206 F 
ATOM     99  C   UNL     1      10.699  -3.397 -24.177  1.00  0.00     0.059 A 
ATOM    100  C   UNL     1       9.609  -1.896 -25.745  1.00  0.00     0.059 A 
ATOM    101  F   UNL     1       7.352  -1.340 -25.445  1.00  0.00    -0.206 F 
ATOM    102  C   UNL     1      10.742  -2.581 -25.309  1.00  0.00     0.060 A 
BRANCH 102 103
ATOM    103  S   UNL     1      12.294  -2.449 -26.222  1.00  0.00     0.124 S 
ATOM    104  O   UNL     1      13.091  -1.616 -25.327  1.00  0.00    -0.237 OA
ATOM    105  O   UNL     1      12.713  -3.843 -26.331  1.00  0.00    -0.237 OA
ATOM    106  O   UNL     1      11.898  -1.819 -27.478  1.00  0.00    -0.744 OA
ENDBRANCH 102 103
ENDBRANCH  70  95
ENDBRANCH  44  45
ENDBRANCH  36  39
ENDBRANCH  34  35
ENDBRANCH  33  34
ENDBRANCH  32  33
ENDBRANCH  31  32
ENDBRANCH  29  31
ENDBRANCH   1  27
TORSDOF 23
