REMARK SMILES CCC[NH2+][C@@]1(C(=O)NCCCCNC(=O)c2ccc(-c3c4nc(c(-c5c(F)cc(S(=O)(=O)[O-])cc5F)c5ccc([nH]5)c(-c5c(F)cc(S(=O)(=O)[O-])cc5F)c5nc(c(-c6c(F)cc(S(=O)(=O)[O-])cc6F)c6ccc3[nH]6)C=C5)C=C4)cc2)CC[C@@H](Sc2ccc(OC)cc2)C1
REMARK SMILES IDX 10 1 9 2 8 3 6 4 7 5 5 7 82 8 94 9 83 10 84 11 4 12 3 15
REMARK SMILES IDX 2 16 1 17 85 18 86 19 87 20 93 21 88 22 92 23 89 24 90 25
REMARK SMILES IDX 91 26 11 27 12 28 13 29 14 30 15 32 16 33 17 34 81 35 18 36
REMARK SMILES IDX 80 37 19 38 20 39 21 40 74 41 22 42 79 43 73 44 75 45 23 46
REMARK SMILES IDX 78 47 72 48 71 49 24 51 58 52 37 53 57 54 38 55 41 56 56 57
REMARK SMILES IDX 76 58 39 59 40 60 55 62 77 63 42 64 25 65 26 66 35 67 27 68
REMARK SMILES IDX 28 69 34 70 36 71 29 72 30 73 31 74 32 75 33 76 59 77 60 78
REMARK SMILES IDX 69 79 61 80 62 81 68 82 70 83 63 84 64 85 65 86 66 87 67 88
REMARK SMILES IDX 43 89 44 90 53 91 45 92 46 93 52 94 54 95 47 96 48 97 49 98
REMARK SMILES IDX 50 99 51 100
REMARK H PARENT 8 6 4 13 4 14 13 31 75 50 41 61
REMARK Flexibility Score: inf
ROOT
ATOM      1  C   UNL     1       3.920  -6.757   1.400  1.00  0.00     0.023 C 
ENDROOT
BRANCH   1   2
ATOM      2  C   UNL     1       2.561  -6.340   1.956  1.00  0.00     0.116 C 
BRANCH   2   3
ATOM      3  N   UNL     1       2.446  -4.905   2.089  1.00  0.00    -0.351 N 
ATOM      4  C   UNL     1       1.768  -3.969   1.376  1.00  0.00     0.281 C 
ATOM      5  O   UNL     1       1.806  -2.821   1.843  1.00  0.00    -0.268 OA
ATOM      6  H   UNL     1       2.959  -4.534   2.843  1.00  0.00     0.163 HD
BRANCH   4   7
ATOM      7  C   UNL     1       0.947  -4.265   0.057  1.00  0.00     0.176 C 
ATOM      8  C   UNL     1      -0.163  -5.308   0.295  1.00  0.00     0.080 C 
ATOM      9  C   UNL     1       1.822  -4.815  -1.085  1.00  0.00     0.094 C 
ATOM     10  C   UNL     1       0.110  -6.520  -0.596  1.00  0.00     0.022 C 
ATOM     11  C   UNL     1       1.440  -6.276  -1.303  1.00  0.00     0.058 C 
BRANCH   7  12
ATOM     12  N   UNL     1       0.225  -2.991  -0.288  1.00  0.00    -0.334 N 
ATOM     13  H   UNL     1      -0.622  -3.239  -0.799  1.00  0.00     0.347 HD
ATOM     14  H   UNL     1       0.050  -2.522   0.601  1.00  0.00     0.347 HD
BRANCH  12  15
ATOM     15  C   UNL     1       0.976  -2.032  -1.102  1.00  0.00     0.261 C 
BRANCH  15  16
ATOM     16  C   UNL     1       0.392  -0.618  -1.004  1.00  0.00     0.058 C 
ATOM     17  C   UNL     1       0.813   0.114   0.262  1.00  0.00     0.010 C 
ENDBRANCH  15  16
ENDBRANCH  12  15
ENDBRANCH   7  12
BRANCH  11  18
ATOM     18  S   UNL     1       1.552  -6.799  -3.066  1.00  0.00    -0.122 SA
BRANCH  18  19
ATOM     19  C   UNL     1      -0.066  -6.382  -3.683  1.00  0.00     0.008 A 
ATOM     20  C   UNL     1      -0.960  -7.413  -3.981  1.00  0.00     0.019 A 
ATOM     21  C   UNL     1      -0.479  -5.058  -3.835  1.00  0.00     0.019 A 
ATOM     22  C   UNL     1      -2.266  -7.117  -4.375  1.00  0.00     0.047 A 
ATOM     23  C   UNL     1      -1.789  -4.762  -4.227  1.00  0.00     0.047 A 
ATOM     24  C   UNL     1      -2.692  -5.793  -4.487  1.00  0.00     0.118 A 
BRANCH  24  25
ATOM     25  O   UNL     1      -4.000  -5.640  -4.858  1.00  0.00    -0.497 OA
ATOM     26  C   UNL     1      -4.499  -4.310  -4.897  1.00  0.00     0.278 C 
ENDBRANCH  24  25
ENDBRANCH  18  19
ENDBRANCH  11  18
ENDBRANCH   4   7
ENDBRANCH   2   3
ENDBRANCH   1   2
BRANCH   1  27
ATOM     27  C   UNL     1       4.969  -7.052   2.472  1.00  0.00     0.023 C 
BRANCH  27  28
ATOM     28  C   UNL     1       4.610  -8.176   3.441  1.00  0.00     0.116 C 
BRANCH  28  29
ATOM     29  N   UNL     1       4.279  -9.437   2.791  1.00  0.00    -0.352 N 
ATOM     30  C   UNL     1       4.489 -10.713   3.268  1.00  0.00     0.251 C 
ATOM     31  H   UNL     1       3.855  -9.370   1.906  1.00  0.00     0.163 HD
ATOM     32  O   UNL     1       4.226 -11.689   2.583  1.00  0.00    -0.269 OA
BRANCH  30  33
ATOM     33  C   UNL     1       5.086 -10.869   4.611  1.00  0.00     0.039 A 
ATOM     34  C   UNL     1       6.267 -11.601   4.743  1.00  0.00     0.014 A 
ATOM     35  C   UNL     1       4.530 -10.206   5.707  1.00  0.00     0.014 A 
ATOM     36  C   UNL     1       6.939 -11.600   5.966  1.00  0.00     0.010 A 
ATOM     37  C   UNL     1       5.239 -10.146   6.902  1.00  0.00     0.010 A 
ATOM     38  C   UNL     1       6.454 -10.835   7.040  1.00  0.00    -0.014 A 
BRANCH  38  39
ATOM     39  C   UNL     1       7.209 -10.726   8.313  1.00  0.00     0.031 A 
ATOM     40  C   UNL     1       6.607 -11.241   9.590  1.00  0.00     0.074 A 
ATOM     41  C   UNL     1       8.394 -10.083   8.333  1.00  0.00     0.049 A 
ATOM     42  N   UNL     1       7.066 -11.159  10.811  1.00  0.00    -0.248 NA
ATOM     43  C   UNL     1       5.297 -11.903   9.484  1.00  0.00     0.031 C 
ATOM     44  C   UNL     1       9.049  -9.476   7.171  1.00  0.00     0.029 A 
ATOM     45  N   UNL     1       9.252  -9.817   9.370  1.00  0.00    -0.354 N 
ATOM     46  C   UNL     1       6.093 -11.733  11.620  1.00  0.00     0.074 A 
ATOM     47  C   UNL     1       4.997 -12.115  10.757  1.00  0.00     0.031 C 
ATOM     48  C   UNL     1      10.212  -8.927   7.557  1.00  0.00     0.029 A 
ATOM     49  C   UNL     1      10.373  -9.114   8.996  1.00  0.00     0.049 A 
ATOM     50  H   UNL     1       9.080 -10.103  10.297  1.00  0.00     0.167 HD
ATOM     51  C   UNL     1       6.121 -11.943  12.958  1.00  0.00     0.037 A 
ATOM     52  C   UNL     1      11.411  -8.669   9.729  1.00  0.00     0.037 A 
ATOM     53  C   UNL     1       7.233 -11.601  13.804  1.00  0.00     0.049 A 
ATOM     54  C   UNL     1      11.444  -8.958  11.205  1.00  0.00     0.074 A 
ATOM     55  C   UNL     1       7.394 -11.848  15.155  1.00  0.00     0.029 A 
ATOM     56  N   UNL     1       8.375 -10.939  13.378  1.00  0.00    -0.354 N 
ATOM     57  N   UNL     1      10.549  -9.572  11.942  1.00  0.00    -0.248 NA
ATOM     58  C   UNL     1      12.628  -8.505  11.946  1.00  0.00     0.031 C 
ATOM     59  C   UNL     1       8.623 -11.308  15.554  1.00  0.00     0.029 A 
ATOM     60  C   UNL     1       9.242 -10.757  14.443  1.00  0.00     0.049 A 
ATOM     61  H   UNL     1       8.545 -10.643  12.454  1.00  0.00     0.167 HD
ATOM     62  C   UNL     1      11.071  -9.597  13.230  1.00  0.00     0.074 A 
ATOM     63  C   UNL     1      12.365  -8.947  13.169  1.00  0.00     0.031 C 
ATOM     64  C   UNL     1      10.528 -10.112  14.361  1.00  0.00     0.037 A 
BRANCH  51  65
ATOM     65  C   UNL     1       4.911 -12.582  13.581  1.00  0.00     0.058 A 
ATOM     66  C   UNL     1       4.597 -13.933  13.361  1.00  0.00     0.135 A 
ATOM     67  C   UNL     1       4.060 -11.839  14.414  1.00  0.00     0.135 A 
ATOM     68  F   UNL     1       5.369 -14.685  12.559  1.00  0.00    -0.206 F 
ATOM     69  C   UNL     1       3.461 -14.515  13.912  1.00  0.00     0.059 A 
ATOM     70  C   UNL     1       2.932 -12.408  14.998  1.00  0.00     0.059 A 
ATOM     71  F   UNL     1       4.314 -10.544  14.657  1.00  0.00    -0.206 F 
ATOM     72  C   UNL     1       2.631 -13.742  14.726  1.00  0.00     0.060 A 
BRANCH  72  73
ATOM     73  S   UNL     1       1.151 -14.505  15.424  1.00  0.00     0.124 S 
ATOM     74  O   UNL     1       0.264 -14.528  14.265  1.00  0.00    -0.237 OA
ATOM     75  O   UNL     1       1.647 -15.803  15.868  1.00  0.00    -0.237 OA
ATOM     76  O   UNL     1       0.767 -13.585  16.490  1.00  0.00    -0.744 OA
ENDBRANCH  72  73
ENDBRANCH  51  65
BRANCH  52  77
ATOM     77  C   UNL     1      12.521  -7.934   9.068  1.00  0.00     0.058 A 
ATOM     78  C   UNL     1      13.765  -8.546   8.862  1.00  0.00     0.135 A 
ATOM     79  C   UNL     1      12.350  -6.622   8.602  1.00  0.00     0.135 A 
ATOM     80  F   UNL     1      13.977  -9.798   9.295  1.00  0.00    -0.206 F 
ATOM     81  C   UNL     1      14.807  -7.881   8.223  1.00  0.00     0.059 A 
ATOM     82  C   UNL     1      13.371  -5.943   7.942  1.00  0.00     0.059 A 
ATOM     83  F   UNL     1      11.172  -6.000   8.760  1.00  0.00    -0.206 F 
ATOM     84  C   UNL     1      14.599  -6.580   7.763  1.00  0.00     0.060 A 
BRANCH  84  85
ATOM     85  S   UNL     1      15.935  -5.749   6.876  1.00  0.00     0.124 S 
ATOM     86  O   UNL     1      16.835  -5.393   7.966  1.00  0.00    -0.237 OA
ATOM     87  O   UNL     1      16.404  -6.797   5.975  1.00  0.00    -0.237 OA
ATOM     88  O   UNL     1      15.258  -4.631   6.224  1.00  0.00    -0.744 OA
ENDBRANCH  84  85
ENDBRANCH  52  77
BRANCH  64  89
ATOM     89  C   UNL     1      11.341 -10.018  15.621  1.00  0.00     0.058 A 
ATOM     90  C   UNL     1      11.478  -8.808  16.317  1.00  0.00     0.135 A 
ATOM     91  C   UNL     1      11.940 -11.165  16.167  1.00  0.00     0.135 A 
ATOM     92  F   UNL     1      10.929  -7.683  15.832  1.00  0.00    -0.206 F 
ATOM     93  C   UNL     1      12.198  -8.734  17.505  1.00  0.00     0.059 A 
ATOM     94  C   UNL     1      12.645 -11.118  17.365  1.00  0.00     0.059 A 
ATOM     95  F   UNL     1      11.829 -12.348  15.543  1.00  0.00    -0.206 F 
ATOM     96  C   UNL     1      12.777  -9.895  18.021  1.00  0.00     0.060 A 
BRANCH  96  97
ATOM     97  S   UNL     1      13.677  -9.795  19.584  1.00  0.00     0.124 S 
ATOM     98  O   UNL     1      14.932  -9.184  19.161  1.00  0.00    -0.237 OA
ATOM     99  O   UNL     1      12.803  -8.953  20.396  1.00  0.00    -0.237 OA
ATOM    100  O   UNL     1      13.768 -11.188  20.011  1.00  0.00    -0.744 OA
ENDBRANCH  96  97
ENDBRANCH  64  89
ENDBRANCH  38  39
ENDBRANCH  30  33
ENDBRANCH  28  29
ENDBRANCH  27  28
ENDBRANCH   1  27
TORSDOF 20
