REMARK SMILES NC(=S)S/C=C/C(=O)NCCCCNC(=O)c1ccc(-c2c3nc(c(-c4c(F)cc(S(=O)(=O)[O-])cc4F)c4ccc([nH]4)c(-c4c(F)cc(S(=O)(=O)[O-])cc4F)c4nc(c(-c5c(F)cc(S(=O)(=O)[O-])cc5F)c5ccc2[nH]5)C=C4)C=C3)cc1
REMARK SMILES IDX 11 1 10 2 9 3 7 4 8 5 6 7 5 8 4 9 2 10 3 11 1 12 12 15 13 16
REMARK SMILES IDX 14 17 15 18 16 20 17 21 18 22 82 23 19 24 81 25 20 26 21 27
REMARK SMILES IDX 22 28 75 29 23 30 80 31 74 32 76 33 24 34 79 35 73 36 72 37
REMARK SMILES IDX 25 39 59 40 38 41 58 42 39 43 42 44 57 45 77 46 40 47 41 48
REMARK SMILES IDX 56 50 78 51 43 52 26 53 27 54 36 55 28 56 29 57 35 58 37 59
REMARK SMILES IDX 30 60 31 61 32 62 33 63 34 64 60 65 61 66 70 67 62 68 63 69
REMARK SMILES IDX 69 70 71 71 64 72 65 73 66 74 67 75 68 76 44 77 45 78 54 79
REMARK SMILES IDX 46 80 47 81 53 82 55 83 48 84 49 85 50 86 51 87 52 88
REMARK H PARENT 9 6 1 13 1 14 14 19 76 38 42 49
REMARK Flexibility Score: inf
ROOT
ATOM      1  C   UNL     1       0.149   0.659   7.511  1.00  0.00     0.023 C 
ENDROOT
BRANCH   1   2
ATOM      2  C   UNL     1      -0.358  -0.590   6.794  1.00  0.00     0.116 C 
BRANCH   2   3
ATOM      3  N   UNL     1      -1.690  -0.377   6.256  1.00  0.00    -0.353 N 
ATOM      4  C   UNL     1      -2.139  -0.423   4.973  1.00  0.00     0.244 C 
ATOM      5  O   UNL     1      -3.336  -0.302   4.730  1.00  0.00    -0.270 OA
ATOM      6  H   UNL     1      -2.378  -0.166   6.928  1.00  0.00     0.163 HD
BRANCH   4   7
ATOM      7  C   UNL     1      -1.195  -0.719   3.880  1.00  0.00     0.078 C 
ATOM      8  C   UNL     1      -0.150   0.071   3.605  1.00  0.00     0.054 C 
BRANCH   8   9
ATOM      9  S   UNL     1       0.994  -0.302   2.363  1.00  0.00    -0.069 SA
BRANCH   9  10
ATOM     10  C   UNL     1       0.222   0.080   0.846  1.00  0.00     0.135 C 
ATOM     11  S   UNL     1      -1.354   0.467   0.503  1.00  0.00    -0.053 S 
BRANCH  10  12
ATOM     12  N   UNL     1       1.135   0.011  -0.162  1.00  0.00    -0.384 N 
ATOM     13  H   UNL     1       0.860   0.200  -1.089  1.00  0.00     0.158 HD
ATOM     14  H   UNL     1       2.069  -0.228   0.035  1.00  0.00     0.158 HD
ENDBRANCH  10  12
ENDBRANCH   9  10
ENDBRANCH   8   9
ENDBRANCH   4   7
ENDBRANCH   2   3
ENDBRANCH   1   2
BRANCH   1  15
ATOM     15  C   UNL     1      -0.539   0.945   8.852  1.00  0.00     0.023 C 
BRANCH  15  16
ATOM     16  C   UNL     1      -0.398  -0.149   9.908  1.00  0.00     0.116 C 
BRANCH  16  17
ATOM     17  N   UNL     1       0.987  -0.467  10.221  1.00  0.00    -0.352 N 
ATOM     18  C   UNL     1       1.543  -0.799  11.435  1.00  0.00     0.251 C 
ATOM     19  H   UNL     1       1.611  -0.440   9.461  1.00  0.00     0.163 HD
ATOM     20  O   UNL     1       2.756  -0.926  11.537  1.00  0.00    -0.269 OA
BRANCH  18  21
ATOM     21  C   UNL     1       0.671  -0.964  12.619  1.00  0.00     0.039 A 
ATOM     22  C   UNL     1       1.023  -0.317  13.807  1.00  0.00     0.014 A 
ATOM     23  C   UNL     1      -0.492  -1.736  12.554  1.00  0.00     0.014 A 
ATOM     24  C   UNL     1       0.171  -0.389  14.911  1.00  0.00     0.010 A 
ATOM     25  C   UNL     1      -1.369  -1.756  13.636  1.00  0.00     0.010 A 
ATOM     26  C   UNL     1      -1.049  -1.079  14.823  1.00  0.00    -0.014 A 
BRANCH  26  27
ATOM     27  C   UNL     1      -2.011  -1.090  15.954  1.00  0.00     0.031 A 
ATOM     28  C   UNL     1      -2.338  -2.378  16.657  1.00  0.00     0.074 A 
ATOM     29  C   UNL     1      -2.643   0.049  16.299  1.00  0.00     0.049 A 
ATOM     30  N   UNL     1      -3.206  -2.601  17.611  1.00  0.00    -0.248 NA
ATOM     31  C   UNL     1      -1.613  -3.579  16.212  1.00  0.00     0.031 C 
ATOM     32  C   UNL     1      -2.450   1.352  15.657  1.00  0.00     0.029 A 
ATOM     33  N   UNL     1      -3.587   0.294  17.265  1.00  0.00    -0.354 N 
ATOM     34  C   UNL     1      -3.144  -3.965  17.868  1.00  0.00     0.074 A 
ATOM     35  C   UNL     1      -2.187  -4.527  16.939  1.00  0.00     0.031 C 
ATOM     36  C   UNL     1      -3.238   2.259  16.257  1.00  0.00     0.029 A 
ATOM     37  C   UNL     1      -4.015   1.600  17.302  1.00  0.00     0.049 A 
ATOM     38  H   UNL     1      -3.926  -0.401  17.874  1.00  0.00     0.167 HD
ATOM     39  C   UNL     1      -3.809  -4.681  18.807  1.00  0.00     0.037 A 
ATOM     40  C   UNL     1      -4.934   2.198  18.084  1.00  0.00     0.037 A 
ATOM     41  C   UNL     1      -4.738  -4.112  19.747  1.00  0.00     0.049 A 
ATOM     42  C   UNL     1      -5.647   1.386  19.131  1.00  0.00     0.074 A 
ATOM     43  C   UNL     1      -5.417  -4.742  20.776  1.00  0.00     0.029 A 
ATOM     44  N   UNL     1      -5.120  -2.778  19.776  1.00  0.00    -0.354 N 
ATOM     45  N   UNL     1      -5.530   0.108  19.402  1.00  0.00    -0.248 NA
ATOM     46  C   UNL     1      -6.610   2.097  19.983  1.00  0.00     0.031 C 
ATOM     47  C   UNL     1      -6.234  -3.796  21.405  1.00  0.00     0.029 A 
ATOM     48  C   UNL     1      -6.034  -2.568  20.795  1.00  0.00     0.049 A 
ATOM     49  H   UNL     1      -4.789  -2.083  19.162  1.00  0.00     0.167 HD
ATOM     50  C   UNL     1      -6.386  -0.133  20.471  1.00  0.00     0.074 A 
ATOM     51  C   UNL     1      -7.006   1.133  20.803  1.00  0.00     0.031 C 
ATOM     52  C   UNL     1      -6.635  -1.298  21.118  1.00  0.00     0.037 A 
BRANCH  39  53
ATOM     53  C   UNL     1      -3.547  -6.160  18.867  1.00  0.00     0.058 A 
ATOM     54  C   UNL     1      -2.325  -6.671  19.335  1.00  0.00     0.135 A 
ATOM     55  C   UNL     1      -4.535  -7.079  18.478  1.00  0.00     0.135 A 
ATOM     56  F   UNL     1      -1.341  -5.837  19.705  1.00  0.00    -0.206 F 
ATOM     57  C   UNL     1      -2.081  -8.040  19.385  1.00  0.00     0.059 A 
ATOM     58  C   UNL     1      -4.321  -8.453  18.545  1.00  0.00     0.059 A 
ATOM     59  F   UNL     1      -5.721  -6.645  18.023  1.00  0.00    -0.206 F 
ATOM     60  C   UNL     1      -3.084  -8.923  18.985  1.00  0.00     0.060 A 
BRANCH  60  61
ATOM     61  S   UNL     1      -2.751 -10.696  19.053  1.00  0.00     0.124 S 
ATOM     62  O   UNL     1      -1.873 -10.870  17.900  1.00  0.00    -0.237 OA
ATOM     63  O   UNL     1      -2.117 -10.846  20.359  1.00  0.00    -0.237 OA
ATOM     64  O   UNL     1      -4.075 -11.296  18.931  1.00  0.00    -0.744 OA
ENDBRANCH  60  61
ENDBRANCH  39  53
BRANCH  40  65
ATOM     65  C   UNL     1      -5.211   3.650  17.925  1.00  0.00     0.058 A 
ATOM     66  C   UNL     1      -4.780   4.574  18.888  1.00  0.00     0.135 A 
ATOM     67  C   UNL     1      -5.895   4.144  16.804  1.00  0.00     0.135 A 
ATOM     68  F   UNL     1      -4.126   4.149  19.980  1.00  0.00    -0.206 F 
ATOM     69  C   UNL     1      -5.028   5.936  18.753  1.00  0.00     0.059 A 
ATOM     70  C   UNL     1      -6.136   5.504  16.636  1.00  0.00     0.059 A 
ATOM     71  F   UNL     1      -6.313   3.301  15.846  1.00  0.00    -0.206 F 
ATOM     72  C   UNL     1      -5.706   6.392  17.622  1.00  0.00     0.060 A 
BRANCH  72  73
ATOM     73  S   UNL     1      -5.977   8.167  17.430  1.00  0.00     0.124 S 
ATOM     74  O   UNL     1      -7.054   8.404  18.384  1.00  0.00    -0.237 OA
ATOM     75  O   UNL     1      -4.674   8.718  17.787  1.00  0.00    -0.237 OA
ATOM     76  O   UNL     1      -6.339   8.299  16.022  1.00  0.00    -0.744 OA
ENDBRANCH  72  73
ENDBRANCH  40  65
BRANCH  52  77
ATOM     77  C   UNL     1      -7.596  -1.254  22.273  1.00  0.00     0.058 A 
ATOM     78  C   UNL     1      -8.979  -1.132  22.076  1.00  0.00     0.135 A 
ATOM     79  C   UNL     1      -7.128  -1.389  23.590  1.00  0.00     0.135 A 
ATOM     80  F   UNL     1      -9.476  -0.994  20.837  1.00  0.00    -0.206 F 
ATOM     81  C   UNL     1      -9.867  -1.125  23.148  1.00  0.00     0.059 A 
ATOM     82  C   UNL     1      -7.999  -1.409  24.675  1.00  0.00     0.059 A 
ATOM     83  F   UNL     1      -5.814  -1.518  23.831  1.00  0.00    -0.206 F 
ATOM     84  C   UNL     1      -9.366  -1.265  24.444  1.00  0.00     0.060 A 
BRANCH  84  85
ATOM     85  S   UNL     1     -10.530  -1.292  25.824  1.00  0.00     0.124 S 
ATOM     86  O   UNL     1     -10.880   0.119  25.941  1.00  0.00    -0.237 OA
ATOM     87  O   UNL     1     -11.586  -2.169  25.328  1.00  0.00    -0.237 OA
ATOM     88  O   UNL     1      -9.738  -1.836  26.924  1.00  0.00    -0.744 OA
ENDBRANCH  84  85
ENDBRANCH  52  77
ENDBRANCH  26  27
ENDBRANCH  18  21
ENDBRANCH  16  17
ENDBRANCH  15  16
ENDBRANCH   1  15
TORSDOF 17
