REMARK SMILES O=C(NCCCCNC(=O)c1nnn(-c2ccc(C(F)(F)F)cc2)c1-c1cccc(Cl)c1)c1ccc(-c2c3nc(c(-c4c(F)cc(S(=O)(=O)[O-])cc4F)c4ccc([nH]4)c(-c4c(F)cc(S(=O)(=O)[O-])cc4F)c4nc(c(-c5c(F)cc(S(=O)(=O)[O-])cc5F)c5ccc2[nH]5)C=C4)C=C3)cc1
REMARK SMILES IDX 5 1 4 2 3 3 1 4 2 5 33 7 34 8 98 9 35 10 97 11 36 12 37 13
REMARK SMILES IDX 38 14 91 15 39 16 96 17 90 18 92 19 40 20 95 21 89 22 88 23
REMARK SMILES IDX 41 25 75 26 54 27 74 28 55 29 58 30 73 31 93 32 56 33 57 34
REMARK SMILES IDX 72 36 94 37 59 38 42 39 43 40 52 41 44 42 45 43 51 44 53 45
REMARK SMILES IDX 46 46 47 47 48 48 49 49 50 50 76 51 77 52 86 53 78 54 79 55
REMARK SMILES IDX 85 56 87 57 80 58 81 59 82 60 83 61 84 62 60 63 61 64 70 65
REMARK SMILES IDX 62 66 63 67 69 68 71 69 64 70 65 71 66 72 67 73 68 74 6 75
REMARK SMILES IDX 7 76 8 77 9 78 10 80 11 81 12 82 25 83 13 84 14 85 26 86
REMARK SMILES IDX 27 87 32 88 28 89 30 90 29 91 31 92 15 93 16 94 24 95 17 96
REMARK SMILES IDX 23 97 18 98 19 99 20 100 21 101 22 102
REMARK H PARENT 3 6 92 24 58 35 8 79
REMARK Flexibility Score: inf
ROOT
ATOM      1  C   UNL     1       5.114  -2.133   0.103  1.00  0.00     0.023 C 
ENDROOT
BRANCH   1   2
ATOM      2  C   UNL     1       4.800  -0.815  -0.611  1.00  0.00     0.116 C 
BRANCH   2   3
ATOM      3  N   UNL     1       3.410  -0.593  -0.956  1.00  0.00    -0.352 N 
ATOM      4  O   UNL     1       1.342   0.177  -0.985  1.00  0.00    -0.269 OA
ATOM      5  C   UNL     1       2.321  -0.101  -0.287  1.00  0.00     0.251 C 
ATOM      6  H   UNL     1       3.201  -0.854  -1.882  1.00  0.00     0.163 HD
BRANCH   5   7
ATOM      7  C   UNL     1       2.217   0.045   1.192  1.00  0.00     0.039 A 
ATOM      8  C   UNL     1       3.275  -0.081   2.092  1.00  0.00     0.014 A 
ATOM      9  C   UNL     1       0.927   0.279   1.706  1.00  0.00     0.014 A 
ATOM     10  C   UNL     1       3.040  -0.099   3.464  1.00  0.00     0.010 A 
ATOM     11  C   UNL     1       0.691   0.299   3.078  1.00  0.00     0.010 A 
ATOM     12  C   UNL     1       1.746   0.066   3.956  1.00  0.00    -0.014 A 
BRANCH  12  13
ATOM     13  C   UNL     1       1.571   0.129   5.406  1.00  0.00     0.031 A 
ATOM     14  C   UNL     1       2.194   1.311   6.069  1.00  0.00     0.074 A 
ATOM     15  C   UNL     1       0.777  -0.710   6.100  1.00  0.00     0.049 A 
ATOM     16  N   UNL     1       3.089   1.341   7.003  1.00  0.00    -0.248 NA
ATOM     17  C   UNL     1       1.831   2.639   5.550  1.00  0.00     0.031 C 
ATOM     18  C   UNL     1      -0.140  -1.714   5.559  1.00  0.00     0.029 A 
ATOM     19  N   UNL     1       0.530  -0.752   7.442  1.00  0.00    -0.354 N 
ATOM     20  C   UNL     1       3.246   2.686   7.340  1.00  0.00     0.074 A 
ATOM     21  C   UNL     1       2.576   3.438   6.313  1.00  0.00     0.031 C 
ATOM     22  C   UNL     1      -0.997  -2.098   6.530  1.00  0.00     0.029 A 
ATOM     23  C   UNL     1      -0.617  -1.460   7.780  1.00  0.00     0.049 A 
ATOM     24  H   UNL     1       1.111  -0.321   8.109  1.00  0.00     0.167 HD
ATOM     25  C   UNL     1       3.715   3.076   8.559  1.00  0.00     0.037 A 
ATOM     26  C   UNL     1      -1.259  -1.449   8.975  1.00  0.00     0.037 A 
ATOM     27  C   UNL     1       4.432   2.011   9.215  1.00  0.00     0.049 A 
ATOM     28  C   UNL     1      -0.299  -0.975  10.003  1.00  0.00     0.074 A 
ATOM     29  C   UNL     1       5.526   1.227   8.901  1.00  0.00     0.029 A 
ATOM     30  N   UNL     1       3.837   1.397  10.290  1.00  0.00    -0.354 N 
ATOM     31  N   UNL     1       0.752  -1.641  10.396  1.00  0.00    -0.248 NA
ATOM     32  C   UNL     1      -0.297   0.441  10.341  1.00  0.00     0.031 C 
ATOM     33  C   UNL     1       5.254  -0.046   9.483  1.00  0.00     0.029 A 
ATOM     34  C   UNL     1       4.029   0.050  10.143  1.00  0.00     0.049 A 
ATOM     35  H   UNL     1       3.362   1.842  11.028  1.00  0.00     0.167 HD
ATOM     36  C   UNL     1       1.713  -0.673  10.646  1.00  0.00     0.074 A 
ATOM     37  C   UNL     1       0.977   0.584  10.710  1.00  0.00     0.031 C 
ATOM     38  C   UNL     1       3.044  -0.945  10.503  1.00  0.00     0.037 A 
BRANCH  25  39
ATOM     39  C   UNL     1       3.194   4.279   9.327  1.00  0.00     0.058 A 
ATOM     40  C   UNL     1       3.791   4.612  10.564  1.00  0.00     0.135 A 
ATOM     41  C   UNL     1       1.951   4.902   9.072  1.00  0.00     0.135 A 
ATOM     42  F   UNL     1       4.988   4.107  10.905  1.00  0.00    -0.206 F 
ATOM     43  C   UNL     1       3.138   5.380  11.529  1.00  0.00     0.059 A 
ATOM     44  C   UNL     1       1.309   5.717   9.998  1.00  0.00     0.059 A 
ATOM     45  F   UNL     1       1.245   4.677   7.960  1.00  0.00    -0.206 F 
ATOM     46  C   UNL     1       1.879   5.897  11.246  1.00  0.00     0.060 A 
BRANCH  46  47
ATOM     47  S   UNL     1       0.948   6.729  12.544  1.00  0.00     0.124 S 
ATOM     48  O   UNL     1       0.595   5.604  13.403  1.00  0.00    -0.237 OA
ATOM     49  O   UNL     1       1.937   7.659  13.079  1.00  0.00    -0.237 OA
ATOM     50  O   UNL     1      -0.158   7.345  11.818  1.00  0.00    -0.744 OA
ENDBRANCH  46  47
ENDBRANCH  25  39
BRANCH  26  51
ATOM     51  C   UNL     1      -2.724  -1.526   9.226  1.00  0.00     0.058 A 
ATOM     52  C   UNL     1      -3.234  -1.750  10.517  1.00  0.00     0.135 A 
ATOM     53  C   UNL     1      -3.660  -1.117   8.254  1.00  0.00     0.135 A 
ATOM     54  F   UNL     1      -2.413  -2.117  11.513  1.00  0.00    -0.206 F 
ATOM     55  C   UNL     1      -4.581  -1.540  10.835  1.00  0.00     0.059 A 
ATOM     56  C   UNL     1      -5.008  -0.919   8.542  1.00  0.00     0.059 A 
ATOM     57  F   UNL     1      -3.277  -0.803   7.007  1.00  0.00    -0.206 F 
ATOM     58  C   UNL     1      -5.458  -1.107   9.841  1.00  0.00     0.060 A 
BRANCH  58  59
ATOM     59  S   UNL     1      -7.159  -0.672  10.276  1.00  0.00     0.124 S 
ATOM     60  O   UNL     1      -7.738  -1.979  10.570  1.00  0.00    -0.237 OA
ATOM     61  O   UNL     1      -6.969   0.214  11.419  1.00  0.00    -0.237 OA
ATOM     62  O   UNL     1      -7.663  -0.025   9.067  1.00  0.00    -0.744 OA
ENDBRANCH  58  59
ENDBRANCH  26  51
BRANCH  38  63
ATOM     63  C   UNL     1       3.483  -2.381  10.449  1.00  0.00     0.058 A 
ATOM     64  C   UNL     1       3.120  -3.284   9.435  1.00  0.00     0.135 A 
ATOM     65  C   UNL     1       4.436  -2.813  11.385  1.00  0.00     0.135 A 
ATOM     66  F   UNL     1       2.299  -2.914   8.441  1.00  0.00    -0.206 F 
ATOM     67  C   UNL     1       3.652  -4.573   9.379  1.00  0.00     0.059 A 
ATOM     68  C   UNL     1       5.003  -4.082  11.329  1.00  0.00     0.059 A 
ATOM     69  F   UNL     1       4.869  -1.974  12.341  1.00  0.00    -0.206 F 
ATOM     70  C   UNL     1       4.597  -4.962  10.329  1.00  0.00     0.060 A 
BRANCH  70  71
ATOM     71  S   UNL     1       5.356  -6.595  10.193  1.00  0.00     0.124 S 
ATOM     72  O   UNL     1       4.273  -7.473  10.622  1.00  0.00    -0.237 OA
ATOM     73  O   UNL     1       5.707  -6.665   8.777  1.00  0.00    -0.237 OA
ATOM     74  O   UNL     1       6.496  -6.518  11.104  1.00  0.00    -0.744 OA
ENDBRANCH  70  71
ENDBRANCH  38  63
ENDBRANCH  12  13
ENDBRANCH   5   7
ENDBRANCH   2   3
ENDBRANCH   1   2
BRANCH   1  75
ATOM     75  C   UNL     1       4.592  -3.407  -0.559  1.00  0.00     0.023 C 
BRANCH  75  76
ATOM     76  C   UNL     1       4.958  -3.589  -2.023  1.00  0.00     0.116 C 
BRANCH  76  77
ATOM     77  N   UNL     1       6.383  -3.713  -2.260  1.00  0.00    -0.351 N 
ATOM     78  C   UNL     1       7.047  -4.556  -3.128  1.00  0.00     0.274 C 
ATOM     79  H   UNL     1       6.956  -3.113  -1.729  1.00  0.00     0.163 HD
ATOM     80  O   UNL     1       8.269  -4.526  -3.156  1.00  0.00    -0.267 OA
BRANCH  78  81
ATOM     81  C   UNL     1       6.279  -5.449  -3.988  1.00  0.00     0.178 A 
ATOM     82  N   UNL     1       6.458  -6.812  -3.951  1.00  0.00    -0.124 NA
ATOM     83  C   UNL     1       5.285  -5.146  -4.910  1.00  0.00     0.108 A 
ATOM     84  N   UNL     1       5.561  -7.374  -4.748  1.00  0.00    -0.061 NA
ATOM     85  N   UNL     1       4.932  -6.390  -5.422  1.00  0.00    -0.212 N 
BRANCH  83  86
ATOM     86  C   UNL     1       4.578  -3.899  -5.201  1.00  0.00     0.004 A 
ATOM     87  C   UNL     1       3.193  -3.817  -4.959  1.00  0.00     0.010 A 
ATOM     88  C   UNL     1       5.253  -2.777  -5.687  1.00  0.00     0.031 A 
ATOM     89  C   UNL     1       2.491  -2.640  -5.210  1.00  0.00     0.002 A 
ATOM     90  C   UNL     1       4.542  -1.603  -5.942  1.00  0.00     0.041 A 
ATOM     91  C   UNL     1       3.168  -1.530  -5.706  1.00  0.00     0.020 A 
ATOM     92  Cl  UNL     1       5.368  -0.226  -6.560  1.00  0.00    -0.084 Cl
ENDBRANCH  83  86
BRANCH  85  93
ATOM     93  C   UNL     1       3.985  -6.666  -6.436  1.00  0.00     0.067 A 
ATOM     94  C   UNL     1       3.066  -7.703  -6.258  1.00  0.00     0.029 A 
ATOM     95  C   UNL     1       3.898  -5.824  -7.552  1.00  0.00     0.029 A 
ATOM     96  C   UNL     1       1.991  -7.818  -7.145  1.00  0.00     0.015 A 
ATOM     97  C   UNL     1       2.841  -5.963  -8.448  1.00  0.00     0.015 A 
ATOM     98  C   UNL     1       1.856  -6.937  -8.234  1.00  0.00     0.056 A 
BRANCH  98  99
ATOM     99  C   UNL     1       0.646  -7.013  -9.132  1.00  0.00     0.416 C 
ATOM    100  F   UNL     1       0.474  -8.246  -9.681  1.00  0.00    -0.166 F 
ATOM    101  F   UNL     1      -0.509  -6.732  -8.468  1.00  0.00    -0.166 F 
ATOM    102  F   UNL     1       0.692  -6.142 -10.180  1.00  0.00    -0.166 F 
ENDBRANCH  98  99
ENDBRANCH  85  93
ENDBRANCH  78  81
ENDBRANCH  76  77
ENDBRANCH  75  76
ENDBRANCH   1  75
TORSDOF 17
