REMARK SMILES C[C@H](C(=O)N[C@H](C)C(=O)NCCCCNC(=O)c1ccc(-c2c3nc(c(-c4c(F)cc(S(=O)(=O)[O-])cc4F)c4ccc([nH]4)c(-c4c(F)cc(S(=O)(=O)[O-])cc4F)c4nc(c(-c5c(F)cc(S(=O)(=O)[O-])cc5F)c5ccc2[nH]5)C=C4)C=C3)cc1)n1cnc2ccccc21
REMARK SMILES IDX 12 1 11 2 10 3 8 4 9 5 6 7 7 8 5 9 3 10 4 11 2 13 1 14 84 15
REMARK SMILES IDX 85 16 92 17 86 18 87 19 91 20 88 21 90 22 89 23 13 24 14 25
REMARK SMILES IDX 15 26 16 27 17 29 18 30 19 31 83 32 20 33 82 34 21 35 22 36
REMARK SMILES IDX 23 37 76 38 24 39 81 40 75 41 77 42 25 43 80 44 74 45 73 46
REMARK SMILES IDX 26 48 60 49 39 50 59 51 40 52 43 53 58 54 78 55 41 56 42 57
REMARK SMILES IDX 57 59 79 60 44 61 27 62 28 63 37 64 29 65 30 66 36 67 38 68
REMARK SMILES IDX 31 69 32 70 33 71 34 72 35 73 61 74 62 75 71 76 63 77 64 78
REMARK SMILES IDX 70 79 72 80 65 81 66 82 67 83 68 84 69 85 45 86 46 87 55 88
REMARK SMILES IDX 47 89 48 90 54 91 56 92 49 93 50 94 51 95 52 96 53 97
REMARK H PARENT 10 6 5 12 15 28 77 47 43 58
REMARK Flexibility Score: inf
ROOT
ATOM      1  C   UNL     1       4.849   2.629   3.574  1.00  0.00     0.023 C 
ENDROOT
BRANCH   1   2
ATOM      2  C   UNL     1       3.322   2.580   3.517  1.00  0.00     0.116 C 
BRANCH   2   3
ATOM      3  N   UNL     1       2.704   3.426   4.511  1.00  0.00    -0.354 N 
ATOM      4  C   UNL     1       2.089   4.635   4.364  1.00  0.00     0.242 C 
ATOM      5  O   UNL     1       1.666   5.187   5.383  1.00  0.00    -0.273 OA
ATOM      6  H   UNL     1       2.730   3.078   5.431  1.00  0.00     0.163 HD
BRANCH   4   7
ATOM      7  C   UNL     1       2.007   5.359   2.992  1.00  0.00     0.168 C 
ATOM      8  C   UNL     1       3.297   6.080   2.664  1.00  0.00     0.041 C 
BRANCH   7   9
ATOM      9  N   UNL     1       1.354   4.539   1.960  1.00  0.00    -0.343 N 
ATOM     10  C   UNL     1       1.503   4.173   0.666  1.00  0.00     0.243 C 
ATOM     11  O   UNL     1       0.456   3.730   0.174  1.00  0.00    -0.273 OA
ATOM     12  H   UNL     1       0.545   4.120   2.332  1.00  0.00     0.164 HD
BRANCH  10  13
ATOM     13  C   UNL     1       2.782   4.306  -0.182  1.00  0.00     0.174 C 
ATOM     14  C   UNL     1       4.064   3.684   0.364  1.00  0.00     0.042 C 
BRANCH  13  15
ATOM     15  N   UNL     1       2.604   3.695  -1.520  1.00  0.00    -0.318 N 
ATOM     16  C   UNL     1       2.988   4.295  -2.692  1.00  0.00     0.201 A 
ATOM     17  C   UNL     1       2.387   2.356  -1.788  1.00  0.00     0.069 A 
ATOM     18  N   UNL     1       3.083   3.431  -3.677  1.00  0.00    -0.237 NA
ATOM     19  C   UNL     1       2.735   2.219  -3.130  1.00  0.00     0.088 A 
ATOM     20  C   UNL     1       1.976   1.268  -1.003  1.00  0.00     0.028 A 
ATOM     21  C   UNL     1       2.715   0.944  -3.717  1.00  0.00     0.030 A 
ATOM     22  C   UNL     1       1.947   0.009  -1.610  1.00  0.00     0.002 A 
ATOM     23  C   UNL     1       2.323  -0.156  -2.943  1.00  0.00     0.002 A 
ENDBRANCH  13  15
ENDBRANCH  10  13
ENDBRANCH   7   9
ENDBRANCH   4   7
ENDBRANCH   2   3
ENDBRANCH   1   2
BRANCH   1  24
ATOM     24  C   UNL     1       5.468   1.688   4.601  1.00  0.00     0.023 C 
BRANCH  24  25
ATOM     25  C   UNL     1       5.170   0.211   4.374  1.00  0.00     0.116 C 
BRANCH  25  26
ATOM     26  N   UNL     1       5.640  -0.299   3.092  1.00  0.00    -0.352 N 
ATOM     27  C   UNL     1       6.218  -1.522   2.832  1.00  0.00     0.251 C 
ATOM     28  H   UNL     1       5.531   0.302   2.320  1.00  0.00     0.163 HD
ATOM     29  O   UNL     1       6.650  -1.786   1.715  1.00  0.00    -0.269 OA
BRANCH  27  30
ATOM     30  C   UNL     1       6.354  -2.489   3.941  1.00  0.00     0.039 A 
ATOM     31  C   UNL     1       7.613  -3.018   4.229  1.00  0.00     0.014 A 
ATOM     32  C   UNL     1       5.256  -2.779   4.755  1.00  0.00     0.014 A 
ATOM     33  C   UNL     1       7.790  -3.765   5.396  1.00  0.00     0.010 A 
ATOM     34  C   UNL     1       5.455  -3.446   5.958  1.00  0.00     0.010 A 
ATOM     35  C   UNL     1       6.725  -3.940   6.295  1.00  0.00    -0.014 A 
BRANCH  35  36
ATOM     36  C   UNL     1       6.916  -4.624   7.600  1.00  0.00     0.031 A 
ATOM     37  C   UNL     1       6.154  -5.885   7.904  1.00  0.00     0.074 A 
ATOM     38  C   UNL     1       7.710  -4.069   8.537  1.00  0.00     0.049 A 
ATOM     39  N   UNL     1       6.118  -6.580   9.011  1.00  0.00    -0.248 NA
ATOM     40  C   UNL     1       5.291  -6.414   6.835  1.00  0.00     0.031 C 
ATOM     41  C   UNL     1       8.454  -2.815   8.387  1.00  0.00     0.029 A 
ATOM     42  N   UNL     1       8.017  -4.481   9.810  1.00  0.00    -0.354 N 
ATOM     43  C   UNL     1       5.220  -7.615   8.778  1.00  0.00     0.074 A 
ATOM     44  C   UNL     1       4.689  -7.422   7.447  1.00  0.00     0.031 C 
ATOM     45  C   UNL     1       9.149  -2.576   9.511  1.00  0.00     0.029 A 
ATOM     46  C   UNL     1       8.874  -3.635  10.476  1.00  0.00     0.049 A 
ATOM     47  H   UNL     1       7.657  -5.306  10.210  1.00  0.00     0.167 HD
ATOM     48  C   UNL     1       4.889  -8.648   9.588  1.00  0.00     0.037 A 
ATOM     49  C   UNL     1       9.378  -3.704  11.724  1.00  0.00     0.037 A 
ATOM     50  C   UNL     1       5.448  -8.855  10.898  1.00  0.00     0.049 A 
ATOM     51  C   UNL     1       9.009  -4.872  12.599  1.00  0.00     0.074 A 
ATOM     52  C   UNL     1       5.228  -9.905  11.771  1.00  0.00     0.029 A 
ATOM     53  N   UNL     1       6.340  -7.995  11.522  1.00  0.00    -0.354 N 
ATOM     54  N   UNL     1       8.210  -5.878  12.336  1.00  0.00    -0.248 NA
ATOM     55  C   UNL     1       9.616  -4.918  13.937  1.00  0.00     0.031 C 
ATOM     56  C   UNL     1       5.957  -9.662  12.939  1.00  0.00     0.029 A 
ATOM     57  C   UNL     1       6.668  -8.484  12.776  1.00  0.00     0.049 A 
ATOM     58  H   UNL     1       6.689  -7.162  11.132  1.00  0.00     0.167 HD
ATOM     59  C   UNL     1       8.239  -6.691  13.464  1.00  0.00     0.074 A 
ATOM     60  C   UNL     1       9.143  -6.065  14.407  1.00  0.00     0.031 C 
ATOM     61  C   UNL     1       7.578  -7.851  13.698  1.00  0.00     0.037 A 
BRANCH  48  62
ATOM     62  C   UNL     1       3.885  -9.641   9.072  1.00  0.00     0.058 A 
ATOM     63  C   UNL     1       4.198 -10.529   8.029  1.00  0.00     0.135 A 
ATOM     64  C   UNL     1       2.605  -9.726   9.641  1.00  0.00     0.135 A 
ATOM     65  F   UNL     1       5.402 -10.479   7.436  1.00  0.00    -0.206 F 
ATOM     66  C   UNL     1       3.268 -11.444   7.548  1.00  0.00     0.059 A 
ATOM     67  C   UNL     1       1.667 -10.654   9.196  1.00  0.00     0.059 A 
ATOM     68  F   UNL     1       2.252  -8.901  10.639  1.00  0.00    -0.206 F 
ATOM     69  C   UNL     1       2.004 -11.498   8.138  1.00  0.00     0.060 A 
BRANCH  69  70
ATOM     70  S   UNL     1       0.809 -12.693   7.505  1.00  0.00     0.124 S 
ATOM     71  O   UNL     1       0.426 -12.076   6.238  1.00  0.00    -0.237 OA
ATOM     72  O   UNL     1       1.609 -13.909   7.400  1.00  0.00    -0.237 OA
ATOM     73  O   UNL     1      -0.228 -12.714   8.531  1.00  0.00    -0.744 OA
ENDBRANCH  69  70
ENDBRANCH  48  62
BRANCH  49  74
ATOM     74  C   UNL     1      10.309  -2.651  12.211  1.00  0.00     0.058 A 
ATOM     75  C   UNL     1      11.672  -2.925  12.397  1.00  0.00     0.135 A 
ATOM     76  C   UNL     1       9.860  -1.351  12.491  1.00  0.00     0.135 A 
ATOM     77  F   UNL     1      12.149  -4.155  12.148  1.00  0.00    -0.206 F 
ATOM     78  C   UNL     1      12.555  -1.955  12.859  1.00  0.00     0.059 A 
ATOM     79  C   UNL     1      10.728  -0.357  12.931  1.00  0.00     0.059 A 
ATOM     80  F   UNL     1       8.569  -1.032  12.312  1.00  0.00    -0.206 F 
ATOM     81  C   UNL     1      12.073  -0.671  13.122  1.00  0.00     0.060 A 
BRANCH  81  82
ATOM     82  S   UNL     1      13.236   0.595  13.676  1.00  0.00     0.124 S 
ATOM     83  O   UNL     1      13.476   0.190  15.056  1.00  0.00    -0.237 OA
ATOM     84  O   UNL     1      14.352   0.412  12.753  1.00  0.00    -0.237 OA
ATOM     85  O   UNL     1      12.487   1.836  13.502  1.00  0.00    -0.744 OA
ENDBRANCH  81  82
ENDBRANCH  49  74
BRANCH  61  86
ATOM     86  C   UNL     1       7.832  -8.541  15.009  1.00  0.00     0.058 A 
ATOM     87  C   UNL     1       7.310  -8.048  16.215  1.00  0.00     0.135 A 
ATOM     88  C   UNL     1       8.562  -9.740  15.050  1.00  0.00     0.135 A 
ATOM     89  F   UNL     1       6.610  -6.903  16.230  1.00  0.00    -0.206 F 
ATOM     90  C   UNL     1       7.521  -8.709  17.420  1.00  0.00     0.059 A 
ATOM     91  C   UNL     1       8.763 -10.431  16.240  1.00  0.00     0.059 A 
ATOM     92  F   UNL     1       9.074 -10.259  13.923  1.00  0.00    -0.206 F 
ATOM     93  C   UNL     1       8.248  -9.901  17.422  1.00  0.00     0.060 A 
BRANCH  93  94
ATOM     94  S   UNL     1       8.486 -10.768  18.988  1.00  0.00     0.124 S 
ATOM     95  O   UNL     1       9.497  -9.937  19.633  1.00  0.00    -0.237 OA
ATOM     96  O   UNL     1       7.153 -10.718  19.579  1.00  0.00    -0.237 OA
ATOM     97  O   UNL     1       8.934 -12.095  18.577  1.00  0.00    -0.744 OA
ENDBRANCH  93  94
ENDBRANCH  61  86
ENDBRANCH  35  36
ENDBRANCH  27  30
ENDBRANCH  25  26
ENDBRANCH  24  25
ENDBRANCH   1  24
TORSDOF 17
