REMARK SMILES COc1ccc(C(=O)C2=C(NCCCCNC(=O)c3ccc(-c4c5nc(c(-c6c(F)cc(S(=O)(=O)[O-])cc6F)c6ccc([nH]6)c(-c6c(F)cc(S(=O)(=O)[O-])cc6F)c6nc(c(-c7c(F)cc(S(=O)(=O)[O-])cc7F)c7ccc4[nH]7)C=C6)C=C5)cc3)C(=O)N(CC(=O)[O-])[C@H]2c2ccccc2)cc1
REMARK SMILES IDX 13 1 12 2 11 3 10 5 9 6 92 7 85 8 87 9 86 10 7 11 8 12 6 13
REMARK SMILES IDX 3 14 4 15 100 16 5 17 99 18 2 19 1 20 93 21 94 22 98 23
REMARK SMILES IDX 95 24 97 25 96 26 88 27 89 28 90 29 91 30 14 31 15 32 16 33
REMARK SMILES IDX 17 34 18 36 19 37 20 38 84 39 21 40 83 41 22 42 23 43 24 44
REMARK SMILES IDX 77 45 25 46 82 47 76 48 78 49 26 50 81 51 75 52 74 53 27 55
REMARK SMILES IDX 61 56 40 57 60 58 41 59 44 60 59 61 79 62 42 63 43 64 58 66
REMARK SMILES IDX 80 67 45 68 28 69 29 70 38 71 30 72 31 73 37 74 39 75 32 76
REMARK SMILES IDX 33 77 34 78 35 79 36 80 62 81 63 82 72 83 64 84 65 85 71 86
REMARK SMILES IDX 73 87 66 88 67 89 68 90 69 91 70 92 46 93 47 94 56 95 48 96
REMARK SMILES IDX 49 97 55 98 57 99 50 100 51 101 52 102 53 103 54 104
REMARK H PARENT 11 4 16 35 78 54 44 65
REMARK Flexibility Score: inf
ROOT
ATOM      1  C   UNL     1       0.519  -0.251  -7.214  1.00  0.00     0.023 C 
ENDROOT
BRANCH   1   2
ATOM      2  C   UNL     1       0.928  -1.703  -7.455  1.00  0.00     0.113 C 
BRANCH   2   3
ATOM      3  N   UNL     1       2.362  -1.805  -7.585  1.00  0.00    -0.380 N 
ATOM      4  H   UNL     1       2.751  -1.282  -8.323  1.00  0.00     0.160 HD
BRANCH   3   5
ATOM      5  C   UNL     1       3.264  -2.518  -6.841  1.00  0.00     0.110 C 
ATOM      6  C   UNL     1       3.230  -3.292  -5.748  1.00  0.00     0.056 C 
ATOM      7  C   UNL     1       4.544  -3.916  -5.382  1.00  0.00     0.153 C 
ATOM      8  C   UNL     1       4.698  -2.577  -7.291  1.00  0.00     0.271 C 
ATOM      9  N   UNL     1       5.380  -3.412  -6.443  1.00  0.00    -0.320 N 
ATOM     10  O   UNL     1       5.144  -1.978  -8.256  1.00  0.00    -0.267 OA
BRANCH   6  11
ATOM     11  C   UNL     1       1.997  -3.695  -5.056  1.00  0.00     0.193 C 
ATOM     12  O   UNL     1       1.429  -4.731  -5.392  1.00  0.00    -0.289 OA
BRANCH  11  13
ATOM     13  C   UNL     1       1.468  -2.879  -3.923  1.00  0.00     0.023 A 
ATOM     14  C   UNL     1       0.500  -1.571  -1.618  1.00  0.00     0.118 A 
ATOM     15  C   UNL     1      -0.241  -2.591  -2.218  1.00  0.00     0.047 A 
ATOM     16  C   UNL     1       1.699  -1.173  -2.204  1.00  0.00     0.047 A 
ATOM     17  C   UNL     1       0.240  -3.246  -3.357  1.00  0.00     0.016 A 
ATOM     18  C   UNL     1       2.162  -1.803  -3.367  1.00  0.00     0.016 A 
BRANCH  14  19
ATOM     19  O   UNL     1      -0.045  -1.055  -0.475  1.00  0.00    -0.497 OA
ATOM     20  C   UNL     1       0.660   0.015   0.143  1.00  0.00     0.278 C 
ENDBRANCH  14  19
ENDBRANCH  11  13
ENDBRANCH   6  11
BRANCH   7  21
ATOM     21  C   UNL     1       5.058  -3.491  -4.014  1.00  0.00    -0.021 A 
ATOM     22  C   UNL     1       5.597  -2.207  -3.796  1.00  0.00     0.006 A 
ATOM     23  C   UNL     1       4.967  -4.370  -2.925  1.00  0.00     0.006 A 
ATOM     24  C   UNL     1       6.013  -1.808  -2.526  1.00  0.00     0.000 A 
ATOM     25  C   UNL     1       5.396  -3.971  -1.656  1.00  0.00     0.000 A 
ATOM     26  C   UNL     1       5.912  -2.691  -1.456  1.00  0.00     0.000 A 
ENDBRANCH   7  21
BRANCH   9  27
ATOM     27  C   UNL     1       6.790  -3.741  -6.600  1.00  0.00     0.173 C 
BRANCH  27  28
ATOM     28  C   UNL     1       7.100  -4.768  -7.677  1.00  0.00     0.061 C 
ATOM     29  O   UNL     1       8.224  -5.102  -8.024  1.00  0.00    -0.548 OA
ATOM     30  O   UNL     1       6.023  -5.374  -8.214  1.00  0.00    -0.548 OA
ENDBRANCH  27  28
ENDBRANCH   9  27
ENDBRANCH   3   5
ENDBRANCH   2   3
ENDBRANCH   1   2
BRANCH   1  31
ATOM     31  C   UNL     1       0.771   0.693  -8.392  1.00  0.00     0.023 C 
BRANCH  31  32
ATOM     32  C   UNL     1       0.113   0.285  -9.706  1.00  0.00     0.116 C 
BRANCH  32  33
ATOM     33  N   UNL     1      -1.339   0.195  -9.613  1.00  0.00    -0.352 N 
ATOM     34  C   UNL     1      -2.289   0.723 -10.456  1.00  0.00     0.251 C 
ATOM     35  H   UNL     1      -1.686  -0.312  -8.843  1.00  0.00     0.163 HD
ATOM     36  O   UNL     1      -3.480   0.664 -10.166  1.00  0.00    -0.269 OA
BRANCH  34  37
ATOM     37  C   UNL     1      -1.855   1.393 -11.699  1.00  0.00     0.039 A 
ATOM     38  C   UNL     1      -2.311   2.686 -11.972  1.00  0.00     0.014 A 
ATOM     39  C   UNL     1      -0.953   0.764 -12.559  1.00  0.00     0.014 A 
ATOM     40  C   UNL     1      -1.793   3.383 -13.067  1.00  0.00     0.010 A 
ATOM     41  C   UNL     1      -0.389   1.483 -13.607  1.00  0.00     0.010 A 
ATOM     42  C   UNL     1      -0.794   2.803 -13.866  1.00  0.00    -0.014 A 
BRANCH  42  43
ATOM     43  C   UNL     1      -0.139   3.548 -14.973  1.00  0.00     0.031 A 
ATOM     44  C   UNL     1      -0.259   3.037 -16.383  1.00  0.00     0.074 A 
ATOM     45  C   UNL     1       0.658   4.601 -14.697  1.00  0.00     0.049 A 
ATOM     46  N   UNL     1       0.383   3.418 -17.456  1.00  0.00    -0.248 NA
ATOM     47  C   UNL     1      -1.201   1.927 -16.608  1.00  0.00     0.031 C 
ATOM     48  C   UNL     1       0.892   5.163 -13.364  1.00  0.00     0.029 A 
ATOM     49  N   UNL     1       1.448   5.367 -15.519  1.00  0.00    -0.354 N 
ATOM     50  C   UNL     1      -0.045   2.571 -18.472  1.00  0.00     0.074 A 
ATOM     51  C   UNL     1      -0.983   1.641 -17.884  1.00  0.00     0.031 C 
ATOM     52  C   UNL     1       1.770   6.175 -13.459  1.00  0.00     0.029 A 
ATOM     53  C   UNL     1       2.197   6.308 -14.848  1.00  0.00     0.049 A 
ATOM     54  H   UNL     1       1.477   5.254 -16.497  1.00  0.00     0.167 HD
ATOM     55  C   UNL     1       0.308   2.578 -19.779  1.00  0.00     0.037 A 
ATOM     56  C   UNL     1       3.142   7.160 -15.296  1.00  0.00     0.037 A 
ATOM     57  C   UNL     1       1.197   3.544 -20.367  1.00  0.00     0.049 A 
ATOM     58  C   UNL     1       3.492   7.163 -16.762  1.00  0.00     0.074 A 
ATOM     59  C   UNL     1       1.540   3.692 -21.700  1.00  0.00     0.029 A 
ATOM     60  N   UNL     1       1.881   4.524 -19.665  1.00  0.00    -0.354 N 
ATOM     61  N   UNL     1       3.020   6.406 -17.722  1.00  0.00    -0.248 NA
ATOM     62  C   UNL     1       4.500   8.137 -17.207  1.00  0.00     0.031 C 
ATOM     63  C   UNL     1       2.464   4.735 -21.799  1.00  0.00     0.029 A 
ATOM     64  C   UNL     1       2.659   5.268 -20.535  1.00  0.00     0.049 A 
ATOM     65  H   UNL     1       1.822   4.670 -18.694  1.00  0.00     0.167 HD
ATOM     66  C   UNL     1       3.646   6.835 -18.888  1.00  0.00     0.074 A 
ATOM     67  C   UNL     1       4.528   7.920 -18.515  1.00  0.00     0.031 C 
ATOM     68  C   UNL     1       3.504   6.371 -20.153  1.00  0.00     0.037 A 
BRANCH  55  69
ATOM     69  C   UNL     1      -0.268   1.521 -20.677  1.00  0.00     0.058 A 
ATOM     70  C   UNL     1      -1.609   1.551 -21.087  1.00  0.00     0.135 A 
ATOM     71  C   UNL     1       0.559   0.515 -21.206  1.00  0.00     0.135 A 
ATOM     72  F   UNL     1      -2.445   2.480 -20.598  1.00  0.00    -0.206 F 
ATOM     73  C   UNL     1      -2.113   0.619 -21.988  1.00  0.00     0.059 A 
ATOM     74  C   UNL     1       0.082  -0.412 -22.127  1.00  0.00     0.059 A 
ATOM     75  F   UNL     1       1.849   0.440 -20.842  1.00  0.00    -0.206 F 
ATOM     76  C   UNL     1      -1.257  -0.354 -22.509  1.00  0.00     0.060 A 
BRANCH  76  77
ATOM     77  S   UNL     1      -1.915  -1.522 -23.718  1.00  0.00     0.124 S 
ATOM     78  O   UNL     1      -2.744  -2.378 -22.875  1.00  0.00    -0.237 OA
ATOM     79  O   UNL     1      -2.639  -0.646 -24.635  1.00  0.00    -0.237 OA
ATOM     80  O   UNL     1      -0.720  -2.151 -24.269  1.00  0.00    -0.744 OA
ENDBRANCH  76  77
ENDBRANCH  55  69
BRANCH  56  81
ATOM     81  C   UNL     1       3.841   8.074 -14.352  1.00  0.00     0.058 A 
ATOM     82  C   UNL     1       3.637   9.461 -14.403  1.00  0.00     0.135 A 
ATOM     83  C   UNL     1       4.753   7.584 -13.404  1.00  0.00     0.135 A 
ATOM     84  F   UNL     1       2.780   9.980 -15.296  1.00  0.00    -0.206 F 
ATOM     85  C   UNL     1       4.337  10.333 -13.575  1.00  0.00     0.059 A 
ATOM     86  C   UNL     1       5.444   8.434 -12.545  1.00  0.00     0.059 A 
ATOM     87  F   UNL     1       4.971   6.264 -13.300  1.00  0.00    -0.206 F 
ATOM     88  C   UNL     1       5.244   9.809 -12.652  1.00  0.00     0.060 A 
BRANCH  88  89
ATOM     89  S   UNL     1       6.145  10.947 -11.577  1.00  0.00     0.124 S 
ATOM     90  O   UNL     1       7.132  11.498 -12.497  1.00  0.00    -0.237 OA
ATOM     91  O   UNL     1       5.093  11.862 -11.145  1.00  0.00    -0.237 OA
ATOM     92  O   UNL     1       6.671  10.073 -10.532  1.00  0.00    -0.744 OA
ENDBRANCH  88  89
ENDBRANCH  56  81
BRANCH  68  93
ATOM     93  C   UNL     1       4.265   7.065 -21.247  1.00  0.00     0.058 A 
ATOM     94  C   UNL     1       5.642   6.873 -21.425  1.00  0.00     0.135 A 
ATOM     95  C   UNL     1       3.582   7.854 -22.187  1.00  0.00     0.135 A 
ATOM     96  F   UNL     1       6.341   6.134 -20.549  1.00  0.00    -0.206 F 
ATOM     97  C   UNL     1       6.320   7.444 -22.497  1.00  0.00     0.059 A 
ATOM     98  C   UNL     1       4.235   8.413 -23.280  1.00  0.00     0.059 A 
ATOM     99  F   UNL     1       2.261   8.060 -22.065  1.00  0.00    -0.206 F 
ATOM    100  C   UNL     1       5.606   8.205 -23.425  1.00  0.00     0.060 A 
BRANCH 100 101
ATOM    101  S   UNL     1       6.483   8.880 -24.851  1.00  0.00     0.124 S 
ATOM    102  O   UNL     1       7.233   9.975 -24.245  1.00  0.00    -0.237 OA
ATOM    103  O   UNL     1       7.276   7.739 -25.299  1.00  0.00    -0.237 OA
ATOM    104  O   UNL     1       5.407   9.280 -25.754  1.00  0.00    -0.744 OA
ENDBRANCH 100 101
ENDBRANCH  68  93
ENDBRANCH  42  43
ENDBRANCH  34  37
ENDBRANCH  32  33
ENDBRANCH  31  32
ENDBRANCH   1  31
TORSDOF 20
