REMARK SMILES O=C(NCCCCNC(=O)[C@H](c1c[nH]c2cc(F)ccc12)[NH+]1CCN(c2ccccc2)CC1)c1ccc(-c2c3nc(c(-c4c(F)cc(S(=O)(=O)[O-])cc4F)c4ccc([nH]4)c(-c4c(F)cc(S(=O)(=O)[O-])cc4F)c4nc(c(-c5c(F)cc(S(=O)(=O)[O-])cc5F)c5ccc2[nH]5)C=C4)C=C3)cc1
REMARK SMILES IDX 5 1 4 2 3 3 1 4 2 5 34 7 35 8 99 9 36 10 98 11 37 12 38 13
REMARK SMILES IDX 39 14 92 15 40 16 97 17 91 18 93 19 41 20 96 21 90 22 89 23
REMARK SMILES IDX 42 25 76 26 55 27 75 28 56 29 59 30 74 31 94 32 57 33 58 34
REMARK SMILES IDX 73 36 95 37 60 38 43 39 44 40 53 41 45 42 46 43 52 44 54 45
REMARK SMILES IDX 47 46 48 47 49 48 50 49 51 50 77 51 78 52 87 53 79 54 80 55
REMARK SMILES IDX 86 56 88 57 81 58 82 59 83 60 84 61 85 62 61 63 62 64 71 65
REMARK SMILES IDX 63 66 64 67 70 68 72 69 65 70 66 71 67 72 68 73 69 74 6 75
REMARK SMILES IDX 7 76 8 77 9 78 10 80 11 81 22 82 23 83 33 84 24 86 32 87
REMARK SMILES IDX 25 88 26 89 27 90 31 91 28 92 30 93 29 94 12 95 13 96 21 97
REMARK SMILES IDX 14 98 15 99 20 100 16 102 19 103 17 104 18 105
REMARK H PARENT 3 6 93 24 59 35 8 79 22 85 14 101
REMARK Flexibility Score: inf
ROOT
ATOM      1  C   UNL     1       5.125  -7.847   8.393  1.00  0.00     0.023 C 
ENDROOT
BRANCH   1   2
ATOM      2  C   UNL     1       3.701  -8.355   8.162  1.00  0.00     0.116 C 
BRANCH   2   3
ATOM      3  N   UNL     1       3.625  -9.758   7.790  1.00  0.00    -0.352 N 
ATOM      4  O   UNL     1       2.824 -11.863   7.763  1.00  0.00    -0.269 OA
ATOM      5  C   UNL     1       2.723 -10.722   8.188  1.00  0.00     0.251 C 
ATOM      6  H   UNL     1       4.319 -10.066   7.163  1.00  0.00     0.163 HD
BRANCH   5   7
ATOM      7  C   UNL     1       1.669 -10.384   9.174  1.00  0.00     0.039 A 
ATOM      8  C   UNL     1       0.856  -9.258   9.021  1.00  0.00     0.014 A 
ATOM      9  C   UNL     1       1.535 -11.202  10.299  1.00  0.00     0.014 A 
ATOM     10  C   UNL     1       0.026  -8.858  10.069  1.00  0.00     0.010 A 
ATOM     11  C   UNL     1       0.664 -10.829  11.324  1.00  0.00     0.010 A 
ATOM     12  C   UNL     1      -0.051  -9.624  11.242  1.00  0.00    -0.014 A 
BRANCH  12  13
ATOM     13  C   UNL     1      -0.828  -9.146  12.414  1.00  0.00     0.031 A 
ATOM     14  C   UNL     1      -0.108  -8.737  13.672  1.00  0.00     0.074 A 
ATOM     15  C   UNL     1      -2.171  -9.101  12.361  1.00  0.00     0.049 A 
ATOM     16  N   UNL     1      -0.599  -8.403  14.838  1.00  0.00    -0.248 NA
ATOM     17  C   UNL     1       1.363  -8.710  13.611  1.00  0.00     0.031 C 
ATOM     18  C   UNL     1      -2.981  -9.456  11.196  1.00  0.00     0.029 A 
ATOM     19  N   UNL     1      -3.091  -8.754  13.318  1.00  0.00    -0.354 N 
ATOM     20  C   UNL     1       0.498  -8.156  15.657  1.00  0.00     0.074 A 
ATOM     21  C   UNL     1       1.681  -8.394  14.858  1.00  0.00     0.031 C 
ATOM     22  C   UNL     1      -4.279  -9.315  11.507  1.00  0.00     0.029 A 
ATOM     23  C   UNL     1      -4.393  -8.907  12.905  1.00  0.00     0.049 A 
ATOM     24  H   UNL     1      -2.843  -8.428  14.213  1.00  0.00     0.167 HD
ATOM     25  C   UNL     1       0.515  -7.766  16.955  1.00  0.00     0.037 A 
ATOM     26  C   UNL     1      -5.548  -8.767  13.585  1.00  0.00     0.037 A 
ATOM     27  C   UNL     1      -0.667  -7.516  17.737  1.00  0.00     0.049 A 
ATOM     28  C   UNL     1      -5.509  -8.352  15.028  1.00  0.00     0.074 A 
ATOM     29  C   UNL     1      -0.757  -7.093  19.052  1.00  0.00     0.029 A 
ATOM     30  N   UNL     1      -1.967  -7.667  17.276  1.00  0.00    -0.354 N 
ATOM     31  N   UNL     1      -4.466  -8.114  15.787  1.00  0.00    -0.248 NA
ATOM     32  C   UNL     1      -6.800  -8.186  15.709  1.00  0.00     0.031 C 
ATOM     33  C   UNL     1      -2.112  -7.021  19.396  1.00  0.00     0.029 A 
ATOM     34  C   UNL     1      -2.866  -7.360  18.284  1.00  0.00     0.049 A 
ATOM     35  H   UNL     1      -2.213  -7.952  16.367  1.00  0.00     0.167 HD
ATOM     36  C   UNL     1      -4.973  -7.748  17.028  1.00  0.00     0.074 A 
ATOM     37  C   UNL     1      -6.417  -7.794  16.918  1.00  0.00     0.031 C 
ATOM     38  C   UNL     1      -4.302  -7.400  18.153  1.00  0.00     0.037 A 
BRANCH  25  39
ATOM     39  C   UNL     1       1.859  -7.619  17.614  1.00  0.00     0.058 A 
ATOM     40  C   UNL     1       2.724  -6.556  17.306  1.00  0.00     0.135 A 
ATOM     41  C   UNL     1       2.289  -8.555  18.569  1.00  0.00     0.135 A 
ATOM     42  F   UNL     1       2.369  -5.641  16.390  1.00  0.00    -0.206 F 
ATOM     43  C   UNL     1       3.983  -6.450  17.889  1.00  0.00     0.059 A 
ATOM     44  C   UNL     1       3.534  -8.455  19.183  1.00  0.00     0.059 A 
ATOM     45  F   UNL     1       1.501  -9.589  18.904  1.00  0.00    -0.206 F 
ATOM     46  C   UNL     1       4.383  -7.411  18.819  1.00  0.00     0.060 A 
BRANCH  46  47
ATOM     47  S   UNL     1       6.035  -7.287  19.538  1.00  0.00     0.124 S 
ATOM     48  O   UNL     1       6.864  -7.779  18.442  1.00  0.00    -0.237 OA
ATOM     49  O   UNL     1       6.148  -5.861  19.826  1.00  0.00    -0.237 OA
ATOM     50  O   UNL     1       5.961  -8.155  20.709  1.00  0.00    -0.744 OA
ENDBRANCH  46  47
ENDBRANCH  25  39
BRANCH  26  51
ATOM     51  C   UNL     1      -6.832  -9.031  12.887  1.00  0.00     0.058 A 
ATOM     52  C   UNL     1      -7.668  -7.979  12.492  1.00  0.00     0.135 A 
ATOM     53  C   UNL     1      -7.207 -10.337  12.534  1.00  0.00     0.135 A 
ATOM     54  F   UNL     1      -7.353  -6.715  12.813  1.00  0.00    -0.206 F 
ATOM     55  C   UNL     1      -8.828  -8.209  11.760  1.00  0.00     0.059 A 
ATOM     56  C   UNL     1      -8.351 -10.591  11.785  1.00  0.00     0.059 A 
ATOM     57  F   UNL     1      -6.430 -11.376  12.878  1.00  0.00    -0.206 F 
ATOM     58  C   UNL     1      -9.155  -9.518  11.402  1.00  0.00     0.060 A 
BRANCH  58  59
ATOM     59  S   UNL     1     -10.607  -9.797  10.364  1.00  0.00     0.124 S 
ATOM     60  O   UNL     1     -11.692  -9.619  11.322  1.00  0.00    -0.237 OA
ATOM     61  O   UNL     1     -10.468  -8.751   9.355  1.00  0.00    -0.237 OA
ATOM     62  O   UNL     1     -10.411 -11.158   9.874  1.00  0.00    -0.744 OA
ENDBRANCH  58  59
ENDBRANCH  26  51
BRANCH  38  63
ATOM     63  C   UNL     1      -5.115  -7.003  19.352  1.00  0.00     0.058 A 
ATOM     64  C   UNL     1      -5.754  -7.956  20.158  1.00  0.00     0.135 A 
ATOM     65  C   UNL     1      -5.191  -5.655  19.739  1.00  0.00     0.135 A 
ATOM     66  F   UNL     1      -5.716  -9.256  19.825  1.00  0.00    -0.206 F 
ATOM     67  C   UNL     1      -6.446  -7.587  21.307  1.00  0.00     0.059 A 
ATOM     68  C   UNL     1      -5.861  -5.265  20.893  1.00  0.00     0.059 A 
ATOM     69  F   UNL     1      -4.590  -4.706  19.003  1.00  0.00    -0.206 F 
ATOM     70  C   UNL     1      -6.491  -6.239  21.669  1.00  0.00     0.060 A 
BRANCH  70  71
ATOM     71  S   UNL     1      -7.342  -5.775  23.192  1.00  0.00     0.124 S 
ATOM     72  O   UNL     1      -8.741  -5.860  22.785  1.00  0.00    -0.237 OA
ATOM     73  O   UNL     1      -6.892  -6.800  24.129  1.00  0.00    -0.237 OA
ATOM     74  O   UNL     1      -6.846  -4.429  23.461  1.00  0.00    -0.744 OA
ENDBRANCH  70  71
ENDBRANCH  38  63
ENDBRANCH  12  13
ENDBRANCH   5   7
ENDBRANCH   2   3
ENDBRANCH   1   2
BRANCH   1  75
ATOM     75  C   UNL     1       6.117  -8.042   7.244  1.00  0.00     0.023 C 
BRANCH  75  76
ATOM     76  C   UNL     1       5.682  -7.481   5.896  1.00  0.00     0.116 C 
BRANCH  76  77
ATOM     77  N   UNL     1       5.681  -6.038   5.823  1.00  0.00    -0.351 N 
ATOM     78  C   UNL     1       5.856  -5.248   4.711  1.00  0.00     0.283 C 
ATOM     79  H   UNL     1       5.536  -5.562   6.672  1.00  0.00     0.163 HD
ATOM     80  O   UNL     1       5.494  -4.072   4.815  1.00  0.00    -0.268 OA
BRANCH  78  81
ATOM     81  C   UNL     1       6.479  -5.846   3.409  1.00  0.00     0.307 C 
BRANCH  81  82
ATOM     82  N   UNL     1       5.506  -6.347   2.421  1.00  0.00    -0.318 N 
ATOM     83  C   UNL     1       5.460  -7.785   2.164  1.00  0.00     0.284 C 
ATOM     84  C   UNL     1       4.178  -5.740   2.365  1.00  0.00     0.284 C 
ATOM     85  H   UNL     1       5.996  -5.945   1.622  1.00  0.00     0.349 HD
ATOM     86  C   UNL     1       4.360  -8.601   2.884  1.00  0.00     0.178 C 
ATOM     87  C   UNL     1       3.112  -6.438   3.229  1.00  0.00     0.178 C 
ATOM     88  N   UNL     1       3.076  -7.893   2.986  1.00  0.00    -0.360 N 
BRANCH  88  89
ATOM     89  C   UNL     1       1.961  -8.559   3.502  1.00  0.00     0.037 A 
ATOM     90  C   UNL     1       2.059  -9.615   4.420  1.00  0.00     0.026 A 
ATOM     91  C   UNL     1       0.668  -8.171   3.116  1.00  0.00     0.026 A 
ATOM     92  C   UNL     1       0.919 -10.231   4.954  1.00  0.00     0.002 A 
ATOM     93  C   UNL     1      -0.475  -8.785   3.639  1.00  0.00     0.002 A 
ATOM     94  C   UNL     1      -0.348  -9.812   4.567  1.00  0.00     0.000 A 
ENDBRANCH  88  89
ENDBRANCH  81  82
BRANCH  81  95
ATOM     95  C   UNL     1       7.351  -4.823   2.685  1.00  0.00     0.044 A 
ATOM     96  C   UNL     1       6.936  -3.648   2.076  1.00  0.00     0.094 A 
ATOM     97  C   UNL     1       8.773  -4.897   2.473  1.00  0.00     0.009 A 
ATOM     98  N   UNL     1       8.014  -3.035   1.507  1.00  0.00    -0.361 N 
ATOM     99  C   UNL     1       9.149  -3.776   1.725  1.00  0.00     0.049 A 
ATOM    100  C   UNL     1       9.779  -5.819   2.841  1.00  0.00     0.014 A 
ATOM    101  H   UNL     1       7.983  -2.184   1.013  1.00  0.00     0.166 HD
ATOM    102  C   UNL     1      10.467  -3.538   1.317  1.00  0.00     0.065 A 
ATOM    103  C   UNL     1      11.104  -5.593   2.446  1.00  0.00     0.040 A 
ATOM    104  C   UNL     1      11.428  -4.472   1.695  1.00  0.00     0.125 A 
ATOM    105  F   UNL     1      12.701  -4.281   1.321  1.00  0.00    -0.207 F 
ENDBRANCH  81  95
ENDBRANCH  78  81
ENDBRANCH  76  77
ENDBRANCH  75  76
ENDBRANCH   1  75
TORSDOF 17
