REMARK SMILES Cc1cccc(N2C(=O)/C(=C/c3ccc(C(=O)NCCCCNC(=O)c4ccc(-c5c6nc(c(-c7c(F)cc(S(=O)(=O)[O-])cc7F)c7ccc([nH]7)c(-c7c(F)cc(S(=O)(=O)[O-])cc7F)c7nc(c(-c8c(F)cc(S(=O)(=O)[O-])cc8F)c8ccc5[nH]8)C=C7)C=C6)cc4)cc3)c3ccccc3C2=O)c1
REMARK SMILES IDX 21 1 20 2 19 3 18 4 16 5 17 6 15 8 12 9 13 10 93 11 14 12
REMARK SMILES IDX 92 13 11 14 7 15 8 16 100 17 9 18 10 19 99 20 101 21 94 22
REMARK SMILES IDX 98 23 95 24 97 25 96 26 6 27 1 28 2 29 3 30 102 31 4 32 5 33
REMARK SMILES IDX 22 34 23 35 24 36 25 38 26 39 27 40 91 41 28 42 90 43 29 44
REMARK SMILES IDX 30 45 31 46 84 47 32 48 89 49 83 50 85 51 33 52 88 53 82 54
REMARK SMILES IDX 81 55 34 57 68 58 47 59 67 60 48 61 51 62 66 63 86 64 49 65
REMARK SMILES IDX 50 66 65 68 87 69 52 70 35 71 36 72 45 73 37 74 38 75 44 76
REMARK SMILES IDX 46 77 39 78 40 79 41 80 42 81 43 82 69 83 70 84 79 85 71 86
REMARK SMILES IDX 72 87 78 88 80 89 73 90 74 91 75 92 76 93 77 94 53 95 54 96
REMARK SMILES IDX 63 97 55 98 56 99 62 100 64 101 57 102 58 103 59 104 60 105
REMARK SMILES IDX 61 106
REMARK H PARENT 18 7 23 37 85 56 51 67
REMARK Flexibility Score: inf
ROOT
ATOM      1  C   UNL     1      -6.008  12.046   2.891  1.00  0.00     0.023 C 
ENDROOT
BRANCH   1   2
ATOM      2  C   UNL     1      -5.528  10.661   2.457  1.00  0.00     0.023 C 
BRANCH   2   3
ATOM      3  C   UNL     1      -5.778  10.295   0.989  1.00  0.00     0.116 C 
BRANCH   3   4
ATOM      4  N   UNL     1      -5.194  11.240   0.041  1.00  0.00    -0.352 N 
ATOM      5  C   UNL     1      -4.192  11.086  -0.886  1.00  0.00     0.251 C 
ATOM      6  O   UNL     1      -3.776  12.059  -1.512  1.00  0.00    -0.269 OA
ATOM      7  H   UNL     1      -5.585  12.143   0.072  1.00  0.00     0.163 HD
BRANCH   5   8
ATOM      8  C   UNL     1      -3.551   9.771  -1.095  1.00  0.00     0.039 A 
ATOM      9  C   UNL     1      -2.273   7.291  -1.163  1.00  0.00    -0.025 A 
ATOM     10  C   UNL     1      -1.516   8.466  -1.094  1.00  0.00     0.009 A 
ATOM     11  C   UNL     1      -3.660   7.373  -1.348  1.00  0.00     0.009 A 
ATOM     12  C   UNL     1      -2.155   9.706  -1.062  1.00  0.00     0.014 A 
ATOM     13  C   UNL     1      -4.300   8.613  -1.319  1.00  0.00     0.014 A 
BRANCH   9  14
ATOM     14  C   UNL     1      -1.599   6.000  -0.977  1.00  0.00     0.022 C 
ATOM     15  N   UNL     1      -1.744   2.642   0.319  1.00  0.00    -0.242 N 
ATOM     16  C   UNL     1      -1.079   3.799  -0.136  1.00  0.00     0.265 C 
ATOM     17  C   UNL     1      -3.062   2.695   0.826  1.00  0.00     0.265 C 
ATOM     18  O   UNL     1       0.028   3.841  -0.677  1.00  0.00    -0.268 OA
ATOM     19  C   UNL     1      -1.857   5.081  -0.017  1.00  0.00     0.049 C 
ATOM     20  C   UNL     1      -3.536   3.993   1.368  1.00  0.00     0.048 A 
ATOM     21  O   UNL     1      -3.857   1.761   0.917  1.00  0.00    -0.268 OA
ATOM     22  C   UNL     1      -2.881   5.172   1.028  1.00  0.00    -0.000 A 
ATOM     23  C   UNL     1      -4.620   4.013   2.261  1.00  0.00     0.014 A 
ATOM     24  C   UNL     1      -3.243   6.355   1.692  1.00  0.00     0.010 A 
ATOM     25  C   UNL     1      -5.019   5.208   2.856  1.00  0.00     0.001 A 
ATOM     26  C   UNL     1      -4.315   6.376   2.588  1.00  0.00     0.001 A 
BRANCH  15  27
ATOM     27  C   UNL     1      -1.078   1.347   0.175  1.00  0.00     0.053 A 
ATOM     28  C   UNL     1       2.493  -0.066   0.035  1.00  0.00     0.044 C 
ATOM     29  C   UNL     1       0.995   0.004   0.045  1.00  0.00    -0.049 A 
ATOM     30  C   UNL     1       0.246  -1.165  -0.077  1.00  0.00     0.003 A 
ATOM     31  C   UNL     1       0.329   1.236   0.191  1.00  0.00     0.030 A 
ATOM     32  C   UNL     1      -1.140  -1.095  -0.074  1.00  0.00     0.002 A 
ATOM     33  C   UNL     1      -1.788   0.141   0.042  1.00  0.00     0.027 A 
ENDBRANCH  15  27
ENDBRANCH   9  14
ENDBRANCH   5   8
ENDBRANCH   3   4
ENDBRANCH   2   3
ENDBRANCH   1   2
BRANCH   1  34
ATOM     34  C   UNL     1      -7.513  12.262   2.765  1.00  0.00     0.116 C 
BRANCH  34  35
ATOM     35  N   UNL     1      -8.217  12.270   4.038  1.00  0.00    -0.352 N 
ATOM     36  C   UNL     1      -9.535  12.626   4.276  1.00  0.00     0.251 C 
ATOM     37  H   UNL     1      -7.695  11.988   4.824  1.00  0.00     0.163 HD
ATOM     38  O   UNL     1      -9.963  12.803   5.404  1.00  0.00    -0.269 OA
BRANCH  36  39
ATOM     39  C   UNL     1     -10.444  12.673   3.109  1.00  0.00     0.039 A 
ATOM     40  C   UNL     1     -11.444  11.697   3.036  1.00  0.00     0.014 A 
ATOM     41  C   UNL     1     -10.146  13.477   2.013  1.00  0.00     0.014 A 
ATOM     42  C   UNL     1     -12.015  11.393   1.804  1.00  0.00     0.010 A 
ATOM     43  C   UNL     1     -10.654  13.122   0.777  1.00  0.00     0.010 A 
ATOM     44  C   UNL     1     -11.545  12.043   0.665  1.00  0.00    -0.014 A 
BRANCH  44  45
ATOM     45  C   UNL     1     -11.849  11.614  -0.696  1.00  0.00     0.031 A 
ATOM     46  C   UNL     1     -12.751  12.422  -1.548  1.00  0.00     0.074 A 
ATOM     47  C   UNL     1     -11.228  10.530  -1.210  1.00  0.00     0.049 A 
ATOM     48  N   UNL     1     -13.246  12.023  -2.672  1.00  0.00    -0.248 NA
ATOM     49  C   UNL     1     -13.251  13.732  -1.140  1.00  0.00     0.031 C 
ATOM     50  C   UNL     1     -11.095  10.174  -2.619  1.00  0.00     0.029 A 
ATOM     51  N   UNL     1     -10.772   9.402  -0.524  1.00  0.00    -0.354 N 
ATOM     52  C   UNL     1     -13.869  13.098  -3.265  1.00  0.00     0.074 A 
ATOM     53  C   UNL     1     -13.967  14.078  -2.215  1.00  0.00     0.031 C 
ATOM     54  C   UNL     1     -10.822   8.865  -2.716  1.00  0.00     0.029 A 
ATOM     55  C   UNL     1     -10.934   8.300  -1.384  1.00  0.00     0.049 A 
ATOM     56  H   UNL     1     -10.406   9.383   0.390  1.00  0.00     0.167 HD
ATOM     57  C   UNL     1     -14.093  13.066  -4.611  1.00  0.00     0.037 A 
ATOM     58  C   UNL     1     -11.765   7.264  -1.057  1.00  0.00     0.037 A 
ATOM     59  C   UNL     1     -13.954  11.694  -5.116  1.00  0.00     0.049 A 
ATOM     60  C   UNL     1     -12.923   7.069  -2.009  1.00  0.00     0.074 A 
ATOM     61  C   UNL     1     -12.974  11.037  -5.840  1.00  0.00     0.029 A 
ATOM     62  N   UNL     1     -14.822  10.709  -4.647  1.00  0.00    -0.354 N 
ATOM     63  N   UNL     1     -13.293   7.949  -2.899  1.00  0.00    -0.248 NA
ATOM     64  C   UNL     1     -13.766   5.876  -2.027  1.00  0.00     0.031 C 
ATOM     65  C   UNL     1     -13.199   9.639  -5.707  1.00  0.00     0.029 A 
ATOM     66  C   UNL     1     -14.338   9.449  -4.943  1.00  0.00     0.049 A 
ATOM     67  H   UNL     1     -15.665  10.886  -4.170  1.00  0.00     0.167 HD
ATOM     68  C   UNL     1     -14.406   7.499  -3.560  1.00  0.00     0.074 A 
ATOM     69  C   UNL     1     -14.642   6.180  -3.002  1.00  0.00     0.031 C 
ATOM     70  C   UNL     1     -15.050   8.255  -4.498  1.00  0.00     0.037 A 
BRANCH  57  71
ATOM     71  C   UNL     1     -14.199  14.291  -5.519  1.00  0.00     0.058 A 
ATOM     72  C   UNL     1     -14.201  14.139  -6.927  1.00  0.00     0.135 A 
ATOM     73  C   UNL     1     -14.161  15.640  -5.097  1.00  0.00     0.135 A 
ATOM     74  F   UNL     1     -14.258  12.925  -7.495  1.00  0.00    -0.206 F 
ATOM     75  C   UNL     1     -14.111  15.216  -7.822  1.00  0.00     0.059 A 
ATOM     76  C   UNL     1     -14.097  16.730  -5.970  1.00  0.00     0.059 A 
ATOM     77  F   UNL     1     -14.146  15.999  -3.813  1.00  0.00    -0.206 F 
ATOM     78  C   UNL     1     -14.043  16.512  -7.332  1.00  0.00     0.060 A 
BRANCH  78  79
ATOM     79  S   UNL     1     -13.863  17.900  -8.467  1.00  0.00     0.124 S 
ATOM     80  O   UNL     1     -12.532  17.669  -9.019  1.00  0.00    -0.237 OA
ATOM     81  O   UNL     1     -14.979  17.699  -9.384  1.00  0.00    -0.237 OA
ATOM     82  O   UNL     1     -13.979  19.069  -7.597  1.00  0.00    -0.744 OA
ENDBRANCH  78  79
ENDBRANCH  57  71
BRANCH  58  83
ATOM     83  C   UNL     1     -11.770   6.962   0.400  1.00  0.00     0.058 A 
ATOM     84  C   UNL     1     -10.585   6.437   0.950  1.00  0.00     0.135 A 
ATOM     85  C   UNL     1     -12.671   7.588   1.274  1.00  0.00     0.135 A 
ATOM     86  F   UNL     1      -9.696   5.813   0.159  1.00  0.00    -0.206 F 
ATOM     87  C   UNL     1     -10.221   6.682   2.268  1.00  0.00     0.059 A 
ATOM     88  C   UNL     1     -12.329   7.838   2.605  1.00  0.00     0.059 A 
ATOM     89  F   UNL     1     -13.819   8.101   0.807  1.00  0.00    -0.206 F 
ATOM     90  C   UNL     1     -11.068   7.449   3.064  1.00  0.00     0.060 A 
BRANCH  90  91
ATOM     91  S   UNL     1     -10.395   8.093   4.614  1.00  0.00     0.124 S 
ATOM     92  O   UNL     1     -10.030   6.869   5.319  1.00  0.00    -0.237 OA
ATOM     93  O   UNL     1      -9.273   8.897   4.131  1.00  0.00    -0.237 OA
ATOM     94  O   UNL     1     -11.512   8.840   5.179  1.00  0.00    -0.744 OA
ENDBRANCH  90  91
ENDBRANCH  58  83
BRANCH  70  95
ATOM     95  C   UNL     1     -16.376   7.911  -5.138  1.00  0.00     0.058 A 
ATOM     96  C   UNL     1     -17.409   7.215  -4.486  1.00  0.00     0.135 A 
ATOM     97  C   UNL     1     -16.694   8.408  -6.425  1.00  0.00     0.135 A 
ATOM     98  F   UNL     1     -17.271   6.790  -3.221  1.00  0.00    -0.206 F 
ATOM     99  C   UNL     1     -18.645   6.969  -5.089  1.00  0.00     0.059 A 
ATOM    100  C   UNL     1     -17.938   8.220  -7.024  1.00  0.00     0.059 A 
ATOM    101  F   UNL     1     -15.801   9.106  -7.142  1.00  0.00    -0.206 F 
ATOM    102  C   UNL     1     -18.901   7.475  -6.359  1.00  0.00     0.060 A 
BRANCH 102 103
ATOM    103  S   UNL     1     -20.513   7.219  -7.127  1.00  0.00     0.124 S 
ATOM    104  O   UNL     1     -20.268   6.024  -7.928  1.00  0.00    -0.237 OA
ATOM    105  O   UNL     1     -21.398   7.037  -5.980  1.00  0.00    -0.237 OA
ATOM    106  O   UNL     1     -20.720   8.454  -7.877  1.00  0.00    -0.744 OA
ENDBRANCH 102 103
ENDBRANCH  70  95
ENDBRANCH  44  45
ENDBRANCH  36  39
ENDBRANCH  34  35
ENDBRANCH   1  34
TORSDOF 16
