REMARK SMILES CC1=C[C@H](C)[C@H](CN2C[C@@]34C=C[C@@H](O3)[C@H](C(=O)NCCCCNC(=O)c3ccc(-c5c6nc(c(-c7c(F)cc(S(=O)(=O)[O-])cc7F)c7ccc([nH]7)c(-c7c(F)cc(S(=O)(=O)[O-])cc7F)c7nc(c(-c8c(F)cc(S(=O)(=O)[O-])cc8F)c8ccc5[nH]8)C=C7)C=C6)cc3)[C@@H]4C2=O)[C@H](C)C1
REMARK SMILES IDX 21 1 20 2 19 3 18 4 16 5 17 6 15 8 8 9 9 10 93 11 10 12
REMARK SMILES IDX 92 13 94 14 11 15 14 16 12 17 13 18 7 19 6 20 1 21 2 22 3 23
REMARK SMILES IDX 97 24 4 25 95 26 5 27 96 28 22 29 23 30 24 31 25 33 26 34
REMARK SMILES IDX 27 35 91 36 28 37 90 38 29 39 30 40 31 41 84 42 32 43 89 44
REMARK SMILES IDX 83 45 85 46 33 47 88 48 82 49 81 50 34 52 68 53 47 54 67 55
REMARK SMILES IDX 48 56 51 57 66 58 86 59 49 60 50 61 65 63 87 64 52 65 35 66
REMARK SMILES IDX 36 67 45 68 37 69 38 70 44 71 46 72 39 73 40 74 41 75 42 76
REMARK SMILES IDX 43 77 69 78 70 79 79 80 71 81 72 82 78 83 80 84 73 85 74 86
REMARK SMILES IDX 75 87 76 88 77 89 53 90 54 91 63 92 55 93 56 94 62 95 64 96
REMARK SMILES IDX 57 97 58 98 59 99 60 100 61 101
REMARK H PARENT 18 7 23 32 85 51 51 62
REMARK Flexibility Score: inf
ROOT
ATOM      1  C   UNL     1      -0.153   6.058   1.387  1.00  0.00     0.023 C 
ENDROOT
BRANCH   1   2
ATOM      2  C   UNL     1       0.344   6.110  -0.084  1.00  0.00     0.023 C 
BRANCH   2   3
ATOM      3  C   UNL     1       1.222   5.174  -1.079  1.00  0.00     0.116 C 
BRANCH   3   4
ATOM      4  N   UNL     1       0.861   3.789  -1.738  1.00  0.00    -0.356 N 
ATOM      5  C   UNL     1       0.655   3.238  -3.057  1.00  0.00     0.227 C 
ATOM      6  O   UNL     1       0.712   2.020  -3.215  1.00  0.00    -0.275 OA
ATOM      7  H   UNL     1       0.740   3.096  -1.048  1.00  0.00     0.163 HD
BRANCH   5   8
ATOM      8  C   UNL     1       0.230   4.221  -4.168  1.00  0.00     0.127 C 
ATOM      9  N   UNL     1      -1.951   4.685  -1.539  1.00  0.00    -0.339 N 
ATOM     10  C   UNL     1      -2.143   6.128  -2.297  1.00  0.00     0.160 C 
ATOM     11  C   UNL     1      -1.748   3.851  -2.584  1.00  0.00     0.230 C 
ATOM     12  C   UNL     1      -1.786   5.786  -3.885  1.00  0.00     0.117 C 
ATOM     13  C   UNL     1      -0.860   4.759  -3.338  1.00  0.00     0.132 C 
ATOM     14  O   UNL     1      -2.140   2.708  -2.793  1.00  0.00    -0.274 OA
ATOM     15  C   UNL     1      -2.752   5.180  -4.832  1.00  0.00     0.009 C 
ATOM     16  O   UNL     1      -0.758   6.152  -4.853  1.00  0.00    -0.360 OA
ATOM     17  C   UNL     1      -2.032   4.416  -5.674  1.00  0.00     0.004 C 
ATOM     18  C   UNL     1      -0.547   4.659  -5.409  1.00  0.00     0.155 C 
BRANCH   9  19
ATOM     19  C   UNL     1      -1.985   4.033  -0.187  1.00  0.00     0.124 C 
BRANCH  19  20
ATOM     20  C   UNL     1      -0.861   2.913   0.697  1.00  0.00     0.018 C 
ATOM     21  C   UNL     1       0.449  -1.458   0.399  1.00  0.00     0.039 C 
ATOM     22  C   UNL     1       0.013  -0.038   0.634  1.00  0.00    -0.077 C 
ATOM     23  C   UNL     1      -1.207   0.301   1.062  1.00  0.00    -0.025 C 
ATOM     24  C   UNL     1       1.071   0.971   0.422  1.00  0.00     0.034 C 
ATOM     25  C   UNL     1      -1.694   1.703   1.354  1.00  0.00     0.014 C 
ATOM     26  C   UNL     1       0.770   2.406   0.927  1.00  0.00    -0.005 C 
ATOM     27  C   UNL     1      -3.204   1.718   1.148  1.00  0.00     0.012 C 
ATOM     28  C   UNL     1       2.167   3.067   0.734  1.00  0.00     0.008 C 
ENDBRANCH  19  20
ENDBRANCH   9  19
ENDBRANCH   5   8
ENDBRANCH   3   4
ENDBRANCH   2   3
ENDBRANCH   1   2
BRANCH   1  29
ATOM     29  C   UNL     1       0.820   5.910   2.524  1.00  0.00     0.116 C 
BRANCH  29  30
ATOM     30  N   UNL     1       1.422   7.190   2.817  1.00  0.00    -0.352 N 
ATOM     31  C   UNL     1       1.291   7.900   3.986  1.00  0.00     0.251 C 
ATOM     32  H   UNL     1       1.979   7.592   2.112  1.00  0.00     0.163 HD
ATOM     33  O   UNL     1       1.448   9.115   3.988  1.00  0.00    -0.269 OA
BRANCH  31  34
ATOM     34  C   UNL     1       0.970   7.166   5.231  1.00  0.00     0.039 A 
ATOM     35  C   UNL     1       0.094   7.725   6.163  1.00  0.00     0.014 A 
ATOM     36  C   UNL     1       1.567   5.924   5.477  1.00  0.00     0.014 A 
ATOM     37  C   UNL     1      -0.170   7.042   7.353  1.00  0.00     0.010 A 
ATOM     38  C   UNL     1       1.229   5.204   6.613  1.00  0.00     0.010 A 
ATOM     39  C   UNL     1       0.403   5.781   7.588  1.00  0.00    -0.014 A 
BRANCH  39  40
ATOM     40  C   UNL     1       0.256   5.089   8.891  1.00  0.00     0.031 A 
ATOM     41  C   UNL     1       1.485   4.842   9.729  1.00  0.00     0.074 A 
ATOM     42  C   UNL     1      -0.946   4.630   9.284  1.00  0.00     0.049 A 
ATOM     43  N   UNL     1       1.606   4.179  10.849  1.00  0.00    -0.248 NA
ATOM     44  C   UNL     1       2.758   5.370   9.209  1.00  0.00     0.031 C 
ATOM     45  C   UNL     1      -2.190   4.754   8.522  1.00  0.00     0.029 A 
ATOM     46  N   UNL     1      -1.315   3.956  10.419  1.00  0.00    -0.354 N 
ATOM     47  C   UNL     1       2.966   4.179  11.141  1.00  0.00     0.074 A 
ATOM     48  C   UNL     1       3.636   4.841  10.045  1.00  0.00     0.031 C 
ATOM     49  C   UNL     1      -3.191   4.197   9.224  1.00  0.00     0.029 A 
ATOM     50  C   UNL     1      -2.655   3.653  10.469  1.00  0.00     0.049 A 
ATOM     51  H   UNL     1      -0.681   3.712  11.131  1.00  0.00     0.167 HD
ATOM     52  C   UNL     1       3.598   3.705  12.241  1.00  0.00     0.037 A 
ATOM     53  C   UNL     1      -3.366   3.013  11.416  1.00  0.00     0.037 A 
ATOM     54  C   UNL     1       2.909   3.103  13.349  1.00  0.00     0.049 A 
ATOM     55  C   UNL     1      -2.660   2.545  12.659  1.00  0.00     0.074 A 
ATOM     56  C   UNL     1       3.428   2.662  14.552  1.00  0.00     0.029 A 
ATOM     57  N   UNL     1       1.541   2.866  13.389  1.00  0.00    -0.354 N 
ATOM     58  N   UNL     1      -1.383   2.617  12.957  1.00  0.00    -0.248 NA
ATOM     59  C   UNL     1      -3.487   1.923  13.701  1.00  0.00     0.031 C 
ATOM     60  C   UNL     1       2.378   2.124  15.305  1.00  0.00     0.029 A 
ATOM     61  C   UNL     1       1.198   2.273  14.591  1.00  0.00     0.049 A 
ATOM     62  H   UNL     1       0.909   3.088  12.668  1.00  0.00     0.167 HD
ATOM     63  C   UNL     1      -1.256   2.069  14.228  1.00  0.00     0.074 A 
ATOM     64  C   UNL     1      -2.589   1.682  14.647  1.00  0.00     0.031 C 
ATOM     65  C   UNL     1      -0.140   1.903  14.982  1.00  0.00     0.037 A 
BRANCH  52  66
ATOM     66  C   UNL     1       5.098   3.833  12.287  1.00  0.00     0.058 A 
ATOM     67  C   UNL     1       5.733   5.085  12.367  1.00  0.00     0.135 A 
ATOM     68  C   UNL     1       5.915   2.693  12.223  1.00  0.00     0.135 A 
ATOM     69  F   UNL     1       5.004   6.212  12.417  1.00  0.00    -0.206 F 
ATOM     70  C   UNL     1       7.118   5.205  12.320  1.00  0.00     0.059 A 
ATOM     71  C   UNL     1       7.305   2.788  12.210  1.00  0.00     0.059 A 
ATOM     72  F   UNL     1       5.367   1.470  12.150  1.00  0.00    -0.206 F 
ATOM     73  C   UNL     1       7.896   4.051  12.231  1.00  0.00     0.060 A 
BRANCH  73  74
ATOM     74  S   UNL     1       9.690   4.224  12.130  1.00  0.00     0.124 S 
ATOM     75  O   UNL     1       9.860   4.676  10.753  1.00  0.00    -0.237 OA
ATOM     76  O   UNL     1       9.968   5.219  13.162  1.00  0.00    -0.237 OA
ATOM     77  O   UNL     1      10.178   2.878  12.415  1.00  0.00    -0.744 OA
ENDBRANCH  73  74
ENDBRANCH  52  66
BRANCH  53  78
ATOM     78  C   UNL     1      -4.832   2.835  11.237  1.00  0.00     0.058 A 
ATOM     79  C   UNL     1      -5.745   3.600  11.977  1.00  0.00     0.135 A 
ATOM     80  C   UNL     1      -5.347   1.948  10.279  1.00  0.00     0.135 A 
ATOM     81  F   UNL     1      -5.301   4.460  12.907  1.00  0.00    -0.206 F 
ATOM     82  C   UNL     1      -7.117   3.495  11.774  1.00  0.00     0.059 A 
ATOM     83  C   UNL     1      -6.715   1.841  10.043  1.00  0.00     0.059 A 
ATOM     84  F   UNL     1      -4.514   1.208   9.531  1.00  0.00    -0.206 F 
ATOM     85  C   UNL     1      -7.593   2.618  10.797  1.00  0.00     0.060 A 
BRANCH  85  86
ATOM     86  S   UNL     1      -9.371   2.556  10.482  1.00  0.00     0.124 S 
ATOM     87  O   UNL     1      -9.856   1.860  11.668  1.00  0.00    -0.237 OA
ATOM     88  O   UNL     1      -9.713   3.972  10.388  1.00  0.00    -0.237 OA
ATOM     89  O   UNL     1      -9.464   1.813   9.229  1.00  0.00    -0.744 OA
ENDBRANCH  85  86
ENDBRANCH  53  78
BRANCH  65  90
ATOM     90  C   UNL     1      -0.312   1.298  16.347  1.00  0.00     0.058 A 
ATOM     91  C   UNL     1      -0.573  -0.070  16.518  1.00  0.00     0.135 A 
ATOM     92  C   UNL     1      -0.138   2.085  17.497  1.00  0.00     0.135 A 
ATOM     93  F   UNL     1      -0.751  -0.863  15.450  1.00  0.00    -0.206 F 
ATOM     94  C   UNL     1      -0.671  -0.635  17.784  1.00  0.00     0.059 A 
ATOM     95  C   UNL     1      -0.205   1.536  18.772  1.00  0.00     0.059 A 
ATOM     96  F   UNL     1       0.125   3.397  17.386  1.00  0.00    -0.206 F 
ATOM     97  C   UNL     1      -0.481   0.176  18.906  1.00  0.00     0.060 A 
BRANCH  97  98
ATOM     98  S   UNL     1      -0.564  -0.580  20.543  1.00  0.00     0.124 S 
ATOM     99  O   UNL     1      -2.000  -0.794  20.694  1.00  0.00    -0.237 OA
ATOM    100  O   UNL     1       0.242  -1.785  20.372  1.00  0.00    -0.237 OA
ATOM    101  O   UNL     1       0.015   0.436  21.416  1.00  0.00    -0.744 OA
ENDBRANCH  97  98
ENDBRANCH  65  90
ENDBRANCH  39  40
ENDBRANCH  31  34
ENDBRANCH  29  30
ENDBRANCH   1  29
TORSDOF 16
