REMARK SMILES Cc1c(C(=O)Nc2ccc(C(=O)Nc3ccccc3C(=O)NCCCCNC(=O)c3ccc(-c4c5nc(c(-c6c(F)cc(S(=O)(=O)[O-])cc6F)c6ccc([nH]6)c(-c6c(F)cc(S(=O)(=O)[O-])cc6F)c6nc(c(-c7c(F)cc(S(=O)(=O)[O-])cc7F)c7ccc4[nH]7)C=C6)C=C5)cc3)cc2)cccc1[N+](=O)[O-]
REMARK SMILES IDX 23 1 22 2 20 3 21 4 19 6 14 7 15 8 16 9 18 10 17 11 13 12
REMARK SMILES IDX 11 13 12 14 10 16 7 17 8 18 97 19 9 20 96 21 6 22 4 23 5 24
REMARK SMILES IDX 3 26 1 27 2 28 101 29 98 30 100 31 99 32 102 33 103 34
REMARK SMILES IDX 104 35 24 36 25 37 26 38 27 39 28 40 29 42 30 43 31 44 95 45
REMARK SMILES IDX 32 46 94 47 33 48 34 49 35 50 88 51 36 52 93 53 87 54 89 55
REMARK SMILES IDX 37 56 92 57 86 58 85 59 38 61 72 62 51 63 71 64 52 65 55 66
REMARK SMILES IDX 70 67 90 68 53 69 54 70 69 72 91 73 56 74 39 75 40 76 49 77
REMARK SMILES IDX 41 78 42 79 48 80 50 81 43 82 44 83 45 84 46 85 47 86 73 87
REMARK SMILES IDX 74 88 83 89 75 90 76 91 82 92 84 93 77 94 78 95 79 96 80 97
REMARK SMILES IDX 81 98 57 99 58 100 67 101 59 102 60 103 66 104 68 105 61 106
REMARK SMILES IDX 62 107 63 108 64 109 65 110
REMARK H PARENT 22 5 13 15 6 25 27 41 89 60 55 71
REMARK Flexibility Score: inf
ROOT
ATOM      1  C   UNL     1       3.125  -0.361   4.463  1.00  0.00     0.116 C 
ENDROOT
BRANCH   1   2
ATOM      2  N   UNL     1       4.400   0.082   3.901  1.00  0.00    -0.352 N 
ATOM      3  C   UNL     1       4.893   1.307   3.492  1.00  0.00     0.253 C 
ATOM      4  O   UNL     1       6.091   1.385   3.226  1.00  0.00    -0.269 OA
ATOM      5  H   UNL     1       5.048  -0.651   3.788  1.00  0.00     0.163 HD
BRANCH   3   6
ATOM      6  C   UNL     1       4.033   2.511   3.309  1.00  0.00     0.063 A 
ATOM      7  C   UNL     1       4.193   3.400   2.215  1.00  0.00     0.054 A 
ATOM      8  C   UNL     1       3.350   4.524   2.113  1.00  0.00     0.027 A 
ATOM      9  C   UNL     1       2.330   4.744   3.035  1.00  0.00     0.002 A 
ATOM     10  C   UNL     1       3.084   2.830   4.293  1.00  0.00     0.016 A 
ATOM     11  C   UNL     1       2.206   3.905   4.134  1.00  0.00     0.001 A 
BRANCH   7  12
ATOM     12  N   UNL     1       5.093   3.273   1.134  1.00  0.00    -0.321 N 
ATOM     13  C   UNL     1       5.512   2.193   0.386  1.00  0.00     0.255 C 
ATOM     14  O   UNL     1       6.448   2.347  -0.402  1.00  0.00    -0.269 OA
ATOM     15  H   UNL     1       5.503   4.125   0.859  1.00  0.00     0.170 HD
BRANCH  13  16
ATOM     16  C   UNL     1       4.740   0.921   0.327  1.00  0.00     0.040 A 
ATOM     17  C   UNL     1       3.188  -1.375  -0.159  1.00  0.00     0.041 A 
ATOM     18  C   UNL     1       2.680  -0.317   0.575  1.00  0.00     0.027 A 
ATOM     19  C   UNL     1       4.541  -1.358  -0.509  1.00  0.00     0.027 A 
ATOM     20  C   UNL     1       3.407   0.853   0.718  1.00  0.00     0.016 A 
ATOM     21  C   UNL     1       5.316  -0.212  -0.262  1.00  0.00     0.016 A 
BRANCH  17  22
ATOM     22  N   UNL     1       2.366  -2.401  -0.658  1.00  0.00    -0.322 N 
ATOM     23  C   UNL     1       1.001  -2.432  -0.898  1.00  0.00     0.256 C 
ATOM     24  O   UNL     1       0.475  -3.470  -1.297  1.00  0.00    -0.269 OA
ATOM     25  H   UNL     1       2.839  -3.237  -0.873  1.00  0.00     0.170 HD
BRANCH  23  26
ATOM     26  C   UNL     1       0.122  -1.239  -0.708  1.00  0.00     0.049 A 
ATOM     27  C   UNL     1       1.372   0.209  -2.390  1.00  0.00     0.053 C 
ATOM     28  C   UNL     1       0.364   0.032  -1.284  1.00  0.00     0.039 A 
ATOM     29  C   UNL     1      -0.362   1.123  -0.752  1.00  0.00     0.273 A 
ATOM     30  C   UNL     1      -0.969  -1.429   0.161  1.00  0.00     0.014 A 
ATOM     31  C   UNL     1      -1.435   0.931   0.136  1.00  0.00     0.086 A 
ATOM     32  C   UNL     1      -1.766  -0.354   0.552  1.00  0.00     0.008 A 
BRANCH  29  33
ATOM     33  N   UNL     1       0.041   2.512  -1.007  1.00  0.00     0.063 N 
ATOM     34  O   UNL     1      -0.857   3.362  -1.085  1.00  0.00    -0.258 OA
ATOM     35  O   UNL     1       1.253   2.760  -1.070  1.00  0.00    -0.258 OA
ENDBRANCH  29  33
ENDBRANCH  23  26
ENDBRANCH  17  22
ENDBRANCH  13  16
ENDBRANCH   7  12
ENDBRANCH   3   6
ENDBRANCH   1   2
BRANCH   1  36
ATOM     36  C   UNL     1       2.450  -1.582   3.818  1.00  0.00     0.023 C 
BRANCH  36  37
ATOM     37  C   UNL     1       3.345  -2.684   3.266  1.00  0.00     0.023 C 
BRANCH  37  38
ATOM     38  C   UNL     1       3.997  -3.534   4.343  1.00  0.00     0.116 C 
BRANCH  38  39
ATOM     39  N   UNL     1       3.281  -4.766   4.635  1.00  0.00    -0.352 N 
ATOM     40  C   UNL     1       3.784  -5.883   5.304  1.00  0.00     0.251 C 
ATOM     41  H   UNL     1       2.346  -4.818   4.329  1.00  0.00     0.163 HD
ATOM     42  O   UNL     1       3.364  -6.997   5.159  1.00  0.00    -0.269 OA
BRANCH  40  43
ATOM     43  C   UNL     1       4.771  -5.572   6.367  1.00  0.00     0.039 A 
ATOM     44  C   UNL     1       4.309  -5.628   7.689  1.00  0.00     0.014 A 
ATOM     45  C   UNL     1       5.953  -4.920   6.038  1.00  0.00     0.014 A 
ATOM     46  C   UNL     1       4.932  -4.852   8.659  1.00  0.00     0.010 A 
ATOM     47  C   UNL     1       6.498  -4.067   6.970  1.00  0.00     0.010 A 
ATOM     48  C   UNL     1       5.958  -4.000   8.264  1.00  0.00    -0.014 A 
BRANCH  48  49
ATOM     49  C   UNL     1       6.549  -2.979   9.117  1.00  0.00     0.031 A 
ATOM     50  C   UNL     1       7.909  -3.207   9.646  1.00  0.00     0.074 A 
ATOM     51  C   UNL     1       5.920  -1.797   9.278  1.00  0.00     0.049 A 
ATOM     52  N   UNL     1       8.482  -2.487  10.546  1.00  0.00    -0.248 NA
ATOM     53  C   UNL     1       8.718  -4.346   9.227  1.00  0.00     0.031 C 
ATOM     54  C   UNL     1       6.490  -0.545   9.766  1.00  0.00     0.029 A 
ATOM     55  N   UNL     1       4.543  -1.553   9.222  1.00  0.00    -0.354 N 
ATOM     56  C   UNL     1       9.801  -2.878  10.628  1.00  0.00     0.074 A 
ATOM     57  C   UNL     1       9.865  -4.096   9.861  1.00  0.00     0.031 C 
ATOM     58  C   UNL     1       5.498   0.238  10.216  1.00  0.00     0.029 A 
ATOM     59  C   UNL     1       4.280  -0.553  10.181  1.00  0.00     0.049 A 
ATOM     60  H   UNL     1       3.889  -1.992   8.631  1.00  0.00     0.167 HD
ATOM     61  C   UNL     1      10.689  -2.039  11.237  1.00  0.00     0.037 A 
ATOM     62  C   UNL     1       3.515  -0.833  11.279  1.00  0.00     0.037 A 
ATOM     63  C   UNL     1       9.959  -1.006  11.984  1.00  0.00     0.049 A 
ATOM     64  C   UNL     1       4.269  -0.716  12.588  1.00  0.00     0.074 A 
ATOM     65  C   UNL     1       9.646   0.317  11.720  1.00  0.00     0.029 A 
ATOM     66  N   UNL     1       9.142  -1.396  13.046  1.00  0.00    -0.354 N 
ATOM     67  N   UNL     1       5.571  -0.714  12.689  1.00  0.00    -0.248 NA
ATOM     68  C   UNL     1       3.613  -0.569  13.883  1.00  0.00     0.031 C 
ATOM     69  C   UNL     1       8.553   0.682  12.554  1.00  0.00     0.029 A 
ATOM     70  C   UNL     1       8.231  -0.402  13.354  1.00  0.00     0.049 A 
ATOM     71  H   UNL     1       9.206  -2.260  13.512  1.00  0.00     0.167 HD
ATOM     72  C   UNL     1       5.936  -0.592  14.007  1.00  0.00     0.074 A 
ATOM     73  C   UNL     1       4.670  -0.477  14.710  1.00  0.00     0.031 C 
ATOM     74  C   UNL     1       7.243  -0.598  14.412  1.00  0.00     0.037 A 
BRANCH  61  75
ATOM     75  C   UNL     1      12.189  -1.991  10.955  1.00  0.00     0.058 A 
ATOM     76  C   UNL     1      12.942  -0.839  11.290  1.00  0.00     0.135 A 
ATOM     77  C   UNL     1      12.937  -2.972  10.268  1.00  0.00     0.135 A 
ATOM     78  F   UNL     1      12.401   0.168  11.990  1.00  0.00    -0.206 F 
ATOM     79  C   UNL     1      14.280  -0.653  10.911  1.00  0.00     0.059 A 
ATOM     80  C   UNL     1      14.263  -2.802   9.861  1.00  0.00     0.059 A 
ATOM     81  F   UNL     1      12.444  -4.173   9.967  1.00  0.00    -0.206 F 
ATOM     82  C   UNL     1      14.928  -1.633  10.173  1.00  0.00     0.060 A 
BRANCH  82  83
ATOM     83  S   UNL     1      16.631  -1.379   9.643  1.00  0.00     0.124 S 
ATOM     84  O   UNL     1      16.514  -0.195   8.797  1.00  0.00    -0.237 OA
ATOM     85  O   UNL     1      17.322  -1.191  10.913  1.00  0.00    -0.237 OA
ATOM     86  O   UNL     1      16.956  -2.616   8.936  1.00  0.00    -0.744 OA
ENDBRANCH  82  83
ENDBRANCH  61  75
BRANCH  62  87
ATOM     87  C   UNL     1       2.397  -1.774  10.972  1.00  0.00     0.058 A 
ATOM     88  C   UNL     1       1.404  -1.318  10.080  1.00  0.00     0.135 A 
ATOM     89  C   UNL     1       2.537  -3.160  11.124  1.00  0.00     0.135 A 
ATOM     90  F   UNL     1       1.209   0.000   9.911  1.00  0.00    -0.206 F 
ATOM     91  C   UNL     1       0.719  -2.187   9.236  1.00  0.00     0.059 A 
ATOM     92  C   UNL     1       1.846  -4.053  10.296  1.00  0.00     0.059 A 
ATOM     93  F   UNL     1       3.453  -3.659  11.966  1.00  0.00    -0.206 F 
ATOM     94  C   UNL     1       1.006  -3.547   9.301  1.00  0.00     0.060 A 
BRANCH  94  95
ATOM     95  S   UNL     1       0.408  -4.596   7.951  1.00  0.00     0.124 S 
ATOM     96  O   UNL     1      -1.035  -4.390   8.024  1.00  0.00    -0.237 OA
ATOM     97  O   UNL     1       1.069  -4.000   6.789  1.00  0.00    -0.237 OA
ATOM     98  O   UNL     1       0.876  -5.924   8.327  1.00  0.00    -0.744 OA
ENDBRANCH  94  95
ENDBRANCH  62  87
BRANCH  74  99
ATOM     99  C   UNL     1       7.727  -0.703  15.846  1.00  0.00     0.058 A 
ATOM    100  C   UNL     1       7.009  -1.329  16.880  1.00  0.00     0.135 A 
ATOM    101  C   UNL     1       9.036  -0.283  16.192  1.00  0.00     0.135 A 
ATOM    102  F   UNL     1       5.809  -1.886  16.663  1.00  0.00    -0.206 F 
ATOM    103  C   UNL     1       7.515  -1.458  18.176  1.00  0.00     0.059 A 
ATOM    104  C   UNL     1       9.584  -0.459  17.460  1.00  0.00     0.059 A 
ATOM    105  F   UNL     1       9.843   0.306  15.296  1.00  0.00    -0.206 F 
ATOM    106  C   UNL     1       8.804  -1.021  18.458  1.00  0.00     0.060 A 
BRANCH 106 107
ATOM    107  S   UNL     1       9.489  -1.243  20.110  1.00  0.00     0.124 S 
ATOM    108  O   UNL     1       9.118   0.014  20.750  1.00  0.00    -0.237 OA
ATOM    109  O   UNL     1       8.788  -2.428  20.596  1.00  0.00    -0.237 OA
ATOM    110  O   UNL     1      10.914  -1.429  19.856  1.00  0.00    -0.744 OA
ENDBRANCH 106 107
ENDBRANCH  74  99
ENDBRANCH  48  49
ENDBRANCH  40  43
ENDBRANCH  38  39
ENDBRANCH  37  38
ENDBRANCH  36  37
ENDBRANCH   1  36
TORSDOF 19
