REMARK SMILES COc1ccc(-c2[nH]nc3nc(-c4ccc(C(F)(F)F)cc4)cc(C(=O)NCCCCNC(=O)c4ccc(-c5c6nc(c(-c7c(F)cc(S(=O)(=O)[O-])cc7F)c7ccc([nH]7)c(-c7c(F)cc(S(=O)(=O)[O-])cc7F)c7nc(c(-c8c(F)cc(S(=O)(=O)[O-])cc8F)c8ccc5[nH]8)C=C7)C=C6)cc4)c23)cc1
REMARK SMILES IDX 30 1 29 2 28 3 27 4 25 5 26 6 24 8 7 9 8 10 101 11 9 12
REMARK SMILES IDX 10 14 11 15 23 16 12 17 6 18 3 19 4 20 103 21 5 22 102 23
REMARK SMILES IDX 2 24 1 25 13 26 14 27 22 28 15 29 21 30 16 31 17 32 18 33
REMARK SMILES IDX 19 34 20 35 31 36 32 37 33 38 34 40 35 41 36 42 100 43 37 44
REMARK SMILES IDX 99 45 38 46 39 47 40 48 93 49 41 50 98 51 92 52 94 53 42 54
REMARK SMILES IDX 97 55 91 56 90 57 43 59 77 60 56 61 76 62 57 63 60 64 75 65
REMARK SMILES IDX 95 66 58 67 59 68 74 70 96 71 61 72 44 73 45 74 54 75 46 76
REMARK SMILES IDX 47 77 53 78 55 79 48 80 49 81 50 82 51 83 52 84 78 85 79 86
REMARK SMILES IDX 88 87 80 88 81 89 87 90 89 91 82 92 83 93 84 94 85 95 86 96
REMARK SMILES IDX 62 97 63 98 72 99 64 100 65 101 71 102 73 103 66 104 67 105
REMARK SMILES IDX 68 106 69 107 70 108
REMARK H PARENT 27 7 8 13 32 39 94 58 60 69
REMARK Flexibility Score: inf
ROOT
ATOM      1  C   UNL     1       7.453  -0.929   5.848  1.00  0.00     0.023 C 
ENDROOT
BRANCH   1   2
ATOM      2  C   UNL     1       7.067  -2.372   6.220  1.00  0.00     0.023 C 
BRANCH   2   3
ATOM      3  C   UNL     1       5.682  -2.517   6.848  1.00  0.00     0.116 C 
BRANCH   3   4
ATOM      4  N   UNL     1       4.620  -2.376   5.875  1.00  0.00    -0.352 N 
ATOM      5  C   UNL     1       3.823  -3.220   5.149  1.00  0.00     0.252 C 
ATOM      6  O   UNL     1       2.904  -2.647   4.574  1.00  0.00    -0.269 OA
ATOM      7  H   UNL     1       4.420  -1.431   5.686  1.00  0.00     0.163 HD
BRANCH   5   8
ATOM      8  C   UNL     1       3.963  -4.696   5.079  1.00  0.00     0.055 A 
ATOM      9  C   UNL     1       2.144  -5.375   3.435  1.00  0.00     0.075 A 
ATOM     10  N   UNL     1       1.630  -6.619   3.155  1.00  0.00    -0.275 N 
ATOM     11  C   UNL     1       3.124  -5.601   4.392  1.00  0.00     0.059 A 
ATOM     12  N   UNL     1       2.252  -7.641   3.762  1.00  0.00    -0.154 NA
ATOM     13  H   UNL     1       0.862  -6.751   2.553  1.00  0.00     0.190 HD
ATOM     14  C   UNL     1       3.167  -7.040   4.523  1.00  0.00     0.182 A 
ATOM     15  N   UNL     1       4.047  -7.684   5.332  1.00  0.00    -0.226 NA
ATOM     16  C   UNL     1       4.921  -5.422   5.795  1.00  0.00     0.043 A 
ATOM     17  C   UNL     1       4.895  -6.830   5.955  1.00  0.00     0.074 A 
BRANCH   9  18
ATOM     18  C   UNL     1       1.666  -4.207   2.707  1.00  0.00     0.001 A 
ATOM     19  C   UNL     1       0.841  -1.823   1.465  1.00  0.00     0.118 A 
ATOM     20  C   UNL     1      -0.029  -2.528   2.300  1.00  0.00     0.047 A 
ATOM     21  C   UNL     1       2.119  -2.328   1.227  1.00  0.00     0.047 A 
ATOM     22  C   UNL     1       0.373  -3.719   2.912  1.00  0.00     0.014 A 
ATOM     23  C   UNL     1       2.525  -3.522   1.836  1.00  0.00     0.014 A 
BRANCH  19  24
ATOM     24  O   UNL     1       0.343  -0.643   0.985  1.00  0.00    -0.497 OA
ATOM     25  C   UNL     1       1.042  -0.037  -0.091  1.00  0.00     0.278 C 
ENDBRANCH  19  24
ENDBRANCH   9  18
BRANCH  17  26
ATOM     26  C   UNL     1       5.816  -7.414   6.946  1.00  0.00     0.000 A 
ATOM     27  C   UNL     1       6.813  -8.325   6.584  1.00  0.00     0.011 A 
ATOM     28  C   UNL     1       5.761  -6.983   8.287  1.00  0.00     0.011 A 
ATOM     29  C   UNL     1       7.757  -8.757   7.525  1.00  0.00     0.014 A 
ATOM     30  C   UNL     1       6.699  -7.413   9.227  1.00  0.00     0.014 A 
ATOM     31  C   UNL     1       7.716  -8.297   8.852  1.00  0.00     0.056 A 
BRANCH  31  32
ATOM     32  C   UNL     1       8.755  -8.752   9.848  1.00  0.00     0.416 C 
ATOM     33  F   UNL     1       8.746 -10.101  10.033  1.00  0.00    -0.166 F 
ATOM     34  F   UNL     1      10.022  -8.439   9.455  1.00  0.00    -0.166 F 
ATOM     35  F   UNL     1       8.606  -8.204  11.086  1.00  0.00    -0.166 F 
ENDBRANCH  31  32
ENDBRANCH  17  26
ENDBRANCH   5   8
ENDBRANCH   3   4
ENDBRANCH   2   3
ENDBRANCH   1   2
BRANCH   1  36
ATOM     36  C   UNL     1       7.455   0.065   7.010  1.00  0.00     0.116 C 
BRANCH  36  37
ATOM     37  N   UNL     1       8.352  -0.331   8.092  1.00  0.00    -0.352 N 
ATOM     38  C   UNL     1       8.440   0.200   9.367  1.00  0.00     0.251 C 
ATOM     39  H   UNL     1       8.972  -1.069   7.890  1.00  0.00     0.163 HD
ATOM     40  O   UNL     1       9.471   0.089  10.013  1.00  0.00    -0.269 OA
BRANCH  38  41
ATOM     41  C   UNL     1       7.263   0.880   9.941  1.00  0.00     0.039 A 
ATOM     42  C   UNL     1       7.388   2.058  10.681  1.00  0.00     0.014 A 
ATOM     43  C   UNL     1       6.010   0.311   9.726  1.00  0.00     0.014 A 
ATOM     44  C   UNL     1       6.232   2.698  11.125  1.00  0.00     0.010 A 
ATOM     45  C   UNL     1       4.868   1.000  10.053  1.00  0.00     0.010 A 
ATOM     46  C   UNL     1       4.971   2.174  10.787  1.00  0.00    -0.014 A 
BRANCH  46  47
ATOM     47  C   UNL     1       3.752   2.939  11.036  1.00  0.00     0.031 A 
ATOM     48  C   UNL     1       3.771   4.290  10.410  1.00  0.00     0.074 A 
ATOM     49  C   UNL     1       2.629   2.403  11.568  1.00  0.00     0.049 A 
ATOM     50  N   UNL     1       3.880   5.428  11.011  1.00  0.00    -0.248 NA
ATOM     51  C   UNL     1       3.883   4.388   8.944  1.00  0.00     0.031 C 
ATOM     52  C   UNL     1       2.385   1.005  11.940  1.00  0.00     0.029 A 
ATOM     53  N   UNL     1       1.416   2.979  11.799  1.00  0.00    -0.354 N 
ATOM     54  C   UNL     1       3.788   6.393  10.012  1.00  0.00     0.074 A 
ATOM     55  C   UNL     1       4.036   5.704   8.775  1.00  0.00     0.031 C 
ATOM     56  C   UNL     1       1.060   0.804  12.118  1.00  0.00     0.029 A 
ATOM     57  C   UNL     1       0.374   2.080  12.031  1.00  0.00     0.049 A 
ATOM     58  H   UNL     1       1.285   3.955  11.801  1.00  0.00     0.167 HD
ATOM     59  C   UNL     1       3.229   7.609  10.270  1.00  0.00     0.037 A 
ATOM     60  C   UNL     1      -0.954   2.366  12.125  1.00  0.00     0.037 A 
ATOM     61  C   UNL     1       3.118   7.823  11.695  1.00  0.00     0.049 A 
ATOM     62  C   UNL     1      -1.056   3.817  12.431  1.00  0.00     0.074 A 
ATOM     63  C   UNL     1       4.010   7.841  12.750  1.00  0.00     0.029 A 
ATOM     64  N   UNL     1       1.873   7.661  12.256  1.00  0.00    -0.354 N 
ATOM     65  N   UNL     1      -0.653   4.347  13.553  1.00  0.00    -0.248 NA
ATOM     66  C   UNL     1      -1.156   4.736  11.308  1.00  0.00     0.031 C 
ATOM     67  C   UNL     1       3.320   7.209  13.825  1.00  0.00     0.029 A 
ATOM     68  C   UNL     1       2.021   6.925  13.402  1.00  0.00     0.049 A 
ATOM     69  H   UNL     1       1.026   8.012  11.898  1.00  0.00     0.167 HD
ATOM     70  C   UNL     1      -0.022   5.524  13.178  1.00  0.00     0.074 A 
ATOM     71  C   UNL     1      -0.438   5.752  11.794  1.00  0.00     0.031 C 
ATOM     72  C   UNL     1       1.006   6.035  13.919  1.00  0.00     0.037 A 
BRANCH  59  73
ATOM     73  C   UNL     1       2.406   8.414   9.284  1.00  0.00     0.058 A 
ATOM     74  C   UNL     1       1.950   9.694   9.667  1.00  0.00     0.135 A 
ATOM     75  C   UNL     1       1.803   7.883   8.121  1.00  0.00     0.135 A 
ATOM     76  F   UNL     1       2.453  10.303  10.754  1.00  0.00    -0.206 F 
ATOM     77  C   UNL     1       0.913  10.351   9.006  1.00  0.00     0.059 A 
ATOM     78  C   UNL     1       0.805   8.546   7.416  1.00  0.00     0.059 A 
ATOM     79  F   UNL     1       2.079   6.660   7.658  1.00  0.00    -0.206 F 
ATOM     80  C   UNL     1       0.337   9.760   7.888  1.00  0.00     0.060 A 
BRANCH  80  81
ATOM     81  S   UNL     1      -1.054  10.567   7.079  1.00  0.00     0.124 S 
ATOM     82  O   UNL     1      -2.097  10.429   8.088  1.00  0.00    -0.237 OA
ATOM     83  O   UNL     1      -0.536  11.915   6.871  1.00  0.00    -0.237 OA
ATOM     84  O   UNL     1      -1.238   9.778   5.865  1.00  0.00    -0.744 OA
ENDBRANCH  80  81
ENDBRANCH  59  73
BRANCH  60  85
ATOM     85  C   UNL     1      -2.131   1.573  11.660  1.00  0.00     0.058 A 
ATOM     86  C   UNL     1      -3.447   1.970  11.973  1.00  0.00     0.135 A 
ATOM     87  C   UNL     1      -2.010   0.596  10.652  1.00  0.00     0.135 A 
ATOM     88  F   UNL     1      -3.666   2.899  12.916  1.00  0.00    -0.206 F 
ATOM     89  C   UNL     1      -4.565   1.486  11.279  1.00  0.00     0.059 A 
ATOM     90  C   UNL     1      -3.109   0.093   9.953  1.00  0.00     0.059 A 
ATOM     91  F   UNL     1      -0.806   0.168  10.246  1.00  0.00    -0.206 F 
ATOM     92  C   UNL     1      -4.382   0.567  10.248  1.00  0.00     0.060 A 
BRANCH  92  93
ATOM     93  S   UNL     1      -5.788   0.098   9.207  1.00  0.00     0.124 S 
ATOM     94  O   UNL     1      -6.578  -0.724  10.116  1.00  0.00    -0.237 OA
ATOM     95  O   UNL     1      -6.361   1.393   8.857  1.00  0.00    -0.237 OA
ATOM     96  O   UNL     1      -5.163  -0.622   8.099  1.00  0.00    -0.744 OA
ENDBRANCH  92  93
ENDBRANCH  60  85
BRANCH  72  97
ATOM     97  C   UNL     1       1.225   5.498  15.310  1.00  0.00     0.058 A 
ATOM     98  C   UNL     1       1.578   4.172  15.622  1.00  0.00     0.135 A 
ATOM     99  C   UNL     1       1.220   6.423  16.366  1.00  0.00     0.135 A 
ATOM    100  F   UNL     1       1.708   3.246  14.662  1.00  0.00    -0.206 F 
ATOM    101  C   UNL     1       1.869   3.779  16.931  1.00  0.00     0.059 A 
ATOM    102  C   UNL     1       1.540   6.061  17.669  1.00  0.00     0.059 A 
ATOM    103  F   UNL     1       0.950   7.716  16.124  1.00  0.00    -0.206 F 
ATOM    104  C   UNL     1       1.848   4.732  17.949  1.00  0.00     0.060 A 
BRANCH 104 105
ATOM    105  S   UNL     1       2.281   4.242  19.632  1.00  0.00     0.124 S 
ATOM    106  O   UNL     1       1.134   3.427  20.018  1.00  0.00    -0.237 OA
ATOM    107  O   UNL     1       3.536   3.521  19.440  1.00  0.00    -0.237 OA
ATOM    108  O   UNL     1       2.406   5.516  20.337  1.00  0.00    -0.744 OA
ENDBRANCH 104 105
ENDBRANCH  72  97
ENDBRANCH  46  47
ENDBRANCH  38  41
ENDBRANCH  36  37
ENDBRANCH   1  36
TORSDOF 18
