REMARK SMILES O=C(NCCCCNC(=O)c1cn(C2C[NH+](CC[NH+]3CCCCC3)C2)nn1)c1ccc(-c2c3nc(c(-c4c(F)cc(S(=O)(=O)[O-])cc4F)c4ccc([nH]4)c(-c4c(F)cc(S(=O)(=O)[O-])cc4F)c4nc(c(-c5c(F)cc(S(=O)(=O)[O-])cc5F)c5ccc2[nH]5)C=C4)C=C3)cc1
REMARK SMILES IDX 6 1 5 2 4 3 3 4 1 5 2 6 28 8 29 9 93 10 30 11 92 12 31 13
REMARK SMILES IDX 32 14 33 15 86 16 34 17 91 18 85 19 87 20 35 21 90 22 84 23
REMARK SMILES IDX 83 24 36 26 70 27 49 28 69 29 50 30 53 31 68 32 88 33 51 34
REMARK SMILES IDX 52 35 67 37 89 38 54 39 37 40 38 41 47 42 39 43 40 44 46 45
REMARK SMILES IDX 48 46 41 47 42 48 43 49 44 50 45 51 71 52 72 53 81 54 73 55
REMARK SMILES IDX 74 56 80 57 82 58 75 59 76 60 77 61 78 62 79 63 55 64 56 65
REMARK SMILES IDX 65 66 57 67 58 68 64 69 66 70 59 71 60 72 61 73 62 74 63 75
REMARK SMILES IDX 7 76 8 77 9 78 10 80 11 81 12 82 27 83 13 84 26 85 14 86
REMARK SMILES IDX 15 87 25 88 16 89 17 91 18 92 19 93 20 94 24 95 21 97 23 98
REMARK SMILES IDX 22 99
REMARK H PARENT 3 7 87 25 53 36 8 79 16 90 19 96
REMARK Flexibility Score: inf
ROOT
ATOM      1  C   UNL     1       4.395   2.648  -2.452  1.00  0.00     0.023 C 
ENDROOT
BRANCH   1   2
ATOM      2  C   UNL     1       4.845   1.292  -1.886  1.00  0.00     0.023 C 
BRANCH   2   3
ATOM      3  C   UNL     1       4.582   1.077  -0.397  1.00  0.00     0.116 C 
BRANCH   3   4
ATOM      4  N   UNL     1       3.188   1.176  -0.023  1.00  0.00    -0.352 N 
ATOM      5  O   UNL     1       1.110   0.738   0.551  1.00  0.00    -0.269 OA
ATOM      6  C   UNL     1       2.136   0.300   0.020  1.00  0.00     0.251 C 
ATOM      7  H   UNL     1       2.937   2.082   0.268  1.00  0.00     0.163 HD
BRANCH   6   8
ATOM      8  C   UNL     1       2.123  -1.081  -0.544  1.00  0.00     0.039 A 
ATOM      9  C   UNL     1       3.212  -1.752  -1.100  1.00  0.00     0.014 A 
ATOM     10  C   UNL     1       0.875  -1.736  -0.532  1.00  0.00     0.014 A 
ATOM     11  C   UNL     1       3.051  -3.011  -1.681  1.00  0.00     0.010 A 
ATOM     12  C   UNL     1       0.710  -2.997  -1.101  1.00  0.00     0.010 A 
ATOM     13  C   UNL     1       1.796  -3.623  -1.706  1.00  0.00    -0.014 A 
BRANCH  13  14
ATOM     14  C   UNL     1       1.689  -4.960  -2.293  1.00  0.00     0.031 A 
ATOM     15  C   UNL     1       2.407  -6.054  -1.569  1.00  0.00     0.074 A 
ATOM     16  C   UNL     1       0.870  -5.254  -3.324  1.00  0.00     0.049 A 
ATOM     17  N   UNL     1       3.316  -6.865  -2.010  1.00  0.00    -0.248 NA
ATOM     18  C   UNL     1       2.109  -6.221  -0.138  1.00  0.00     0.031 C 
ATOM     19  C   UNL     1      -0.142  -4.393  -3.941  1.00  0.00     0.029 A 
ATOM     20  N   UNL     1       0.697  -6.445  -3.967  1.00  0.00    -0.354 N 
ATOM     21  C   UNL     1       3.577  -7.762  -0.972  1.00  0.00     0.074 A 
ATOM     22  C   UNL     1       2.899  -7.244   0.188  1.00  0.00     0.031 C 
ATOM     23  C   UNL     1      -0.962  -5.149  -4.705  1.00  0.00     0.029 A 
ATOM     24  C   UNL     1      -0.457  -6.512  -4.735  1.00  0.00     0.049 A 
ATOM     25  H   UNL     1       1.334  -7.191  -3.892  1.00  0.00     0.167 HD
ATOM     26  C   UNL     1       4.190  -8.963  -1.172  1.00  0.00     0.037 A 
ATOM     27  C   UNL     1      -1.002  -7.624  -5.290  1.00  0.00     0.037 A 
ATOM     28  C   UNL     1       4.897  -8.999  -2.423  1.00  0.00     0.049 A 
ATOM     29  C   UNL     1       0.064  -8.654  -5.374  1.00  0.00     0.074 A 
ATOM     30  C   UNL     1       5.941  -8.282  -2.974  1.00  0.00     0.029 A 
ATOM     31  N   UNL     1       4.344  -9.702  -3.465  1.00  0.00    -0.354 N 
ATOM     32  N   UNL     1       1.113  -8.571  -6.144  1.00  0.00    -0.248 NA
ATOM     33  C   UNL     1       0.162  -9.621  -4.292  1.00  0.00     0.031 C 
ATOM     34  C   UNL     1       5.644  -8.206  -4.365  1.00  0.00     0.029 A 
ATOM     35  C   UNL     1       4.458  -8.909  -4.578  1.00  0.00     0.049 A 
ATOM     36  H   UNL     1       3.944 -10.600  -3.422  1.00  0.00     0.167 HD
ATOM     37  C   UNL     1       2.138  -9.160  -5.419  1.00  0.00     0.074 A 
ATOM     38  C   UNL     1       1.471  -9.877  -4.336  1.00  0.00     0.031 C 
ATOM     39  C   UNL     1       3.441  -8.797  -5.601  1.00  0.00     0.037 A 
BRANCH  26  40
ATOM     40  C   UNL     1       3.900 -10.222  -0.382  1.00  0.00     0.058 A 
ATOM     41  C   UNL     1       4.709 -11.365  -0.563  1.00  0.00     0.135 A 
ATOM     42  C   UNL     1       2.692 -10.440   0.318  1.00  0.00     0.135 A 
ATOM     43  F   UNL     1       5.881 -11.278  -1.212  1.00  0.00    -0.206 F 
ATOM     44  C   UNL     1       4.306 -12.640  -0.163  1.00  0.00     0.059 A 
ATOM     45  C   UNL     1       2.296 -11.694   0.773  1.00  0.00     0.059 A 
ATOM     46  F   UNL     1       1.792  -9.467   0.505  1.00  0.00    -0.206 F 
ATOM     47  C   UNL     1       3.084 -12.796   0.482  1.00  0.00     0.060 A 
BRANCH  47  48
ATOM     48  S   UNL     1       2.487 -14.454   0.862  1.00  0.00     0.124 S 
ATOM     49  O   UNL     1       2.179 -14.961  -0.470  1.00  0.00    -0.237 OA
ATOM     50  O   UNL     1       3.643 -15.051   1.522  1.00  0.00    -0.237 OA
ATOM     51  O   UNL     1       1.338 -14.206   1.727  1.00  0.00    -0.744 OA
ENDBRANCH  47  48
ENDBRANCH  26  40
BRANCH  27  52
ATOM     52  C   UNL     1      -2.446  -7.951  -5.424  1.00  0.00     0.058 A 
ATOM     53  C   UNL     1      -2.889  -8.992  -6.260  1.00  0.00     0.135 A 
ATOM     54  C   UNL     1      -3.400  -7.427  -4.528  1.00  0.00     0.135 A 
ATOM     55  F   UNL     1      -2.041  -9.572  -7.122  1.00  0.00    -0.206 F 
ATOM     56  C   UNL     1      -4.189  -9.506  -6.185  1.00  0.00     0.059 A 
ATOM     57  C   UNL     1      -4.703  -7.912  -4.445  1.00  0.00     0.059 A 
ATOM     58  F   UNL     1      -3.066  -6.483  -3.635  1.00  0.00    -0.206 F 
ATOM     59  C   UNL     1      -5.086  -8.968  -5.261  1.00  0.00     0.060 A 
BRANCH  59  60
ATOM     60  S   UNL     1      -6.711  -9.730  -5.046  1.00  0.00     0.124 S 
ATOM     61  O   UNL     1      -7.380  -9.370  -6.292  1.00  0.00    -0.237 OA
ATOM     62  O   UNL     1      -6.373 -11.140  -4.888  1.00  0.00    -0.237 OA
ATOM     63  O   UNL     1      -7.234  -9.080  -3.847  1.00  0.00    -0.744 OA
ENDBRANCH  59  60
ENDBRANCH  27  52
BRANCH  39  64
ATOM     64  C   UNL     1       3.801  -7.979  -6.811  1.00  0.00     0.058 A 
ATOM     65  C   UNL     1       3.361  -6.662  -7.028  1.00  0.00     0.135 A 
ATOM     66  C   UNL     1       4.783  -8.479  -7.681  1.00  0.00     0.135 A 
ATOM     67  F   UNL     1       2.501  -6.075  -6.184  1.00  0.00    -0.206 F 
ATOM     68  C   UNL     1       3.858  -5.886  -8.075  1.00  0.00     0.059 A 
ATOM     69  C   UNL     1       5.316  -7.712  -8.714  1.00  0.00     0.059 A 
ATOM     70  F   UNL     1       5.289  -9.709  -7.489  1.00  0.00    -0.206 F 
ATOM     71  C   UNL     1       4.844  -6.415  -8.908  1.00  0.00     0.060 A 
BRANCH  71  72
ATOM     72  S   UNL     1       5.579  -5.361 -10.177  1.00  0.00     0.124 S 
ATOM     73  O   UNL     1       4.514  -5.288 -11.171  1.00  0.00    -0.237 OA
ATOM     74  O   UNL     1       5.850  -4.125  -9.447  1.00  0.00    -0.237 OA
ATOM     75  O   UNL     1       6.769  -6.101 -10.589  1.00  0.00    -0.744 OA
ENDBRANCH  71  72
ENDBRANCH  39  64
ENDBRANCH  13  14
ENDBRANCH   6   8
ENDBRANCH   3   4
ENDBRANCH   2   3
ENDBRANCH   1   2
BRANCH   1  76
ATOM     76  C   UNL     1       4.912   3.898  -1.732  1.00  0.00     0.116 C 
BRANCH  76  77
ATOM     77  N   UNL     1       6.362   3.965  -1.698  1.00  0.00    -0.351 N 
ATOM     78  C   UNL     1       7.226   5.020  -1.898  1.00  0.00     0.273 C 
ATOM     79  H   UNL     1       6.805   3.109  -1.498  1.00  0.00     0.163 HD
ATOM     80  O   UNL     1       8.425   4.764  -1.972  1.00  0.00    -0.267 OA
BRANCH  78  81
ATOM     81  C   UNL     1       6.725   6.384  -2.010  1.00  0.00     0.170 A 
ATOM     82  C   UNL     1       5.691   7.006  -1.338  1.00  0.00     0.145 A 
ATOM     83  N   UNL     1       7.316   7.308  -2.839  1.00  0.00    -0.125 NA
ATOM     84  N   UNL     1       5.603   8.250  -1.912  1.00  0.00    -0.237 N 
ATOM     85  N   UNL     1       6.625   8.438  -2.771  1.00  0.00    -0.066 NA
BRANCH  84  86
ATOM     86  C   UNL     1       4.378   8.954  -2.129  1.00  0.00     0.218 C 
ATOM     87  C   UNL     1       3.139   8.461  -1.347  1.00  0.00     0.296 C 
ATOM     88  C   UNL     1       4.102  10.280  -1.413  1.00  0.00     0.296 C 
ATOM     89  N   UNL     1       2.662   9.858  -1.319  1.00  0.00    -0.326 N 
ATOM     90  H   UNL     1       2.070  10.241  -0.582  1.00  0.00     0.348 HD
BRANCH  89  91
ATOM     91  C   UNL     1       1.786  10.183  -2.481  1.00  0.00     0.324 C 
BRANCH  91  92
ATOM     92  C   UNL     1       2.200  10.227  -3.998  1.00  0.00     0.324 C 
BRANCH  92  93
ATOM     93  N   UNL     1       2.082   9.068  -4.919  1.00  0.00    -0.330 N 
ATOM     94  C   UNL     1       2.326   7.742  -4.360  1.00  0.00     0.262 C 
ATOM     95  C   UNL     1       0.843   9.080  -5.710  1.00  0.00     0.262 C 
ATOM     96  H   UNL     1       2.877   9.227  -5.538  1.00  0.00     0.348 HD
ATOM     97  C   UNL     1       2.382   6.635  -5.407  1.00  0.00     0.062 C 
ATOM     98  C   UNL     1       0.831   7.982  -6.786  1.00  0.00     0.062 C 
ATOM     99  C   UNL     1       1.093   6.601  -6.200  1.00  0.00     0.012 C 
ENDBRANCH  92  93
ENDBRANCH  91  92
ENDBRANCH  89  91
ENDBRANCH  84  86
ENDBRANCH  78  81
ENDBRANCH  76  77
ENDBRANCH   1  76
TORSDOF 18
