REMARK SMILES CC(C)[N@H+](C)Cc1cc2c(cc1Cl)C=C(C(=O)NCCCCNC(=O)c1ccc(-c3c4nc(c(-c5c(F)cc(S(=O)(=O)[O-])cc5F)c5ccc([nH]5)c(-c5c(F)cc(S(=O)(=O)[O-])cc5F)c5nc(c(-c6c(F)cc(S(=O)(=O)[O-])cc6F)c6ccc3[nH]6)C=C5)C=C4)cc1)[C@@H](C(F)(F)F)O2
REMARK SMILES IDX 20 1 19 2 18 3 16 4 17 5 15 7 7 8 8 9 12 10 9 11 11 12 13 13
REMARK SMILES IDX 10 14 97 15 14 16 92 17 6 18 4 19 5 20 2 22 1 23 3 24 93 25
REMARK SMILES IDX 94 26 95 27 96 28 21 29 22 30 23 31 24 32 25 34 26 35 27 36
REMARK SMILES IDX 91 37 28 38 90 39 29 40 30 41 31 42 84 43 32 44 89 45 83 46
REMARK SMILES IDX 85 47 33 48 88 49 82 50 81 51 34 53 68 54 47 55 67 56 48 57
REMARK SMILES IDX 51 58 66 59 86 60 49 61 50 62 65 64 87 65 52 66 35 67 36 68
REMARK SMILES IDX 45 69 37 70 38 71 44 72 46 73 39 74 40 75 41 76 42 77 43 78
REMARK SMILES IDX 69 79 70 80 79 81 71 82 72 83 78 84 80 85 73 86 74 87 75 88
REMARK SMILES IDX 76 89 77 90 53 91 54 92 63 93 55 94 56 95 62 96 64 97 57 98
REMARK SMILES IDX 58 99 59 100 60 101 61 102
REMARK H PARENT 18 6 4 21 23 33 85 52 51 63
REMARK Flexibility Score: inf
ROOT
ATOM      1  C   UNL     1      -2.321   8.997   5.987  1.00  0.00     0.023 C 
ENDROOT
BRANCH   1   2
ATOM      2  C   UNL     1      -0.852   8.754   5.654  1.00  0.00     0.116 C 
BRANCH   2   3
ATOM      3  N   UNL     1      -0.223   7.825   6.571  1.00  0.00    -0.352 N 
ATOM      4  C   UNL     1       0.050   6.499   6.578  1.00  0.00     0.251 C 
ATOM      5  O   UNL     1       0.614   6.072   7.589  1.00  0.00    -0.270 OA
ATOM      6  H   UNL     1       0.083   8.268   7.395  1.00  0.00     0.163 HD
BRANCH   4   7
ATOM      7  C   UNL     1      -0.287   5.556   5.470  1.00  0.00     0.067 C 
ATOM      8  C   UNL     1      -1.100   1.301   2.841  1.00  0.00     0.029 A 
ATOM      9  C   UNL     1      -1.150   2.677   2.544  1.00  0.00     0.058 A 
ATOM     10  C   UNL     1      -0.852   0.928   4.174  1.00  0.00     0.050 A 
ATOM     11  C   UNL     1      -0.898   3.637   3.525  1.00  0.00     0.128 A 
ATOM     12  C   UNL     1      -0.558   1.895   5.143  1.00  0.00     0.033 A 
ATOM     13  Cl  UNL     1      -0.948  -0.705   4.738  1.00  0.00    -0.084 Cl
ATOM     14  C   UNL     1      -0.576   3.252   4.819  1.00  0.00     0.019 A 
ATOM     15  O   UNL     1      -1.039   4.938   3.148  1.00  0.00    -0.475 OA
ATOM     16  C   UNL     1      -0.305   4.260   5.828  1.00  0.00     0.025 C 
ATOM     17  C   UNL     1      -0.531   5.969   4.044  1.00  0.00     0.314 C 
BRANCH   8  18
ATOM     18  C   UNL     1      -1.418   0.328   1.722  1.00  0.00     0.300 C 
BRANCH  18  19
ATOM     19  N   UNL     1      -0.594  -0.884   1.698  1.00  0.00    -0.332 N 
ATOM     20  C   UNL     1      -1.375  -2.050   1.296  1.00  0.00     0.333 C 
ATOM     21  H   UNL     1      -0.310  -0.985   2.672  1.00  0.00     0.348 HD
BRANCH  19  22
ATOM     22  C   UNL     1       0.718  -0.817   1.032  1.00  0.00     0.177 C 
ATOM     23  C   UNL     1       0.693  -0.382  -0.437  1.00  0.00     0.075 C 
ATOM     24  C   UNL     1       1.720   0.041   1.813  1.00  0.00     0.075 C 
ENDBRANCH  19  22
ENDBRANCH  18  19
ENDBRANCH   8  18
BRANCH  17  25
ATOM     25  C   UNL     1       0.700   6.598   3.368  1.00  0.00     0.429 C 
ATOM     26  F   UNL     1       0.325   7.265   2.245  1.00  0.00    -0.167 F 
ATOM     27  F   UNL     1       1.338   7.495   4.150  1.00  0.00    -0.167 F 
ATOM     28  F   UNL     1       1.612   5.670   2.997  1.00  0.00    -0.167 F 
ENDBRANCH  17  25
ENDBRANCH   4   7
ENDBRANCH   2   3
ENDBRANCH   1   2
BRANCH   1  29
ATOM     29  C   UNL     1      -2.560  10.038   7.083  1.00  0.00     0.023 C 
BRANCH  29  30
ATOM     30  C   UNL     1      -1.851  11.375   6.881  1.00  0.00     0.116 C 
BRANCH  30  31
ATOM     31  N   UNL     1      -2.055  11.974   5.569  1.00  0.00    -0.352 N 
ATOM     32  C   UNL     1      -1.848  13.292   5.213  1.00  0.00     0.251 C 
ATOM     33  H   UNL     1      -2.375  11.373   4.858  1.00  0.00     0.163 HD
ATOM     34  O   UNL     1      -2.125  13.693   4.087  1.00  0.00    -0.269 OA
BRANCH  32  35
ATOM     35  C   UNL     1      -1.342  14.216   6.246  1.00  0.00     0.039 A 
ATOM     36  C   UNL     1      -0.185  13.893   6.952  1.00  0.00     0.014 A 
ATOM     37  C   UNL     1      -2.112  15.325   6.603  1.00  0.00     0.014 A 
ATOM     38  C   UNL     1       0.093  14.561   8.136  1.00  0.00     0.010 A 
ATOM     39  C   UNL     1      -1.775  16.053   7.748  1.00  0.00     0.010 A 
ATOM     40  C   UNL     1      -0.710  15.634   8.561  1.00  0.00    -0.014 A 
BRANCH  40  41
ATOM     41  C   UNL     1      -0.428  16.262   9.879  1.00  0.00     0.031 A 
ATOM     42  C   UNL     1      -1.419  16.160  11.011  1.00  0.00     0.074 A 
ATOM     43  C   UNL     1       0.775  16.834  10.083  1.00  0.00     0.049 A 
ATOM     44  N   UNL     1      -1.298  16.572  12.247  1.00  0.00    -0.248 NA
ATOM     45  C   UNL     1      -2.712  15.518  10.722  1.00  0.00     0.031 C 
ATOM     46  C   UNL     1       1.818  16.980   9.064  1.00  0.00     0.029 A 
ATOM     47  N   UNL     1       1.345  17.352  11.217  1.00  0.00    -0.354 N 
ATOM     48  C   UNL     1      -2.497  16.257  12.877  1.00  0.00     0.074 A 
ATOM     49  C   UNL     1      -3.347  15.645  11.879  1.00  0.00     0.031 C 
ATOM     50  C   UNL     1       2.925  17.474   9.636  1.00  0.00     0.029 A 
ATOM     51  C   UNL     1       2.653  17.740  11.045  1.00  0.00     0.049 A 
ATOM     52  H   UNL     1       0.864  17.439  12.071  1.00  0.00     0.167 HD
ATOM     53  C   UNL     1      -2.850  16.445  14.171  1.00  0.00     0.037 A 
ATOM     54  C   UNL     1       3.537  18.253  11.921  1.00  0.00     0.037 A 
ATOM     55  C   UNL     1      -1.987  17.022  15.168  1.00  0.00     0.049 A 
ATOM     56  C   UNL     1       3.110  18.480  13.342  1.00  0.00     0.074 A 
ATOM     57  C   UNL     1      -2.245  17.230  16.512  1.00  0.00     0.029 A 
ATOM     58  N   UNL     1      -0.697  17.475  14.934  1.00  0.00    -0.354 N 
ATOM     59  N   UNL     1       1.971  18.175  13.916  1.00  0.00    -0.248 NA
ATOM     60  C   UNL     1       4.077  19.139  14.230  1.00  0.00     0.031 C 
ATOM     61  C   UNL     1      -1.125  17.843  17.082  1.00  0.00     0.029 A 
ATOM     62  C   UNL     1      -0.155  17.983  16.102  1.00  0.00     0.049 A 
ATOM     63  H   UNL     1      -0.235  17.441  14.065  1.00  0.00     0.167 HD
ATOM     64  C   UNL     1       2.082  18.608  15.231  1.00  0.00     0.074 A 
ATOM     65  C   UNL     1       3.408  19.174  15.375  1.00  0.00     0.031 C 
ATOM     66  C   UNL     1       1.164  18.550  16.225  1.00  0.00     0.037 A 
BRANCH  53  67
ATOM     67  C   UNL     1      -4.231  16.026  14.592  1.00  0.00     0.058 A 
ATOM     68  C   UNL     1      -4.569  14.675  14.765  1.00  0.00     0.135 A 
ATOM     69  C   UNL     1      -5.211  16.989  14.887  1.00  0.00     0.135 A 
ATOM     70  F   UNL     1      -3.675  13.713  14.483  1.00  0.00    -0.206 F 
ATOM     71  C   UNL     1      -5.834  14.291  15.199  1.00  0.00     0.059 A 
ATOM     72  C   UNL     1      -6.477  16.629  15.342  1.00  0.00     0.059 A 
ATOM     73  F   UNL     1      -4.940  18.295  14.739  1.00  0.00    -0.206 F 
ATOM     74  C   UNL     1      -6.782  15.276  15.485  1.00  0.00     0.060 A 
BRANCH  74  75
ATOM     75  S   UNL     1      -8.416  14.759  16.055  1.00  0.00     0.124 S 
ATOM     76  O   UNL     1      -8.990  14.211  14.829  1.00  0.00    -0.237 OA
ATOM     77  O   UNL     1      -8.091  13.786  17.092  1.00  0.00    -0.237 OA
ATOM     78  O   UNL     1      -9.020  16.000  16.529  1.00  0.00    -0.744 OA
ENDBRANCH  74  75
ENDBRANCH  53  67
BRANCH  54  79
ATOM     79  C   UNL     1       4.912  18.582  11.467  1.00  0.00     0.058 A 
ATOM     80  C   UNL     1       6.009  17.811  11.876  1.00  0.00     0.135 A 
ATOM     81  C   UNL     1       5.149  19.641  10.577  1.00  0.00     0.135 A 
ATOM     82  F   UNL     1       5.831  16.791  12.730  1.00  0.00    -0.206 F 
ATOM     83  C   UNL     1       7.295  18.075  11.416  1.00  0.00     0.059 A 
ATOM     84  C   UNL     1       6.422  19.910  10.085  1.00  0.00     0.059 A 
ATOM     85  F   UNL     1       4.129  20.398  10.146  1.00  0.00    -0.206 F 
ATOM     86  C   UNL     1       7.489  19.124  10.515  1.00  0.00     0.060 A 
BRANCH  86  87
ATOM     87  S   UNL     1       9.150  19.415   9.869  1.00  0.00     0.124 S 
ATOM     88  O   UNL     1       9.809  20.025  11.017  1.00  0.00    -0.237 OA
ATOM     89  O   UNL     1       9.586  18.066   9.524  1.00  0.00    -0.237 OA
ATOM     90  O   UNL     1       8.916  20.299   8.730  1.00  0.00    -0.744 OA
ENDBRANCH  86  87
ENDBRANCH  54  79
BRANCH  66  91
ATOM     91  C   UNL     1       1.547  19.126  17.557  1.00  0.00     0.058 A 
ATOM     92  C   UNL     1       1.547  20.512  17.773  1.00  0.00     0.135 A 
ATOM     93  C   UNL     1       1.822  18.287  18.648  1.00  0.00     0.135 A 
ATOM     94  F   UNL     1       1.298  21.354  16.757  1.00  0.00    -0.206 F 
ATOM     95  C   UNL     1       1.805  21.049  19.029  1.00  0.00     0.059 A 
ATOM     96  C   UNL     1       2.064  18.802  19.918  1.00  0.00     0.059 A 
ATOM     97  F   UNL     1       1.828  16.954  18.492  1.00  0.00    -0.206 F 
ATOM     98  C   UNL     1       2.054  20.185  20.097  1.00  0.00     0.060 A 
BRANCH  98  99
ATOM     99  S   UNL     1       2.313  20.896  21.736  1.00  0.00     0.124 S 
ATOM    100  O   UNL     1       3.646  21.474  21.600  1.00  0.00    -0.237 OA
ATOM    101  O   UNL     1       1.215  21.852  21.838  1.00  0.00    -0.237 OA
ATOM    102  O   UNL     1       2.216  19.743  22.627  1.00  0.00    -0.744 OA
ENDBRANCH  98  99
ENDBRANCH  66  91
ENDBRANCH  40  41
ENDBRANCH  32  35
ENDBRANCH  30  31
ENDBRANCH  29  30
ENDBRANCH   1  29
TORSDOF 18
