REMARK SMILES CCCC[C@H](C(=O)NCCCCNC(=O)c1ccc(-c2c3nc(c(-c4c(F)cc(S(=O)(=O)[O-])cc4F)c4ccc([nH]4)c(-c4c(F)cc(S(=O)(=O)[O-])cc4F)c4nc(c(-c5c(F)cc(S(=O)(=O)[O-])cc5F)c5ccc2[nH]5)C=C4)C=C3)cc1)[C@](C)(O)c1ccc(Cl)c(Cl)c1
REMARK SMILES IDX 10 1 9 2 8 3 6 4 7 5 5 7 4 8 3 9 2 10 1 11 82 12 83 13 84 14
REMARK SMILES IDX 85 16 86 17 92 18 87 19 90 20 88 21 91 22 89 23 11 24 12 25
REMARK SMILES IDX 13 26 14 27 15 29 16 30 17 31 81 32 18 33 80 34 19 35 20 36
REMARK SMILES IDX 21 37 74 38 22 39 79 40 73 41 75 42 23 43 78 44 72 45 71 46
REMARK SMILES IDX 24 48 58 49 37 50 57 51 38 52 41 53 56 54 76 55 39 56 40 57
REMARK SMILES IDX 55 59 77 60 42 61 25 62 26 63 35 64 27 65 28 66 34 67 36 68
REMARK SMILES IDX 29 69 30 70 31 71 32 72 33 73 59 74 60 75 69 76 61 77 62 78
REMARK SMILES IDX 68 79 70 80 63 81 64 82 65 83 66 84 67 85 43 86 44 87 53 88
REMARK SMILES IDX 45 89 46 90 52 91 54 92 47 93 48 94 49 95 50 96 51 97
REMARK H PARENT 8 6 84 15 13 28 75 47 41 58
REMARK Flexibility Score: inf
ROOT
ATOM      1  C   UNL     1      -4.409  -1.790  -2.044  1.00  0.00     0.023 C 
ENDROOT
BRANCH   1   2
ATOM      2  C   UNL     1      -3.430  -0.620  -2.120  1.00  0.00     0.116 C 
BRANCH   2   3
ATOM      3  N   UNL     1      -2.056  -0.982  -1.837  1.00  0.00    -0.356 N 
ATOM      4  C   UNL     1      -0.896  -0.595  -2.425  1.00  0.00     0.226 C 
ATOM      5  O   UNL     1       0.148  -1.028  -1.923  1.00  0.00    -0.275 OA
ATOM      6  H   UNL     1      -1.946  -1.617  -1.093  1.00  0.00     0.163 HD
BRANCH   4   7
ATOM      7  C   UNL     1      -0.809   0.347  -3.631  1.00  0.00     0.114 C 
BRANCH   7   8
ATOM      8  C   UNL     1      -1.396  -0.242  -4.940  1.00  0.00     0.017 C 
BRANCH   8   9
ATOM      9  C   UNL     1      -1.148  -1.738  -5.210  1.00  0.00     0.001 C 
BRANCH   9  10
ATOM     10  C   UNL     1      -2.272  -2.697  -4.811  1.00  0.00    -0.003 C 
ATOM     11  C   UNL     1      -3.638  -2.346  -5.390  1.00  0.00     0.004 C 
ENDBRANCH   9  10
ENDBRANCH   8   9
ENDBRANCH   7   8
BRANCH   7  12
ATOM     12  C   UNL     1      -1.257   1.823  -3.309  1.00  0.00     0.098 C 
ATOM     13  C   UNL     1      -0.801   2.245  -1.894  1.00  0.00     0.048 C 
BRANCH  12  14
ATOM     14  O   UNL     1      -2.690   1.900  -3.380  1.00  0.00    -0.385 OA
ATOM     15  H   UNL     1      -2.976   2.806  -3.183  1.00  0.00     0.211 HD
ENDBRANCH  12  14
BRANCH  12  16
ATOM     16  C   UNL     1      -0.799   2.913  -4.302  1.00  0.00    -0.014 A 
ATOM     17  C   UNL     1       0.195   2.730  -5.274  1.00  0.00     0.008 A 
ATOM     18  C   UNL     1      -1.410   4.189  -4.241  1.00  0.00     0.028 A 
ATOM     19  C   UNL     1       0.528   3.756  -6.170  1.00  0.00     0.022 A 
ATOM     20  C   UNL     1      -1.065   5.223  -5.118  1.00  0.00     0.060 A 
ATOM     21  C   UNL     1      -0.098   5.001  -6.095  1.00  0.00     0.059 A 
ATOM     22  Cl  UNL     1      -1.870   6.741  -4.930  1.00  0.00    -0.083 Cl
ATOM     23  Cl  UNL     1       0.370   6.215  -7.232  1.00  0.00    -0.083 Cl
ENDBRANCH  12  16
ENDBRANCH   7  12
ENDBRANCH   4   7
ENDBRANCH   2   3
ENDBRANCH   1   2
BRANCH   1  24
ATOM     24  C   UNL     1      -4.469  -2.517  -0.711  1.00  0.00     0.023 C 
BRANCH  24  25
ATOM     25  C   UNL     1      -4.884  -1.631   0.448  1.00  0.00     0.116 C 
BRANCH  25  26
ATOM     26  N   UNL     1      -6.197  -1.032   0.237  1.00  0.00    -0.352 N 
ATOM     27  C   UNL     1      -7.408  -1.320   0.823  1.00  0.00     0.251 C 
ATOM     28  H   UNL     1      -6.220  -0.308  -0.429  1.00  0.00     0.163 HD
ATOM     29  O   UNL     1      -8.440  -0.874   0.338  1.00  0.00    -0.269 OA
BRANCH  27  30
ATOM     30  C   UNL     1      -7.454  -2.184   2.022  1.00  0.00     0.039 A 
ATOM     31  C   UNL     1      -8.468  -3.135   2.146  1.00  0.00     0.014 A 
ATOM     32  C   UNL     1      -6.477  -2.069   3.011  1.00  0.00     0.014 A 
ATOM     33  C   UNL     1      -8.446  -4.022   3.223  1.00  0.00     0.010 A 
ATOM     34  C   UNL     1      -6.377  -3.039   3.997  1.00  0.00     0.010 A 
ATOM     35  C   UNL     1      -7.370  -4.016   4.128  1.00  0.00    -0.014 A 
BRANCH  35  36
ATOM     36  C   UNL     1      -7.272  -5.018   5.220  1.00  0.00     0.031 A 
ATOM     37  C   UNL     1      -7.203  -4.571   6.657  1.00  0.00     0.074 A 
ATOM     38  C   UNL     1      -7.180  -6.326   4.909  1.00  0.00     0.049 A 
ATOM     39  N   UNL     1      -7.099  -5.295   7.742  1.00  0.00    -0.248 NA
ATOM     40  C   UNL     1      -7.211  -3.120   6.910  1.00  0.00     0.031 C 
ATOM     41  C   UNL     1      -7.142  -6.873   3.549  1.00  0.00     0.029 A 
ATOM     42  N   UNL     1      -7.103  -7.436   5.711  1.00  0.00    -0.354 N 
ATOM     43  C   UNL     1      -7.013  -4.391   8.794  1.00  0.00     0.074 A 
ATOM     44  C   UNL     1      -6.998  -3.067   8.216  1.00  0.00     0.031 C 
ATOM     45  C   UNL     1      -7.099  -8.213   3.613  1.00  0.00     0.029 A 
ATOM     46  C   UNL     1      -7.065  -8.620   5.013  1.00  0.00     0.049 A 
ATOM     47  H   UNL     1      -7.077  -7.389   6.694  1.00  0.00     0.167 HD
ATOM     48  C   UNL     1      -6.984  -4.639  10.125  1.00  0.00     0.037 A 
ATOM     49  C   UNL     1      -7.014  -9.892   5.452  1.00  0.00     0.037 A 
ATOM     50  C   UNL     1      -7.031  -5.962  10.690  1.00  0.00     0.049 A 
ATOM     51  C   UNL     1      -7.024 -10.146   6.934  1.00  0.00     0.074 A 
ATOM     52  C   UNL     1      -7.084  -6.328  12.023  1.00  0.00     0.029 A 
ATOM     53  N   UNL     1      -7.026  -7.137   9.952  1.00  0.00    -0.354 N 
ATOM     54  N   UNL     1      -7.033  -9.278   7.919  1.00  0.00    -0.248 NA
ATOM     55  C   UNL     1      -7.030 -11.549   7.365  1.00  0.00     0.031 C 
ATOM     56  C   UNL     1      -7.057  -7.725  12.092  1.00  0.00     0.029 A 
ATOM     57  C   UNL     1      -7.050  -8.230  10.801  1.00  0.00     0.049 A 
ATOM     58  H   UNL     1      -7.009  -7.186   8.969  1.00  0.00     0.167 HD
ATOM     59  C   UNL     1      -7.069 -10.030   9.088  1.00  0.00     0.074 A 
ATOM     60  C   UNL     1      -7.102 -11.421   8.683  1.00  0.00     0.031 C 
ATOM     61  C   UNL     1      -7.072  -9.609  10.378  1.00  0.00     0.037 A 
BRANCH  48  62
ATOM     62  C   UNL     1      -6.904  -3.456  11.054  1.00  0.00     0.058 A 
ATOM     63  C   UNL     1      -7.962  -2.540  11.184  1.00  0.00     0.135 A 
ATOM     64  C   UNL     1      -5.760  -3.242  11.840  1.00  0.00     0.135 A 
ATOM     65  F   UNL     1      -9.075  -2.682  10.445  1.00  0.00    -0.206 F 
ATOM     66  C   UNL     1      -7.874  -1.437  12.027  1.00  0.00     0.059 A 
ATOM     67  C   UNL     1      -5.664  -2.164  12.716  1.00  0.00     0.059 A 
ATOM     68  F   UNL     1      -4.716  -4.082  11.758  1.00  0.00    -0.206 F 
ATOM     69  C   UNL     1      -6.720  -1.257  12.789  1.00  0.00     0.060 A 
BRANCH  69  70
ATOM     70  S   UNL     1      -6.623   0.179  13.879  1.00  0.00     0.124 S 
ATOM     71  O   UNL     1      -6.462   1.264  12.915  1.00  0.00    -0.237 OA
ATOM     72  O   UNL     1      -7.907   0.132  14.571  1.00  0.00    -0.237 OA
ATOM     73  O   UNL     1      -5.455  -0.101  14.708  1.00  0.00    -0.744 OA
ENDBRANCH  69  70
ENDBRANCH  48  62
BRANCH  49  74
ATOM     74  C   UNL     1      -6.993 -11.013   4.474  1.00  0.00     0.058 A 
ATOM     75  C   UNL     1      -8.102 -11.858   4.314  1.00  0.00     0.135 A 
ATOM     76  C   UNL     1      -5.877 -11.241   3.653  1.00  0.00     0.135 A 
ATOM     77  F   UNL     1      -9.192 -11.684   5.077  1.00  0.00    -0.206 F 
ATOM     78  C   UNL     1      -8.102 -12.895   3.387  1.00  0.00     0.059 A 
ATOM     79  C   UNL     1      -5.864 -12.254   2.699  1.00  0.00     0.059 A 
ATOM     80  F   UNL     1      -4.798 -10.449   3.751  1.00  0.00    -0.206 F 
ATOM     81  C   UNL     1      -6.979 -13.081   2.578  1.00  0.00     0.060 A 
BRANCH  81  82
ATOM     82  S   UNL     1      -7.016 -14.389   1.333  1.00  0.00     0.124 S 
ATOM     83  O   UNL     1      -6.918 -15.586   2.161  1.00  0.00    -0.237 OA
ATOM     84  O   UNL     1      -8.305 -14.161   0.688  1.00  0.00    -0.237 OA
ATOM     85  O   UNL     1      -5.849 -14.097   0.506  1.00  0.00    -0.744 OA
ENDBRANCH  81  82
ENDBRANCH  49  74
BRANCH  61  86
ATOM     86  C   UNL     1      -7.140 -10.670  11.442  1.00  0.00     0.058 A 
ATOM     87  C   UNL     1      -6.062 -11.533  11.698  1.00  0.00     0.135 A 
ATOM     88  C   UNL     1      -8.295 -10.813  12.230  1.00  0.00     0.135 A 
ATOM     89  F   UNL     1      -4.936 -11.441  10.973  1.00  0.00    -0.206 F 
ATOM     90  C   UNL     1      -6.144 -12.530  12.664  1.00  0.00     0.059 A 
ATOM     91  C   UNL     1      -8.385 -11.780  13.225  1.00  0.00     0.059 A 
ATOM     92  F   UNL     1      -9.349 -10.003  12.039  1.00  0.00    -0.206 F 
ATOM     93  C   UNL     1      -7.312 -12.648  13.420  1.00  0.00     0.060 A 
BRANCH  93  94
ATOM     94  S   UNL     1      -7.408 -13.949  14.666  1.00  0.00     0.124 S 
ATOM     95  O   UNL     1      -7.567 -15.138  13.835  1.00  0.00    -0.237 OA
ATOM     96  O   UNL     1      -6.126 -13.821  15.351  1.00  0.00    -0.237 OA
ATOM     97  O   UNL     1      -8.576 -13.575  15.458  1.00  0.00    -0.744 OA
ENDBRANCH  93  94
ENDBRANCH  61  86
ENDBRANCH  35  36
ENDBRANCH  27  30
ENDBRANCH  25  26
ENDBRANCH  24  25
ENDBRANCH   1  24
TORSDOF 20
