REMARK SMILES O=C(NCCCCNC(=O)c1ccc(-c2c3nc(c(-c4c(F)cc(S(=O)(=O)[O-])cc4F)c4ccc([nH]4)c(-c4c(F)cc(S(=O)(=O)[O-])cc4F)c4nc(c(-c5c(F)cc(S(=O)(=O)[O-])cc5F)c5ccc2[nH]5)C=C4)C=C3)cc1)C1=Cc2c(ccc(Cl)c2-c2ccccc2)O[C@H]1C(F)(F)F
REMARK SMILES IDX 6 1 5 2 4 3 3 4 1 5 2 6 77 8 78 9 93 10 79 11 92 12 80 13
REMARK SMILES IDX 85 14 81 15 83 16 82 17 84 18 94 19 95 20 96 21 97 22 86 23
REMARK SMILES IDX 87 24 91 25 88 26 90 27 89 28 7 29 8 30 9 31 10 33 11 34
REMARK SMILES IDX 12 35 76 36 13 37 75 38 14 39 15 40 16 41 69 42 17 43 74 44
REMARK SMILES IDX 68 45 70 46 18 47 73 48 67 49 66 50 19 52 53 53 32 54 52 55
REMARK SMILES IDX 33 56 36 57 51 58 71 59 34 60 35 61 50 63 72 64 37 65 20 66
REMARK SMILES IDX 21 67 30 68 22 69 23 70 29 71 31 72 24 73 25 74 26 75 27 76
REMARK SMILES IDX 28 77 54 78 55 79 64 80 56 81 57 82 63 83 65 84 58 85 59 86
REMARK SMILES IDX 60 87 61 88 62 89 38 90 39 91 48 92 40 93 41 94 47 95 49 96
REMARK SMILES IDX 42 97 43 98 44 99 45 100 46 101
REMARK H PARENT 3 7 8 32 70 51 36 62
REMARK Flexibility Score: inf
ROOT
ATOM      1  C   UNL     1       3.893  -4.257   0.346  1.00  0.00     0.023 C 
ENDROOT
BRANCH   1   2
ATOM      2  C   UNL     1       4.282  -3.090   1.250  1.00  0.00     0.023 C 
BRANCH   2   3
ATOM      3  C   UNL     1       3.998  -1.694   0.708  1.00  0.00     0.116 C 
BRANCH   3   4
ATOM      4  N   UNL     1       2.622  -1.248   0.824  1.00  0.00    -0.352 N 
ATOM      5  O   UNL     1       0.933   0.237   0.976  1.00  0.00    -0.270 OA
ATOM      6  C   UNL     1       2.130   0.029   0.796  1.00  0.00     0.251 C 
ATOM      7  H   UNL     1       1.952  -1.961   0.937  1.00  0.00     0.163 HD
BRANCH   6   8
ATOM      8  C   UNL     1       3.026   1.181   0.550  1.00  0.00     0.067 C 
ATOM      9  C   UNL     1       3.356   1.445  -0.721  1.00  0.00     0.026 C 
ATOM     10  C   UNL     1       3.901   1.705   1.645  1.00  0.00     0.314 C 
ATOM     11  C   UNL     1       4.759   1.009  -0.964  1.00  0.00     0.027 A 
ATOM     12  O   UNL     1       5.331   1.531   1.352  1.00  0.00    -0.475 OA
ATOM     13  C   UNL     1       5.667   1.053   0.106  1.00  0.00     0.128 A 
ATOM     14  C   UNL     1       5.085   0.396  -2.201  1.00  0.00     0.011 A 
ATOM     15  C   UNL     1       6.921   0.472  -0.037  1.00  0.00     0.049 A 
ATOM     16  C   UNL     1       6.338  -0.221  -2.305  1.00  0.00     0.049 A 
ATOM     17  C   UNL     1       7.245  -0.184  -1.231  1.00  0.00     0.025 A 
ATOM     18  Cl  UNL     1       6.796  -1.108  -3.714  1.00  0.00    -0.084 Cl
BRANCH  10  19
ATOM     19  C   UNL     1       3.588   3.182   1.971  1.00  0.00     0.429 C 
ATOM     20  F   UNL     1       2.607   3.707   1.198  1.00  0.00    -0.167 F 
ATOM     21  F   UNL     1       3.191   3.323   3.260  1.00  0.00    -0.167 F 
ATOM     22  F   UNL     1       4.671   3.981   1.804  1.00  0.00    -0.167 F 
ENDBRANCH  10  19
BRANCH  14  23
ATOM     23  C   UNL     1       4.026   0.360  -3.230  1.00  0.00    -0.016 A 
ATOM     24  C   UNL     1       3.145  -0.731  -3.290  1.00  0.00     0.009 A 
ATOM     25  C   UNL     1       3.679   1.540  -3.910  1.00  0.00     0.009 A 
ATOM     26  C   UNL     1       1.904  -0.610  -3.915  1.00  0.00     0.001 A 
ATOM     27  C   UNL     1       2.434   1.663  -4.529  1.00  0.00     0.001 A 
ATOM     28  C   UNL     1       1.538   0.596  -4.507  1.00  0.00     0.000 A 
ENDBRANCH  14  23
ENDBRANCH   6   8
ENDBRANCH   3   4
ENDBRANCH   2   3
ENDBRANCH   1   2
BRANCH   1  29
ATOM     29  C   UNL     1       4.477  -4.266  -1.066  1.00  0.00     0.116 C 
BRANCH  29  30
ATOM     30  N   UNL     1       5.930  -4.187  -1.131  1.00  0.00    -0.352 N 
ATOM     31  C   UNL     1       6.811  -4.955  -1.864  1.00  0.00     0.251 C 
ATOM     32  H   UNL     1       6.341  -3.487  -0.574  1.00  0.00     0.163 HD
ATOM     33  O   UNL     1       8.021  -4.764  -1.767  1.00  0.00    -0.269 OA
BRANCH  31  34
ATOM     34  C   UNL     1       6.293  -6.051  -2.714  1.00  0.00     0.039 A 
ATOM     35  C   UNL     1       6.790  -7.344  -2.525  1.00  0.00     0.014 A 
ATOM     36  C   UNL     1       5.265  -5.821  -3.630  1.00  0.00     0.014 A 
ATOM     37  C   UNL     1       6.172  -8.424  -3.163  1.00  0.00     0.010 A 
ATOM     38  C   UNL     1       4.607  -6.904  -4.210  1.00  0.00     0.010 A 
ATOM     39  C   UNL     1       5.034  -8.220  -3.959  1.00  0.00    -0.014 A 
BRANCH  39  40
ATOM     40  C   UNL     1       4.241  -9.359  -4.499  1.00  0.00     0.031 A 
ATOM     41  C   UNL     1       4.090  -9.537  -5.985  1.00  0.00     0.074 A 
ATOM     42  C   UNL     1       3.570 -10.168  -3.652  1.00  0.00     0.049 A 
ATOM     43  N   UNL     1       3.322 -10.366  -6.643  1.00  0.00    -0.248 NA
ATOM     44  C   UNL     1       4.885  -8.644  -6.843  1.00  0.00     0.031 C 
ATOM     45  C   UNL     1       3.592 -10.072  -2.189  1.00  0.00     0.029 A 
ATOM     46  N   UNL     1       2.717 -11.218  -3.897  1.00  0.00    -0.354 N 
ATOM     47  C   UNL     1       3.518 -10.077  -7.989  1.00  0.00     0.074 A 
ATOM     48  C   UNL     1       4.452  -8.975  -8.052  1.00  0.00     0.031 C 
ATOM     49  C   UNL     1       2.799 -11.025  -1.671  1.00  0.00     0.029 A 
ATOM     50  C   UNL     1       2.179 -11.774  -2.758  1.00  0.00     0.049 A 
ATOM     51  H   UNL     1       2.510 -11.542  -4.803  1.00  0.00     0.167 HD
ATOM     52  C   UNL     1       2.979 -10.686  -9.072  1.00  0.00     0.037 A 
ATOM     53  C   UNL     1       1.276 -12.764  -2.606  1.00  0.00     0.037 A 
ATOM     54  C   UNL     1       2.084 -11.812  -9.006  1.00  0.00     0.049 A 
ATOM     55  C   UNL     1       0.715 -13.443  -3.827  1.00  0.00     0.074 A 
ATOM     56  C   UNL     1       1.534 -12.534 -10.051  1.00  0.00     0.029 A 
ATOM     57  N   UNL     1       1.616 -12.385  -7.834  1.00  0.00    -0.354 N 
ATOM     58  N   UNL     1       0.955 -13.189  -5.092  1.00  0.00    -0.248 NA
ATOM     59  C   UNL     1      -0.234 -14.544  -3.606  1.00  0.00     0.031 C 
ATOM     60  C   UNL     1       0.710 -13.527  -9.511  1.00  0.00     0.029 A 
ATOM     61  C   UNL     1       0.779 -13.448  -8.130  1.00  0.00     0.049 A 
ATOM     62  H   UNL     1       1.844 -12.081  -6.926  1.00  0.00     0.167 HD
ATOM     63  C   UNL     1       0.218 -14.122  -5.812  1.00  0.00     0.074 A 
ATOM     64  C   UNL     1      -0.476 -14.947  -4.846  1.00  0.00     0.031 C 
ATOM     65  C   UNL     1       0.126 -14.282  -7.154  1.00  0.00     0.037 A 
BRANCH  52  66
ATOM     66  C   UNL     1       3.349 -10.159 -10.430  1.00  0.00     0.058 A 
ATOM     67  C   UNL     1       4.623 -10.373 -10.978  1.00  0.00     0.135 A 
ATOM     68  C   UNL     1       2.400  -9.487 -11.218  1.00  0.00     0.135 A 
ATOM     69  F   UNL     1       5.572 -10.996 -10.261  1.00  0.00    -0.206 F 
ATOM     70  C   UNL     1       4.950  -9.924 -12.253  1.00  0.00     0.059 A 
ATOM     71  C   UNL     1       2.697  -9.051 -12.506  1.00  0.00     0.059 A 
ATOM     72  F   UNL     1       1.167  -9.257 -10.741  1.00  0.00    -0.206 F 
ATOM     73  C   UNL     1       3.979  -9.266 -13.011  1.00  0.00     0.060 A 
BRANCH  73  74
ATOM     74  S   UNL     1       4.412  -8.714 -14.674  1.00  0.00     0.124 S 
ATOM     75  O   UNL     1       5.256  -7.559 -14.386  1.00  0.00    -0.237 OA
ATOM     76  O   UNL     1       5.098  -9.880 -15.222  1.00  0.00    -0.237 OA
ATOM     77  O   UNL     1       3.118  -8.411 -15.279  1.00  0.00    -0.744 OA
ENDBRANCH  73  74
ENDBRANCH  52  66
BRANCH  53  78
ATOM     78  C   UNL     1       0.847 -13.189  -1.245  1.00  0.00     0.058 A 
ATOM     79  C   UNL     1       1.229 -14.435  -0.725  1.00  0.00     0.135 A 
ATOM     80  C   UNL     1       0.031 -12.372  -0.448  1.00  0.00     0.135 A 
ATOM     81  F   UNL     1       2.005 -15.254  -1.452  1.00  0.00    -0.206 F 
ATOM     82  C   UNL     1       0.794 -14.870   0.522  1.00  0.00     0.059 A 
ATOM     83  C   UNL     1      -0.397 -12.775   0.814  1.00  0.00     0.059 A 
ATOM     84  F   UNL     1      -0.348 -11.163  -0.890  1.00  0.00    -0.206 F 
ATOM     85  C   UNL     1      -0.024 -14.034   1.283  1.00  0.00     0.060 A 
BRANCH  85  86
ATOM     86  S   UNL     1      -0.569 -14.597   2.911  1.00  0.00     0.124 S 
ATOM     87  O   UNL     1      -1.612 -15.552   2.555  1.00  0.00    -0.237 OA
ATOM     88  O   UNL     1       0.655 -15.165   3.467  1.00  0.00    -0.237 OA
ATOM     89  O   UNL     1      -1.027 -13.368   3.552  1.00  0.00    -0.744 OA
ENDBRANCH  85  86
ENDBRANCH  53  78
BRANCH  65  90
ATOM     90  C   UNL     1      -0.701 -15.427  -7.668  1.00  0.00     0.058 A 
ATOM     91  C   UNL     1      -2.102 -15.384  -7.671  1.00  0.00     0.135 A 
ATOM     92  C   UNL     1      -0.074 -16.546  -8.240  1.00  0.00     0.135 A 
ATOM     93  F   UNL     1      -2.748 -14.339  -7.130  1.00  0.00    -0.206 F 
ATOM     94  C   UNL     1      -2.857 -16.416  -8.219  1.00  0.00     0.059 A 
ATOM     95  C   UNL     1      -0.808 -17.579  -8.813  1.00  0.00     0.059 A 
ATOM     96  F   UNL     1       1.266 -16.630  -8.268  1.00  0.00    -0.206 F 
ATOM     97  C   UNL     1      -2.200 -17.507  -8.793  1.00  0.00     0.060 A 
BRANCH  97  98
ATOM     98  S   UNL     1      -3.188 -18.811  -9.557  1.00  0.00     0.124 S 
ATOM     99  O   UNL     1      -3.689 -19.524  -8.387  1.00  0.00    -0.237 OA
ATOM    100  O   UNL     1      -4.182 -18.052 -10.310  1.00  0.00    -0.237 OA
ATOM    101  O   UNL     1      -2.219 -19.540 -10.370  1.00  0.00    -0.744 OA
ENDBRANCH  97  98
ENDBRANCH  65  90
ENDBRANCH  39  40
ENDBRANCH  31  34
ENDBRANCH  29  30
ENDBRANCH   1  29
TORSDOF 16
