REMARK SMILES Cc1ccc(C(c2ccccc2)(c2ccccc2)n2cnc(C[C@H]([NH3+])C(=O)NCCCCNC(=O)c3ccc(-c4c5nc(c(-c6c(F)cc(S(=O)(=O)[O-])cc6F)c6ccc([nH]6)c(-c6c(F)cc(S(=O)(=O)[O-])cc6F)c6nc(c(-c7c(F)cc(S(=O)(=O)[O-])cc7F)c7ccc4[nH]7)C=C6)C=C5)cc3)c2)cc1
REMARK SMILES IDX 30 1 29 2 28 3 26 4 27 5 24 7 23 8 22 9 19 10 20 11 102 12
REMARK SMILES IDX 21 13 6 14 5 15 1 16 2 17 3 18 104 19 4 20 103 21 7 22 8 23
REMARK SMILES IDX 12 24 9 25 11 26 10 27 13 28 14 29 18 30 15 31 17 32 16 33
REMARK SMILES IDX 25 34 31 38 32 39 33 40 34 41 35 43 36 44 37 45 101 46 38 47
REMARK SMILES IDX 100 48 39 49 40 50 41 51 94 52 42 53 99 54 93 55 95 56 43 57
REMARK SMILES IDX 98 58 92 59 91 60 44 62 78 63 57 64 77 65 58 66 61 67 76 68
REMARK SMILES IDX 96 69 59 70 60 71 75 73 97 74 62 75 45 76 46 77 55 78 47 79
REMARK SMILES IDX 48 80 54 81 56 82 49 83 50 84 51 85 52 86 53 87 79 88 80 89
REMARK SMILES IDX 89 90 81 91 82 92 88 93 90 94 83 95 84 96 85 97 86 98 87 99
REMARK SMILES IDX 63 100 64 101 73 102 65 103 66 104 72 105 74 106 67 107
REMARK SMILES IDX 68 108 69 109 70 110 71 111
REMARK H PARENT 28 6 25 35 25 36 25 37 33 42 95 61 61 72
REMARK Flexibility Score: inf
ROOT
ATOM      1  C   UNL     1      -4.463  -6.878   3.192  1.00  0.00     0.023 C 
ENDROOT
BRANCH   1   2
ATOM      2  C   UNL     1      -5.304  -7.026   1.916  1.00  0.00     0.116 C 
BRANCH   2   3
ATOM      3  N   UNL     1      -6.674  -6.569   2.086  1.00  0.00    -0.351 N 
ATOM      4  C   UNL     1      -7.358  -5.492   1.600  1.00  0.00     0.278 C 
ATOM      5  O   UNL     1      -8.492  -5.300   2.056  1.00  0.00    -0.268 OA
ATOM      6  H   UNL     1      -7.215  -7.152   2.666  1.00  0.00     0.163 HD
BRANCH   4   7
ATOM      7  C   UNL     1      -6.732  -4.506   0.589  1.00  0.00     0.276 C 
BRANCH   7   8
ATOM      8  C   UNL     1      -6.314  -5.152  -0.743  1.00  0.00     0.133 C 
BRANCH   8   9
ATOM      9  C   UNL     1      -7.454  -5.477  -1.646  1.00  0.00     0.065 A 
ATOM     10  N   UNL     1      -8.793  -5.706  -3.378  1.00  0.00    -0.319 N 
ATOM     11  C   UNL     1      -9.400  -6.148  -2.223  1.00  0.00     0.201 A 
ATOM     12  C   UNL     1      -7.515  -5.344  -3.015  1.00  0.00     0.112 A 
ATOM     13  N   UNL     1      -8.622  -6.007  -1.174  1.00  0.00    -0.241 NA
BRANCH  10  14
ATOM     14  C   UNL     1      -9.445  -5.594  -4.727  1.00  0.00     0.121 C 
BRANCH  14  15
ATOM     15  C   UNL     1      -9.546  -7.028  -5.388  1.00  0.00    -0.013 A 
ATOM     16  C   UNL     1      -9.960 -10.918  -7.298  1.00  0.00     0.044 C 
ATOM     17  C   UNL     1      -9.799  -9.567  -6.664  1.00  0.00    -0.051 A 
ATOM     18  C   UNL     1      -9.246  -9.459  -5.386  1.00  0.00     0.004 A 
ATOM     19  C   UNL     1     -10.196  -8.405  -7.325  1.00  0.00     0.004 A 
ATOM     20  C   UNL     1      -9.118  -8.212  -4.758  1.00  0.00     0.007 A 
ATOM     21  C   UNL     1     -10.059  -7.159  -6.705  1.00  0.00     0.007 A 
ENDBRANCH  14  15
BRANCH  14  22
ATOM     22  C   UNL     1     -10.891  -4.963  -4.483  1.00  0.00    -0.013 A 
ATOM     23  C   UNL     1     -11.061  -3.816  -3.670  1.00  0.00     0.007 A 
ATOM     24  C   UNL     1     -12.084  -5.550  -4.959  1.00  0.00     0.007 A 
ATOM     25  C   UNL     1     -12.316  -3.242  -3.435  1.00  0.00     0.000 A 
ATOM     26  C   UNL     1     -13.343  -4.984  -4.716  1.00  0.00     0.000 A 
ATOM     27  C   UNL     1     -13.458  -3.820  -3.970  1.00  0.00     0.000 A 
ENDBRANCH  14  22
BRANCH  14  28
ATOM     28  C   UNL     1      -8.511  -4.659  -5.630  1.00  0.00    -0.013 A 
ATOM     29  C   UNL     1      -7.567  -5.218  -6.528  1.00  0.00     0.007 A 
ATOM     30  C   UNL     1      -8.434  -3.260  -5.455  1.00  0.00     0.007 A 
ATOM     31  C   UNL     1      -6.634  -4.433  -7.215  1.00  0.00     0.000 A 
ATOM     32  C   UNL     1      -7.479  -2.478  -6.120  1.00  0.00     0.000 A 
ATOM     33  C   UNL     1      -6.582  -3.063  -7.002  1.00  0.00     0.000 A 
ENDBRANCH  14  28
ENDBRANCH  10  14
ENDBRANCH   8   9
ENDBRANCH   7   8
BRANCH   7  34
ATOM     34  N   UNL     1      -5.626  -3.753   1.246  1.00  0.00    -0.347 N 
ATOM     35  H   UNL     1      -4.892  -4.403   1.527  1.00  0.00     0.345 HD
ATOM     36  H   UNL     1      -5.986  -3.271   2.070  1.00  0.00     0.345 HD
ATOM     37  H   UNL     1      -5.244  -3.069   0.593  1.00  0.00     0.345 HD
ENDBRANCH   7  34
ENDBRANCH   4   7
ENDBRANCH   2   3
ENDBRANCH   1   2
BRANCH   1  38
ATOM     38  C   UNL     1      -5.007  -7.578   4.440  1.00  0.00     0.023 C 
BRANCH  38  39
ATOM     39  C   UNL     1      -5.162  -9.083   4.306  1.00  0.00     0.116 C 
BRANCH  39  40
ATOM     40  N   UNL     1      -3.962  -9.870   4.540  1.00  0.00    -0.352 N 
ATOM     41  C   UNL     1      -4.077 -11.223   4.888  1.00  0.00     0.251 C 
ATOM     42  H   UNL     1      -3.074  -9.455   4.454  1.00  0.00     0.163 HD
ATOM     43  O   UNL     1      -3.781 -11.690   5.956  1.00  0.00    -0.269 OA
BRANCH  41  44
ATOM     44  C   UNL     1      -4.670 -12.060   3.811  1.00  0.00     0.039 A 
ATOM     45  C   UNL     1      -3.856 -12.857   3.005  1.00  0.00     0.014 A 
ATOM     46  C   UNL     1      -6.008 -11.845   3.489  1.00  0.00     0.014 A 
ATOM     47  C   UNL     1      -4.355 -13.322   1.784  1.00  0.00     0.010 A 
ATOM     48  C   UNL     1      -6.461 -12.211   2.241  1.00  0.00     0.010 A 
ATOM     49  C   UNL     1      -5.631 -12.930   1.373  1.00  0.00    -0.014 A 
BRANCH  49  50
ATOM     50  C   UNL     1      -6.178 -13.136   0.035  1.00  0.00     0.031 A 
ATOM     51  C   UNL     1      -7.321 -14.056  -0.186  1.00  0.00     0.074 A 
ATOM     52  C   UNL     1      -5.769 -12.348  -0.984  1.00  0.00     0.049 A 
ATOM     53  N   UNL     1      -7.638 -14.546  -1.338  1.00  0.00    -0.248 NA
ATOM     54  C   UNL     1      -8.201 -14.509   0.887  1.00  0.00     0.031 C 
ATOM     55  C   UNL     1      -6.465 -12.117  -2.247  1.00  0.00     0.029 A 
ATOM     56  N   UNL     1      -4.535 -11.723  -1.152  1.00  0.00    -0.354 N 
ATOM     57  C   UNL     1      -8.889 -15.106  -1.224  1.00  0.00     0.074 A 
ATOM     58  C   UNL     1      -9.172 -15.112   0.193  1.00  0.00     0.031 C 
ATOM     59  C   UNL     1      -5.595 -11.634  -3.145  1.00  0.00     0.029 A 
ATOM     60  C   UNL     1      -4.279 -11.676  -2.536  1.00  0.00     0.049 A 
ATOM     61  H   UNL     1      -3.951 -11.379  -0.438  1.00  0.00     0.167 HD
ATOM     62  C   UNL     1      -9.619 -15.377  -2.343  1.00  0.00     0.037 A 
ATOM     63  C   UNL     1      -3.195 -12.308  -3.077  1.00  0.00     0.037 A 
ATOM     64  C   UNL     1      -8.892 -15.024  -3.559  1.00  0.00     0.049 A 
ATOM     65  C   UNL     1      -3.541 -13.390  -4.074  1.00  0.00     0.074 A 
ATOM     66  C   UNL     1      -8.943 -13.920  -4.396  1.00  0.00     0.029 A 
ATOM     67  N   UNL     1      -7.739 -15.720  -3.902  1.00  0.00    -0.354 N 
ATOM     68  N   UNL     1      -4.730 -13.910  -4.207  1.00  0.00    -0.248 NA
ATOM     69  C   UNL     1      -2.580 -13.975  -5.004  1.00  0.00     0.031 C 
ATOM     70  C   UNL     1      -7.805 -13.945  -5.236  1.00  0.00     0.029 A 
ATOM     71  C   UNL     1      -7.061 -15.066  -4.913  1.00  0.00     0.049 A 
ATOM     72  H   UNL     1      -7.446 -16.562  -3.484  1.00  0.00     0.167 HD
ATOM     73  C   UNL     1      -4.713 -14.885  -5.176  1.00  0.00     0.074 A 
ATOM     74  C   UNL     1      -3.348 -14.860  -5.666  1.00  0.00     0.031 C 
ATOM     75  C   UNL     1      -5.832 -15.617  -5.473  1.00  0.00     0.037 A 
BRANCH  62  76
ATOM     76  C   UNL     1     -11.099 -15.688  -2.300  1.00  0.00     0.058 A 
ATOM     77  C   UNL     1     -11.982 -15.196  -3.285  1.00  0.00     0.135 A 
ATOM     78  C   UNL     1     -11.713 -16.438  -1.276  1.00  0.00     0.135 A 
ATOM     79  F   UNL     1     -11.539 -14.541  -4.365  1.00  0.00    -0.206 F 
ATOM     80  C   UNL     1     -13.367 -15.336  -3.202  1.00  0.00     0.059 A 
ATOM     81  C   UNL     1     -13.102 -16.547  -1.141  1.00  0.00     0.059 A 
ATOM     82  F   UNL     1     -10.976 -17.112  -0.380  1.00  0.00    -0.206 F 
ATOM     83  C   UNL     1     -13.924 -15.980  -2.107  1.00  0.00     0.060 A 
BRANCH  83  84
ATOM     84  S   UNL     1     -15.720 -16.046  -1.965  1.00  0.00     0.124 S 
ATOM     85  O   UNL     1     -16.099 -14.651  -2.176  1.00  0.00    -0.237 OA
ATOM     86  O   UNL     1     -16.075 -16.968  -3.037  1.00  0.00    -0.237 OA
ATOM     87  O   UNL     1     -15.935 -16.544  -0.609  1.00  0.00    -0.744 OA
ENDBRANCH  83  84
ENDBRANCH  62  76
BRANCH  63  88
ATOM     88  C   UNL     1      -2.006 -12.271  -2.180  1.00  0.00     0.058 A 
ATOM     89  C   UNL     1      -1.417 -11.009  -1.963  1.00  0.00     0.135 A 
ATOM     90  C   UNL     1      -1.810 -13.255  -1.200  1.00  0.00     0.135 A 
ATOM     91  F   UNL     1      -1.549 -10.042  -2.885  1.00  0.00    -0.206 F 
ATOM     92  C   UNL     1      -0.849 -10.670  -0.740  1.00  0.00     0.059 A 
ATOM     93  C   UNL     1      -1.230 -12.939   0.031  1.00  0.00     0.059 A 
ATOM     94  F   UNL     1      -2.332 -14.480  -1.360  1.00  0.00    -0.206 F 
ATOM     95  C   UNL     1      -0.845 -11.619   0.280  1.00  0.00     0.060 A 
BRANCH  95  96
ATOM     96  S   UNL     1      -0.501 -11.052   1.965  1.00  0.00     0.124 S 
ATOM     97  O   UNL     1       0.733 -10.295   1.789  1.00  0.00    -0.237 OA
ATOM     98  O   UNL     1      -1.694 -10.255   2.267  1.00  0.00    -0.237 OA
ATOM     99  O   UNL     1      -0.377 -12.296   2.716  1.00  0.00    -0.744 OA
ENDBRANCH  95  96
ENDBRANCH  63  88
BRANCH  75 100
ATOM    100  C   UNL     1      -5.945 -16.839  -6.374  1.00  0.00     0.058 A 
ATOM    101  C   UNL     1      -4.876 -17.668  -6.750  1.00  0.00     0.135 A 
ATOM    102  C   UNL     1      -7.224 -17.291  -6.806  1.00  0.00     0.135 A 
ATOM    103  F   UNL     1      -3.627 -17.441  -6.324  1.00  0.00    -0.206 F 
ATOM    104  C   UNL     1      -5.045 -18.811  -7.541  1.00  0.00     0.059 A 
ATOM    105  C   UNL     1      -7.422 -18.457  -7.544  1.00  0.00     0.059 A 
ATOM    106  F   UNL     1      -8.348 -16.621  -6.513  1.00  0.00    -0.206 F 
ATOM    107  C   UNL     1      -6.321 -19.200  -7.932  1.00  0.00     0.060 A 
BRANCH 107 108
ATOM    108  S   UNL     1      -6.551 -20.712  -8.884  1.00  0.00     0.124 S 
ATOM    109  O   UNL     1      -6.407 -20.221 -10.251  1.00  0.00    -0.237 OA
ATOM    110  O   UNL     1      -5.466 -21.564  -8.402  1.00  0.00    -0.237 OA
ATOM    111  O   UNL     1      -7.892 -21.147  -8.505  1.00  0.00    -0.744 OA
ENDBRANCH 107 108
ENDBRANCH  75 100
ENDBRANCH  49  50
ENDBRANCH  41  44
ENDBRANCH  39  40
ENDBRANCH  38  39
ENDBRANCH   1  38
TORSDOF 21
