REMARK SMILES NS(=O)(=O)c1ccc(-n2nc(C(=O)NCCCC(=O)NCCCCNC(=O)c3ccc(-c4c5nc(c(-c6c(F)cc(S(=O)(=O)[O-])cc6F)c6ccc([nH]6)c(-c6c(F)cc(S(=O)(=O)[O-])cc6F)c6nc(c(-c7c(F)cc(S(=O)(=O)[O-])cc7F)c7ccc4[nH]7)C=C6)C=C5)cc3)cc2-c2ccccc2)cc1
REMARK SMILES IDX 18 1 19 2 20 3 17 5 16 6 15 7 14 8 12 9 13 10 11 12 9 13
REMARK SMILES IDX 10 14 95 15 94 16 8 17 5 18 6 19 103 20 7 21 102 22 2 23
REMARK SMILES IDX 3 24 4 25 1 26 96 29 97 30 101 31 98 32 100 33 99 34 21 35
REMARK SMILES IDX 22 36 23 37 24 38 25 39 26 40 27 42 28 43 29 44 93 45 30 46
REMARK SMILES IDX 92 47 31 48 32 49 33 50 86 51 34 52 91 53 85 54 87 55 35 56
REMARK SMILES IDX 90 57 84 58 83 59 36 61 70 62 49 63 69 64 50 65 53 66 68 67
REMARK SMILES IDX 88 68 51 69 52 70 67 72 89 73 54 74 37 75 38 76 47 77 39 78
REMARK SMILES IDX 40 79 46 80 48 81 41 82 42 83 43 84 44 85 45 86 71 87 72 88
REMARK SMILES IDX 81 89 73 90 74 91 80 92 82 93 75 94 76 95 77 96 78 97 79 98
REMARK SMILES IDX 55 99 56 100 65 101 57 102 58 103 64 104 66 105 59 106
REMARK SMILES IDX 60 107 61 108 62 109 63 110
REMARK H PARENT 20 4 14 11 1 27 1 28 25 41 87 60 53 71
REMARK Flexibility Score: inf
ROOT
ATOM      1  C   UNL     1       4.004  13.260   4.490  1.00  0.00     0.220 C 
ATOM      2  O   UNL     1       5.091  13.806   4.691  1.00  0.00    -0.275 OA
ATOM      3  N   UNL     1       3.484  12.481   5.477  1.00  0.00    -0.356 N 
ATOM      4  H   UNL     1       3.946  12.554   6.344  1.00  0.00     0.163 HD
ENDROOT
BRANCH   1   5
ATOM      5  C   UNL     1       3.277  13.452   3.174  1.00  0.00     0.102 C 
BRANCH   5   6
ATOM      6  C   UNL     1       3.836  12.600   2.032  1.00  0.00     0.031 C 
BRANCH   6   7
ATOM      7  C   UNL     1       3.364  11.150   2.013  1.00  0.00     0.116 C 
BRANCH   7   8
ATOM      8  N   UNL     1       1.923  11.005   1.970  1.00  0.00    -0.351 N 
ATOM      9  C   UNL     1       1.143   9.882   1.791  1.00  0.00     0.271 C 
ATOM     10  O   UNL     1      -0.076  10.053   1.739  1.00  0.00    -0.267 OA
ATOM     11  H   UNL     1       1.419  11.843   2.087  1.00  0.00     0.163 HD
BRANCH   9  12
ATOM     12  C   UNL     1       1.763   8.552   1.649  1.00  0.00     0.151 A 
ATOM     13  N   UNL     1       1.956   6.506   1.026  1.00  0.00    -0.232 N 
ATOM     14  N   UNL     1       1.198   7.613   0.864  1.00  0.00    -0.162 NA
ATOM     15  C   UNL     1       3.152   6.801   1.667  1.00  0.00     0.075 A 
ATOM     16  C   UNL     1       2.959   8.050   2.218  1.00  0.00     0.065 A 
BRANCH  13  17
ATOM     17  C   UNL     1       1.520   5.244   0.535  1.00  0.00     0.065 A 
ATOM     18  C   UNL     1       0.826   2.762  -0.526  1.00  0.00     0.082 A 
ATOM     19  C   UNL     1       1.589   2.822   0.640  1.00  0.00     0.024 A 
ATOM     20  C   UNL     1       0.356   3.933  -1.133  1.00  0.00     0.024 A 
ATOM     21  C   UNL     1       1.939   4.064   1.167  1.00  0.00     0.030 A 
ATOM     22  C   UNL     1       0.684   5.180  -0.588  1.00  0.00     0.030 A 
BRANCH  18  23
ATOM     23  S   UNL     1       0.460   1.213  -1.291  1.00  0.00     0.238 S 
ATOM     24  O   UNL     1       1.225   1.127  -2.522  1.00  0.00    -0.207 OA
ATOM     25  O   UNL     1      -0.958   0.985  -1.238  1.00  0.00    -0.207 OA
BRANCH  23  26
ATOM     26  N   UNL     1       1.143   0.059  -0.275  1.00  0.00    -0.225 NA
ATOM     27  H   UNL     1       0.971  -0.873  -0.655  1.00  0.00     0.137 HD
ATOM     28  H   UNL     1       0.723   0.131   0.652  1.00  0.00     0.137 HD
ENDBRANCH  23  26
ENDBRANCH  18  23
ENDBRANCH  13  17
BRANCH  15  29
ATOM     29  C   UNL     1       4.380   6.009   1.609  1.00  0.00     0.000 A 
ATOM     30  C   UNL     1       4.870   5.575   0.367  1.00  0.00     0.010 A 
ATOM     31  C   UNL     1       5.113   5.727   2.765  1.00  0.00     0.010 A 
ATOM     32  C   UNL     1       6.059   4.851   0.284  1.00  0.00     0.001 A 
ATOM     33  C   UNL     1       6.305   5.002   2.681  1.00  0.00     0.001 A 
ATOM     34  C   UNL     1       6.775   4.563   1.443  1.00  0.00     0.000 A 
ENDBRANCH  15  29
ENDBRANCH   9  12
ENDBRANCH   7   8
ENDBRANCH   6   7
ENDBRANCH   5   6
ENDBRANCH   1   5
BRANCH   3  35
ATOM     35  C   UNL     1       2.360  11.560   5.467  1.00  0.00     0.116 C 
BRANCH  35  36
ATOM     36  C   UNL     1       2.848  10.105   5.502  1.00  0.00     0.023 C 
BRANCH  36  37
ATOM     37  C   UNL     1       3.314   9.591   6.869  1.00  0.00     0.023 C 
BRANCH  37  38
ATOM     38  C   UNL     1       2.185   9.288   7.844  1.00  0.00     0.116 C 
BRANCH  38  39
ATOM     39  N   UNL     1       1.321   8.198   7.390  1.00  0.00    -0.352 N 
ATOM     40  C   UNL     1       0.062   7.873   7.857  1.00  0.00     0.251 C 
ATOM     41  H   UNL     1       1.679   7.630   6.669  1.00  0.00     0.163 HD
ATOM     42  O   UNL     1      -0.409   6.755   7.689  1.00  0.00    -0.269 OA
BRANCH  40  43
ATOM     43  C   UNL     1      -0.692   8.913   8.573  1.00  0.00     0.039 A 
ATOM     44  C   UNL     1      -1.232   8.673   9.840  1.00  0.00     0.014 A 
ATOM     45  C   UNL     1      -0.732  10.179   7.997  1.00  0.00     0.014 A 
ATOM     46  C   UNL     1      -1.724   9.748  10.578  1.00  0.00     0.010 A 
ATOM     47  C   UNL     1      -1.097  11.250   8.776  1.00  0.00     0.010 A 
ATOM     48  C   UNL     1      -1.626  11.045  10.055  1.00  0.00    -0.014 A 
BRANCH  48  49
ATOM     49  C   UNL     1      -1.962  12.216  10.871  1.00  0.00     0.031 A 
ATOM     50  C   UNL     1      -1.228  12.371  12.166  1.00  0.00     0.074 A 
ATOM     51  C   UNL     1      -2.661  13.249  10.352  1.00  0.00     0.049 A 
ATOM     52  N   UNL     1      -1.720  12.523  13.354  1.00  0.00    -0.248 NA
ATOM     53  C   UNL     1       0.241  12.281  12.150  1.00  0.00     0.031 C 
ATOM     54  C   UNL     1      -3.196  13.379   8.990  1.00  0.00     0.029 A 
ATOM     55  N   UNL     1      -2.896  14.479  10.884  1.00  0.00    -0.354 N 
ATOM     56  C   UNL     1      -0.638  12.745  14.209  1.00  0.00     0.074 A 
ATOM     57  C   UNL     1       0.540  12.429  13.443  1.00  0.00     0.031 C 
ATOM     58  C   UNL     1      -3.437  14.678   8.726  1.00  0.00     0.029 A 
ATOM     59  C   UNL     1      -3.241  15.442   9.943  1.00  0.00     0.049 A 
ATOM     60  H   UNL     1      -2.829  14.670  11.847  1.00  0.00     0.167 HD
ATOM     61  C   UNL     1      -0.784  13.362  15.418  1.00  0.00     0.037 A 
ATOM     62  C   UNL     1      -3.317  16.782  10.131  1.00  0.00     0.037 A 
ATOM     63  C   UNL     1      -2.168  13.398  15.820  1.00  0.00     0.049 A 
ATOM     64  C   UNL     1      -3.494  17.003  11.589  1.00  0.00     0.074 A 
ATOM     65  C   UNL     1      -3.140  12.442  16.046  1.00  0.00     0.029 A 
ATOM     66  N   UNL     1      -2.843  14.590  15.711  1.00  0.00    -0.354 N 
ATOM     67  N   UNL     1      -4.553  16.628  12.256  1.00  0.00    -0.248 NA
ATOM     68  C   UNL     1      -2.311  17.250  12.399  1.00  0.00     0.031 C 
ATOM     69  C   UNL     1      -4.347  13.022  15.556  1.00  0.00     0.029 A 
ATOM     70  C   UNL     1      -4.049  14.314  15.119  1.00  0.00     0.049 A 
ATOM     71  H   UNL     1      -2.522  15.474  16.002  1.00  0.00     0.167 HD
ATOM     72  C   UNL     1      -4.066  16.175  13.473  1.00  0.00     0.074 A 
ATOM     73  C   UNL     1      -2.702  16.694  13.549  1.00  0.00     0.031 C 
ATOM     74  C   UNL     1      -4.706  15.189  14.172  1.00  0.00     0.037 A 
BRANCH  61  75
ATOM     75  C   UNL     1       0.257  14.237  16.093  1.00  0.00     0.058 A 
ATOM     76  C   UNL     1       0.013  14.723  17.399  1.00  0.00     0.135 A 
ATOM     77  C   UNL     1       1.328  14.857  15.414  1.00  0.00     0.135 A 
ATOM     78  F   UNL     1      -0.968  14.199  18.152  1.00  0.00    -0.206 F 
ATOM     79  C   UNL     1       0.700  15.813  17.938  1.00  0.00     0.059 A 
ATOM     80  C   UNL     1       2.063  15.908  15.955  1.00  0.00     0.059 A 
ATOM     81  F   UNL     1       1.652  14.545  14.154  1.00  0.00    -0.206 F 
ATOM     82  C   UNL     1       1.705  16.418  17.192  1.00  0.00     0.060 A 
BRANCH  82  83
ATOM     83  S   UNL     1       2.481  17.924  17.804  1.00  0.00     0.124 S 
ATOM     84  O   UNL     1       1.397  18.888  17.648  1.00  0.00    -0.237 OA
ATOM     85  O   UNL     1       2.822  17.559  19.174  1.00  0.00    -0.237 OA
ATOM     86  O   UNL     1       3.619  18.102  16.906  1.00  0.00    -0.744 OA
ENDBRANCH  82  83
ENDBRANCH  61  75
BRANCH  62  87
ATOM     87  C   UNL     1      -2.982  17.855   9.159  1.00  0.00     0.058 A 
ATOM     88  C   UNL     1      -3.332  19.194   9.399  1.00  0.00     0.135 A 
ATOM     89  C   UNL     1      -2.091  17.631   8.086  1.00  0.00     0.135 A 
ATOM     90  F   UNL     1      -4.154  19.505  10.412  1.00  0.00    -0.206 F 
ATOM     91  C   UNL     1      -2.798  20.251   8.652  1.00  0.00     0.059 A 
ATOM     92  C   UNL     1      -1.563  18.665   7.316  1.00  0.00     0.059 A 
ATOM     93  F   UNL     1      -1.629  16.403   7.807  1.00  0.00    -0.206 F 
ATOM     94  C   UNL     1      -1.898  19.976   7.622  1.00  0.00     0.060 A 
BRANCH  94  95
ATOM     95  S   UNL     1      -1.059  21.338   6.779  1.00  0.00     0.124 S 
ATOM     96  O   UNL     1      -2.141  21.919   5.992  1.00  0.00    -0.237 OA
ATOM     97  O   UNL     1      -0.579  22.143   7.898  1.00  0.00    -0.237 OA
ATOM     98  O   UNL     1      -0.016  20.667   6.007  1.00  0.00    -0.744 OA
ENDBRANCH  94  95
ENDBRANCH  62  87
BRANCH  74  99
ATOM     99  C   UNL     1      -6.100  14.796  13.750  1.00  0.00     0.058 A 
ATOM    100  C   UNL     1      -6.413  14.220  12.505  1.00  0.00     0.135 A 
ATOM    101  C   UNL     1      -7.128  14.840  14.703  1.00  0.00     0.135 A 
ATOM    102  F   UNL     1      -5.470  14.029  11.577  1.00  0.00    -0.206 F 
ATOM    103  C   UNL     1      -7.692  13.754  12.204  1.00  0.00     0.059 A 
ATOM    104  C   UNL     1      -8.406  14.350  14.437  1.00  0.00     0.059 A 
ATOM    105  F   UNL     1      -6.881  15.312  15.937  1.00  0.00    -0.206 F 
ATOM    106  C   UNL     1      -8.684  13.821  13.179  1.00  0.00     0.060 A 
BRANCH 106 107
ATOM    107  S   UNL     1     -10.313  13.131  12.816  1.00  0.00     0.124 S 
ATOM    108  O   UNL     1     -10.881  14.140  11.928  1.00  0.00    -0.237 OA
ATOM    109  O   UNL     1      -9.987  11.850  12.195  1.00  0.00    -0.237 OA
ATOM    110  O   UNL     1     -10.940  13.031  14.132  1.00  0.00    -0.744 OA
ENDBRANCH 106 107
ENDBRANCH  74  99
ENDBRANCH  48  49
ENDBRANCH  40  43
ENDBRANCH  38  39
ENDBRANCH  37  38
ENDBRANCH  36  37
ENDBRANCH  35  36
ENDBRANCH   3  35
TORSDOF 22
