REMARK SMILES O=C(NCCCCNC(=O)[C@H]1C=C[C@H](NS(=O)(=O)c2ccc3c(c2)CCO3)C1)c1ccc(-c2c3nc(c(-c4c(F)cc(S(=O)(=O)[O-])cc4F)c4ccc([nH]4)c(-c4c(F)cc(S(=O)(=O)[O-])cc4F)c4nc(c(-c5c(F)cc(S(=O)(=O)[O-])cc5F)c5ccc2[nH]5)C=C4)C=C3)cc1
REMARK SMILES IDX 5 1 4 2 3 3 1 4 2 5 29 7 30 8 94 9 31 10 93 11 32 12 33 13
REMARK SMILES IDX 34 14 87 15 35 16 92 17 86 18 88 19 36 20 91 21 85 22 84 23
REMARK SMILES IDX 37 25 71 26 50 27 70 28 51 29 54 30 69 31 89 32 52 33 53 34
REMARK SMILES IDX 68 36 90 37 55 38 38 39 39 40 48 41 40 42 41 43 47 44 49 45
REMARK SMILES IDX 42 46 43 47 44 48 45 49 46 50 72 51 73 52 82 53 74 54 75 55
REMARK SMILES IDX 81 56 83 57 76 58 77 59 78 60 79 61 80 62 56 63 57 64 66 65
REMARK SMILES IDX 58 66 59 67 65 68 67 69 60 70 61 71 62 72 63 73 64 74 6 75
REMARK SMILES IDX 7 76 8 77 9 78 10 80 11 81 12 82 28 83 13 84 14 85 15 86
REMARK SMILES IDX 16 88 17 89 18 90 19 91 20 92 24 93 21 94 23 95 22 96 25 97
REMARK SMILES IDX 27 98 26 99
REMARK H PARENT 3 6 88 24 54 35 8 79 15 87
REMARK Flexibility Score: inf
ROOT
ATOM      1  C   UNL     1       4.888   1.658  -1.959  1.00  0.00     0.023 C 
ENDROOT
BRANCH   1   2
ATOM      2  C   UNL     1       4.522   1.166  -0.566  1.00  0.00     0.116 C 
BRANCH   2   3
ATOM      3  N   UNL     1       3.083   1.095  -0.346  1.00  0.00    -0.352 N 
ATOM      4  O   UNL     1       1.082   0.090  -0.047  1.00  0.00    -0.269 OA
ATOM      5  C   UNL     1       2.305  -0.001  -0.049  1.00  0.00     0.251 C 
ATOM      6  H   UNL     1       2.600   1.950  -0.421  1.00  0.00     0.163 HD
BRANCH   5   7
ATOM      7  C   UNL     1       2.963  -1.292   0.238  1.00  0.00     0.039 A 
ATOM      8  C   UNL     1       4.066  -1.337   1.093  1.00  0.00     0.014 A 
ATOM      9  C   UNL     1       2.506  -2.456  -0.385  1.00  0.00     0.014 A 
ATOM     10  C   UNL     1       4.818  -2.498   1.180  1.00  0.00     0.010 A 
ATOM     11  C   UNL     1       3.200  -3.656  -0.200  1.00  0.00     0.010 A 
ATOM     12  C   UNL     1       4.381  -3.679   0.558  1.00  0.00    -0.014 A 
BRANCH  12  13
ATOM     13  C   UNL     1       5.137  -4.936   0.797  1.00  0.00     0.031 A 
ATOM     14  C   UNL     1       5.801  -5.684  -0.326  1.00  0.00     0.074 A 
ATOM     15  C   UNL     1       5.243  -5.378   2.066  1.00  0.00     0.049 A 
ATOM     16  N   UNL     1       6.507  -6.784  -0.273  1.00  0.00    -0.248 NA
ATOM     17  C   UNL     1       5.650  -5.136  -1.684  1.00  0.00     0.031 C 
ATOM     18  C   UNL     1       4.628  -4.737   3.233  1.00  0.00     0.029 A 
ATOM     19  N   UNL     1       5.914  -6.448   2.596  1.00  0.00    -0.354 N 
ATOM     20  C   UNL     1       6.873  -7.072  -1.583  1.00  0.00     0.074 A 
ATOM     21  C   UNL     1       6.286  -6.043  -2.415  1.00  0.00     0.031 C 
ATOM     22  C   UNL     1       4.992  -5.394   4.342  1.00  0.00     0.029 A 
ATOM     23  C   UNL     1       5.796  -6.547   3.962  1.00  0.00     0.049 A 
ATOM     24  H   UNL     1       6.431  -7.085   2.051  1.00  0.00     0.167 HD
ATOM     25  C   UNL     1       7.632  -8.097  -2.042  1.00  0.00     0.037 A 
ATOM     26  C   UNL     1       6.256  -7.478   4.817  1.00  0.00     0.037 A 
ATOM     27  C   UNL     1       8.215  -9.111  -1.197  1.00  0.00     0.049 A 
ATOM     28  C   UNL     1       7.063  -8.621   4.274  1.00  0.00     0.074 A 
ATOM     29  C   UNL     1       9.026 -10.172  -1.562  1.00  0.00     0.029 A 
ATOM     30  N   UNL     1       8.044  -9.197   0.178  1.00  0.00    -0.354 N 
ATOM     31  N   UNL     1       7.426  -8.857   3.036  1.00  0.00    -0.248 NA
ATOM     32  C   UNL     1       7.520  -9.626   5.241  1.00  0.00     0.031 C 
ATOM     33  C   UNL     1       9.298 -10.931  -0.418  1.00  0.00     0.029 A 
ATOM     34  C   UNL     1       8.711 -10.309   0.671  1.00  0.00     0.049 A 
ATOM     35  H   UNL     1       7.526  -8.562   0.724  1.00  0.00     0.167 HD
ATOM     36  C   UNL     1       8.172 -10.028   3.078  1.00  0.00     0.074 A 
ATOM     37  C   UNL     1       8.226 -10.438   4.467  1.00  0.00     0.031 C 
ATOM     38  C   UNL     1       8.756 -10.704   2.058  1.00  0.00     0.037 A 
BRANCH  25  39
ATOM     39  C   UNL     1       7.869  -8.194  -3.527  1.00  0.00     0.058 A 
ATOM     40  C   UNL     1       8.696  -7.287  -4.208  1.00  0.00     0.135 A 
ATOM     41  C   UNL     1       7.312  -9.250  -4.269  1.00  0.00     0.135 A 
ATOM     42  F   UNL     1       9.246  -6.250  -3.555  1.00  0.00    -0.206 F 
ATOM     43  C   UNL     1       8.947  -7.410  -5.572  1.00  0.00     0.059 A 
ATOM     44  C   UNL     1       7.571  -9.409  -5.628  1.00  0.00     0.059 A 
ATOM     45  F   UNL     1       6.514 -10.148  -3.671  1.00  0.00    -0.206 F 
ATOM     46  C   UNL     1       8.381  -8.477  -6.274  1.00  0.00     0.060 A 
BRANCH  46  47
ATOM     47  S   UNL     1       8.728  -8.628  -8.039  1.00  0.00     0.124 S 
ATOM     48  O   UNL     1       7.970  -7.505  -8.582  1.00  0.00    -0.237 OA
ATOM     49  O   UNL     1      10.180  -8.491  -8.084  1.00  0.00    -0.237 OA
ATOM     50  O   UNL     1       8.215  -9.951  -8.377  1.00  0.00    -0.744 OA
ENDBRANCH  46  47
ENDBRANCH  25  39
BRANCH  26  51
ATOM     51  C   UNL     1       5.941  -7.371   6.266  1.00  0.00     0.058 A 
ATOM     52  C   UNL     1       6.945  -7.114   7.210  1.00  0.00     0.135 A 
ATOM     53  C   UNL     1       4.623  -7.505   6.732  1.00  0.00     0.135 A 
ATOM     54  F   UNL     1       8.220  -6.979   6.814  1.00  0.00    -0.206 F 
ATOM     55  C   UNL     1       6.658  -7.015   8.567  1.00  0.00     0.059 A 
ATOM     56  C   UNL     1       4.306  -7.376   8.079  1.00  0.00     0.059 A 
ATOM     57  F   UNL     1       3.622  -7.729   5.866  1.00  0.00    -0.206 F 
ATOM     58  C   UNL     1       5.334  -7.146   8.991  1.00  0.00     0.060 A 
BRANCH  58  59
ATOM     59  S   UNL     1       4.968  -6.982  10.751  1.00  0.00     0.124 S 
ATOM     60  O   UNL     1       5.507  -8.229  11.279  1.00  0.00    -0.237 OA
ATOM     61  O   UNL     1       5.700  -5.769  11.104  1.00  0.00    -0.237 OA
ATOM     62  O   UNL     1       3.514  -6.858  10.781  1.00  0.00    -0.744 OA
ENDBRANCH  58  59
ENDBRANCH  26  51
BRANCH  38  63
ATOM     63  C   UNL     1       9.532 -11.943   2.414  1.00  0.00     0.058 A 
ATOM     64  C   UNL     1       8.894 -13.119   2.839  1.00  0.00     0.135 A 
ATOM     65  C   UNL     1      10.931 -11.960   2.300  1.00  0.00     0.135 A 
ATOM     66  F   UNL     1       7.559 -13.153   2.975  1.00  0.00    -0.206 F 
ATOM     67  C   UNL     1       9.619 -14.260   3.169  1.00  0.00     0.059 A 
ATOM     68  C   UNL     1      11.673 -13.100   2.593  1.00  0.00     0.059 A 
ATOM     69  F   UNL     1      11.591 -10.865   1.891  1.00  0.00    -0.206 F 
ATOM     70  C   UNL     1      11.009 -14.241   3.040  1.00  0.00     0.060 A 
BRANCH  70  71
ATOM     71  S   UNL     1      11.934 -15.736   3.446  1.00  0.00     0.124 S 
ATOM     72  O   UNL     1      11.836 -15.756   4.902  1.00  0.00    -0.237 OA
ATOM     73  O   UNL     1      11.179 -16.770   2.745  1.00  0.00    -0.237 OA
ATOM     74  O   UNL     1      13.266 -15.468   2.911  1.00  0.00    -0.744 OA
ENDBRANCH  70  71
ENDBRANCH  38  63
ENDBRANCH  12  13
ENDBRANCH   5   7
ENDBRANCH   2   3
ENDBRANCH   1   2
BRANCH   1  75
ATOM     75  C   UNL     1       4.399   3.063  -2.288  1.00  0.00     0.023 C 
BRANCH  75  76
ATOM     76  C   UNL     1       4.809   4.125  -1.280  1.00  0.00     0.116 C 
BRANCH  76  77
ATOM     77  N   UNL     1       6.241   4.367  -1.264  1.00  0.00    -0.356 N 
ATOM     78  C   UNL     1       6.880   5.572  -1.112  1.00  0.00     0.226 C 
ATOM     79  H   UNL     1       6.818   3.577  -1.375  1.00  0.00     0.163 HD
ATOM     80  O   UNL     1       8.107   5.598  -1.052  1.00  0.00    -0.274 OA
BRANCH  78  81
ATOM     81  C   UNL     1       6.007   6.822  -1.033  1.00  0.00     0.103 C 
ATOM     82  C   UNL     1       5.310   6.883   0.296  1.00  0.00    -0.016 C 
ATOM     83  C   UNL     1       6.782   8.147  -1.047  1.00  0.00     0.042 C 
ATOM     84  C   UNL     1       5.324   8.117   0.802  1.00  0.00    -0.011 C 
ATOM     85  C   UNL     1       6.016   9.080  -0.094  1.00  0.00     0.093 C 
BRANCH  85  86
ATOM     86  N   UNL     1       5.038   9.873  -0.851  1.00  0.00    -0.204 NA
ATOM     87  H   UNL     1       4.415   9.212  -1.315  1.00  0.00     0.142 HD
BRANCH  86  88
ATOM     88  S   UNL     1       4.058  10.983  -0.040  1.00  0.00     0.241 S 
ATOM     89  O   UNL     1       3.446  11.811  -1.057  1.00  0.00    -0.207 OA
ATOM     90  O   UNL     1       3.245  10.268   0.917  1.00  0.00    -0.207 OA
BRANCH  88  91
ATOM     91  C   UNL     1       5.241  11.965   0.839  1.00  0.00     0.083 A 
ATOM     92  C   UNL     1       5.487  11.692   2.201  1.00  0.00     0.025 A 
ATOM     93  C   UNL     1       5.934  12.968   0.155  1.00  0.00     0.029 A 
ATOM     94  C   UNL     1       6.473  12.402   2.886  1.00  0.00     0.048 A 
ATOM     95  C   UNL     1       6.909  13.653   0.855  1.00  0.00    -0.001 A 
ATOM     96  C   UNL     1       7.172  13.365   2.188  1.00  0.00     0.122 A 
ATOM     97  C   UNL     1       7.766  14.778   0.423  1.00  0.00     0.081 C 
ATOM     98  O   UNL     1       8.171  14.134   2.725  1.00  0.00    -0.493 OA
ATOM     99  C   UNL     1       8.780  14.753   1.567  1.00  0.00     0.234 C 
ENDBRANCH  88  91
ENDBRANCH  86  88
ENDBRANCH  85  86
ENDBRANCH  78  81
ENDBRANCH  76  77
ENDBRANCH  75  76
ENDBRANCH   1  75
TORSDOF 17
