REMARK SMILES C[C@@H](OCC(F)(F)F)C(=O)NCCCCNC(=O)c1ccc(-c2c3nc(c(-c4c(F)cc(S(=O)(=O)[O-])cc4F)c4ccc([nH]4)c(-c4c(F)cc(S(=O)(=O)[O-])cc4F)c4nc(c(-c5c(F)cc(S(=O)(=O)[O-])cc5F)c5ccc2[nH]5)C=C4)C=C3)cc1
REMARK SMILES IDX 13 1 12 2 11 3 9 4 10 5 2 7 1 8 3 9 4 10 5 11 6 12 7 13 8 14
REMARK SMILES IDX 14 15 15 16 16 17 17 18 18 20 19 21 20 22 84 23 21 24 83 25
REMARK SMILES IDX 22 26 23 27 24 28 77 29 25 30 82 31 76 32 78 33 26 34 81 35
REMARK SMILES IDX 75 36 74 37 27 39 61 40 40 41 60 42 41 43 44 44 59 45 79 46
REMARK SMILES IDX 42 47 43 48 58 50 80 51 45 52 28 53 29 54 38 55 30 56 31 57
REMARK SMILES IDX 37 58 39 59 32 60 33 61 34 62 35 63 36 64 62 65 63 66 72 67
REMARK SMILES IDX 64 68 65 69 71 70 73 71 66 72 67 73 68 74 69 75 70 76 46 77
REMARK SMILES IDX 47 78 56 79 48 80 49 81 55 82 57 83 50 84 51 85 52 86 53 87
REMARK SMILES IDX 54 88
REMARK H PARENT 11 6 16 19 78 38 44 49
REMARK Flexibility Score: inf
ROOT
ATOM      1  C   UNL     1      -1.245   1.657   1.908  1.00  0.00     0.023 C 
ENDROOT
BRANCH   1   2
ATOM      2  C   UNL     1      -0.973   0.190   2.236  1.00  0.00     0.116 C 
BRANCH   2   3
ATOM      3  N   UNL     1      -1.554  -0.697   1.246  1.00  0.00    -0.354 N 
ATOM      4  C   UNL     1      -0.940  -1.479   0.310  1.00  0.00     0.248 C 
ATOM      5  O   UNL     1      -1.651  -2.139  -0.452  1.00  0.00    -0.272 OA
ATOM      6  H   UNL     1      -2.537  -0.741   1.249  1.00  0.00     0.163 HD
BRANCH   4   7
ATOM      7  C   UNL     1       0.596  -1.508   0.180  1.00  0.00     0.204 C 
ATOM      8  C   UNL     1       1.100  -0.192  -0.406  1.00  0.00     0.049 C 
BRANCH   7   9
ATOM      9  O   UNL     1       1.186  -1.835   1.439  1.00  0.00    -0.359 OA
BRANCH   9  10
ATOM     10  C   UNL     1       2.612  -1.975   1.466  1.00  0.00     0.276 C 
BRANCH  10  11
ATOM     11  C   UNL     1       3.225  -3.025   0.542  1.00  0.00     0.411 C 
ATOM     12  F   UNL     1       3.137  -2.659  -0.756  1.00  0.00    -0.168 F 
ATOM     13  F   UNL     1       4.542  -3.181   0.821  1.00  0.00    -0.168 F 
ATOM     14  F   UNL     1       2.636  -4.230   0.679  1.00  0.00    -0.168 F 
ENDBRANCH  10  11
ENDBRANCH   9  10
ENDBRANCH   7   9
ENDBRANCH   4   7
ENDBRANCH   2   3
ENDBRANCH   1   2
BRANCH   1  15
ATOM     15  C   UNL     1      -2.716   2.070   1.986  1.00  0.00     0.023 C 
BRANCH  15  16
ATOM     16  C   UNL     1      -3.397   1.810   3.326  1.00  0.00     0.116 C 
BRANCH  16  17
ATOM     17  N   UNL     1      -2.744   2.485   4.437  1.00  0.00    -0.352 N 
ATOM     18  C   UNL     1      -3.312   3.167   5.487  1.00  0.00     0.251 C 
ATOM     19  H   UNL     1      -1.760   2.449   4.437  1.00  0.00     0.163 HD
ATOM     20  O   UNL     1      -2.600   3.786   6.273  1.00  0.00    -0.269 OA
BRANCH  18  21
ATOM     21  C   UNL     1      -4.783   3.179   5.643  1.00  0.00     0.039 A 
ATOM     22  C   UNL     1      -5.427   4.396   5.875  1.00  0.00     0.014 A 
ATOM     23  C   UNL     1      -5.525   1.998   5.539  1.00  0.00     0.014 A 
ATOM     24  C   UNL     1      -6.822   4.441   5.931  1.00  0.00     0.010 A 
ATOM     25  C   UNL     1      -6.916   2.055   5.527  1.00  0.00     0.010 A 
ATOM     26  C   UNL     1      -7.579   3.276   5.719  1.00  0.00    -0.014 A 
BRANCH  26  27
ATOM     27  C   UNL     1      -9.064   3.317   5.685  1.00  0.00     0.031 A 
ATOM     28  C   UNL     1      -9.865   2.577   6.720  1.00  0.00     0.074 A 
ATOM     29  C   UNL     1      -9.690   3.962   4.680  1.00  0.00     0.049 A 
ATOM     30  N   UNL     1     -11.161   2.429   6.811  1.00  0.00    -0.248 NA
ATOM     31  C   UNL     1      -9.107   1.890   7.778  1.00  0.00     0.031 C 
ATOM     32  C   UNL     1      -9.023   4.672   3.586  1.00  0.00     0.029 A 
ATOM     33  N   UNL     1     -11.026   4.113   4.406  1.00  0.00    -0.354 N 
ATOM     34  C   UNL     1     -11.374   1.624   7.924  1.00  0.00     0.074 A 
ATOM     35  C   UNL     1     -10.071   1.272   8.445  1.00  0.00     0.031 C 
ATOM     36  C   UNL     1      -9.953   5.194   2.769  1.00  0.00     0.029 A 
ATOM     37  C   UNL     1     -11.278   4.829   3.260  1.00  0.00     0.049 A 
ATOM     38  H   UNL     1     -11.738   3.743   4.977  1.00  0.00     0.167 HD
ATOM     39  C   UNL     1     -12.548   1.233   8.476  1.00  0.00     0.037 A 
ATOM     40  C   UNL     1     -12.444   5.148   2.665  1.00  0.00     0.037 A 
ATOM     41  C   UNL     1     -13.842   1.605   7.966  1.00  0.00     0.049 A 
ATOM     42  C   UNL     1     -13.736   4.711   3.300  1.00  0.00     0.074 A 
ATOM     43  C   UNL     1     -15.090   1.303   8.483  1.00  0.00     0.029 A 
ATOM     44  N   UNL     1     -14.056   2.359   6.821  1.00  0.00    -0.354 N 
ATOM     45  N   UNL     1     -13.919   4.000   4.387  1.00  0.00    -0.248 NA
ATOM     46  C   UNL     1     -14.979   5.125   2.634  1.00  0.00     0.031 C 
ATOM     47  C   UNL     1     -16.059   1.845   7.631  1.00  0.00     0.029 A 
ATOM     48  C   UNL     1     -15.415   2.522   6.608  1.00  0.00     0.049 A 
ATOM     49  H   UNL     1     -13.347   2.726   6.245  1.00  0.00     0.167 HD
ATOM     50  C   UNL     1     -15.297   3.902   4.549  1.00  0.00     0.074 A 
ATOM     51  C   UNL     1     -15.899   4.636   3.455  1.00  0.00     0.031 C 
ATOM     52  C   UNL     1     -15.999   3.261   5.516  1.00  0.00     0.037 A 
BRANCH  39  53
ATOM     53  C   UNL     1     -12.483   0.365   9.702  1.00  0.00     0.058 A 
ATOM     54  C   UNL     1     -12.047   0.870  10.938  1.00  0.00     0.135 A 
ATOM     55  C   UNL     1     -12.881  -0.981   9.650  1.00  0.00     0.135 A 
ATOM     56  F   UNL     1     -11.640   2.146  11.041  1.00  0.00    -0.206 F 
ATOM     57  C   UNL     1     -11.976   0.065  12.069  1.00  0.00     0.059 A 
ATOM     58  C   UNL     1     -12.845  -1.798  10.777  1.00  0.00     0.059 A 
ATOM     59  F   UNL     1     -13.307  -1.516   8.495  1.00  0.00    -0.206 F 
ATOM     60  C   UNL     1     -12.374  -1.269  11.978  1.00  0.00     0.060 A 
BRANCH  60  61
ATOM     61  S   UNL     1     -12.270  -2.303  13.455  1.00  0.00     0.124 S 
ATOM     62  O   UNL     1     -10.831  -2.524  13.553  1.00  0.00    -0.237 OA
ATOM     63  O   UNL     1     -12.850  -1.442  14.481  1.00  0.00    -0.237 OA
ATOM     64  O   UNL     1     -13.063  -3.477  13.105  1.00  0.00    -0.744 OA
ENDBRANCH  60  61
ENDBRANCH  39  53
BRANCH  40  65
ATOM     65  C   UNL     1     -12.441   5.943   1.408  1.00  0.00     0.058 A 
ATOM     66  C   UNL     1     -12.859   7.282   1.400  1.00  0.00     0.135 A 
ATOM     67  C   UNL     1     -11.999   5.389   0.197  1.00  0.00     0.135 A 
ATOM     68  F   UNL     1     -13.296   7.854   2.532  1.00  0.00    -0.206 F 
ATOM     69  C   UNL     1     -12.852   8.040   0.234  1.00  0.00     0.059 A 
ATOM     70  C   UNL     1     -11.960   6.134  -0.977  1.00  0.00     0.059 A 
ATOM     71  F   UNL     1     -11.571   4.117   0.155  1.00  0.00    -0.206 F 
ATOM     72  C   UNL     1     -12.398   7.458  -0.950  1.00  0.00     0.060 A 
BRANCH  72  73
ATOM     73  S   UNL     1     -12.338   8.468  -2.446  1.00  0.00     0.124 S 
ATOM     74  O   UNL     1     -13.750   8.547  -2.803  1.00  0.00    -0.237 OA
ATOM     75  O   UNL     1     -11.733   9.704  -1.958  1.00  0.00    -0.237 OA
ATOM     76  O   UNL     1     -11.500   7.683  -3.347  1.00  0.00    -0.744 OA
ENDBRANCH  72  73
ENDBRANCH  40  65
BRANCH  52  77
ATOM     77  C   UNL     1     -17.499   3.350   5.456  1.00  0.00     0.058 A 
ATOM     78  C   UNL     1     -18.242   2.635   4.505  1.00  0.00     0.135 A 
ATOM     79  C   UNL     1     -18.203   4.120   6.396  1.00  0.00     0.135 A 
ATOM     80  F   UNL     1     -17.617   1.889   3.580  1.00  0.00    -0.206 F 
ATOM     81  C   UNL     1     -19.632   2.696   4.475  1.00  0.00     0.059 A 
ATOM     82  C   UNL     1     -19.593   4.175   6.401  1.00  0.00     0.059 A 
ATOM     83  F   UNL     1     -17.539   4.816   7.333  1.00  0.00    -0.206 F 
ATOM     84  C   UNL     1     -20.298   3.468   5.429  1.00  0.00     0.060 A 
BRANCH  84  85
ATOM     85  S   UNL     1     -22.103   3.510   5.402  1.00  0.00     0.124 S 
ATOM     86  O   UNL     1     -22.360   4.378   4.258  1.00  0.00    -0.237 OA
ATOM     87  O   UNL     1     -22.447   2.103   5.221  1.00  0.00    -0.237 OA
ATOM     88  O   UNL     1     -22.449   4.070   6.706  1.00  0.00    -0.744 OA
ENDBRANCH  84  85
ENDBRANCH  52  77
ENDBRANCH  26  27
ENDBRANCH  18  21
ENDBRANCH  16  17
ENDBRANCH  15  16
ENDBRANCH   1  15
TORSDOF 17
