REMARK SMILES CN(C(=O)N[C@@](C)(C(=O)NCCCCNC(=O)c1ccc(-c2c3nc(c(-c4c(F)cc(S(=O)(=O)[O-])cc4F)c4ccc([nH]4)c(-c4c(F)cc(S(=O)(=O)[O-])cc4F)c4nc(c(-c5c(F)cc(S(=O)(=O)[O-])cc5F)c5ccc2[nH]5)C=C4)C=C3)cc1)C(F)(F)F)c1ccc(F)cc1
REMARK SMILES IDX 12 1 11 2 10 3 8 4 9 5 6 7 7 8 5 9 3 10 4 11 2 13 1 14 88 15
REMARK SMILES IDX 89 16 94 17 90 18 93 19 91 20 92 21 84 22 85 23 86 24 87 25
REMARK SMILES IDX 13 26 14 27 15 28 16 29 17 31 18 32 19 33 83 34 20 35 82 36
REMARK SMILES IDX 21 37 22 38 23 39 76 40 24 41 81 42 75 43 77 44 25 45 80 46
REMARK SMILES IDX 74 47 73 48 26 50 60 51 39 52 59 53 40 54 43 55 58 56 78 57
REMARK SMILES IDX 41 58 42 59 57 61 79 62 44 63 27 64 28 65 37 66 29 67 30 68
REMARK SMILES IDX 36 69 38 70 31 71 32 72 33 73 34 74 35 75 61 76 62 77 71 78
REMARK SMILES IDX 63 79 64 80 70 81 72 82 65 83 66 84 67 85 68 86 69 87 45 88
REMARK SMILES IDX 46 89 55 90 47 91 48 92 54 93 56 94 49 95 50 96 51 97 52 98
REMARK SMILES IDX 53 99
REMARK H PARENT 10 6 5 12 15 30 77 49 43 60
REMARK Flexibility Score: inf
ROOT
ATOM      1  C   UNL     1      -1.543  -3.013   5.034  1.00  0.00     0.023 C 
ENDROOT
BRANCH   1   2
ATOM      2  C   UNL     1      -1.569  -1.552   4.589  1.00  0.00     0.116 C 
BRANCH   2   3
ATOM      3  N   UNL     1      -0.231  -0.992   4.536  1.00  0.00    -0.354 N 
ATOM      4  C   UNL     1       0.456  -0.239   3.638  1.00  0.00     0.255 C 
ATOM      5  O   UNL     1       1.643  -0.069   3.937  1.00  0.00    -0.272 OA
ATOM      6  H   UNL     1       0.301  -1.207   5.336  1.00  0.00     0.163 HD
BRANCH   4   7
ATOM      7  C   UNL     1      -0.145   0.301   2.315  1.00  0.00     0.213 C 
ATOM      8  C   UNL     1      -1.496   1.013   2.527  1.00  0.00     0.056 C 
BRANCH   7   9
ATOM      9  N   UNL     1      -0.399  -0.929   1.467  1.00  0.00    -0.316 N 
ATOM     10  C   UNL     1      -0.102  -1.621   0.359  1.00  0.00     0.322 C 
ATOM     11  O   UNL     1      -0.571  -2.768   0.395  1.00  0.00    -0.248 OA
ATOM     12  H   UNL     1      -1.086  -1.452   1.941  1.00  0.00     0.166 HD
BRANCH  10  13
ATOM     13  N   UNL     1       0.625  -1.162  -0.698  1.00  0.00    -0.298 N 
ATOM     14  C   UNL     1       1.001   0.215  -0.942  1.00  0.00     0.155 C 
BRANCH  13  15
ATOM     15  C   UNL     1       0.893  -2.007  -1.827  1.00  0.00     0.045 A 
ATOM     16  C   UNL     1      -0.144  -2.686  -2.482  1.00  0.00     0.029 A 
ATOM     17  C   UNL     1       2.175  -2.000  -2.402  1.00  0.00     0.029 A 
ATOM     18  C   UNL     1       0.084  -3.283  -3.726  1.00  0.00     0.041 A 
ATOM     19  C   UNL     1       2.407  -2.617  -3.632  1.00  0.00     0.041 A 
ATOM     20  C   UNL     1       1.352  -3.232  -4.293  1.00  0.00     0.123 A 
ATOM     21  F   UNL     1       1.556  -3.764  -5.506  1.00  0.00    -0.207 F 
ENDBRANCH  13  15
ENDBRANCH  10  13
ENDBRANCH   7   9
BRANCH   7  22
ATOM     22  C   UNL     1       0.855   1.418   1.924  1.00  0.00     0.420 C 
ATOM     23  F   UNL     1       2.069   0.970   1.555  1.00  0.00    -0.168 F 
ATOM     24  F   UNL     1       0.375   2.180   0.906  1.00  0.00    -0.168 F 
ATOM     25  F   UNL     1       1.035   2.303   2.941  1.00  0.00    -0.168 F 
ENDBRANCH   7  22
ENDBRANCH   4   7
ENDBRANCH   2   3
ENDBRANCH   1   2
BRANCH   1  26
ATOM     26  C   UNL     1      -0.933  -3.268   6.415  1.00  0.00     0.023 C 
BRANCH  26  27
ATOM     27  C   UNL     1      -1.513  -2.430   7.548  1.00  0.00     0.116 C 
BRANCH  27  28
ATOM     28  N   UNL     1      -2.943  -2.633   7.720  1.00  0.00    -0.352 N 
ATOM     29  C   UNL     1      -3.639  -2.997   8.847  1.00  0.00     0.251 C 
ATOM     30  H   UNL     1      -3.490  -2.490   6.913  1.00  0.00     0.163 HD
ATOM     31  O   UNL     1      -4.831  -3.280   8.764  1.00  0.00    -0.269 OA
BRANCH  29  32
ATOM     32  C   UNL     1      -2.941  -3.073  10.148  1.00  0.00     0.039 A 
ATOM     33  C   UNL     1      -3.136  -4.195  10.957  1.00  0.00     0.014 A 
ATOM     34  C   UNL     1      -2.080  -2.052  10.557  1.00  0.00     0.014 A 
ATOM     35  C   UNL     1      -2.412  -4.324  12.144  1.00  0.00     0.010 A 
ATOM     36  C   UNL     1      -1.299  -2.222  11.696  1.00  0.00     0.010 A 
ATOM     37  C   UNL     1      -1.457  -3.358  12.504  1.00  0.00    -0.014 A 
BRANCH  37  38
ATOM     38  C   UNL     1      -0.615  -3.519  13.717  1.00  0.00     0.031 A 
ATOM     39  C   UNL     1      -0.710  -2.524  14.842  1.00  0.00     0.074 A 
ATOM     40  C   UNL     1       0.278  -4.527  13.782  1.00  0.00     0.049 A 
ATOM     41  N   UNL     1      -0.026  -2.465  15.955  1.00  0.00    -0.248 NA
ATOM     42  C   UNL     1      -1.687  -1.435  14.681  1.00  0.00     0.031 C 
ATOM     43  C   UNL     1       0.494  -5.534  12.741  1.00  0.00     0.029 A 
ATOM     44  N   UNL     1       1.172  -4.871  14.765  1.00  0.00    -0.354 N 
ATOM     45  C   UNL     1      -0.483  -1.335  16.623  1.00  0.00     0.074 A 
ATOM     46  C   UNL     1      -1.452  -0.699  15.757  1.00  0.00     0.031 C 
ATOM     47  C   UNL     1       1.429  -6.403  13.156  1.00  0.00     0.029 A 
ATOM     48  C   UNL     1       1.912  -5.992  14.471  1.00  0.00     0.049 A 
ATOM     49  H   UNL     1       1.274  -4.362  15.601  1.00  0.00     0.167 HD
ATOM     50  C   UNL     1      -0.149  -0.882  17.856  1.00  0.00     0.037 A 
ATOM     51  C   UNL     1       2.871  -6.618  15.181  1.00  0.00     0.037 A 
ATOM     52  C   UNL     1       0.813  -1.523  18.714  1.00  0.00     0.049 A 
ATOM     53  C   UNL     1       3.256  -6.075  16.530  1.00  0.00     0.074 A 
ATOM     54  C   UNL     1       1.197  -1.168  19.995  1.00  0.00     0.029 A 
ATOM     55  N   UNL     1       1.550  -2.650  18.376  1.00  0.00    -0.354 N 
ATOM     56  N   UNL     1       2.773  -5.037  17.171  1.00  0.00    -0.248 NA
ATOM     57  C   UNL     1       4.316  -6.790  17.255  1.00  0.00     0.031 C 
ATOM     58  C   UNL     1       2.202  -2.048  20.411  1.00  0.00     0.029 A 
ATOM     59  C   UNL     1       2.404  -2.988  19.413  1.00  0.00     0.049 A 
ATOM     60  H   UNL     1       1.477  -3.137  17.523  1.00  0.00     0.167 HD
ATOM     61  C   UNL     1       3.444  -4.996  18.389  1.00  0.00     0.074 A 
ATOM     62  C   UNL     1       4.362  -6.117  18.396  1.00  0.00     0.031 C 
ATOM     63  C   UNL     1       3.310  -4.112  19.409  1.00  0.00     0.037 A 
BRANCH  50  64
ATOM     64  C   UNL     1      -0.833   0.370  18.339  1.00  0.00     0.058 A 
ATOM     65  C   UNL     1      -2.209   0.397  18.624  1.00  0.00     0.135 A 
ATOM     66  C   UNL     1      -0.109   1.560  18.518  1.00  0.00     0.135 A 
ATOM     67  F   UNL     1      -2.955  -0.708  18.460  1.00  0.00    -0.206 F 
ATOM     68  C   UNL     1      -2.851   1.567  19.016  1.00  0.00     0.059 A 
ATOM     69  C   UNL     1      -0.725   2.735  18.943  1.00  0.00     0.059 A 
ATOM     70  F   UNL     1       1.209   1.595  18.266  1.00  0.00    -0.206 F 
ATOM     71  C   UNL     1      -2.101   2.733  19.166  1.00  0.00     0.060 A 
BRANCH  71  72
ATOM     72  S   UNL     1      -2.955   4.251  19.641  1.00  0.00     0.124 S 
ATOM     73  O   UNL     1      -3.669   4.578  18.411  1.00  0.00    -0.237 OA
ATOM     74  O   UNL     1      -3.785   3.806  20.756  1.00  0.00    -0.237 OA
ATOM     75  O   UNL     1      -1.867   5.157  19.994  1.00  0.00    -0.744 OA
ENDBRANCH  71  72
ENDBRANCH  50  64
BRANCH  51  76
ATOM     76  C   UNL     1       3.503  -7.855  14.647  1.00  0.00     0.058 A 
ATOM     77  C   UNL     1       3.249  -9.101  15.239  1.00  0.00     0.135 A 
ATOM     78  C   UNL     1       4.354  -7.825  13.531  1.00  0.00     0.135 A 
ATOM     79  F   UNL     1       2.448  -9.182  16.313  1.00  0.00    -0.206 F 
ATOM     80  C   UNL     1       3.822 -10.271  14.754  1.00  0.00     0.059 A 
ATOM     81  C   UNL     1       4.919  -8.985  13.010  1.00  0.00     0.059 A 
ATOM     82  F   UNL     1       4.619  -6.660  12.918  1.00  0.00    -0.206 F 
ATOM     83  C   UNL     1       4.653 -10.204  13.634  1.00  0.00     0.060 A 
BRANCH  83  84
ATOM     84  S   UNL     1       5.346 -11.738  12.980  1.00  0.00     0.124 S 
ATOM     85  O   UNL     1       6.322 -12.081  14.008  1.00  0.00    -0.237 OA
ATOM     86  O   UNL     1       4.168 -12.596  12.905  1.00  0.00    -0.237 OA
ATOM     87  O   UNL     1       5.901 -11.333  11.692  1.00  0.00    -0.744 OA
ENDBRANCH  83  84
ENDBRANCH  51  76
BRANCH  63  88
ATOM     88  C   UNL     1       4.145  -4.342  20.640  1.00  0.00     0.058 A 
ATOM     89  C   UNL     1       5.532  -4.125  20.647  1.00  0.00     0.135 A 
ATOM     90  C   UNL     1       3.539  -4.740  21.844  1.00  0.00     0.135 A 
ATOM     91  F   UNL     1       6.164  -3.752  19.523  1.00  0.00    -0.206 F 
ATOM     92  C   UNL     1       6.292  -4.319  21.797  1.00  0.00     0.059 A 
ATOM     93  C   UNL     1       4.274  -4.909  23.012  1.00  0.00     0.059 A 
ATOM     94  F   UNL     1       2.214  -4.951  21.896  1.00  0.00    -0.206 F 
ATOM     95  C   UNL     1       5.653  -4.708  22.976  1.00  0.00     0.060 A 
BRANCH  95  96
ATOM     96  S   UNL     1       6.646  -4.922  24.468  1.00  0.00     0.124 S 
ATOM     97  O   UNL     1       7.359  -6.161  24.173  1.00  0.00    -0.237 OA
ATOM     98  O   UNL     1       7.459  -3.709  24.477  1.00  0.00    -0.237 OA
ATOM     99  O   UNL     1       5.650  -5.008  25.531  1.00  0.00    -0.744 OA
ENDBRANCH  95  96
ENDBRANCH  63  88
ENDBRANCH  37  38
ENDBRANCH  29  32
ENDBRANCH  27  28
ENDBRANCH  26  27
ENDBRANCH   1  26
TORSDOF 18
