REMARK SMILES Cc1c(C(=O)NCCCCNC(=O)c2ccc(-c3c4nc(c(-c5c(F)cc(S(=O)(=O)[O-])cc5F)c5ccc([nH]5)c(-c5c(F)cc(S(=O)(=O)[O-])cc5F)c5nc(c(-c6c(F)cc(S(=O)(=O)[O-])cc6F)c6ccc3[nH]6)C=C5)C=C4)cc2)sc2nc3n(c(=O)c12)CC/C3=C\c1ccc(OC(F)F)cc1
REMARK SMILES IDX 8 1 7 2 6 3 4 4 5 5 3 7 1 8 2 9 87 10 80 11 81 12 85 13
REMARK SMILES IDX 82 14 84 15 86 16 83 17 88 18 90 19 89 20 91 21 92 22 93 23
REMARK SMILES IDX 101 24 94 25 100 26 95 27 96 28 97 29 98 30 99 31 9 32 10 33
REMARK SMILES IDX 11 34 12 35 13 37 14 38 15 39 79 40 16 41 78 42 17 43 18 44
REMARK SMILES IDX 19 45 72 46 20 47 77 48 71 49 73 50 21 51 76 52 70 53 69 54
REMARK SMILES IDX 22 56 56 57 35 58 55 59 36 60 39 61 54 62 74 63 37 64 38 65
REMARK SMILES IDX 53 67 75 68 40 69 23 70 24 71 33 72 25 73 26 74 32 75 34 76
REMARK SMILES IDX 27 77 28 78 29 79 30 80 31 81 57 82 58 83 67 84 59 85 60 86
REMARK SMILES IDX 66 87 68 88 61 89 62 90 63 91 64 92 65 93 41 94 42 95 51 96
REMARK SMILES IDX 43 97 44 98 50 99 52 100 45 101 46 102 47 103 48 104 49 105
REMARK H PARENT 6 6 11 36 73 55 39 66
REMARK Flexibility Score: inf
ROOT
ATOM      1  C   UNL     1       3.394   0.652   1.848  1.00  0.00     0.023 C 
ENDROOT
BRANCH   1   2
ATOM      2  C   UNL     1       2.122   1.507   1.950  1.00  0.00     0.116 C 
BRANCH   2   3
ATOM      3  N   UNL     1       2.009   2.493   0.892  1.00  0.00    -0.351 N 
ATOM      4  C   UNL     1       1.435   2.637  -0.344  1.00  0.00     0.261 C 
ATOM      5  O   UNL     1       1.590   3.794  -0.764  1.00  0.00    -0.268 OA
ATOM      6  H   UNL     1       2.495   3.313   1.139  1.00  0.00     0.163 HD
BRANCH   4   7
ATOM      7  C   UNL     1       0.761   1.607  -1.154  1.00  0.00     0.098 A 
ATOM      8  C   UNL     1       0.586  -0.623   0.151  1.00  0.00     0.047 C 
ATOM      9  C   UNL     1       0.430   0.254  -1.039  1.00  0.00    -0.012 A 
ATOM     10  C   UNL     1      -0.101  -0.271  -2.285  1.00  0.00     0.081 A 
ATOM     11  S   UNL     1       0.196   2.207  -2.706  1.00  0.00    -0.110 S 
ATOM     12  C   UNL     1      -0.331   0.692  -3.244  1.00  0.00     0.132 A 
ATOM     13  C   UNL     1      -0.430  -1.646  -2.636  1.00  0.00     0.262 A 
ATOM     14  N   UNL     1      -0.890   0.521  -4.482  1.00  0.00    -0.219 NA
ATOM     15  N   UNL     1      -1.010  -1.764  -3.876  1.00  0.00    -0.292 N 
ATOM     16  O   UNL     1      -0.186  -2.622  -1.932  1.00  0.00    -0.269 OA
ATOM     17  C   UNL     1      -1.217  -0.700  -4.740  1.00  0.00     0.140 A 
ATOM     18  C   UNL     1      -1.420  -3.036  -4.394  1.00  0.00     0.132 C 
ATOM     19  C   UNL     1      -1.854  -1.278  -5.955  1.00  0.00    -0.002 C 
ATOM     20  C   UNL     1      -1.968  -2.769  -5.775  1.00  0.00     0.061 C 
ATOM     21  C   UNL     1      -2.258  -0.573  -7.024  1.00  0.00     0.015 C 
BRANCH  21  22
ATOM     22  C   UNL     1      -2.882  -1.267  -8.159  1.00  0.00    -0.025 A 
ATOM     23  C   UNL     1      -2.186  -1.439  -9.356  1.00  0.00     0.012 A 
ATOM     24  C   UNL     1      -4.127  -1.891  -8.004  1.00  0.00     0.012 A 
ATOM     25  C   UNL     1      -2.704  -2.274 -10.354  1.00  0.00     0.047 A 
ATOM     26  C   UNL     1      -4.630  -2.745  -8.990  1.00  0.00     0.047 A 
ATOM     27  C   UNL     1      -3.913  -2.954 -10.166  1.00  0.00     0.126 A 
BRANCH  27  28
ATOM     28  O   UNL     1      -4.271  -3.783 -11.191  1.00  0.00    -0.435 OA
BRANCH  28  29
ATOM     29  C   UNL     1      -5.412  -4.614 -11.015  1.00  0.00     0.542 C 
ATOM     30  F   UNL     1      -5.251  -5.407  -9.929  1.00  0.00    -0.167 F 
ATOM     31  F   UNL     1      -6.519  -3.855 -10.831  1.00  0.00    -0.167 F 
ENDBRANCH  28  29
ENDBRANCH  27  28
ENDBRANCH  21  22
ENDBRANCH   4   7
ENDBRANCH   2   3
ENDBRANCH   1   2
BRANCH   1  32
ATOM     32  C   UNL     1       4.292   0.712   3.092  1.00  0.00     0.023 C 
BRANCH  32  33
ATOM     33  C   UNL     1       3.646   0.140   4.351  1.00  0.00     0.116 C 
BRANCH  33  34
ATOM     34  N   UNL     1       3.497  -1.311   4.320  1.00  0.00    -0.352 N 
ATOM     35  C   UNL     1       2.918  -2.103   5.301  1.00  0.00     0.251 C 
ATOM     36  H   UNL     1       3.842  -1.774   3.522  1.00  0.00     0.163 HD
ATOM     37  O   UNL     1       3.112  -3.298   5.352  1.00  0.00    -0.269 OA
BRANCH  35  38
ATOM     38  C   UNL     1       2.063  -1.422   6.295  1.00  0.00     0.039 A 
ATOM     39  C   UNL     1       2.344  -1.518   7.660  1.00  0.00     0.014 A 
ATOM     40  C   UNL     1       1.044  -0.598   5.822  1.00  0.00     0.014 A 
ATOM     41  C   UNL     1       1.651  -0.699   8.551  1.00  0.00     0.010 A 
ATOM     42  C   UNL     1       0.429   0.275   6.693  1.00  0.00     0.010 A 
ATOM     43  C   UNL     1       0.711   0.218   8.063  1.00  0.00    -0.014 A 
BRANCH  43  44
ATOM     44  C   UNL     1       0.074   1.181   8.967  1.00  0.00     0.031 A 
ATOM     45  C   UNL     1       0.960   2.154   9.690  1.00  0.00     0.074 A 
ATOM     46  C   UNL     1      -1.257   1.398   8.938  1.00  0.00     0.049 A 
ATOM     47  N   UNL     1       1.012   2.419  10.958  1.00  0.00    -0.248 NA
ATOM     48  C   UNL     1       1.931   2.919   8.892  1.00  0.00     0.031 C 
ATOM     49  C   UNL     1      -2.256   0.788   8.053  1.00  0.00     0.029 A 
ATOM     50  N   UNL     1      -1.976   2.342   9.604  1.00  0.00    -0.354 N 
ATOM     51  C   UNL     1       1.901   3.487  11.109  1.00  0.00     0.074 A 
ATOM     52  C   UNL     1       2.512   3.683   9.819  1.00  0.00     0.031 C 
ATOM     53  C   UNL     1      -3.374   1.544   8.057  1.00  0.00     0.029 A 
ATOM     54  C   UNL     1      -3.227   2.582   9.060  1.00  0.00     0.049 A 
ATOM     55  H   UNL     1      -1.638   2.811  10.401  1.00  0.00     0.167 HD
ATOM     56  C   UNL     1       1.971   4.244  12.244  1.00  0.00     0.037 A 
ATOM     57  C   UNL     1      -4.059   3.606   9.362  1.00  0.00     0.037 A 
ATOM     58  C   UNL     1       1.316   3.608  13.354  1.00  0.00     0.049 A 
ATOM     59  C   UNL     1      -3.679   4.096  10.712  1.00  0.00     0.074 A 
ATOM     60  C   UNL     1       1.491   2.418  14.033  1.00  0.00     0.029 A 
ATOM     61  N   UNL     1       0.077   4.066  13.735  1.00  0.00    -0.354 N 
ATOM     62  N   UNL     1      -3.772   3.381  11.804  1.00  0.00    -0.248 NA
ATOM     63  C   UNL     1      -2.791   5.245  10.801  1.00  0.00     0.031 C 
ATOM     64  C   UNL     1       0.172   1.982  14.352  1.00  0.00     0.029 A 
ATOM     65  C   UNL     1      -0.714   2.954  13.881  1.00  0.00     0.049 A 
ATOM     66  H   UNL     1      -0.189   5.003  13.876  1.00  0.00     0.167 HD
ATOM     67  C   UNL     1      -2.670   3.739  12.568  1.00  0.00     0.074 A 
ATOM     68  C   UNL     1      -2.168   4.963  11.949  1.00  0.00     0.031 C 
ATOM     69  C   UNL     1      -2.099   2.875  13.461  1.00  0.00     0.037 A 
BRANCH  56  70
ATOM     70  C   UNL     1       2.415   5.688  12.305  1.00  0.00     0.058 A 
ATOM     71  C   UNL     1       2.726   6.285  13.546  1.00  0.00     0.135 A 
ATOM     72  C   UNL     1       2.291   6.578  11.217  1.00  0.00     0.135 A 
ATOM     73  F   UNL     1       2.852   5.536  14.654  1.00  0.00    -0.206 F 
ATOM     74  C   UNL     1       2.848   7.668  13.705  1.00  0.00     0.059 A 
ATOM     75  C   UNL     1       2.460   7.955  11.342  1.00  0.00     0.059 A 
ATOM     76  F   UNL     1       1.905   6.158  10.005  1.00  0.00    -0.206 F 
ATOM     77  C   UNL     1       2.695   8.496  12.597  1.00  0.00     0.060 A 
BRANCH  77  78
ATOM     78  S   UNL     1       2.727  10.286  12.817  1.00  0.00     0.124 S 
ATOM     79  O   UNL     1       1.464  10.515  13.511  1.00  0.00    -0.237 OA
ATOM     80  O   UNL     1       3.936  10.477  13.611  1.00  0.00    -0.237 OA
ATOM     81  O   UNL     1       2.797  10.791  11.449  1.00  0.00    -0.744 OA
ENDBRANCH  77  78
ENDBRANCH  56  70
BRANCH  57  82
ATOM     82  C   UNL     1      -4.906   4.352   8.397  1.00  0.00     0.058 A 
ATOM     83  C   UNL     1      -5.949   5.189   8.822  1.00  0.00     0.135 A 
ATOM     84  C   UNL     1      -4.567   4.429   7.027  1.00  0.00     0.135 A 
ATOM     85  F   UNL     1      -6.309   5.214  10.114  1.00  0.00    -0.206 F 
ATOM     86  C   UNL     1      -6.609   6.059   7.944  1.00  0.00     0.059 A 
ATOM     87  C   UNL     1      -5.221   5.271   6.132  1.00  0.00     0.059 A 
ATOM     88  F   UNL     1      -3.527   3.744   6.528  1.00  0.00    -0.206 F 
ATOM     89  C   UNL     1      -6.231   6.099   6.601  1.00  0.00     0.060 A 
BRANCH  89  90
ATOM     90  S   UNL     1      -6.997   7.303   5.493  1.00  0.00     0.124 S 
ATOM     91  O   UNL     1      -8.387   6.860   5.480  1.00  0.00    -0.237 OA
ATOM     92  O   UNL     1      -6.734   8.561   6.184  1.00  0.00    -0.237 OA
ATOM     93  O   UNL     1      -6.273   7.120   4.238  1.00  0.00    -0.744 OA
ENDBRANCH  89  90
ENDBRANCH  57  82
BRANCH  69  94
ATOM     94  C   UNL     1      -2.815   1.589  13.802  1.00  0.00     0.058 A 
ATOM     95  C   UNL     1      -3.034   0.555  12.874  1.00  0.00     0.135 A 
ATOM     96  C   UNL     1      -3.074   1.293  15.150  1.00  0.00     0.135 A 
ATOM     97  F   UNL     1      -2.714   0.709  11.585  1.00  0.00    -0.206 F 
ATOM     98  C   UNL     1      -3.499  -0.702  13.258  1.00  0.00     0.059 A 
ATOM     99  C   UNL     1      -3.511   0.033  15.562  1.00  0.00     0.059 A 
ATOM    100  F   UNL     1      -2.824   2.211  16.099  1.00  0.00    -0.206 F 
ATOM    101  C   UNL     1      -3.722  -0.961  14.608  1.00  0.00     0.060 A 
BRANCH 101 102
ATOM    102  S   UNL     1      -4.184  -2.634  15.106  1.00  0.00     0.124 S 
ATOM    103  O   UNL     1      -5.552  -2.737  14.609  1.00  0.00    -0.237 OA
ATOM    104  O   UNL     1      -3.195  -3.456  14.413  1.00  0.00    -0.237 OA
ATOM    105  O   UNL     1      -4.049  -2.607  16.561  1.00  0.00    -0.744 OA
ENDBRANCH 101 102
ENDBRANCH  69  94
ENDBRANCH  43  44
ENDBRANCH  35  38
ENDBRANCH  33  34
ENDBRANCH  32  33
ENDBRANCH   1  32
TORSDOF 17
