REMARK SMILES O=C(NCCCCNC(=O)[C@H](c1c[nH]c2ccc(Cl)cc12)[NH+]1CCN(c2cccc(Cl)c2)CC1)c1ccc(-c2c3nc(c(-c4c(F)cc(S(=O)(=O)[O-])cc4F)c4ccc([nH]4)c(-c4c(F)cc(S(=O)(=O)[O-])cc4F)c4nc(c(-c5c(F)cc(S(=O)(=O)[O-])cc5F)c5ccc2[nH]5)C=C4)C=C3)cc1
REMARK SMILES IDX 5 1 4 2 3 3 1 4 2 5 35 7 36 8 100 9 37 10 99 11 38 12 39 13
REMARK SMILES IDX 40 14 93 15 41 16 98 17 92 18 94 19 42 20 97 21 91 22 90 23
REMARK SMILES IDX 43 25 77 26 56 27 76 28 57 29 60 30 75 31 95 32 58 33 59 34
REMARK SMILES IDX 74 36 96 37 61 38 44 39 45 40 54 41 46 42 47 43 53 44 55 45
REMARK SMILES IDX 48 46 49 47 50 48 51 49 52 50 78 51 79 52 88 53 80 54 81 55
REMARK SMILES IDX 87 56 89 57 82 58 83 59 84 60 85 61 86 62 62 63 63 64 72 65
REMARK SMILES IDX 64 66 65 67 71 68 73 69 66 70 67 71 68 72 69 73 70 74 6 75
REMARK SMILES IDX 7 76 8 77 9 78 10 80 11 81 22 82 23 83 34 84 24 86 33 87
REMARK SMILES IDX 25 88 26 89 27 90 32 91 28 92 30 93 29 94 31 95 12 96 13 97
REMARK SMILES IDX 21 98 14 99 15 100 20 101 16 103 18 104 17 105 19 106
REMARK H PARENT 3 6 94 24 60 35 8 79 22 85 14 102
REMARK Flexibility Score: inf
ROOT
ATOM      1  C   UNL     1       5.275  -9.215   6.939  1.00  0.00     0.023 C 
ENDROOT
BRANCH   1   2
ATOM      2  C   UNL     1       3.814  -9.558   6.645  1.00  0.00     0.116 C 
BRANCH   2   3
ATOM      3  N   UNL     1       3.636 -10.857   6.017  1.00  0.00    -0.352 N 
ATOM      4  O   UNL     1       2.855 -12.946   5.747  1.00  0.00    -0.269 OA
ATOM      5  C   UNL     1       2.772 -11.880   6.341  1.00  0.00     0.251 C 
ATOM      6  H   UNL     1       4.221 -11.032   5.245  1.00  0.00     0.163 HD
BRANCH   5   7
ATOM      7  C   UNL     1       1.789 -11.705   7.436  1.00  0.00     0.039 A 
ATOM      8  C   UNL     1       1.014 -10.547   7.542  1.00  0.00     0.014 A 
ATOM      9  C   UNL     1       1.658 -12.724   8.385  1.00  0.00     0.014 A 
ATOM     10  C   UNL     1       0.220 -10.344   8.668  1.00  0.00     0.010 A 
ATOM     11  C   UNL     1       0.822 -12.541   9.489  1.00  0.00     0.010 A 
ATOM     12  C   UNL     1       0.135 -11.330   9.661  1.00  0.00    -0.014 A 
BRANCH  12  13
ATOM     13  C   UNL     1      -0.654 -11.072  10.888  1.00  0.00     0.031 A 
ATOM     14  C   UNL     1       0.045 -10.831  12.197  1.00  0.00     0.074 A 
ATOM     15  C   UNL     1      -1.997 -11.029  10.813  1.00  0.00     0.049 A 
ATOM     16  N   UNL     1      -0.467 -10.585  13.375  1.00  0.00    -0.248 NA
ATOM     17  C   UNL     1       1.516 -10.871  12.179  1.00  0.00     0.031 C 
ATOM     18  C   UNL     1      -2.776 -11.232   9.591  1.00  0.00     0.029 A 
ATOM     19  N   UNL     1      -2.941 -10.797  11.779  1.00  0.00    -0.354 N 
ATOM     20  C   UNL     1       0.613 -10.447  14.239  1.00  0.00     0.074 A 
ATOM     21  C   UNL     1       1.810 -10.665  13.456  1.00  0.00     0.031 C 
ATOM     22  C   UNL     1      -4.081 -11.108   9.879  1.00  0.00     0.029 A 
ATOM     23  C   UNL     1      -4.231 -10.857  11.310  1.00  0.00     0.049 A 
ATOM     24  H   UNL     1      -2.717 -10.607  12.719  1.00  0.00     0.167 HD
ATOM     25  C   UNL     1       0.604 -10.158  15.563  1.00  0.00     0.037 A 
ATOM     26  C   UNL     1      -5.403 -10.741  11.964  1.00  0.00     0.037 A 
ATOM     27  C   UNL     1      -0.596  -9.952  16.333  1.00  0.00     0.049 A 
ATOM     28  C   UNL     1      -5.389 -10.467  13.442  1.00  0.00     0.074 A 
ATOM     29  C   UNL     1      -0.716  -9.646  17.678  1.00  0.00     0.029 A 
ATOM     30  N   UNL     1      -1.885 -10.041  15.828  1.00  0.00    -0.354 N 
ATOM     31  N   UNL     1      -4.360 -10.313  14.241  1.00  0.00    -0.248 NA
ATOM     32  C   UNL     1      -6.692 -10.346  14.108  1.00  0.00     0.031 C 
ATOM     33  C   UNL     1      -2.079  -9.593  17.993  1.00  0.00     0.029 A 
ATOM     34  C   UNL     1      -2.808  -9.818  16.836  1.00  0.00     0.049 A 
ATOM     35  H   UNL     1      -2.111 -10.235  14.889  1.00  0.00     0.167 HD
ATOM     36  C   UNL     1      -4.890 -10.056  15.500  1.00  0.00     0.074 A 
ATOM     37  C   UNL     1      -6.332 -10.067  15.354  1.00  0.00     0.031 C 
ATOM     38  C   UNL     1      -4.241  -9.828  16.669  1.00  0.00     0.037 A 
BRANCH  25  39
ATOM     39  C   UNL     1       1.933 -10.081  16.265  1.00  0.00     0.058 A 
ATOM     40  C   UNL     1       2.822  -9.015  16.049  1.00  0.00     0.135 A 
ATOM     41  C   UNL     1       2.321 -11.082  17.170  1.00  0.00     0.135 A 
ATOM     42  F   UNL     1       2.510  -8.038  15.183  1.00  0.00    -0.206 F 
ATOM     43  C   UNL     1       4.064  -8.964  16.677  1.00  0.00     0.059 A 
ATOM     44  C   UNL     1       3.547 -11.039  17.828  1.00  0.00     0.059 A 
ATOM     45  F   UNL     1       1.510 -12.122  17.416  1.00  0.00    -0.206 F 
ATOM     46  C   UNL     1       4.420  -9.986  17.560  1.00  0.00     0.060 A 
BRANCH  46  47
ATOM     47  S   UNL     1       6.046  -9.923  18.343  1.00  0.00     0.124 S 
ATOM     48  O   UNL     1       6.917 -10.295  17.232  1.00  0.00    -0.237 OA
ATOM     49  O   UNL     1       6.133  -8.533  18.777  1.00  0.00    -0.237 OA
ATOM     50  O   UNL     1       5.945 -10.907  19.416  1.00  0.00    -0.744 OA
ENDBRANCH  46  47
ENDBRANCH  25  39
BRANCH  26  51
ATOM     51  C   UNL     1      -6.676 -10.886  11.213  1.00  0.00     0.058 A 
ATOM     52  C   UNL     1      -7.499  -9.780  10.959  1.00  0.00     0.135 A 
ATOM     53  C   UNL     1      -7.071 -12.129  10.691  1.00  0.00     0.135 A 
ATOM     54  F   UNL     1      -7.168  -8.573  11.442  1.00  0.00    -0.206 F 
ATOM     55  C   UNL     1      -8.670  -9.899  10.216  1.00  0.00     0.059 A 
ATOM     56  C   UNL     1      -8.223 -12.268   9.925  1.00  0.00     0.059 A 
ATOM     57  F   UNL     1      -6.309 -13.215  10.894  1.00  0.00    -0.206 F 
ATOM     58  C   UNL     1      -9.019 -11.147   9.697  1.00  0.00     0.060 A 
BRANCH  58  59
ATOM     59  S   UNL     1     -10.502 -11.276   8.673  1.00  0.00     0.124 S 
ATOM     60  O   UNL     1     -11.559 -11.177   9.672  1.00  0.00    -0.237 OA
ATOM     61  O   UNL     1     -10.358 -10.132   7.779  1.00  0.00    -0.237 OA
ATOM     62  O   UNL     1     -10.356 -12.581   8.035  1.00  0.00    -0.744 OA
ENDBRANCH  58  59
ENDBRANCH  26  51
BRANCH  38  63
ATOM     63  C   UNL     1      -5.083  -9.539  17.880  1.00  0.00     0.058 A 
ATOM     64  C   UNL     1      -5.794 -10.551  18.542  1.00  0.00     0.135 A 
ATOM     65  C   UNL     1      -5.128  -8.243  18.418  1.00  0.00     0.135 A 
ATOM     66  F   UNL     1      -5.790 -11.805  18.063  1.00  0.00    -0.206 F 
ATOM     67  C   UNL     1      -6.534 -10.285  19.690  1.00  0.00     0.059 A 
ATOM     68  C   UNL     1      -5.841  -7.959  19.578  1.00  0.00     0.059 A 
ATOM     69  F   UNL     1      -4.458  -7.241  17.826  1.00  0.00    -0.206 F 
ATOM     70  C   UNL     1      -6.549  -8.986  20.202  1.00  0.00     0.060 A 
BRANCH  70  71
ATOM     71  S   UNL     1      -7.475  -8.661  21.718  1.00  0.00     0.124 S 
ATOM     72  O   UNL     1      -8.850  -8.667  21.229  1.00  0.00    -0.237 OA
ATOM     73  O   UNL     1      -7.098  -9.789  22.563  1.00  0.00    -0.237 OA
ATOM     74  O   UNL     1      -6.968  -7.363  22.153  1.00  0.00    -0.744 OA
ENDBRANCH  70  71
ENDBRANCH  38  63
ENDBRANCH  12  13
ENDBRANCH   5   7
ENDBRANCH   2   3
ENDBRANCH   1   2
BRANCH   1  75
ATOM     75  C   UNL     1       6.240  -9.254   5.751  1.00  0.00     0.023 C 
BRANCH  75  76
ATOM     76  C   UNL     1       5.787  -8.491   4.513  1.00  0.00     0.116 C 
BRANCH  76  77
ATOM     77  N   UNL     1       5.724  -7.057   4.686  1.00  0.00    -0.351 N 
ATOM     78  C   UNL     1       5.765  -6.081   3.719  1.00  0.00     0.283 C 
ATOM     79  H   UNL     1       5.642  -6.739   5.614  1.00  0.00     0.163 HD
ATOM     80  O   UNL     1       5.375  -4.959   4.059  1.00  0.00    -0.268 OA
BRANCH  78  81
ATOM     81  C   UNL     1       6.272  -6.412   2.284  1.00  0.00     0.307 C 
BRANCH  81  82
ATOM     82  N   UNL     1       5.210  -6.662   1.291  1.00  0.00    -0.318 N 
ATOM     83  C   UNL     1       4.965  -8.047   0.879  1.00  0.00     0.284 C 
ATOM     84  C   UNL     1       3.972  -5.884   1.384  1.00  0.00     0.284 C 
ATOM     85  H   UNL     1       5.713  -6.241   0.510  1.00  0.00     0.349 HD
ATOM     86  C   UNL     1       3.760  -8.787   1.512  1.00  0.00     0.178 C 
ATOM     87  C   UNL     1       2.846  -6.557   2.189  1.00  0.00     0.178 C 
ATOM     88  N   UNL     1       2.596  -7.915   1.683  1.00  0.00    -0.360 N 
BRANCH  88  89
ATOM     89  C   UNL     1       1.357  -8.462   1.994  1.00  0.00     0.038 A 
ATOM     90  C   UNL     1       0.206  -7.920   1.401  1.00  0.00     0.026 A 
ATOM     91  C   UNL     1       1.194  -9.534   2.880  1.00  0.00     0.046 A 
ATOM     92  C   UNL     1      -1.066  -8.430   1.670  1.00  0.00     0.004 A 
ATOM     93  C   UNL     1      -0.080 -10.040   3.154  1.00  0.00     0.043 A 
ATOM     94  C   UNL     1      -1.210  -9.493   2.553  1.00  0.00     0.020 A 
ATOM     95  Cl  UNL     1      -0.263 -11.361   4.241  1.00  0.00    -0.084 Cl
ENDBRANCH  88  89
ENDBRANCH  81  82
BRANCH  81  96
ATOM     96  C   UNL     1       7.159  -5.302   1.723  1.00  0.00     0.044 A 
ATOM     97  C   UNL     1       6.800  -3.993   1.440  1.00  0.00     0.094 A 
ATOM     98  C   UNL     1       8.546  -5.417   1.349  1.00  0.00     0.011 A 
ATOM     99  N   UNL     1       7.861  -3.351   0.871  1.00  0.00    -0.361 N 
ATOM    100  C   UNL     1       8.940  -4.197   0.793  1.00  0.00     0.046 A 
ATOM    101  C   UNL     1       9.501  -6.454   1.415  1.00  0.00     0.031 A 
ATOM    102  H   UNL     1       7.855  -2.416   0.561  1.00  0.00     0.166 HD
ATOM    103  C   UNL     1      10.220  -3.967   0.274  1.00  0.00     0.028 A 
ATOM    104  C   UNL     1      10.790  -6.231   0.916  1.00  0.00     0.041 A 
ATOM    105  C   UNL     1      11.143  -5.012   0.346  1.00  0.00     0.022 A 
ATOM    106  Cl  UNL     1      11.960  -7.492   1.006  1.00  0.00    -0.084 Cl
ENDBRANCH  81  96
ENDBRANCH  78  81
ENDBRANCH  76  77
ENDBRANCH  75  76
ENDBRANCH   1  75
TORSDOF 17
