REMARK SMILES Cc1cc(F)cc(N[C@H](C(=O)NCCCCNC(=O)c2ccc(-c3c4nc(c(-c5c(F)cc(S(=O)(=O)[O-])cc5F)c5ccc([nH]5)c(-c5c(F)cc(S(=O)(=O)[O-])cc5F)c5nc(c(-c6c(F)cc(S(=O)(=O)[O-])cc6F)c6ccc3[nH]6)C=C5)C=C4)cc2)c2cc(C)cc(C)c2)c1
REMARK SMILES IDX 15 1 14 2 13 3 12 4 10 5 11 6 9 8 8 9 7 11 1 12 2 13 3 14
REMARK SMILES IDX 94 15 4 16 5 17 6 18 86 19 87 20 93 21 88 22 91 23 89 24
REMARK SMILES IDX 90 25 92 26 16 27 17 28 18 29 19 31 20 32 21 33 85 34 22 35
REMARK SMILES IDX 84 36 23 37 24 38 25 39 78 40 26 41 83 42 77 43 79 44 27 45
REMARK SMILES IDX 82 46 76 47 75 48 28 50 62 51 41 52 61 53 42 54 45 55 60 56
REMARK SMILES IDX 80 57 43 58 44 59 59 61 81 62 46 63 29 64 30 65 39 66 31 67
REMARK SMILES IDX 32 68 38 69 40 70 33 71 34 72 35 73 36 74 37 75 63 76 64 77
REMARK SMILES IDX 73 78 65 79 66 80 72 81 74 82 67 83 68 84 69 85 70 86 71 87
REMARK SMILES IDX 47 88 48 89 57 90 49 91 50 92 56 93 58 94 51 95 52 96 53 97
REMARK SMILES IDX 54 98 55 99
REMARK H PARENT 12 7 8 10 17 30 79 49 45 60
REMARK Flexibility Score: inf
ROOT
ATOM      1  C   UNL     1       2.262  -2.912  -4.073  1.00  0.00     0.023 C 
ENDROOT
BRANCH   1   2
ATOM      2  C   UNL     1       0.769  -3.115  -3.817  1.00  0.00     0.023 C 
BRANCH   2   3
ATOM      3  C   UNL     1       0.409  -3.936  -2.582  1.00  0.00     0.116 C 
BRANCH   3   4
ATOM      4  N   UNL     1       0.909  -3.384  -1.340  1.00  0.00    -0.354 N 
ATOM      5  C   UNL     1       0.531  -3.669  -0.052  1.00  0.00     0.247 C 
ATOM      6  O   UNL     1       1.196  -3.112   0.831  1.00  0.00    -0.272 OA
ATOM      7  H   UNL     1       1.620  -2.709  -1.433  1.00  0.00     0.163 HD
BRANCH   5   8
ATOM      8  C   UNL     1      -0.749  -4.500   0.272  1.00  0.00     0.200 C 
BRANCH   8   9
ATOM      9  N   UNL     1      -1.067  -5.582  -0.691  1.00  0.00    -0.370 N 
ATOM     10  H   UNL     1      -1.897  -5.439  -1.202  1.00  0.00     0.161 HD
BRANCH   9  11
ATOM     11  C   UNL     1      -0.406  -6.754  -0.998  1.00  0.00     0.038 A 
ATOM     12  C   UNL     1      -0.414  -9.230  -3.934  1.00  0.00     0.044 C 
ATOM     13  C   UNL     1      -0.073  -8.579  -2.628  1.00  0.00    -0.046 A 
ATOM     14  C   UNL     1       0.914  -9.136  -1.819  1.00  0.00     0.042 A 
ATOM     15  C   UNL     1      -0.744  -7.418  -2.193  1.00  0.00     0.029 A 
ATOM     16  C   UNL     1       1.263  -8.491  -0.648  1.00  0.00     0.125 A 
ATOM     17  F   UNL     1       2.219  -9.009   0.134  1.00  0.00    -0.207 F 
ATOM     18  C   UNL     1       0.645  -7.302  -0.270  1.00  0.00     0.065 A 
ENDBRANCH   9  11
ENDBRANCH   8   9
BRANCH   8  19
ATOM     19  C   UNL     1      -0.890  -5.000   1.710  1.00  0.00    -0.016 A 
ATOM     20  C   UNL     1       0.208  -5.511   2.415  1.00  0.00     0.009 A 
ATOM     21  C   UNL     1      -2.159  -5.105   2.306  1.00  0.00     0.009 A 
ATOM     22  C   UNL     1       0.036  -6.310   3.549  1.00  0.00    -0.051 A 
ATOM     23  C   UNL     1      -2.330  -5.769   3.531  1.00  0.00    -0.051 A 
ATOM     24  C   UNL     1       1.173  -7.170   4.020  1.00  0.00     0.044 C 
ATOM     25  C   UNL     1      -1.236  -6.425   4.109  1.00  0.00     0.006 A 
ATOM     26  C   UNL     1      -3.681  -5.876   4.170  1.00  0.00     0.044 C 
ENDBRANCH   8  19
ENDBRANCH   5   8
ENDBRANCH   3   4
ENDBRANCH   2   3
ENDBRANCH   1   2
BRANCH   1  27
ATOM     27  C   UNL     1       3.121  -4.172  -4.057  1.00  0.00     0.116 C 
BRANCH  27  28
ATOM     28  N   UNL     1       2.746  -5.136  -5.082  1.00  0.00    -0.352 N 
ATOM     29  C   UNL     1       3.505  -5.672  -6.097  1.00  0.00     0.251 C 
ATOM     30  H   UNL     1       1.814  -5.450  -5.043  1.00  0.00     0.163 HD
ATOM     31  O   UNL     1       2.978  -6.386  -6.948  1.00  0.00    -0.269 OA
BRANCH  29  32
ATOM     32  C   UNL     1       4.948  -5.358  -6.181  1.00  0.00     0.039 A 
ATOM     33  C   UNL     1       5.482  -4.920  -7.396  1.00  0.00     0.014 A 
ATOM     34  C   UNL     1       5.765  -5.461  -5.053  1.00  0.00     0.014 A 
ATOM     35  C   UNL     1       6.812  -4.495  -7.455  1.00  0.00     0.010 A 
ATOM     36  C   UNL     1       7.066  -4.968  -5.095  1.00  0.00     0.010 A 
ATOM     37  C   UNL     1       7.601  -4.468  -6.293  1.00  0.00    -0.014 A 
BRANCH  37  38
ATOM     38  C   UNL     1       8.980  -3.911  -6.293  1.00  0.00     0.031 A 
ATOM     39  C   UNL     1      10.147  -4.794  -5.944  1.00  0.00     0.074 A 
ATOM     40  C   UNL     1       9.171  -2.593  -6.507  1.00  0.00     0.049 A 
ATOM     41  N   UNL     1      11.399  -4.471  -5.748  1.00  0.00    -0.248 NA
ATOM     42  C   UNL     1       9.860  -6.226  -5.759  1.00  0.00     0.031 C 
ATOM     43  C   UNL     1       8.118  -1.621  -6.810  1.00  0.00     0.029 A 
ATOM     44  N   UNL     1      10.318  -1.837  -6.480  1.00  0.00    -0.354 N 
ATOM     45  C   UNL     1      12.043  -5.650  -5.392  1.00  0.00     0.074 A 
ATOM     46  C   UNL     1      11.035  -6.687  -5.358  1.00  0.00     0.031 C 
ATOM     47  C   UNL     1       8.668  -0.404  -6.953  1.00  0.00     0.029 A 
ATOM     48  C   UNL     1      10.104  -0.498  -6.711  1.00  0.00     0.049 A 
ATOM     49  H   UNL     1      11.209  -2.219  -6.312  1.00  0.00     0.167 HD
ATOM     50  C   UNL     1      13.357  -5.853  -5.136  1.00  0.00     0.037 A 
ATOM     51  C   UNL     1      10.964   0.540  -6.713  1.00  0.00     0.037 A 
ATOM     52  C   UNL     1      14.361  -4.824  -5.206  1.00  0.00     0.049 A 
ATOM     53  C   UNL     1      12.422   0.288  -6.439  1.00  0.00     0.074 A 
ATOM     54  C   UNL     1      15.728  -4.941  -5.019  1.00  0.00     0.029 A 
ATOM     55  N   UNL     1      14.110  -3.490  -5.489  1.00  0.00    -0.354 N 
ATOM     56  N   UNL     1      13.021  -0.843  -6.154  1.00  0.00    -0.248 NA
ATOM     57  C   UNL     1      13.322   1.449  -6.492  1.00  0.00     0.031 C 
ATOM     58  C   UNL     1      16.299  -3.672  -5.158  1.00  0.00     0.029 A 
ATOM     59  C   UNL     1      15.293  -2.772  -5.473  1.00  0.00     0.049 A 
ATOM     60  H   UNL     1      13.220  -3.109  -5.674  1.00  0.00     0.167 HD
ATOM     61  C   UNL     1      14.371  -0.536  -6.026  1.00  0.00     0.074 A 
ATOM     62  C   UNL     1      14.502   0.886  -6.266  1.00  0.00     0.031 C 
ATOM     63  C   UNL     1      15.409  -1.359  -5.738  1.00  0.00     0.037 A 
BRANCH  50  64
ATOM     64  C   UNL     1      13.786  -7.245  -4.761  1.00  0.00     0.058 A 
ATOM     65  C   UNL     1      13.802  -8.287  -5.702  1.00  0.00     0.135 A 
ATOM     66  C   UNL     1      14.213  -7.535  -3.456  1.00  0.00     0.135 A 
ATOM     67  F   UNL     1      13.389  -8.068  -6.961  1.00  0.00    -0.206 F 
ATOM     68  C   UNL     1      14.195  -9.575  -5.354  1.00  0.00     0.059 A 
ATOM     69  C   UNL     1      14.637  -8.810  -3.092  1.00  0.00     0.059 A 
ATOM     70  F   UNL     1      14.220  -6.575  -2.517  1.00  0.00    -0.206 F 
ATOM     71  C   UNL     1      14.608  -9.827  -4.045  1.00  0.00     0.060 A 
BRANCH  71  72
ATOM     72  S   UNL     1      15.115 -11.504  -3.609  1.00  0.00     0.124 S 
ATOM     73  O   UNL     1      13.827 -12.187  -3.538  1.00  0.00    -0.237 OA
ATOM     74  O   UNL     1      15.967 -11.877  -4.734  1.00  0.00    -0.237 OA
ATOM     75  O   UNL     1      15.805 -11.330  -2.335  1.00  0.00    -0.744 OA
ENDBRANCH  71  72
ENDBRANCH  50  64
BRANCH  51  76
ATOM     76  C   UNL     1      10.471   1.912  -7.007  1.00  0.00     0.058 A 
ATOM     77  C   UNL     1      10.775   2.539  -8.224  1.00  0.00     0.135 A 
ATOM     78  C   UNL     1       9.675   2.616  -6.090  1.00  0.00     0.135 A 
ATOM     79  F   UNL     1      11.539   1.909  -9.130  1.00  0.00    -0.206 F 
ATOM     80  C   UNL     1      10.322   3.821  -8.518  1.00  0.00     0.059 A 
ATOM     81  C   UNL     1       9.190   3.890  -6.371  1.00  0.00     0.059 A 
ATOM     82  F   UNL     1       9.341   2.054  -4.919  1.00  0.00    -0.206 F 
ATOM     83  C   UNL     1       9.527   4.488  -7.585  1.00  0.00     0.060 A 
BRANCH  83  84
ATOM     84  S   UNL     1       8.898   6.130  -7.998  1.00  0.00     0.124 S 
ATOM     85  O   UNL     1      10.093   6.951  -7.839  1.00  0.00    -0.237 OA
ATOM     86  O   UNL     1       8.429   5.945  -9.368  1.00  0.00    -0.237 OA
ATOM     87  O   UNL     1       7.847   6.345  -7.008  1.00  0.00    -0.744 OA
ENDBRANCH  83  84
ENDBRANCH  51  76
BRANCH  63  88
ATOM     88  C   UNL     1      16.788  -0.763  -5.717  1.00  0.00     0.058 A 
ATOM     89  C   UNL     1      17.233   0.031  -4.650  1.00  0.00     0.135 A 
ATOM     90  C   UNL     1      17.700  -1.059  -6.743  1.00  0.00     0.135 A 
ATOM     91  F   UNL     1      16.398   0.348  -3.649  1.00  0.00    -0.206 F 
ATOM     92  C   UNL     1      18.536   0.519  -4.604  1.00  0.00     0.059 A 
ATOM     93  C   UNL     1      19.013  -0.601  -6.707  1.00  0.00     0.059 A 
ATOM     94  F   UNL     1      17.325  -1.821  -7.782  1.00  0.00    -0.206 F 
ATOM     95  C   UNL     1      19.420   0.193  -5.635  1.00  0.00     0.060 A 
BRANCH  95  96
ATOM     96  S   UNL     1      21.124   0.781  -5.535  1.00  0.00     0.124 S 
ATOM     97  O   UNL     1      20.969   2.190  -5.881  1.00  0.00    -0.237 OA
ATOM     98  O   UNL     1      21.470   0.504  -4.144  1.00  0.00    -0.237 OA
ATOM     99  O   UNL     1      21.824  -0.035  -6.522  1.00  0.00    -0.744 OA
ENDBRANCH  95  96
ENDBRANCH  63  88
ENDBRANCH  37  38
ENDBRANCH  29  32
ENDBRANCH  27  28
ENDBRANCH   1  27
TORSDOF 17
