REMARK SMILES O=C(NCCCCNC(=O)[C@H](CO)NC(=O)[C@H](Cc1c[nH]c2ccccc12)NC(=O)c1ccc(F)cc1)c1ccc(-c2c3nc(c(-c4c(F)cc(S(=O)(=O)[O-])cc4F)c4ccc([nH]4)c(-c4c(F)cc(S(=O)(=O)[O-])cc4F)c4nc(c(-c5c(F)cc(S(=O)(=O)[O-])cc5F)c5ccc2[nH]5)C=C4)C=C3)cc1
REMARK SMILES IDX 6 1 5 2 4 3 3 4 1 5 2 6 38 8 39 9 103 10 40 11 102 12 41 13
REMARK SMILES IDX 42 14 43 15 96 16 44 17 101 18 95 19 97 20 45 21 100 22
REMARK SMILES IDX 94 23 93 24 46 26 80 27 59 28 79 29 60 30 63 31 78 32 98 33
REMARK SMILES IDX 61 34 62 35 77 37 99 38 64 39 47 40 48 41 57 42 49 43 50 44
REMARK SMILES IDX 56 45 58 46 51 47 52 48 53 49 54 50 55 51 81 52 82 53 91 54
REMARK SMILES IDX 83 55 84 56 90 57 92 58 85 59 86 60 87 61 88 62 89 63 65 64
REMARK SMILES IDX 66 65 75 66 67 67 68 68 74 69 76 70 69 71 70 72 71 73 72 74
REMARK SMILES IDX 73 75 7 76 8 77 9 78 10 80 11 81 14 82 15 83 16 85 17 86
REMARK SMILES IDX 28 87 29 88 30 90 31 91 32 92 37 93 33 94 36 95 34 96 35 97
REMARK SMILES IDX 18 98 19 99 20 100 27 101 21 102 22 103 26 104 23 106 25 107
REMARK SMILES IDX 24 108 12 109 13 110
REMARK H PARENT 3 7 97 25 63 36 8 79 14 84 28 89 21 105 13 111
REMARK Flexibility Score: inf
ROOT
ATOM      1  C   UNL     1       6.890  10.675  -2.974  1.00  0.00     0.023 C 
ENDROOT
BRANCH   1   2
ATOM      2  C   UNL     1       6.625   9.948  -4.292  1.00  0.00     0.023 C 
BRANCH   2   3
ATOM      3  C   UNL     1       5.251   9.301  -4.426  1.00  0.00     0.116 C 
BRANCH   3   4
ATOM      4  N   UNL     1       4.159  10.256  -4.339  1.00  0.00    -0.352 N 
ATOM      5  O   UNL     1       2.389  11.451  -5.058  1.00  0.00    -0.269 OA
ATOM      6  C   UNL     1       3.148  10.509  -5.241  1.00  0.00     0.251 C 
ATOM      7  H   UNL     1       4.138  10.801  -3.520  1.00  0.00     0.163 HD
BRANCH   6   8
ATOM      8  C   UNL     1       3.001   9.653  -6.440  1.00  0.00     0.039 A 
ATOM      9  C   UNL     1       3.049   8.262  -6.334  1.00  0.00     0.014 A 
ATOM     10  C   UNL     1       2.812  10.256  -7.688  1.00  0.00     0.014 A 
ATOM     11  C   UNL     1       3.052   7.482  -7.485  1.00  0.00     0.010 A 
ATOM     12  C   UNL     1       2.736   9.463  -8.838  1.00  0.00     0.010 A 
ATOM     13  C   UNL     1       2.885   8.072  -8.749  1.00  0.00    -0.014 A 
BRANCH  13  14
ATOM     14  C   UNL     1       2.807   7.202  -9.951  1.00  0.00     0.031 A 
ATOM     15  C   UNL     1       3.868   7.243 -11.016  1.00  0.00     0.074 A 
ATOM     16  C   UNL     1       1.778   6.336 -10.051  1.00  0.00     0.049 A 
ATOM     17  N   UNL     1       3.954   6.535 -12.114  1.00  0.00    -0.248 NA
ATOM     18  C   UNL     1       4.972   8.199 -10.833  1.00  0.00     0.031 C 
ATOM     19  C   UNL     1       0.687   6.213  -9.080  1.00  0.00     0.029 A 
ATOM     20  N   UNL     1       1.490   5.383 -10.993  1.00  0.00    -0.354 N 
ATOM     21  C   UNL     1       5.109   6.964 -12.758  1.00  0.00     0.074 A 
ATOM     22  C   UNL     1       5.682   8.011 -11.938  1.00  0.00     0.031 C 
ATOM     23  C   UNL     1      -0.121   5.210  -9.450  1.00  0.00     0.029 A 
ATOM     24  C   UNL     1       0.357   4.658 -10.713  1.00  0.00     0.049 A 
ATOM     25  H   UNL     1       2.042   5.233 -11.795  1.00  0.00     0.167 HD
ATOM     26  C   UNL     1       5.642   6.517 -13.919  1.00  0.00     0.037 A 
ATOM     27  C   UNL     1      -0.244   3.667 -11.399  1.00  0.00     0.037 A 
ATOM     28  C   UNL     1       5.075   5.460 -14.718  1.00  0.00     0.049 A 
ATOM     29  C   UNL     1       0.357   3.209 -12.695  1.00  0.00     0.074 A 
ATOM     30  C   UNL     1       5.559   4.921 -15.899  1.00  0.00     0.029 A 
ATOM     31  N   UNL     1       3.904   4.779 -14.421  1.00  0.00    -0.354 N 
ATOM     32  N   UNL     1       1.454   3.623 -13.281  1.00  0.00    -0.248 NA
ATOM     33  C   UNL     1      -0.363   2.160 -13.428  1.00  0.00     0.031 C 
ATOM     34  C   UNL     1       4.662   3.940 -16.334  1.00  0.00     0.029 A 
ATOM     35  C   UNL     1       3.640   3.839 -15.405  1.00  0.00     0.049 A 
ATOM     36  H   UNL     1       3.342   4.940 -13.629  1.00  0.00     0.167 HD
ATOM     37  C   UNL     1       1.558   2.884 -14.452  1.00  0.00     0.074 A 
ATOM     38  C   UNL     1       0.425   1.981 -14.480  1.00  0.00     0.031 C 
ATOM     39  C   UNL     1       2.504   2.952 -15.420  1.00  0.00     0.037 A 
BRANCH  26  40
ATOM     40  C   UNL     1       6.909   7.158 -14.414  1.00  0.00     0.058 A 
ATOM     41  C   UNL     1       6.890   7.999 -15.538  1.00  0.00     0.135 A 
ATOM     42  C   UNL     1       8.154   6.859 -13.840  1.00  0.00     0.135 A 
ATOM     43  F   UNL     1       5.725   8.322 -16.122  1.00  0.00    -0.206 F 
ATOM     44  C   UNL     1       8.064   8.504 -16.090  1.00  0.00     0.059 A 
ATOM     45  C   UNL     1       9.340   7.368 -14.364  1.00  0.00     0.059 A 
ATOM     46  F   UNL     1       8.225   6.077 -12.752  1.00  0.00    -0.206 F 
ATOM     47  C   UNL     1       9.285   8.175 -15.500  1.00  0.00     0.060 A 
BRANCH  47  48
ATOM     48  S   UNL     1      10.800   8.842 -16.224  1.00  0.00     0.124 S 
ATOM     49  O   UNL     1      10.902   8.080 -17.463  1.00  0.00    -0.237 OA
ATOM     50  O   UNL     1      10.473  10.257 -16.370  1.00  0.00    -0.237 OA
ATOM     51  O   UNL     1      11.814   8.545 -15.215  1.00  0.00    -0.744 OA
ENDBRANCH  47  48
ENDBRANCH  26  40
BRANCH  27  52
ATOM     52  C   UNL     1      -1.488   3.057 -10.865  1.00  0.00     0.058 A 
ATOM     53  C   UNL     1      -2.689   3.781 -10.825  1.00  0.00     0.135 A 
ATOM     54  C   UNL     1      -1.488   1.757 -10.341  1.00  0.00     0.135 A 
ATOM     55  F   UNL     1      -2.737   5.034 -11.304  1.00  0.00    -0.206 F 
ATOM     56  C   UNL     1      -3.840   3.250 -10.257  1.00  0.00     0.059 A 
ATOM     57  C   UNL     1      -2.634   1.193  -9.790  1.00  0.00     0.059 A 
ATOM     58  F   UNL     1      -0.364   1.024 -10.368  1.00  0.00    -0.206 F 
ATOM     59  C   UNL     1      -3.800   1.956  -9.735  1.00  0.00     0.060 A 
BRANCH  59  60
ATOM     60  S   UNL     1      -5.302   1.285  -8.990  1.00  0.00     0.124 S 
ATOM     61  O   UNL     1      -5.347   2.012  -7.726  1.00  0.00    -0.237 OA
ATOM     62  O   UNL     1      -6.321   1.648  -9.969  1.00  0.00    -0.237 OA
ATOM     63  O   UNL     1      -5.015  -0.142  -8.887  1.00  0.00    -0.744 OA
ENDBRANCH  59  60
ENDBRANCH  27  52
BRANCH  39  64
ATOM     64  C   UNL     1       2.360   2.026 -16.592  1.00  0.00     0.058 A 
ATOM     65  C   UNL     1       3.211   0.921 -16.738  1.00  0.00     0.135 A 
ATOM     66  C   UNL     1       1.419   2.273 -17.604  1.00  0.00     0.135 A 
ATOM     67  F   UNL     1       4.128   0.644 -15.798  1.00  0.00    -0.206 F 
ATOM     68  C   UNL     1       3.146   0.099 -17.857  1.00  0.00     0.059 A 
ATOM     69  C   UNL     1       1.322   1.451 -18.723  1.00  0.00     0.059 A 
ATOM     70  F   UNL     1       0.574   3.311 -17.501  1.00  0.00    -0.206 F 
ATOM     71  C   UNL     1       2.202   0.376 -18.847  1.00  0.00     0.060 A 
BRANCH  71  72
ATOM     72  S   UNL     1       2.120  -0.708 -20.289  1.00  0.00     0.124 S 
ATOM     73  O   UNL     1       3.315  -0.313 -21.026  1.00  0.00    -0.237 OA
ATOM     74  O   UNL     1       2.158  -2.035 -19.682  1.00  0.00    -0.237 OA
ATOM     75  O   UNL     1       0.849  -0.349 -20.911  1.00  0.00    -0.744 OA
ENDBRANCH  71  72
ENDBRANCH  39  64
ENDBRANCH  13  14
ENDBRANCH   6   8
ENDBRANCH   3   4
ENDBRANCH   2   3
ENDBRANCH   1   2
BRANCH   1  76
ATOM     76  C   UNL     1       6.630   9.858  -1.713  1.00  0.00     0.116 C 
BRANCH  76  77
ATOM     77  N   UNL     1       7.454   8.662  -1.635  1.00  0.00    -0.354 N 
ATOM     78  C   UNL     1       8.290   8.235  -0.643  1.00  0.00     0.244 C 
ATOM     79  H   UNL     1       7.402   8.069  -2.420  1.00  0.00     0.163 HD
ATOM     80  O   UNL     1       8.807   7.122  -0.761  1.00  0.00    -0.273 OA
BRANCH  78  81
ATOM     81  C   UNL     1       8.636   9.156   0.536  1.00  0.00     0.197 C 
BRANCH  81  82
ATOM     82  N   UNL     1       8.793   8.342   1.749  1.00  0.00    -0.340 N 
ATOM     83  C   UNL     1       8.007   8.107   2.832  1.00  0.00     0.243 C 
ATOM     84  H   UNL     1       9.653   7.864   1.785  1.00  0.00     0.164 HD
ATOM     85  O   UNL     1       8.480   7.345   3.686  1.00  0.00    -0.273 OA
BRANCH  83  86
ATOM     86  C   UNL     1       6.551   8.614   3.006  1.00  0.00     0.176 C 
BRANCH  86  87
ATOM     87  N   UNL     1       6.159   9.757   2.188  1.00  0.00    -0.340 N 
ATOM     88  C   UNL     1       6.084  11.098   2.431  1.00  0.00     0.251 C 
ATOM     89  H   UNL     1       5.896   9.511   1.272  1.00  0.00     0.164 HD
ATOM     90  O   UNL     1       5.753  11.842   1.509  1.00  0.00    -0.269 OA
BRANCH  88  91
ATOM     91  C   UNL     1       6.315  11.671   3.772  1.00  0.00     0.040 A 
ATOM     92  C   UNL     1       7.447  11.385   4.542  1.00  0.00     0.017 A 
ATOM     93  C   UNL     1       5.366  12.595   4.237  1.00  0.00     0.017 A 
ATOM     94  C   UNL     1       7.597  11.985   5.797  1.00  0.00     0.040 A 
ATOM     95  C   UNL     1       5.522  13.196   5.486  1.00  0.00     0.040 A 
ATOM     96  C   UNL     1       6.633  12.879   6.258  1.00  0.00     0.123 A 
ATOM     97  F   UNL     1       6.784  13.451   7.459  1.00  0.00    -0.207 F 
ENDBRANCH  88  91
ENDBRANCH  86  87
BRANCH  86  98
ATOM     98  C   UNL     1       5.610   7.377   2.892  1.00  0.00     0.072 C 
BRANCH  98  99
ATOM     99  C   UNL     1       4.457   7.468   1.932  1.00  0.00    -0.020 A 
ATOM    100  C   UNL     1       4.532   7.626   0.561  1.00  0.00     0.087 A 
ATOM    101  C   UNL     1       3.064   7.299   2.238  1.00  0.00     0.003 A 
ATOM    102  N   UNL     1       3.264   7.742   0.064  1.00  0.00    -0.361 N 
ATOM    103  C   UNL     1       2.347   7.505   1.059  1.00  0.00     0.046 A 
ATOM    104  C   UNL     1       2.341   6.969   3.405  1.00  0.00     0.010 A 
ATOM    105  H   UNL     1       3.040   7.963  -0.869  1.00  0.00     0.166 HD
ATOM    106  C   UNL     1       0.951   7.438   0.990  1.00  0.00     0.026 A 
ATOM    107  C   UNL     1       0.946   6.855   3.345  1.00  0.00     0.001 A 
ATOM    108  C   UNL     1       0.263   7.097   2.156  1.00  0.00     0.002 A 
ENDBRANCH  98  99
ENDBRANCH  86  98
ENDBRANCH  83  86
ENDBRANCH  81  82
BRANCH  81 109
ATOM    109  C   UNL     1       9.939   9.899   0.188  1.00  0.00     0.191 C 
BRANCH 109 110
ATOM    110  O   UNL     1       9.677  11.258  -0.166  1.00  0.00    -0.394 OA
ATOM    111  H   UNL     1       9.099  11.283  -0.945  1.00  0.00     0.210 HD
ENDBRANCH 109 110
ENDBRANCH  81 109
ENDBRANCH  78  81
ENDBRANCH  76  77
ENDBRANCH   1  76
TORSDOF 22
