REMARK SMILES CC(=O)N[C@H]1[C@@H](O[C@H](C)C(=O)NCCCCNC(=O)c2ccc(-c3c4nc(c(-c5c(F)cc(S(=O)(=O)[O-])cc5F)c5ccc([nH]5)c(-c5c(F)cc(S(=O)(=O)[O-])cc5F)c5nc(c(-c6c(F)cc(S(=O)(=O)[O-])cc6F)c6ccc3[nH]6)C=C5)C=C4)cc2)[C@H]2OC(C)(C)OC[C@@H]2O[C@H]1Sc1ccc(Cl)cc1
REMARK SMILES IDX 14 1 13 2 12 3 10 4 11 5 8 7 9 8 7 9 6 10 5 11 95 12 86 13
REMARK SMILES IDX 94 14 87 15 93 16 88 17 92 18 89 19 90 20 91 21 4 22 1 23
REMARK SMILES IDX 2 24 3 25 96 27 97 28 98 29 103 30 99 31 102 32 100 33
REMARK SMILES IDX 101 34 15 35 16 36 17 37 18 38 19 40 20 41 21 42 85 43 22 44
REMARK SMILES IDX 84 45 23 46 24 47 25 48 78 49 26 50 83 51 77 52 79 53 27 54
REMARK SMILES IDX 82 55 76 56 75 57 28 59 62 60 41 61 61 62 42 63 45 64 60 65
REMARK SMILES IDX 80 66 43 67 44 68 59 70 81 71 46 72 29 73 30 74 39 75 31 76
REMARK SMILES IDX 32 77 38 78 40 79 33 80 34 81 35 82 36 83 37 84 63 85 64 86
REMARK SMILES IDX 73 87 65 88 66 89 72 90 74 91 67 92 68 93 69 94 70 95 71 96
REMARK SMILES IDX 47 97 48 98 57 99 49 100 50 101 56 102 58 103 51 104 52 105
REMARK SMILES IDX 53 106 54 107 55 108
REMARK H PARENT 12 6 4 26 17 39 79 58 45 69
REMARK Flexibility Score: inf
ROOT
ATOM      1  C   UNL     1      10.197   2.898  -3.954  1.00  0.00     0.023 C 
ENDROOT
BRANCH   1   2
ATOM      2  C   UNL     1       8.953   2.006  -3.989  1.00  0.00     0.116 C 
BRANCH   2   3
ATOM      3  N   UNL     1       7.755   2.567  -3.416  1.00  0.00    -0.354 N 
ATOM      4  C   UNL     1       6.458   2.209  -3.659  1.00  0.00     0.248 C 
ATOM      5  O   UNL     1       5.600   2.624  -2.870  1.00  0.00    -0.272 OA
ATOM      6  H   UNL     1       7.887   3.299  -2.771  1.00  0.00     0.163 HD
BRANCH   4   7
ATOM      7  C   UNL     1       5.984   1.320  -4.875  1.00  0.00     0.204 C 
ATOM      8  C   UNL     1       6.151   2.195  -6.123  1.00  0.00     0.049 C 
BRANCH   7   9
ATOM      9  O   UNL     1       6.441  -0.002  -5.184  1.00  0.00    -0.360 OA
BRANCH   9  10
ATOM     10  C   UNL     1       5.883  -1.117  -4.451  1.00  0.00     0.177 C 
ATOM     11  C   UNL     1       6.741  -1.345  -3.195  1.00  0.00     0.153 C 
ATOM     12  C   UNL     1       8.143  -1.908  -3.642  1.00  0.00     0.206 C 
ATOM     13  C   UNL     1       5.836  -2.547  -5.194  1.00  0.00     0.184 C 
ATOM     14  O   UNL     1       7.899  -3.279  -4.036  1.00  0.00    -0.356 OA
ATOM     15  O   UNL     1       5.229  -2.518  -6.491  1.00  0.00    -0.342 OA
ATOM     16  C   UNL     1       7.198  -3.275  -5.260  1.00  0.00     0.177 C 
ATOM     17  C   UNL     1       5.248  -3.780  -7.196  1.00  0.00     0.163 C 
ATOM     18  C   UNL     1       7.016  -4.655  -5.845  1.00  0.00     0.198 C 
ATOM     19  C   UNL     1       5.036  -3.437  -8.675  1.00  0.00     0.075 C 
ATOM     20  C   UNL     1       4.136  -4.726  -6.740  1.00  0.00     0.075 C 
ATOM     21  O   UNL     1       6.497  -4.478  -7.158  1.00  0.00    -0.348 OA
BRANCH  11  22
ATOM     22  N   UNL     1       6.611  -0.259  -2.217  1.00  0.00    -0.347 N 
ATOM     23  C   UNL     1       7.923  -1.151  -0.322  1.00  0.00     0.114 C 
ATOM     24  C   UNL     1       6.955  -0.176  -0.905  1.00  0.00     0.217 C 
ATOM     25  O   UNL     1       6.457   0.717  -0.223  1.00  0.00    -0.275 OA
ATOM     26  H   UNL     1       6.199   0.559  -2.577  1.00  0.00     0.163 HD
ENDBRANCH  11  22
BRANCH  12  27
ATOM     27  S   UNL     1       9.527  -1.150  -4.742  1.00  0.00    -0.092 SA
BRANCH  27  28
ATOM     28  C   UNL     1       9.132  -0.517  -6.396  1.00  0.00     0.010 A 
ATOM     29  C   UNL     1       8.040  -0.739  -7.239  1.00  0.00     0.016 A 
ATOM     30  C   UNL     1      10.116   0.339  -6.931  1.00  0.00     0.016 A 
ATOM     31  C   UNL     1       7.887  -0.123  -8.493  1.00  0.00     0.021 A 
ATOM     32  C   UNL     1       9.974   0.985  -8.173  1.00  0.00     0.021 A 
ATOM     33  C   UNL     1       8.850   0.754  -8.950  1.00  0.00     0.041 A 
ATOM     34  Cl  UNL     1       8.642   1.547 -10.459  1.00  0.00    -0.084 Cl
ENDBRANCH  27  28
ENDBRANCH  12  27
ENDBRANCH   9  10
ENDBRANCH   7   9
ENDBRANCH   4   7
ENDBRANCH   2   3
ENDBRANCH   1   2
BRANCH   1  35
ATOM     35  C   UNL     1      11.163   2.642  -2.787  1.00  0.00     0.023 C 
BRANCH  35  36
ATOM     36  C   UNL     1      11.811   1.254  -2.702  1.00  0.00     0.116 C 
BRANCH  36  37
ATOM     37  N   UNL     1      12.614   0.902  -3.864  1.00  0.00    -0.352 N 
ATOM     38  C   UNL     1      13.876   0.360  -3.943  1.00  0.00     0.251 C 
ATOM     39  H   UNL     1      12.186   1.080  -4.733  1.00  0.00     0.163 HD
ATOM     40  O   UNL     1      14.399   0.187  -5.043  1.00  0.00    -0.269 OA
BRANCH  38  41
ATOM     41  C   UNL     1      14.623   0.037  -2.710  1.00  0.00     0.039 A 
ATOM     42  C   UNL     1      15.930   0.512  -2.571  1.00  0.00     0.014 A 
ATOM     43  C   UNL     1      14.029  -0.695  -1.680  1.00  0.00     0.014 A 
ATOM     44  C   UNL     1      16.606   0.337  -1.361  1.00  0.00     0.010 A 
ATOM     45  C   UNL     1      14.678  -0.807  -0.451  1.00  0.00     0.010 A 
ATOM     46  C   UNL     1      15.966  -0.279  -0.272  1.00  0.00    -0.014 A 
BRANCH  46  47
ATOM     47  C   UNL     1      16.617  -0.346   1.064  1.00  0.00     0.031 A 
ATOM     48  C   UNL     1      16.946  -1.676   1.687  1.00  0.00     0.074 A 
ATOM     49  C   UNL     1      16.850   0.793   1.748  1.00  0.00     0.049 A 
ATOM     50  N   UNL     1      17.459  -1.933   2.863  1.00  0.00    -0.248 NA
ATOM     51  C   UNL     1      16.634  -2.876   0.894  1.00  0.00     0.031 C 
ATOM     52  C   UNL     1      16.525   2.143   1.280  1.00  0.00     0.029 A 
ATOM     53  N   UNL     1      17.405   1.000   2.987  1.00  0.00    -0.354 N 
ATOM     54  C   UNL     1      17.519  -3.318   2.958  1.00  0.00     0.074 A 
ATOM     55  C   UNL     1      16.940  -3.848   1.742  1.00  0.00     0.031 C 
ATOM     56  C   UNL     1      16.907   3.036   2.207  1.00  0.00     0.029 A 
ATOM     57  C   UNL     1      17.470   2.325   3.351  1.00  0.00     0.049 A 
ATOM     58  H   UNL     1      17.726   0.268   3.562  1.00  0.00     0.167 HD
ATOM     59  C   UNL     1      18.030  -4.079   3.955  1.00  0.00     0.037 A 
ATOM     60  C   UNL     1      17.925   2.905   4.479  1.00  0.00     0.037 A 
ATOM     61  C   UNL     1      18.626  -3.546   5.154  1.00  0.00     0.049 A 
ATOM     62  C   UNL     1      18.497   2.039   5.570  1.00  0.00     0.074 A 
ATOM     63  C   UNL     1      19.222  -4.233   6.197  1.00  0.00     0.029 A 
ATOM     64  N   UNL     1      18.700  -2.197   5.472  1.00  0.00    -0.354 N 
ATOM     65  N   UNL     1      18.606   0.732   5.613  1.00  0.00    -0.248 NA
ATOM     66  C   UNL     1      19.019   2.725   6.760  1.00  0.00     0.031 C 
ATOM     67  C   UNL     1      19.616  -3.304   7.166  1.00  0.00     0.029 A 
ATOM     68  C   UNL     1      19.316  -2.033   6.702  1.00  0.00     0.049 A 
ATOM     69  H   UNL     1      18.364  -1.465   4.907  1.00  0.00     0.167 HD
ATOM     70  C   UNL     1      19.238   0.443   6.818  1.00  0.00     0.074 A 
ATOM     71  C   UNL     1      19.495   1.711   7.468  1.00  0.00     0.031 C 
ATOM     72  C   UNL     1      19.576  -0.764   7.336  1.00  0.00     0.037 A 
BRANCH  59  73
ATOM     73  C   UNL     1      17.974  -5.574   3.791  1.00  0.00     0.058 A 
ATOM     74  C   UNL     1      18.762  -6.242   2.839  1.00  0.00     0.135 A 
ATOM     75  C   UNL     1      17.149  -6.354   4.618  1.00  0.00     0.135 A 
ATOM     76  F   UNL     1      19.558  -5.545   2.012  1.00  0.00    -0.206 F 
ATOM     77  C   UNL     1      18.710  -7.624   2.690  1.00  0.00     0.059 A 
ATOM     78  C   UNL     1      17.104  -7.741   4.507  1.00  0.00     0.059 A 
ATOM     79  F   UNL     1      16.375  -5.770   5.545  1.00  0.00    -0.206 F 
ATOM     80  C   UNL     1      17.877  -8.365   3.529  1.00  0.00     0.060 A 
BRANCH  80  81
ATOM     81  S   UNL     1      17.823 -10.158   3.325  1.00  0.00     0.124 S 
ATOM     82  O   UNL     1      17.076 -10.285   2.077  1.00  0.00    -0.237 OA
ATOM     83  O   UNL     1      19.239 -10.506   3.253  1.00  0.00    -0.237 OA
ATOM     84  O   UNL     1      17.128 -10.617   4.522  1.00  0.00    -0.744 OA
ENDBRANCH  80  81
ENDBRANCH  59  73
BRANCH  60  85
ATOM     85  C   UNL     1      17.887   4.386   4.624  1.00  0.00     0.058 A 
ATOM     86  C   UNL     1      19.068   5.144   4.607  1.00  0.00     0.135 A 
ATOM     87  C   UNL     1      16.673   5.073   4.773  1.00  0.00     0.135 A 
ATOM     88  F   UNL     1      20.255   4.532   4.474  1.00  0.00    -0.206 F 
ATOM     89  C   UNL     1      19.049   6.527   4.751  1.00  0.00     0.059 A 
ATOM     90  C   UNL     1      16.626   6.459   4.891  1.00  0.00     0.059 A 
ATOM     91  F   UNL     1      15.513   4.397   4.778  1.00  0.00    -0.206 F 
ATOM     92  C   UNL     1      17.822   7.177   4.890  1.00  0.00     0.060 A 
BRANCH  92  93
ATOM     93  S   UNL     1      17.806   8.977   5.029  1.00  0.00     0.124 S 
ATOM     94  O   UNL     1      18.312   9.172   6.383  1.00  0.00    -0.237 OA
ATOM     95  O   UNL     1      18.702   9.376   3.948  1.00  0.00    -0.237 OA
ATOM     96  O   UNL     1      16.401   9.317   4.825  1.00  0.00    -0.744 OA
ENDBRANCH  92  93
ENDBRANCH  60  85
BRANCH  72  97
ATOM     97  C   UNL     1      20.307  -0.773   8.651  1.00  0.00     0.058 A 
ATOM     98  C   UNL     1      19.667  -0.453   9.859  1.00  0.00     0.135 A 
ATOM     99  C   UNL     1      21.659  -1.149   8.707  1.00  0.00     0.135 A 
ATOM    100  F   UNL     1      18.377  -0.082   9.862  1.00  0.00    -0.206 F 
ATOM    101  C   UNL     1      20.349  -0.475  11.071  1.00  0.00     0.059 A 
ATOM    102  C   UNL     1      22.353  -1.208   9.911  1.00  0.00     0.059 A 
ATOM    103  F   UNL     1      22.317  -1.477   7.583  1.00  0.00    -0.206 F 
ATOM    104  C   UNL     1      21.693  -0.854  11.087  1.00  0.00     0.060 A 
BRANCH 104 105
ATOM    105  S   UNL     1      22.562  -0.902  12.669  1.00  0.00     0.124 S 
ATOM    106  O   UNL     1      22.752   0.518  12.942  1.00  0.00    -0.237 OA
ATOM    107  O   UNL     1      21.606  -1.592  13.530  1.00  0.00    -0.237 OA
ATOM    108  O   UNL     1      23.778  -1.652  12.367  1.00  0.00    -0.744 OA
ENDBRANCH 104 105
ENDBRANCH  72  97
ENDBRANCH  46  47
ENDBRANCH  38  41
ENDBRANCH  36  37
ENDBRANCH  35  36
ENDBRANCH   1  35
TORSDOF 19
