REMARK SMILES O=C(NCCCCNC(=O)c1csc(-c2cnc3ccccc3c2)c1)c1ccc(-c2c3nc(c(-c4c(F)cc(S(=O)(=O)[O-])cc4F)c4ccc([nH]4)c(-c4c(F)cc(S(=O)(=O)[O-])cc4F)c4nc(c(-c5c(F)cc(S(=O)(=O)[O-])cc5F)c5ccc2[nH]5)C=C4)C=C3)cc1
REMARK SMILES IDX 4 1 3 2 1 3 2 4 26 6 27 7 91 8 28 9 90 10 29 11 30 12 31 13
REMARK SMILES IDX 84 14 32 15 89 16 83 17 85 18 33 19 88 20 82 21 81 22 34 24
REMARK SMILES IDX 68 25 47 26 67 27 48 28 51 29 66 30 86 31 49 32 50 33 65 35
REMARK SMILES IDX 87 36 52 37 35 38 36 39 45 40 37 41 38 42 44 43 46 44 39 45
REMARK SMILES IDX 40 46 41 47 42 48 43 49 69 50 70 51 79 52 71 53 72 54 78 55
REMARK SMILES IDX 80 56 73 57 74 58 75 59 76 60 77 61 53 62 54 63 63 64 55 65
REMARK SMILES IDX 56 66 62 67 64 68 57 69 58 70 59 71 60 72 61 73 5 74 6 75
REMARK SMILES IDX 7 76 8 77 9 78 10 80 11 81 12 82 25 83 13 84 14 85 15 86
REMARK SMILES IDX 16 87 24 88 17 89 23 90 18 91 22 92 19 93 21 94 20 95
REMARK H PARENT 3 5 85 23 51 34 8 79
REMARK Flexibility Score: inf
ROOT
ATOM      1  C   UNL     1       4.546  -0.613  -1.302  1.00  0.00     0.116 C 
ENDROOT
BRANCH   1   2
ATOM      2  N   UNL     1       3.137  -0.292  -1.160  1.00  0.00    -0.352 N 
ATOM      3  O   UNL     1       1.208   0.159  -0.096  1.00  0.00    -0.269 OA
ATOM      4  C   UNL     1       2.425   0.012  -0.025  1.00  0.00     0.251 C 
ATOM      5  H   UNL     1       2.618  -0.292  -1.996  1.00  0.00     0.163 HD
BRANCH   4   6
ATOM      6  C   UNL     1       3.110   0.127   1.283  1.00  0.00     0.039 A 
ATOM      7  C   UNL     1       4.293   0.857   1.424  1.00  0.00     0.014 A 
ATOM      8  C   UNL     1       2.535  -0.494   2.397  1.00  0.00     0.014 A 
ATOM      9  C   UNL     1       4.956   0.875   2.650  1.00  0.00     0.010 A 
ATOM     10  C   UNL     1       3.176  -0.435   3.638  1.00  0.00     0.010 A 
ATOM     11  C   UNL     1       4.406   0.226   3.767  1.00  0.00    -0.014 A 
BRANCH  11  12
ATOM     12  C   UNL     1       5.116   0.279   5.069  1.00  0.00     0.031 A 
ATOM     13  C   UNL     1       5.776  -0.944   5.641  1.00  0.00     0.074 A 
ATOM     14  C   UNL     1       5.184   1.452   5.727  1.00  0.00     0.049 A 
ATOM     15  N   UNL     1       6.471  -1.064   6.743  1.00  0.00    -0.248 NA
ATOM     16  C   UNL     1       5.632  -2.196   4.882  1.00  0.00     0.031 C 
ATOM     17  C   UNL     1       4.562   2.702   5.287  1.00  0.00     0.029 A 
ATOM     18  N   UNL     1       5.819   1.787   6.895  1.00  0.00    -0.354 N 
ATOM     19  C   UNL     1       6.830  -2.404   6.824  1.00  0.00     0.074 A 
ATOM     20  C   UNL     1       6.267  -3.061   5.663  1.00  0.00     0.031 C 
ATOM     21  C   UNL     1       4.877   3.677   6.154  1.00  0.00     0.029 A 
ATOM     22  C   UNL     1       5.698   3.116   7.223  1.00  0.00     0.049 A 
ATOM     23  H   UNL     1       6.314   1.139   7.446  1.00  0.00     0.167 HD
ATOM     24  C   UNL     1       7.567  -3.026   7.775  1.00  0.00     0.037 A 
ATOM     25  C   UNL     1       6.196   3.808   8.264  1.00  0.00     0.037 A 
ATOM     26  C   UNL     1       8.151  -2.370   8.915  1.00  0.00     0.049 A 
ATOM     27  C   UNL     1       7.040   3.104   9.284  1.00  0.00     0.074 A 
ATOM     28  C   UNL     1       8.946  -2.913   9.910  1.00  0.00     0.029 A 
ATOM     29  N   UNL     1       8.005  -1.023   9.212  1.00  0.00    -0.354 N 
ATOM     30  N   UNL     1       7.392   1.842   9.327  1.00  0.00    -0.248 NA
ATOM     31  C   UNL     1       7.553   3.916  10.396  1.00  0.00     0.031 C 
ATOM     32  C   UNL     1       9.268  -1.896  10.819  1.00  0.00     0.029 A 
ATOM     33  C   UNL     1       8.687  -0.718  10.379  1.00  0.00     0.049 A 
ATOM     34  H   UNL     1       7.492  -0.379   8.673  1.00  0.00     0.167 HD
ATOM     35  C   UNL     1       8.164   1.705  10.474  1.00  0.00     0.074 A 
ATOM     36  C   UNL     1       8.245   3.017  11.084  1.00  0.00     0.031 C 
ATOM     37  C   UNL     1       8.747   0.590  10.978  1.00  0.00     0.037 A 
BRANCH  24  38
ATOM     38  C   UNL     1       7.777  -4.505   7.625  1.00  0.00     0.058 A 
ATOM     39  C   UNL     1       8.731  -5.022   6.737  1.00  0.00     0.135 A 
ATOM     40  C   UNL     1       7.036  -5.412   8.398  1.00  0.00     0.135 A 
ATOM     41  F   UNL     1       9.453  -4.194   5.965  1.00  0.00    -0.206 F 
ATOM     42  C   UNL     1       8.932  -6.392   6.605  1.00  0.00     0.059 A 
ATOM     43  C   UNL     1       7.229  -6.786   8.292  1.00  0.00     0.059 A 
ATOM     44  F   UNL     1       6.108  -4.965   9.259  1.00  0.00    -0.206 F 
ATOM     45  C   UNL     1       8.171  -7.267   7.382  1.00  0.00     0.060 A 
BRANCH  45  46
ATOM     46  S   UNL     1       8.431  -9.045   7.205  1.00  0.00     0.124 S 
ATOM     47  O   UNL     1       7.642  -9.334   6.011  1.00  0.00    -0.237 OA
ATOM     48  O   UNL     1       9.878  -9.142   7.044  1.00  0.00    -0.237 OA
ATOM     49  O   UNL     1       7.906  -9.588   8.454  1.00  0.00    -0.744 OA
ENDBRANCH  45  46
ENDBRANCH  24  38
BRANCH  25  50
ATOM     50  C   UNL     1       5.915   5.260   8.368  1.00  0.00     0.058 A 
ATOM     51  C   UNL     1       6.882   6.204   8.000  1.00  0.00     0.135 A 
ATOM     52  C   UNL     1       4.656   5.725   8.773  1.00  0.00     0.135 A 
ATOM     53  F   UNL     1       8.100   5.800   7.609  1.00  0.00    -0.206 F 
ATOM     54  C   UNL     1       6.608   7.567   8.020  1.00  0.00     0.059 A 
ATOM     55  C   UNL     1       4.354   7.082   8.787  1.00  0.00     0.059 A 
ATOM     56  F   UNL     1       3.697   4.853   9.119  1.00  0.00    -0.206 F 
ATOM     57  C   UNL     1       5.338   7.996   8.410  1.00  0.00     0.060 A 
BRANCH  57  58
ATOM     58  S   UNL     1       4.946   9.758   8.340  1.00  0.00     0.124 S 
ATOM     59  O   UNL     1       5.439  10.219   9.632  1.00  0.00    -0.237 OA
ATOM     60  O   UNL     1       5.700  10.204   7.172  1.00  0.00    -0.237 OA
ATOM     61  O   UNL     1       3.495   9.764   8.175  1.00  0.00    -0.744 OA
ENDBRANCH  57  58
ENDBRANCH  25  50
BRANCH  37  62
ATOM     62  C   UNL     1       9.512   0.745  12.257  1.00  0.00     0.058 A 
ATOM     63  C   UNL     1       8.852   0.788  13.494  1.00  0.00     0.135 A 
ATOM     64  C   UNL     1      10.912   0.824  12.251  1.00  0.00     0.135 A 
ATOM     65  F   UNL     1       7.512   0.722  13.547  1.00  0.00    -0.206 F 
ATOM     66  C   UNL     1       9.555   0.922  14.686  1.00  0.00     0.059 A 
ATOM     67  C   UNL     1      11.637   0.947  13.432  1.00  0.00     0.059 A 
ATOM     68  F   UNL     1      11.587   0.782  11.091  1.00  0.00    -0.206 F 
ATOM     69  C   UNL     1      10.948   1.007  14.645  1.00  0.00     0.060 A 
BRANCH  69  70
ATOM     70  S   UNL     1      11.863   1.161  16.194  1.00  0.00     0.124 S 
ATOM     71  O   UNL     1      11.787   2.598  16.435  1.00  0.00    -0.237 OA
ATOM     72  O   UNL     1      11.091   0.325  17.107  1.00  0.00    -0.237 OA
ATOM     73  O   UNL     1      13.186   0.647  15.852  1.00  0.00    -0.744 OA
ENDBRANCH  69  70
ENDBRANCH  37  62
ENDBRANCH  11  12
ENDBRANCH   4   6
ENDBRANCH   1   2
BRANCH   1  74
ATOM     74  C   UNL     1       4.811  -1.731  -2.307  1.00  0.00     0.023 C 
BRANCH  74  75
ATOM     75  C   UNL     1       4.292  -1.493  -3.729  1.00  0.00     0.023 C 
BRANCH  75  76
ATOM     76  C   UNL     1       4.695  -0.161  -4.362  1.00  0.00     0.116 C 
BRANCH  76  77
ATOM     77  N   UNL     1       6.137  -0.019  -4.462  1.00  0.00    -0.352 N 
ATOM     78  C   UNL     1       6.962  -0.179  -5.544  1.00  0.00     0.252 C 
ATOM     79  H   UNL     1       6.590   0.231  -3.625  1.00  0.00     0.163 HD
ATOM     80  O   UNL     1       8.174  -0.279  -5.360  1.00  0.00    -0.269 OA
BRANCH  78  81
ATOM     81  C   UNL     1       6.393  -0.248  -6.881  1.00  0.00     0.051 A 
ATOM     82  C   UNL     1       5.514   0.677  -7.413  1.00  0.00     0.079 A 
ATOM     83  C   UNL     1       6.755  -1.222  -7.871  1.00  0.00     0.034 A 
ATOM     84  S   UNL     1       5.076   0.323  -9.026  1.00  0.00    -0.143 S 
ATOM     85  C   UNL     1       6.112  -1.040  -9.080  1.00  0.00     0.037 A 
BRANCH  85  86
ATOM     86  C   UNL     1       6.217  -1.845 -10.296  1.00  0.00     0.011 A 
ATOM     87  C   UNL     1       6.090  -3.228 -10.254  1.00  0.00     0.121 A 
ATOM     88  C   UNL     1       6.482  -1.276 -11.543  1.00  0.00     0.021 A 
ATOM     89  N   UNL     1       6.199  -4.046 -11.330  1.00  0.00    -0.256 NA
ATOM     90  C   UNL     1       6.608  -2.088 -12.680  1.00  0.00     0.001 A 
ATOM     91  C   UNL     1       6.457  -3.482 -12.522  1.00  0.00     0.070 A 
ATOM     92  C   UNL     1       6.886  -1.546 -13.947  1.00  0.00     0.010 A 
ATOM     93  C   UNL     1       6.589  -4.288 -13.644  1.00  0.00     0.029 A 
ATOM     94  C   UNL     1       7.015  -2.378 -15.056  1.00  0.00     0.001 A 
ATOM     95  C   UNL     1       6.866  -3.752 -14.905  1.00  0.00     0.002 A 
ENDBRANCH  85  86
ENDBRANCH  78  81
ENDBRANCH  76  77
ENDBRANCH  75  76
ENDBRANCH  74  75
ENDBRANCH   1  74
TORSDOF 15
