REMARK SMILES O=C(NCCCCNC(=O)c1cc(S[C@H]2CCO[C@@]3(CCOC3)C2)cs1)c1ccc(-c2c3nc(c(-c4c(F)cc(S(=O)(=O)[O-])cc4F)c4ccc([nH]4)c(-c4c(F)cc(S(=O)(=O)[O-])cc4F)c4nc(c(-c5c(F)cc(S(=O)(=O)[O-])cc5F)c5ccc2[nH]5)C=C4)C=C3)cc1
REMARK SMILES IDX 5 1 4 2 3 3 1 4 2 5 27 7 28 8 92 9 29 10 91 11 30 12 31 13
REMARK SMILES IDX 32 14 85 15 33 16 90 17 84 18 86 19 34 20 89 21 83 22 82 23
REMARK SMILES IDX 35 25 69 26 48 27 68 28 49 29 52 30 67 31 87 32 50 33 51 34
REMARK SMILES IDX 66 36 88 37 53 38 36 39 37 40 46 41 38 42 39 43 45 44 47 45
REMARK SMILES IDX 40 46 41 47 42 48 43 49 44 50 70 51 71 52 80 53 72 54 73 55
REMARK SMILES IDX 79 56 81 57 74 58 75 59 76 60 77 61 78 62 54 63 55 64 64 65
REMARK SMILES IDX 56 66 57 67 63 68 65 69 58 70 59 71 60 72 61 73 62 74 6 75
REMARK SMILES IDX 7 76 8 77 9 78 10 80 11 81 12 82 26 83 13 84 25 85 14 86
REMARK SMILES IDX 15 87 16 88 24 89 17 90 19 91 18 92 20 93 23 94 21 95 22 96
REMARK H PARENT 3 6 86 24 52 35 8 79
REMARK Flexibility Score: inf
ROOT
ATOM      1  C   UNL     1       9.185   3.341  11.854  1.00  0.00     0.023 C 
ENDROOT
BRANCH   1   2
ATOM      2  C   UNL     1       9.844   3.210  10.484  1.00  0.00     0.116 C 
BRANCH   2   3
ATOM      3  N   UNL     1       9.872   4.467   9.754  1.00  0.00    -0.352 N 
ATOM      4  O   UNL     1      10.783   6.307   8.836  1.00  0.00    -0.269 OA
ATOM      5  C   UNL     1      10.948   5.169   9.267  1.00  0.00     0.251 C 
ATOM      6  H   UNL     1       8.992   4.875   9.585  1.00  0.00     0.163 HD
BRANCH   5   7
ATOM      7  C   UNL     1      12.300   4.567   9.275  1.00  0.00     0.039 A 
ATOM      8  C   UNL     1      12.501   3.248   8.860  1.00  0.00     0.014 A 
ATOM      9  C   UNL     1      13.390   5.353   9.664  1.00  0.00     0.014 A 
ATOM     10  C   UNL     1      13.769   2.681   8.939  1.00  0.00     0.010 A 
ATOM     11  C   UNL     1      14.675   4.802   9.679  1.00  0.00     0.010 A 
ATOM     12  C   UNL     1      14.871   3.457   9.331  1.00  0.00    -0.014 A 
BRANCH  12  13
ATOM     13  C   UNL     1      16.235   2.877   9.264  1.00  0.00     0.031 A 
ATOM     14  C   UNL     1      17.042   2.634  10.508  1.00  0.00     0.074 A 
ATOM     15  C   UNL     1      16.744   2.582   8.051  1.00  0.00     0.049 A 
ATOM     16  N   UNL     1      18.254   2.152  10.616  1.00  0.00    -0.248 NA
ATOM     17  C   UNL     1      16.419   2.979  11.795  1.00  0.00     0.031 C 
ATOM     18  C   UNL     1      16.059   2.809   6.774  1.00  0.00     0.029 A 
ATOM     19  N   UNL     1      17.948   2.036   7.688  1.00  0.00    -0.354 N 
ATOM     20  C   UNL     1      18.549   2.156  11.974  1.00  0.00     0.074 A 
ATOM     21  C   UNL     1      17.391   2.696  12.654  1.00  0.00     0.031 C 
ATOM     22  C   UNL     1      16.847   2.394   5.772  1.00  0.00     0.029 A 
ATOM     23  C   UNL     1      18.109   1.919   6.328  1.00  0.00     0.049 A 
ATOM     24  H   UNL     1      18.631   1.755   8.339  1.00  0.00     0.167 HD
ATOM     25  C   UNL     1      19.681   1.741  12.589  1.00  0.00     0.037 A 
ATOM     26  C   UNL     1      19.165   1.508   5.603  1.00  0.00     0.037 A 
ATOM     27  C   UNL     1      20.813   1.171  11.903  1.00  0.00     0.049 A 
ATOM     28  C   UNL     1      20.411   1.069   6.315  1.00  0.00     0.074 A 
ATOM     29  C   UNL     1      21.962   0.623  12.449  1.00  0.00     0.029 A 
ATOM     30  N   UNL     1      20.949   1.092  10.525  1.00  0.00    -0.354 N 
ATOM     31  N   UNL     1      20.639   1.004   7.604  1.00  0.00    -0.248 NA
ATOM     32  C   UNL     1      21.546   0.660   5.477  1.00  0.00     0.031 C 
ATOM     33  C   UNL     1      22.811   0.252  11.400  1.00  0.00     0.029 A 
ATOM     34  C   UNL     1      22.178   0.541  10.202  1.00  0.00     0.049 A 
ATOM     35  H   UNL     1      20.272   1.384   9.873  1.00  0.00     0.167 HD
ATOM     36  C   UNL     1      21.946   0.554   7.734  1.00  0.00     0.074 A 
ATOM     37  C   UNL     1      22.449   0.334   6.393  1.00  0.00     0.031 C 
ATOM     38  C   UNL     1      22.668   0.348   8.862  1.00  0.00     0.037 A 
BRANCH  25  39
ATOM     39  C   UNL     1      19.775   1.881  14.081  1.00  0.00     0.058 A 
ATOM     40  C   UNL     1      19.135   0.982  14.946  1.00  0.00     0.135 A 
ATOM     41  C   UNL     1      20.603   2.863  14.649  1.00  0.00     0.135 A 
ATOM     42  F   UNL     1      18.323   0.032  14.455  1.00  0.00    -0.206 F 
ATOM     43  C   UNL     1      19.313   1.050  16.325  1.00  0.00     0.059 A 
ATOM     44  C   UNL     1      20.808   2.941  16.023  1.00  0.00     0.059 A 
ATOM     45  F   UNL     1      21.236   3.748  13.863  1.00  0.00    -0.206 F 
ATOM     46  C   UNL     1      20.156   2.030  16.854  1.00  0.00     0.060 A 
BRANCH  46  47
ATOM     47  S   UNL     1      20.415   2.076  18.641  1.00  0.00     0.124 S 
ATOM     48  O   UNL     1      19.151   2.640  19.104  1.00  0.00    -0.237 OA
ATOM     49  O   UNL     1      20.635   0.669  18.961  1.00  0.00    -0.237 OA
ATOM     50  O   UNL     1      21.581   2.940  18.794  1.00  0.00    -0.744 OA
ENDBRANCH  46  47
ENDBRANCH  25  39
BRANCH  26  51
ATOM     51  C   UNL     1      19.100   1.539   4.121  1.00  0.00     0.058 A 
ATOM     52  C   UNL     1      19.021   0.357   3.372  1.00  0.00     0.135 A 
ATOM     53  C   UNL     1      19.101   2.759   3.427  1.00  0.00     0.135 A 
ATOM     54  F   UNL     1      19.021  -0.832   3.993  1.00  0.00    -0.206 F 
ATOM     55  C   UNL     1      18.959   0.381   1.983  1.00  0.00     0.059 A 
ATOM     56  C   UNL     1      19.017   2.810   2.040  1.00  0.00     0.059 A 
ATOM     57  F   UNL     1      19.157   3.917   4.102  1.00  0.00    -0.206 F 
ATOM     58  C   UNL     1      18.959   1.614   1.326  1.00  0.00     0.060 A 
BRANCH  58  59
ATOM     59  S   UNL     1      18.836   1.646  -0.475  1.00  0.00     0.124 S 
ATOM     60  O   UNL     1      20.214   1.374  -0.866  1.00  0.00    -0.237 OA
ATOM     61  O   UNL     1      17.873   0.581  -0.742  1.00  0.00    -0.237 OA
ATOM     62  O   UNL     1      18.353   2.996  -0.750  1.00  0.00    -0.744 OA
ENDBRANCH  58  59
ENDBRANCH  26  51
BRANCH  38  63
ATOM     63  C   UNL     1      24.081  -0.122   8.691  1.00  0.00     0.058 A 
ATOM     64  C   UNL     1      25.096   0.765   8.301  1.00  0.00     0.135 A 
ATOM     65  C   UNL     1      24.434  -1.454   8.957  1.00  0.00     0.135 A 
ATOM     66  F   UNL     1      24.804   2.046   8.024  1.00  0.00    -0.206 F 
ATOM     67  C   UNL     1      26.414   0.344   8.168  1.00  0.00     0.059 A 
ATOM     68  C   UNL     1      25.749  -1.892   8.850  1.00  0.00     0.059 A 
ATOM     69  F   UNL     1      23.498  -2.338   9.337  1.00  0.00    -0.206 F 
ATOM     70  C   UNL     1      26.731  -0.987   8.446  1.00  0.00     0.060 A 
BRANCH  70  71
ATOM     71  S   UNL     1      28.452  -1.516   8.307  1.00  0.00     0.124 S 
ATOM     72  O   UNL     1      28.602  -1.650   6.862  1.00  0.00    -0.237 OA
ATOM     73  O   UNL     1      29.174  -0.405   8.920  1.00  0.00    -0.237 OA
ATOM     74  O   UNL     1      28.482  -2.766   9.061  1.00  0.00    -0.744 OA
ENDBRANCH  70  71
ENDBRANCH  38  63
ENDBRANCH  12  13
ENDBRANCH   5   7
ENDBRANCH   2   3
ENDBRANCH   1   2
BRANCH   1  75
ATOM     75  C   UNL     1       7.721   3.778  11.834  1.00  0.00     0.023 C 
BRANCH  75  76
ATOM     76  C   UNL     1       6.779   2.861  11.060  1.00  0.00     0.116 C 
BRANCH  76  77
ATOM     77  N   UNL     1       6.638   1.553  11.686  1.00  0.00    -0.351 N 
ATOM     78  C   UNL     1       5.496   0.899  12.096  1.00  0.00     0.261 C 
ATOM     79  H   UNL     1       7.480   1.066  11.838  1.00  0.00     0.163 HD
ATOM     80  O   UNL     1       5.637  -0.112  12.793  1.00  0.00    -0.268 OA
BRANCH  78  81
ATOM     81  C   UNL     1       4.209   1.397  11.655  1.00  0.00     0.093 A 
ATOM     82  C   UNL     1       3.873   1.868  10.403  1.00  0.00     0.040 A 
ATOM     83  S   UNL     1       2.848   1.394  12.686  1.00  0.00    -0.137 S 
ATOM     84  C   UNL     1       2.535   2.339  10.309  1.00  0.00     0.019 A 
ATOM     85  C   UNL     1       1.858   2.133  11.490  1.00  0.00     0.080 A 
BRANCH  84  86
ATOM     86  S   UNL     1       1.817   3.094   8.871  1.00  0.00    -0.122 SA
BRANCH  86  87
ATOM     87  C   UNL     1       3.126   2.840   7.624  1.00  0.00     0.057 C 
ATOM     88  C   UNL     1       3.158   1.377   7.179  1.00  0.00     0.043 C 
ATOM     89  C   UNL     1       3.044   3.741   6.384  1.00  0.00     0.053 C 
ATOM     90  C   UNL     1       4.377   1.175   6.300  1.00  0.00     0.162 C 
ATOM     91  C   UNL     1       4.249   3.429   5.457  1.00  0.00     0.095 C 
ATOM     92  O   UNL     1       4.303   2.027   5.164  1.00  0.00    -0.372 OA
ATOM     93  C   UNL     1       4.159   4.159   4.127  1.00  0.00     0.066 C 
ATOM     94  C   UNL     1       5.581   3.982   5.989  1.00  0.00     0.195 C 
ATOM     95  C   UNL     1       4.819   5.492   4.392  1.00  0.00     0.163 C 
ATOM     96  O   UNL     1       5.741   5.308   5.470  1.00  0.00    -0.378 OA
ENDBRANCH  86  87
ENDBRANCH  84  86
ENDBRANCH  78  81
ENDBRANCH  76  77
ENDBRANCH  75  76
ENDBRANCH   1  75
TORSDOF 16
