REMARK SMILES CCC(CC)(NC(=O)N[C@@H](C)[C@@H]1CCCO1)C(=O)NCCCCNC(=O)c1ccc(-c2c3nc(c(-c4c(F)cc(S(=O)(=O)[O-])cc4F)c4ccc([nH]4)c(-c4c(F)cc(S(=O)(=O)[O-])cc4F)c4nc(c(-c5c(F)cc(S(=O)(=O)[O-])cc5F)c5ccc2[nH]5)C=C4)C=C3)cc1
REMARK SMILES IDX 21 1 20 2 19 3 17 4 18 5 3 7 2 8 1 9 4 10 5 11 6 12 7 13
REMARK SMILES IDX 8 15 9 16 10 18 11 19 12 20 13 21 16 22 14 23 15 24 22 25
REMARK SMILES IDX 23 26 24 27 25 28 26 30 27 31 28 32 92 33 29 34 91 35 30 36
REMARK SMILES IDX 31 37 32 38 85 39 33 40 90 41 84 42 86 43 34 44 89 45 83 46
REMARK SMILES IDX 82 47 35 49 69 50 48 51 68 52 49 53 52 54 67 55 87 56 50 57
REMARK SMILES IDX 51 58 66 60 88 61 53 62 36 63 37 64 46 65 38 66 39 67 45 68
REMARK SMILES IDX 47 69 40 70 41 71 42 72 43 73 44 74 70 75 71 76 80 77 72 78
REMARK SMILES IDX 73 79 79 80 81 81 74 82 75 83 76 84 77 85 78 86 54 87 55 88
REMARK SMILES IDX 64 89 56 90 57 91 63 92 65 93 58 94 59 95 60 96 61 97 62 98
REMARK H PARENT 19 6 6 14 9 17 24 29 86 48 52 59
REMARK Flexibility Score: inf
ROOT
ATOM      1  C   UNL     1       2.243  -4.231   4.954  1.00  0.00     0.023 C 
ENDROOT
BRANCH   1   2
ATOM      2  C   UNL     1       1.807  -2.761   4.968  1.00  0.00     0.116 C 
BRANCH   2   3
ATOM      3  N   UNL     1       2.475  -1.819   4.079  1.00  0.00    -0.354 N 
ATOM      4  C   UNL     1       2.101  -1.228   2.895  1.00  0.00     0.245 C 
ATOM      5  O   UNL     1       2.726  -0.210   2.577  1.00  0.00    -0.272 OA
ATOM      6  H   UNL     1       3.371  -1.553   4.387  1.00  0.00     0.163 HD
BRANCH   4   7
ATOM      7  C   UNL     1       0.856  -1.705   2.085  1.00  0.00     0.120 C 
BRANCH   7   8
ATOM      8  C   UNL     1       0.773  -1.303   0.584  1.00  0.00     0.035 C 
ATOM      9  C   UNL     1       0.890   0.168   0.219  1.00  0.00     0.007 C 
ENDBRANCH   7   8
BRANCH   7  10
ATOM     10  C   UNL     1      -0.352  -1.069   2.857  1.00  0.00     0.035 C 
ATOM     11  C   UNL     1      -1.753  -1.422   2.378  1.00  0.00     0.007 C 
ENDBRANCH   7  10
BRANCH   7  12
ATOM     12  N   UNL     1       0.837  -3.176   2.123  1.00  0.00    -0.324 N 
ATOM     13  C   UNL     1       1.647  -4.122   1.627  1.00  0.00     0.315 C 
ATOM     14  H   UNL     1       0.068  -3.542   2.618  1.00  0.00     0.166 HD
ATOM     15  O   UNL     1       1.185  -5.268   1.602  1.00  0.00    -0.249 OA
ATOM     16  N   UNL     1       2.897  -3.950   1.193  1.00  0.00    -0.333 N 
ATOM     17  H   UNL     1       3.280  -4.819   0.932  1.00  0.00     0.165 HD
BRANCH  16  18
ATOM     18  C   UNL     1       3.893  -2.882   0.976  1.00  0.00     0.109 C 
ATOM     19  C   UNL     1       4.995  -2.890   2.038  1.00  0.00     0.034 C 
BRANCH  18  20
ATOM     20  C   UNL     1       4.570  -3.021  -0.414  1.00  0.00     0.140 C 
ATOM     21  C   UNL     1       4.276  -1.847  -1.338  1.00  0.00     0.036 C 
ATOM     22  O   UNL     1       4.136  -4.212  -1.103  1.00  0.00    -0.376 OA
ATOM     23  C   UNL     1       4.378  -2.485  -2.697  1.00  0.00     0.031 C 
ATOM     24  C   UNL     1       3.784  -3.853  -2.443  1.00  0.00     0.160 C 
ENDBRANCH  18  20
ENDBRANCH  16  18
ENDBRANCH   7  12
ENDBRANCH   4   7
ENDBRANCH   2   3
ENDBRANCH   1   2
BRANCH   1  25
ATOM     25  C   UNL     1       3.726  -4.575   5.038  1.00  0.00     0.023 C 
BRANCH  25  26
ATOM     26  C   UNL     1       4.547  -3.762   6.024  1.00  0.00     0.116 C 
BRANCH  26  27
ATOM     27  N   UNL     1       4.066  -3.918   7.384  1.00  0.00    -0.352 N 
ATOM     28  C   UNL     1       4.768  -4.221   8.523  1.00  0.00     0.251 C 
ATOM     29  H   UNL     1       3.098  -3.787   7.508  1.00  0.00     0.163 HD
ATOM     30  O   UNL     1       4.162  -4.500   9.552  1.00  0.00    -0.269 OA
BRANCH  28  31
ATOM     31  C   UNL     1       6.248  -4.230   8.505  1.00  0.00     0.039 A 
ATOM     32  C   UNL     1       6.919  -5.271   9.151  1.00  0.00     0.014 A 
ATOM     33  C   UNL     1       6.972  -3.209   7.882  1.00  0.00     0.014 A 
ATOM     34  C   UNL     1       8.315  -5.309   9.142  1.00  0.00     0.010 A 
ATOM     35  C   UNL     1       8.362  -3.281   7.819  1.00  0.00     0.010 A 
ATOM     36  C   UNL     1       9.048  -4.325   8.459  1.00  0.00    -0.014 A 
BRANCH  36  37
ATOM     37  C   UNL     1      10.532  -4.363   8.422  1.00  0.00     0.031 A 
ATOM     38  C   UNL     1      11.331  -3.280   9.096  1.00  0.00     0.074 A 
ATOM     39  C   UNL     1      11.158  -5.344   7.743  1.00  0.00     0.049 A 
ATOM     40  N   UNL     1      12.627  -3.107   9.126  1.00  0.00    -0.248 NA
ATOM     41  C   UNL     1      10.570  -2.241   9.808  1.00  0.00     0.031 C 
ATOM     42  C   UNL     1      10.491  -6.424   7.012  1.00  0.00     0.029 A 
ATOM     43  N   UNL     1      12.494  -5.586   7.547  1.00  0.00    -0.354 N 
ATOM     44  C   UNL     1      12.837  -1.938   9.849  1.00  0.00     0.074 A 
ATOM     45  C   UNL     1      11.533  -1.416  10.193  1.00  0.00     0.031 C 
ATOM     46  C   UNL     1      11.421  -7.220   6.460  1.00  0.00     0.029 A 
ATOM     47  C   UNL     1      12.747  -6.691   6.770  1.00  0.00     0.049 A 
ATOM     48  H   UNL     1      13.205  -5.021   7.927  1.00  0.00     0.167 HD
ATOM     49  C   UNL     1      14.010  -1.366  10.212  1.00  0.00     0.037 A 
ATOM     50  C   UNL     1      13.914  -7.216   6.348  1.00  0.00     0.037 A 
ATOM     51  C   UNL     1      15.305  -1.904   9.885  1.00  0.00     0.049 A 
ATOM     52  C   UNL     1      15.204  -6.567   6.769  1.00  0.00     0.074 A 
ATOM     53  C   UNL     1      16.552  -1.427  10.247  1.00  0.00     0.029 A 
ATOM     54  N   UNL     1      15.520  -3.041   9.119  1.00  0.00    -0.354 N 
ATOM     55  N   UNL     1      15.385  -5.492   7.500  1.00  0.00    -0.248 NA
ATOM     56  C   UNL     1      16.448  -7.204   6.317  1.00  0.00     0.031 C 
ATOM     57  C   UNL     1      17.522  -2.254   9.669  1.00  0.00     0.029 A 
ATOM     58  C   UNL     1      16.878  -3.272   8.985  1.00  0.00     0.049 A 
ATOM     59  H   UNL     1      14.810  -3.601   8.729  1.00  0.00     0.167 HD
ATOM     60  C   UNL     1      16.762  -5.338   7.614  1.00  0.00     0.074 A 
ATOM     61  C   UNL     1      17.367  -6.437   6.889  1.00  0.00     0.031 C 
ATOM     62  C   UNL     1      17.463  -4.375   8.262  1.00  0.00     0.037 A 
BRANCH  49  63
ATOM     63  C   UNL     1      13.943  -0.093  11.011  1.00  0.00     0.058 A 
ATOM     64  C   UNL     1      13.508  -0.085  12.347  1.00  0.00     0.135 A 
ATOM     65  C   UNL     1      14.342   1.129  10.447  1.00  0.00     0.135 A 
ATOM     66  F   UNL     1      13.102  -1.223  12.932  1.00  0.00    -0.206 F 
ATOM     67  C   UNL     1      13.439   1.093  13.083  1.00  0.00     0.059 A 
ATOM     68  C   UNL     1      14.307   2.316  11.174  1.00  0.00     0.059 A 
ATOM     69  F   UNL     1      14.767   1.180   9.175  1.00  0.00    -0.206 F 
ATOM     70  C   UNL     1      13.837   2.290  12.486  1.00  0.00     0.060 A 
BRANCH  70  71
ATOM     71  S   UNL     1      13.737   3.811  13.454  1.00  0.00     0.124 S 
ATOM     72  O   UNL     1      12.297   4.054  13.462  1.00  0.00    -0.237 OA
ATOM     73  O   UNL     1      14.318   3.409  14.731  1.00  0.00    -0.237 OA
ATOM     74  O   UNL     1      14.529   4.760  12.678  1.00  0.00    -0.744 OA
ENDBRANCH  70  71
ENDBRANCH  49  63
BRANCH  50  75
ATOM     75  C   UNL     1      13.912  -8.434   5.495  1.00  0.00     0.058 A 
ATOM     76  C   UNL     1      14.331  -9.672   6.003  1.00  0.00     0.135 A 
ATOM     77  C   UNL     1      13.470  -8.388   4.164  1.00  0.00     0.135 A 
ATOM     78  F   UNL     1      14.767  -9.764   7.269  1.00  0.00    -0.206 F 
ATOM     79  C   UNL     1      14.326 -10.821   5.219  1.00  0.00     0.059 A 
ATOM     80  C   UNL     1      13.433  -9.528   3.367  1.00  0.00     0.059 A 
ATOM     81  F   UNL     1      13.042  -7.231   3.636  1.00  0.00    -0.206 F 
ATOM     82  C   UNL     1      13.872 -10.739   3.901  1.00  0.00     0.060 A 
BRANCH  82  83
ATOM     83  S   UNL     1      13.820 -12.246   2.908  1.00  0.00     0.124 S 
ATOM     84  O   UNL     1      15.233 -12.450   2.611  1.00  0.00    -0.237 OA
ATOM     85  O   UNL     1      13.216 -13.202   3.830  1.00  0.00    -0.237 OA
ATOM     86  O   UNL     1      12.983 -11.869   1.772  1.00  0.00    -0.744 OA
ENDBRANCH  82  83
ENDBRANCH  50  75
BRANCH  62  87
ATOM     87  C   UNL     1      18.963  -4.479   8.242  1.00  0.00     0.058 A 
ATOM     88  C   UNL     1      19.706  -4.183   7.090  1.00  0.00     0.135 A 
ATOM     89  C   UNL     1      19.666  -4.829   9.406  1.00  0.00     0.135 A 
ATOM     90  F   UNL     1      19.081  -3.849   5.950  1.00  0.00    -0.206 F 
ATOM     91  C   UNL     1      21.096  -4.250   7.086  1.00  0.00     0.059 A 
ATOM     92  C   UNL     1      21.056  -4.878   9.432  1.00  0.00     0.059 A 
ATOM     93  F   UNL     1      19.002  -5.113  10.538  1.00  0.00    -0.206 F 
ATOM     94  C   UNL     1      21.762  -4.597   8.263  1.00  0.00     0.060 A 
BRANCH  94  95
ATOM     95  S   UNL     1      23.567  -4.645   8.255  1.00  0.00     0.124 S 
ATOM     96  O   UNL     1      23.824  -5.886   7.532  1.00  0.00    -0.237 OA
ATOM     97  O   UNL     1      23.910  -3.416   7.547  1.00  0.00    -0.237 OA
ATOM     98  O   UNL     1      23.912  -4.661   9.673  1.00  0.00    -0.744 OA
ENDBRANCH  94  95
ENDBRANCH  62  87
ENDBRANCH  36  37
ENDBRANCH  28  31
ENDBRANCH  26  27
ENDBRANCH  25  26
ENDBRANCH   1  25
TORSDOF 19
