REMARK SMILES CC1(C)[C@H](C(=O)NCCCCNC(=O)c2ccc(-c3c4nc(c(-c5c(F)cc(S(=O)(=O)[O-])cc5F)c5ccc([nH]5)c(-c5c(F)cc(S(=O)(=O)[O-])cc5F)c5nc(c(-c6c(F)cc(S(=O)(=O)[O-])cc6F)c6ccc3[nH]6)C=C5)C=C4)cc2)[C@@H]1C(=O)Nc1ccc(Cl)c(Br)c1
REMARK SMILES IDX 10 1 9 2 8 3 7 4 5 5 6 6 4 8 1 9 2 10 3 11 81 12 82 13 83 14
REMARK SMILES IDX 84 15 85 17 86 18 92 19 87 20 90 21 88 22 91 23 89 24 11 25
REMARK SMILES IDX 12 26 13 27 14 29 15 30 16 31 80 32 17 33 79 34 18 35 19 36
REMARK SMILES IDX 20 37 73 38 21 39 78 40 72 41 74 42 22 43 77 44 71 45 70 46
REMARK SMILES IDX 23 48 57 49 36 50 56 51 37 52 40 53 55 54 75 55 38 56 39 57
REMARK SMILES IDX 54 59 76 60 41 61 24 62 25 63 34 64 26 65 27 66 33 67 35 68
REMARK SMILES IDX 28 69 29 70 30 71 31 72 32 73 58 74 59 75 68 76 60 77 61 78
REMARK SMILES IDX 67 79 69 80 62 81 63 82 64 83 65 84 66 85 42 86 43 87 52 88
REMARK SMILES IDX 44 89 45 90 51 91 53 92 46 93 47 94 48 95 49 96 50 97
REMARK H PARENT 7 7 84 16 12 28 74 47 40 58
REMARK Flexibility Score: inf
ROOT
ATOM      1  C   UNL     1      -0.173   5.333  -1.707  1.00  0.00     0.023 C 
ENDROOT
BRANCH   1   2
ATOM      2  C   UNL     1       0.345   4.170  -0.861  1.00  0.00     0.023 C 
BRANCH   2   3
ATOM      3  C   UNL     1      -0.717   3.140  -0.491  1.00  0.00     0.116 C 
BRANCH   3   4
ATOM      4  N   UNL     1      -1.026   2.267  -1.601  1.00  0.00    -0.356 N 
ATOM      5  C   UNL     1      -1.071   0.916  -1.785  1.00  0.00     0.224 C 
ATOM      6  O   UNL     1      -1.394   0.550  -2.917  1.00  0.00    -0.275 OA
ATOM      7  H   UNL     1      -1.259   2.765  -2.417  1.00  0.00     0.163 HD
BRANCH   5   8
ATOM      8  C   UNL     1      -0.819  -0.166  -0.796  1.00  0.00     0.098 C 
ATOM      9  C   UNL     1       0.996  -1.680   0.200  1.00  0.00     0.013 C 
ATOM     10  C   UNL     1       0.339  -0.313   0.173  1.00  0.00    -0.011 C 
ATOM     11  C   UNL     1       1.345   0.793   0.354  1.00  0.00     0.013 C 
ATOM     12  C   UNL     1      -1.120  -0.231   0.674  1.00  0.00     0.098 C 
BRANCH  12  13
ATOM     13  C   UNL     1      -1.696   0.862   1.486  1.00  0.00     0.228 C 
ATOM     14  O   UNL     1      -1.102   1.248   2.488  1.00  0.00    -0.274 OA
ATOM     15  N   UNL     1      -2.886   1.458   1.130  1.00  0.00    -0.326 N 
ATOM     16  H   UNL     1      -3.153   2.216   1.698  1.00  0.00     0.169 HD
BRANCH  15  17
ATOM     17  C   UNL     1      -3.779   1.161   0.088  1.00  0.00     0.042 A 
ATOM     18  C   UNL     1      -4.457   2.234  -0.500  1.00  0.00     0.028 A 
ATOM     19  C   UNL     1      -3.995  -0.128  -0.398  1.00  0.00     0.043 A 
ATOM     20  C   UNL     1      -5.242   2.033  -1.639  1.00  0.00     0.024 A 
ATOM     21  C   UNL     1      -4.796  -0.336  -1.528  1.00  0.00     0.038 A 
ATOM     22  C   UNL     1      -5.401   0.750  -2.167  1.00  0.00     0.055 A 
ATOM     23  Br  UNL     1      -4.996  -2.127  -2.131  1.00  0.00    -0.049 Br
ATOM     24  Cl  UNL     1      -6.356   0.582  -3.594  1.00  0.00    -0.083 Cl
ENDBRANCH  15  17
ENDBRANCH  12  13
ENDBRANCH   5   8
ENDBRANCH   3   4
ENDBRANCH   2   3
ENDBRANCH   1   2
BRANCH   1  25
ATOM     25  C   UNL     1      -1.311   6.138  -1.084  1.00  0.00     0.116 C 
BRANCH  25  26
ATOM     26  N   UNL     1      -0.999   6.640   0.248  1.00  0.00    -0.352 N 
ATOM     27  C   UNL     1      -1.123   7.920   0.736  1.00  0.00     0.251 C 
ATOM     28  H   UNL     1      -0.652   5.974   0.885  1.00  0.00     0.163 HD
ATOM     29  O   UNL     1      -0.707   8.208   1.854  1.00  0.00    -0.269 OA
BRANCH  27  30
ATOM     30  C   UNL     1      -1.735   8.950  -0.124  1.00  0.00     0.039 A 
ATOM     31  C   UNL     1      -1.003  10.098  -0.431  1.00  0.00     0.014 A 
ATOM     32  C   UNL     1      -2.990   8.724  -0.696  1.00  0.00     0.014 A 
ATOM     33  C   UNL     1      -1.489  10.979  -1.398  1.00  0.00     0.010 A 
ATOM     34  C   UNL     1      -3.443   9.573  -1.699  1.00  0.00     0.010 A 
ATOM     35  C   UNL     1      -2.684  10.692  -2.077  1.00  0.00    -0.014 A 
BRANCH  35  36
ATOM     36  C   UNL     1      -3.136  11.508  -3.230  1.00  0.00     0.031 A 
ATOM     37  C   UNL     1      -4.419  12.282  -3.149  1.00  0.00     0.074 A 
ATOM     38  C   UNL     1      -2.442  11.459  -4.385  1.00  0.00     0.049 A 
ATOM     39  N   UNL     1      -5.046  12.938  -4.090  1.00  0.00    -0.248 NA
ATOM     40  C   UNL     1      -5.099  12.298  -1.844  1.00  0.00     0.031 C 
ATOM     41  C   UNL     1      -1.204  10.705  -4.598  1.00  0.00     0.029 A 
ATOM     42  N   UNL     1      -2.689  12.038  -5.604  1.00  0.00    -0.354 N 
ATOM     43  C   UNL     1      -6.202  13.431  -3.499  1.00  0.00     0.074 A 
ATOM     44  C   UNL     1      -6.209  12.965  -2.128  1.00  0.00     0.031 C 
ATOM     45  C   UNL     1      -0.796  10.876  -5.866  1.00  0.00     0.029 A 
ATOM     46  C   UNL     1      -1.762  11.715  -6.567  1.00  0.00     0.049 A 
ATOM     47  H   UNL     1      -3.458  12.629  -5.773  1.00  0.00     0.167 HD
ATOM     48  C   UNL     1      -7.161  14.215  -4.046  1.00  0.00     0.037 A 
ATOM     49  C   UNL     1      -1.706  12.042  -7.872  1.00  0.00     0.037 A 
ATOM     50  C   UNL     1      -7.134  14.696  -5.402  1.00  0.00     0.049 A 
ATOM     51  C   UNL     1      -2.792  12.897  -8.462  1.00  0.00     0.074 A 
ATOM     52  C   UNL     1      -8.018  15.557  -6.027  1.00  0.00     0.029 A 
ATOM     53  N   UNL     1      -6.176  14.352  -6.344  1.00  0.00    -0.354 N 
ATOM     54  N   UNL     1      -3.848  13.406  -7.873  1.00  0.00    -0.248 NA
ATOM     55  C   UNL     1      -2.687  13.216  -9.893  1.00  0.00     0.031 C 
ATOM     56  C   UNL     1      -7.614  15.707  -7.358  1.00  0.00     0.029 A 
ATOM     57  C   UNL     1      -6.461  14.963  -7.554  1.00  0.00     0.049 A 
ATOM     58  H   UNL     1      -5.407  13.761  -6.178  1.00  0.00     0.167 HD
ATOM     59  C   UNL     1      -4.527  14.114  -8.857  1.00  0.00     0.074 A 
ATOM     60  C   UNL     1      -3.756  13.979 -10.077  1.00  0.00     0.031 C 
ATOM     61  C   UNL     1      -5.684  14.812  -8.759  1.00  0.00     0.037 A 
BRANCH  48  62
ATOM     62  C   UNL     1      -8.317  14.602  -3.170  1.00  0.00     0.058 A 
ATOM     63  C   UNL     1      -8.169  15.536  -2.132  1.00  0.00     0.135 A 
ATOM     64  C   UNL     1      -9.590  14.047  -3.378  1.00  0.00     0.135 A 
ATOM     65  F   UNL     1      -6.970  16.084  -1.882  1.00  0.00    -0.206 F 
ATOM     66  C   UNL     1      -9.235  15.881  -1.308  1.00  0.00     0.059 A 
ATOM     67  C   UNL     1     -10.676  14.395  -2.580  1.00  0.00     0.059 A 
ATOM     68  F   UNL     1      -9.784  13.149  -4.356  1.00  0.00    -0.206 F 
ATOM     69  C   UNL     1     -10.484  15.300  -1.537  1.00  0.00     0.060 A 
BRANCH  69  70
ATOM     70  S   UNL     1     -11.855  15.744  -0.450  1.00  0.00     0.124 S 
ATOM     71  O   UNL     1     -11.538  14.970   0.746  1.00  0.00    -0.237 OA
ATOM     72  O   UNL     1     -11.703  17.191  -0.327  1.00  0.00    -0.237 OA
ATOM     73  O   UNL     1     -13.032  15.302  -1.192  1.00  0.00    -0.744 OA
ENDBRANCH  69  70
ENDBRANCH  48  62
BRANCH  49  74
ATOM     74  C   UNL     1      -0.575  11.561  -8.706  1.00  0.00     0.058 A 
ATOM     75  C   UNL     1       0.440  12.440  -9.111  1.00  0.00     0.135 A 
ATOM     76  C   UNL     1      -0.468  10.215  -9.087  1.00  0.00     0.135 A 
ATOM     77  F   UNL     1       0.375  13.737  -8.776  1.00  0.00    -0.206 F 
ATOM     78  C   UNL     1       1.521  12.003  -9.868  1.00  0.00     0.059 A 
ATOM     79  C   UNL     1       0.614   9.750  -9.828  1.00  0.00     0.059 A 
ATOM     80  F   UNL     1      -1.407   9.333  -8.710  1.00  0.00    -0.206 F 
ATOM     81  C   UNL     1       1.601  10.654 -10.219  1.00  0.00     0.060 A 
BRANCH  81  82
ATOM     82  S   UNL     1       3.044  10.081 -11.143  1.00  0.00     0.124 S 
ATOM     83  O   UNL     1       2.742  10.564 -12.485  1.00  0.00    -0.237 OA
ATOM     84  O   UNL     1       4.139  10.755 -10.453  1.00  0.00    -0.237 OA
ATOM     85  O   UNL     1       3.000   8.633 -10.965  1.00  0.00    -0.744 OA
ENDBRANCH  81  82
ENDBRANCH  49  74
BRANCH  61  86
ATOM     86  C   UNL     1      -6.191  15.489 -10.000  1.00  0.00     0.058 A 
ATOM     87  C   UNL     1      -6.831  14.762 -11.015  1.00  0.00     0.135 A 
ATOM     88  C   UNL     1      -6.099  16.882 -10.142  1.00  0.00     0.135 A 
ATOM     89  F   UNL     1      -6.933  13.427 -10.929  1.00  0.00    -0.206 F 
ATOM     90  C   UNL     1      -7.363  15.396 -12.133  1.00  0.00     0.059 A 
ATOM     91  C   UNL     1      -6.641  17.538 -11.242  1.00  0.00     0.059 A 
ATOM     92  F   UNL     1      -5.500  17.620  -9.194  1.00  0.00    -0.206 F 
ATOM     93  C   UNL     1      -7.267  16.785 -12.236  1.00  0.00     0.060 A 
BRANCH  93  94
ATOM     94  S   UNL     1      -8.015  17.602 -13.661  1.00  0.00     0.124 S 
ATOM     95  O   UNL     1      -7.047  17.305 -14.711  1.00  0.00    -0.237 OA
ATOM     96  O   UNL     1      -9.302  16.922 -13.774  1.00  0.00    -0.237 OA
ATOM     97  O   UNL     1      -8.088  19.001 -13.250  1.00  0.00    -0.744 OA
ENDBRANCH  93  94
ENDBRANCH  61  86
ENDBRANCH  35  36
ENDBRANCH  27  30
ENDBRANCH  25  26
ENDBRANCH   1  25
TORSDOF 16
