REMARK SMILES Cc1cccc(O[C@H](C)C(=O)N2CCC[C@@H](C(=O)NCCCCNC(=O)c3ccc(-c4c5nc(c(-c6c(F)cc(S(=O)(=O)[O-])cc6F)c6ccc([nH]6)c(-c6c(F)cc(S(=O)(=O)[O-])cc6F)c6nc(c(-c7c(F)cc(S(=O)(=O)[O-])cc7F)c7ccc4[nH]7)C=C6)C=C5)cc3)C2)c1
REMARK SMILES IDX 21 1 20 2 19 3 17 4 18 5 16 7 12 8 13 9 93 10 14 11 15 12
REMARK SMILES IDX 10 13 11 14 8 15 9 16 7 17 6 18 1 19 2 20 3 21 94 22 4 23
REMARK SMILES IDX 5 24 22 25 23 26 24 27 25 28 26 30 27 31 28 32 92 33 29 34
REMARK SMILES IDX 91 35 30 36 31 37 32 38 85 39 33 40 90 41 84 42 86 43 34 44
REMARK SMILES IDX 89 45 83 46 82 47 35 49 69 50 48 51 68 52 49 53 52 54 67 55
REMARK SMILES IDX 87 56 50 57 51 58 66 60 88 61 53 62 36 63 37 64 46 65 38 66
REMARK SMILES IDX 39 67 45 68 47 69 40 70 41 71 42 72 43 73 44 74 70 75 71 76
REMARK SMILES IDX 80 77 72 78 73 79 79 80 81 81 74 82 75 83 76 84 77 85 78 86
REMARK SMILES IDX 54 87 55 88 64 89 56 90 57 91 63 92 65 93 58 94 59 95 60 96
REMARK SMILES IDX 61 97 62 98
REMARK H PARENT 19 6 24 29 86 48 52 59
REMARK Flexibility Score: inf
ROOT
ATOM      1  C   UNL     1       0.785  -1.165   0.902  1.00  0.00     0.023 C 
ENDROOT
BRANCH   1   2
ATOM      2  C   UNL     1       1.547  -1.585  -0.358  1.00  0.00     0.116 C 
BRANCH   2   3
ATOM      3  N   UNL     1       0.664  -1.727  -1.505  1.00  0.00    -0.356 N 
ATOM      4  C   UNL     1       0.177  -0.833  -2.398  1.00  0.00     0.224 C 
ATOM      5  O   UNL     1      -0.671  -1.245  -3.198  1.00  0.00    -0.275 OA
ATOM      6  H   UNL     1       0.362  -2.651  -1.662  1.00  0.00     0.163 HD
BRANCH   4   7
ATOM      7  C   UNL     1       0.663   0.603  -2.503  1.00  0.00     0.098 C 
ATOM      8  N   UNL     1       0.899   2.840  -1.522  1.00  0.00    -0.339 N 
ATOM      9  C   UNL     1       2.207   3.034  -2.157  1.00  0.00     0.119 C 
ATOM     10  C   UNL     1       0.572   1.447  -1.231  1.00  0.00     0.133 C 
ATOM     11  C   UNL     1       2.400   2.163  -3.397  1.00  0.00     0.022 C 
ATOM     12  C   UNL     1       2.060   0.698  -3.122  1.00  0.00     0.017 C 
BRANCH   8  13
ATOM     13  C   UNL     1       0.171   3.960  -1.157  1.00  0.00     0.263 C 
ATOM     14  O   UNL     1       0.407   5.051  -1.699  1.00  0.00    -0.271 OA
BRANCH  13  15
ATOM     15  C   UNL     1      -0.898   3.925  -0.028  1.00  0.00     0.259 C 
ATOM     16  C   UNL     1      -2.207   3.199  -0.308  1.00  0.00     0.064 C 
BRANCH  15  17
ATOM     17  O   UNL     1      -0.338   3.920   1.282  1.00  0.00    -0.481 OA
BRANCH  17  18
ATOM     18  C   UNL     1      -0.135   2.841   2.077  1.00  0.00     0.120 A 
ATOM     19  C   UNL     1       2.527   2.051   4.714  1.00  0.00     0.044 C 
ATOM     20  C   UNL     1       1.292   1.961   3.864  1.00  0.00    -0.047 A 
ATOM     21  C   UNL     1       0.404   0.902   4.040  1.00  0.00     0.003 A 
ATOM     22  C   UNL     1       1.019   2.916   2.873  1.00  0.00     0.049 A 
ATOM     23  C   UNL     1      -0.762   0.839   3.278  1.00  0.00     0.004 A 
ATOM     24  C   UNL     1      -1.032   1.806   2.301  1.00  0.00     0.046 A 
ENDBRANCH  17  18
ENDBRANCH  15  17
ENDBRANCH  13  15
ENDBRANCH   8  13
ENDBRANCH   4   7
ENDBRANCH   2   3
ENDBRANCH   1   2
BRANCH   1  25
ATOM     25  C   UNL     1      -0.290  -2.152   1.344  1.00  0.00     0.023 C 
BRANCH  25  26
ATOM     26  C   UNL     1       0.249  -3.225   2.275  1.00  0.00     0.116 C 
BRANCH  26  27
ATOM     27  N   UNL     1      -0.174  -3.031   3.660  1.00  0.00    -0.352 N 
ATOM     28  C   UNL     1      -0.247  -3.982   4.666  1.00  0.00     0.251 C 
ATOM     29  H   UNL     1      -0.438  -2.115   3.908  1.00  0.00     0.163 HD
ATOM     30  O   UNL     1      -0.729  -3.752   5.762  1.00  0.00    -0.269 OA
BRANCH  28  31
ATOM     31  C   UNL     1       0.358  -5.292   4.357  1.00  0.00     0.039 A 
ATOM     32  C   UNL     1       1.686  -5.471   4.758  1.00  0.00     0.014 A 
ATOM     33  C   UNL     1      -0.209  -6.045   3.332  1.00  0.00     0.014 A 
ATOM     34  C   UNL     1       2.529  -6.236   3.964  1.00  0.00     0.010 A 
ATOM     35  C   UNL     1       0.651  -6.737   2.500  1.00  0.00     0.010 A 
ATOM     36  C   UNL     1       2.030  -6.761   2.774  1.00  0.00    -0.014 A 
BRANCH  36  37
ATOM     37  C   UNL     1       2.889  -7.217   1.686  1.00  0.00     0.031 A 
ATOM     38  C   UNL     1       2.907  -8.650   1.320  1.00  0.00     0.074 A 
ATOM     39  C   UNL     1       3.604  -6.322   0.964  1.00  0.00     0.049 A 
ATOM     40  N   UNL     1       3.766  -9.185   0.519  1.00  0.00    -0.248 NA
ATOM     41  C   UNL     1       1.998  -9.629   1.915  1.00  0.00     0.031 C 
ATOM     42  C   UNL     1       4.200  -6.522  -0.354  1.00  0.00     0.029 A 
ATOM     43  N   UNL     1       4.126  -5.099   1.392  1.00  0.00    -0.354 N 
ATOM     44  C   UNL     1       3.354 -10.471   0.267  1.00  0.00     0.074 A 
ATOM     45  C   UNL     1       2.346 -10.738   1.258  1.00  0.00     0.031 C 
ATOM     46  C   UNL     1       5.165  -5.610  -0.544  1.00  0.00     0.029 A 
ATOM     47  C   UNL     1       5.338  -4.894   0.707  1.00  0.00     0.049 A 
ATOM     48  H   UNL     1       3.720  -4.492   2.052  1.00  0.00     0.167 HD
ATOM     49  C   UNL     1       3.818 -11.097  -0.850  1.00  0.00     0.037 A 
ATOM     50  C   UNL     1       6.524  -4.804   1.381  1.00  0.00     0.037 A 
ATOM     51  C   UNL     1       5.028 -10.431  -1.340  1.00  0.00     0.049 A 
ATOM     52  C   UNL     1       7.509  -5.907   1.056  1.00  0.00     0.074 A 
ATOM     53  C   UNL     1       5.301  -9.601  -2.412  1.00  0.00     0.029 A 
ATOM     54  N   UNL     1       6.142 -10.367  -0.502  1.00  0.00    -0.354 N 
ATOM     55  N   UNL     1       7.205  -6.992   0.398  1.00  0.00    -0.248 NA
ATOM     56  C   UNL     1       8.910  -5.885   1.473  1.00  0.00     0.031 C 
ATOM     57  C   UNL     1       6.528  -8.932  -2.141  1.00  0.00     0.029 A 
ATOM     58  C   UNL     1       7.027  -9.397  -0.934  1.00  0.00     0.049 A 
ATOM     59  H   UNL     1       6.280 -10.936   0.289  1.00  0.00     0.167 HD
ATOM     60  C   UNL     1       8.290  -7.829   0.364  1.00  0.00     0.074 A 
ATOM     61  C   UNL     1       9.346  -7.070   1.009  1.00  0.00     0.031 C 
ATOM     62  C   UNL     1       8.225  -9.090  -0.160  1.00  0.00     0.037 A 
BRANCH  49  63
ATOM     63  C   UNL     1       3.054 -12.168  -1.620  1.00  0.00     0.058 A 
ATOM     64  C   UNL     1       3.579 -12.693  -2.823  1.00  0.00     0.135 A 
ATOM     65  C   UNL     1       1.742 -12.609  -1.326  1.00  0.00     0.135 A 
ATOM     66  F   UNL     1       4.808 -12.359  -3.245  1.00  0.00    -0.206 F 
ATOM     67  C   UNL     1       2.855 -13.547  -3.669  1.00  0.00     0.059 A 
ATOM     68  C   UNL     1       1.020 -13.493  -2.129  1.00  0.00     0.059 A 
ATOM     69  F   UNL     1       1.044 -12.160  -0.279  1.00  0.00    -0.206 F 
ATOM     70  C   UNL     1       1.570 -13.937  -3.316  1.00  0.00     0.060 A 
BRANCH  70  71
ATOM     71  S   UNL     1       0.606 -14.986  -4.420  1.00  0.00     0.124 S 
ATOM     72  O   UNL     1       0.344 -14.084  -5.537  1.00  0.00    -0.237 OA
ATOM     73  O   UNL     1       1.525 -16.086  -4.688  1.00  0.00    -0.237 OA
ATOM     74  O   UNL     1      -0.565 -15.338  -3.619  1.00  0.00    -0.744 OA
ENDBRANCH  70  71
ENDBRANCH  49  63
BRANCH  50  75
ATOM     75  C   UNL     1       6.403  -4.107   2.690  1.00  0.00     0.058 A 
ATOM     76  C   UNL     1       6.101  -2.732   2.667  1.00  0.00     0.135 A 
ATOM     77  C   UNL     1       6.146  -4.809   3.876  1.00  0.00     0.135 A 
ATOM     78  F   UNL     1       6.340  -2.011   1.559  1.00  0.00    -0.206 F 
ATOM     79  C   UNL     1       5.418  -2.116   3.708  1.00  0.00     0.059 A 
ATOM     80  C   UNL     1       5.465  -4.208   4.938  1.00  0.00     0.059 A 
ATOM     81  F   UNL     1       6.414  -6.121   3.956  1.00  0.00    -0.206 F 
ATOM     82  C   UNL     1       5.045  -2.883   4.809  1.00  0.00     0.060 A 
BRANCH  82  83
ATOM     83  S   UNL     1       3.826  -2.172   5.942  1.00  0.00     0.124 S 
ATOM     84  O   UNL     1       4.548  -1.028   6.486  1.00  0.00    -0.237 OA
ATOM     85  O   UNL     1       2.733  -1.850   5.026  1.00  0.00    -0.237 OA
ATOM     86  O   UNL     1       3.563  -3.260   6.875  1.00  0.00    -0.744 OA
ENDBRANCH  82  83
ENDBRANCH  50  75
BRANCH  62  87
ATOM     87  C   UNL     1       9.318 -10.127  -0.040  1.00  0.00     0.058 A 
ATOM     88  C   UNL     1      10.174 -10.242   1.070  1.00  0.00     0.135 A 
ATOM     89  C   UNL     1       9.447 -11.140  -1.018  1.00  0.00     0.135 A 
ATOM     90  F   UNL     1      10.068  -9.415   2.120  1.00  0.00    -0.206 F 
ATOM     91  C   UNL     1      11.149 -11.238   1.165  1.00  0.00     0.059 A 
ATOM     92  C   UNL     1      10.375 -12.175  -0.917  1.00  0.00     0.059 A 
ATOM     93  F   UNL     1       8.664 -11.159  -2.107  1.00  0.00    -0.206 F 
ATOM     94  C   UNL     1      11.246 -12.198   0.164  1.00  0.00     0.060 A 
BRANCH  94  95
ATOM     95  S   UNL     1      12.472 -13.514   0.292  1.00  0.00     0.124 S 
ATOM     96  O   UNL     1      13.591 -12.941  -0.450  1.00  0.00    -0.237 OA
ATOM     97  O   UNL     1      12.671 -13.638   1.733  1.00  0.00    -0.237 OA
ATOM     98  O   UNL     1      11.807 -14.648  -0.340  1.00  0.00    -0.744 OA
ENDBRANCH  94  95
ENDBRANCH  62  87
ENDBRANCH  36  37
ENDBRANCH  28  31
ENDBRANCH  26  27
ENDBRANCH  25  26
ENDBRANCH   1  25
TORSDOF 18
