REMARK SMILES O=C(NCCCCNC(=O)[C@H]1Cc2[nH]cnc2CN1C(=O)C[C@]12C[C@H]3C[C@H](C[C@H](C3)C1)C2)c1ccc(-c2c3nc(c(-c4c(F)cc(S(=O)(=O)[O-])cc4F)c4ccc([nH]4)c(-c4c(F)cc(S(=O)(=O)[O-])cc4F)c4nc(c(-c5c(F)cc(S(=O)(=O)[O-])cc5F)c5ccc2[nH]5)C=C4)C=C3)cc1
REMARK SMILES IDX 5 1 4 2 3 3 1 4 2 5 33 7 34 8 98 9 35 10 97 11 36 12 37 13
REMARK SMILES IDX 38 14 91 15 39 16 96 17 90 18 92 19 40 20 95 21 89 22 88 23
REMARK SMILES IDX 41 25 75 26 54 27 74 28 55 29 58 30 73 31 93 32 56 33 57 34
REMARK SMILES IDX 72 36 94 37 59 38 42 39 43 40 52 41 44 42 45 43 51 44 53 45
REMARK SMILES IDX 46 46 47 47 48 48 49 49 50 50 76 51 77 52 86 53 78 54 79 55
REMARK SMILES IDX 85 56 87 57 80 58 81 59 82 60 83 61 84 62 60 63 61 64 70 65
REMARK SMILES IDX 62 66 63 67 69 68 71 69 64 70 65 71 66 72 67 73 68 74 6 75
REMARK SMILES IDX 7 76 8 77 9 78 10 80 11 81 12 82 19 83 13 84 18 85 14 86
REMARK SMILES IDX 17 87 15 88 16 90 20 91 21 92 22 93 23 94 24 95 31 96 32 97
REMARK SMILES IDX 25 98 29 99 27 100 26 101 30 102 28 103
REMARK H PARENT 3 6 92 24 58 35 8 79 14 89
REMARK Flexibility Score: inf
ROOT
ATOM      1  C   UNL     1       5.006  -1.693   1.535  1.00  0.00     0.023 C 
ENDROOT
BRANCH   1   2
ATOM      2  C   UNL     1       4.753  -1.119   0.141  1.00  0.00     0.116 C 
BRANCH   2   3
ATOM      3  N   UNL     1       3.370  -1.021  -0.286  1.00  0.00    -0.352 N 
ATOM      4  O   UNL     1       1.310  -0.292  -0.653  1.00  0.00    -0.269 OA
ATOM      5  C   UNL     1       2.323  -0.201   0.043  1.00  0.00     0.251 C 
ATOM      6  H   UNL     1       3.130  -1.694  -0.963  1.00  0.00     0.163 HD
BRANCH   5   7
ATOM      7  C   UNL     1       2.316   0.714   1.213  1.00  0.00     0.039 A 
ATOM      8  C   UNL     1       3.459   1.217   1.830  1.00  0.00     0.014 A 
ATOM      9  C   UNL     1       1.055   1.084   1.716  1.00  0.00     0.014 A 
ATOM     10  C   UNL     1       3.359   1.960   2.999  1.00  0.00     0.010 A 
ATOM     11  C   UNL     1       0.947   1.875   2.856  1.00  0.00     0.010 A 
ATOM     12  C   UNL     1       2.103   2.285   3.517  1.00  0.00    -0.014 A 
BRANCH  12  13
ATOM     13  C   UNL     1       2.064   3.246   4.620  1.00  0.00     0.031 A 
ATOM     14  C   UNL     1       2.608   4.593   4.278  1.00  0.00     0.074 A 
ATOM     15  C   UNL     1       1.440   3.032   5.794  1.00  0.00     0.049 A 
ATOM     16  N   UNL     1       3.573   5.244   4.842  1.00  0.00    -0.248 NA
ATOM     17  C   UNL     1       2.067   5.249   3.075  1.00  0.00     0.031 C 
ATOM     18  C   UNL     1       0.606   1.885   6.152  1.00  0.00     0.029 A 
ATOM     19  N   UNL     1       1.314   3.862   6.873  1.00  0.00    -0.354 N 
ATOM     20  C   UNL     1       3.607   6.487   4.210  1.00  0.00     0.074 A 
ATOM     21  C   UNL     1       2.790   6.367   3.033  1.00  0.00     0.031 C 
ATOM     22  C   UNL     1      -0.115   2.193   7.252  1.00  0.00     0.029 A 
ATOM     23  C   UNL     1       0.281   3.507   7.732  1.00  0.00     0.049 A 
ATOM     24  H   UNL     1       1.900   4.638   7.026  1.00  0.00     0.167 HD
ATOM     25  C   UNL     1       4.091   7.596   4.834  1.00  0.00     0.037 A 
ATOM     26  C   UNL     1      -0.273   4.273   8.707  1.00  0.00     0.037 A 
ATOM     27  C   UNL     1       4.964   7.255   5.927  1.00  0.00     0.049 A 
ATOM     28  C   UNL     1       0.693   5.347   9.050  1.00  0.00     0.074 A 
ATOM     29  C   UNL     1       6.115   6.501   6.065  1.00  0.00     0.029 A 
ATOM     30  N   UNL     1       4.515   7.478   7.205  1.00  0.00    -0.354 N 
ATOM     31  N   UNL     1       1.830   5.152   9.658  1.00  0.00    -0.248 NA
ATOM     32  C   UNL     1       0.554   6.639   8.396  1.00  0.00     0.031 C 
ATOM     33  C   UNL     1       6.034   5.925   7.367  1.00  0.00     0.029 A 
ATOM     34  C   UNL     1       4.858   6.388   7.957  1.00  0.00     0.049 A 
ATOM     35  H   UNL     1       4.034   8.277   7.522  1.00  0.00     0.167 HD
ATOM     36  C   UNL     1       2.689   6.093   9.113  1.00  0.00     0.074 A 
ATOM     37  C   UNL     1       1.820   7.057   8.448  1.00  0.00     0.031 C 
ATOM     38  C   UNL     1       4.028   5.849   9.011  1.00  0.00     0.037 A 
BRANCH  25  39
ATOM     39  C   UNL     1       3.448   8.966   4.713  1.00  0.00     0.058 A 
ATOM     40  C   UNL     1       4.074  10.075   5.323  1.00  0.00     0.135 A 
ATOM     41  C   UNL     1       2.107   9.173   4.314  1.00  0.00     0.135 A 
ATOM     42  F   UNL     1       5.350   9.998   5.734  1.00  0.00    -0.206 F 
ATOM     43  C   UNL     1       3.385  11.250   5.623  1.00  0.00     0.059 A 
ATOM     44  C   UNL     1       1.421  10.357   4.551  1.00  0.00     0.059 A 
ATOM     45  F   UNL     1       1.359   8.208   3.769  1.00  0.00    -0.206 F 
ATOM     46  C   UNL     1       2.048  11.368   5.258  1.00  0.00     0.060 A 
BRANCH  46  47
ATOM     47  S   UNL     1       1.104  12.808   5.782  1.00  0.00     0.124 S 
ATOM     48  O   UNL     1       0.953  12.543   7.208  1.00  0.00    -0.237 OA
ATOM     49  O   UNL     1       1.997  13.904   5.423  1.00  0.00    -0.237 OA
ATOM     50  O   UNL     1      -0.116  12.714   4.986  1.00  0.00    -0.744 OA
ENDBRANCH  46  47
ENDBRANCH  25  39
BRANCH  26  51
ATOM     51  C   UNL     1      -1.688   4.302   9.167  1.00  0.00     0.058 A 
ATOM     52  C   UNL     1      -2.058   4.986  10.339  1.00  0.00     0.135 A 
ATOM     53  C   UNL     1      -2.747   3.888   8.334  1.00  0.00     0.135 A 
ATOM     54  F   UNL     1      -1.119   5.440  11.183  1.00  0.00    -0.206 F 
ATOM     55  C   UNL     1      -3.392   5.284  10.642  1.00  0.00     0.059 A 
ATOM     56  C   UNL     1      -4.083   4.153   8.625  1.00  0.00     0.059 A 
ATOM     57  F   UNL     1      -2.516   3.292   7.155  1.00  0.00    -0.206 F 
ATOM     58  C   UNL     1      -4.398   4.877   9.767  1.00  0.00     0.060 A 
BRANCH  58  59
ATOM     59  S   UNL     1      -6.102   5.406  10.055  1.00  0.00     0.124 S 
ATOM     60  O   UNL     1      -6.466   4.623  11.231  1.00  0.00    -0.237 OA
ATOM     61  O   UNL     1      -5.949   6.841  10.265  1.00  0.00    -0.237 OA
ATOM     62  O   UNL     1      -6.787   5.030   8.820  1.00  0.00    -0.744 OA
ENDBRANCH  58  59
ENDBRANCH  26  51
BRANCH  38  63
ATOM     63  C   UNL     1       4.626   4.771   9.871  1.00  0.00     0.058 A 
ATOM     64  C   UNL     1       4.271   3.412   9.815  1.00  0.00     0.135 A 
ATOM     65  C   UNL     1       5.694   5.122  10.712  1.00  0.00     0.135 A 
ATOM     66  F   UNL     1       3.342   2.974   8.954  1.00  0.00    -0.206 F 
ATOM     67  C   UNL     1       4.911   2.457  10.607  1.00  0.00     0.059 A 
ATOM     68  C   UNL     1       6.370   4.181  11.482  1.00  0.00     0.059 A 
ATOM     69  F   UNL     1       6.123   6.395  10.761  1.00  0.00    -0.206 F 
ATOM     70  C   UNL     1       5.959   2.851  11.438  1.00  0.00     0.060 A 
BRANCH  70  71
ATOM     71  S   UNL     1       6.835   1.605  12.407  1.00  0.00     0.124 S 
ATOM     72  O   UNL     1       5.859   1.290  13.452  1.00  0.00    -0.237 OA
ATOM     73  O   UNL     1       7.066   0.545  11.424  1.00  0.00    -0.237 OA
ATOM     74  O   UNL     1       8.031   2.296  12.857  1.00  0.00    -0.744 OA
ENDBRANCH  70  71
ENDBRANCH  38  63
ENDBRANCH  12  13
ENDBRANCH   5   7
ENDBRANCH   2   3
ENDBRANCH   1   2
BRANCH   1  75
ATOM     75  C   UNL     1       4.366  -3.048   1.822  1.00  0.00     0.023 C 
BRANCH  75  76
ATOM     76  C   UNL     1       4.846  -4.209   0.955  1.00  0.00     0.116 C 
BRANCH  76  77
ATOM     77  N   UNL     1       6.219  -4.599   1.233  1.00  0.00    -0.354 N 
ATOM     78  C   UNL     1       6.897  -5.777   1.143  1.00  0.00     0.243 C 
ATOM     79  H   UNL     1       6.777  -3.854   1.554  1.00  0.00     0.163 HD
ATOM     80  O   UNL     1       8.041  -5.759   1.616  1.00  0.00    -0.273 OA
BRANCH  78  81
ATOM     81  C   UNL     1       6.317  -7.109   0.584  1.00  0.00     0.180 C 
ATOM     82  C   UNL     1       4.867  -7.134   0.003  1.00  0.00     0.091 C 
ATOM     83  N   UNL     1       7.250  -8.062  -0.172  1.00  0.00    -0.324 N 
ATOM     84  C   UNL     1       4.548  -8.482  -0.526  1.00  0.00     0.042 A 
ATOM     85  C   UNL     1       6.823  -9.483  -0.076  1.00  0.00     0.178 C 
ATOM     86  N   UNL     1       3.376  -8.922  -1.065  1.00  0.00    -0.348 N 
ATOM     87  C   UNL     1       5.409  -9.553  -0.561  1.00  0.00     0.081 A 
ATOM     88  C   UNL     1       3.558 -10.247  -1.361  1.00  0.00     0.197 A 
ATOM     89  H   UNL     1       2.559  -8.392  -1.211  1.00  0.00     0.167 HD
ATOM     90  N   UNL     1       4.775 -10.658  -1.064  1.00  0.00    -0.240 NA
BRANCH  83  91
ATOM     91  C   UNL     1       8.166  -7.800  -1.190  1.00  0.00     0.224 C 
ATOM     92  O   UNL     1       8.571  -8.701  -1.938  1.00  0.00    -0.275 OA
BRANCH  91  93
ATOM     93  C   UNL     1       8.778  -6.423  -1.400  1.00  0.00     0.107 C 
BRANCH  93  94
ATOM     94  C   UNL     1       8.133  -5.533  -2.482  1.00  0.00    -0.020 C 
ATOM     95  C   UNL     1       6.600  -5.590  -2.412  1.00  0.00     0.011 C 
ATOM     96  C   UNL     1       8.562  -5.927  -3.919  1.00  0.00     0.011 C 
ATOM     97  C   UNL     1       8.581  -4.064  -2.248  1.00  0.00     0.011 C 
ATOM     98  C   UNL     1       5.937  -4.664  -3.429  1.00  0.00    -0.010 C 
ATOM     99  C   UNL     1       7.904  -4.987  -4.955  1.00  0.00    -0.010 C 
ATOM    100  C   UNL     1       7.917  -3.120  -3.263  1.00  0.00    -0.010 C 
ATOM    101  C   UNL     1       6.390  -3.229  -3.135  1.00  0.00     0.007 C 
ATOM    102  C   UNL     1       6.374  -5.083  -4.836  1.00  0.00     0.007 C 
ATOM    103  C   UNL     1       8.331  -3.534  -4.682  1.00  0.00     0.007 C 
ENDBRANCH  93  94
ENDBRANCH  91  93
ENDBRANCH  83  91
ENDBRANCH  78  81
ENDBRANCH  76  77
ENDBRANCH  75  76
ENDBRANCH   1  75
TORSDOF 17
