REMARK SMILES Cc1nc(Nc2ccc(F)cc2)nc(OCC(=O)NCCCCNC(=O)c2ccc(-c3c4nc(c(-c5c(F)cc(S(=O)(=O)[O-])cc5F)c5ccc([nH]5)c(-c5c(F)cc(S(=O)(=O)[O-])cc5F)c5nc(c(-c6c(F)cc(S(=O)(=O)[O-])cc6F)c6ccc3[nH]6)C=C5)C=C4)cc2)c1CCO
REMARK SMILES IDX 20 1 19 2 17 3 18 4 16 6 15 7 14 8 1 9 2 10 3 11 93 12 4 13
REMARK SMILES IDX 13 14 94 15 95 16 96 17 5 19 6 21 7 22 12 23 8 24 11 25 9 26
REMARK SMILES IDX 10 27 21 28 22 29 23 30 24 31 25 32 26 34 27 35 28 36 92 37
REMARK SMILES IDX 29 38 91 39 30 40 31 41 32 42 85 43 33 44 90 45 84 46 86 47
REMARK SMILES IDX 34 48 89 49 83 50 82 51 35 53 69 54 48 55 68 56 49 57 52 58
REMARK SMILES IDX 67 59 87 60 50 61 51 62 66 64 88 65 53 66 36 67 37 68 46 69
REMARK SMILES IDX 38 70 39 71 45 72 47 73 40 74 41 75 42 76 43 77 44 78 70 79
REMARK SMILES IDX 71 80 80 81 72 82 73 83 79 84 81 85 74 86 75 87 76 88 77 89
REMARK SMILES IDX 78 90 54 91 55 92 64 93 56 94 57 95 63 96 65 97 58 98 59 99
REMARK SMILES IDX 60 100 61 101 62 102
REMARK H PARENT 19 5 96 18 5 20 24 33 86 52 52 63
REMARK Flexibility Score: inf
ROOT
ATOM      1  C   UNL     1       2.950  -3.132   2.807  1.00  0.00     0.116 C 
ENDROOT
BRANCH   1   2
ATOM      2  N   UNL     1       1.644  -3.738   2.680  1.00  0.00    -0.353 N 
ATOM      3  C   UNL     1       0.940  -4.010   1.551  1.00  0.00     0.258 C 
ATOM      4  O   UNL     1      -0.139  -4.593   1.671  1.00  0.00    -0.271 OA
ATOM      5  H   UNL     1       1.206  -3.987   3.526  1.00  0.00     0.163 HD
BRANCH   3   6
ATOM      6  C   UNL     1       1.530  -3.661   0.176  1.00  0.00     0.331 C 
BRANCH   6   7
ATOM      7  O   UNL     1       1.773  -2.332  -0.230  1.00  0.00    -0.467 OA
BRANCH   7   8
ATOM      8  C   UNL     1       0.853  -1.340  -0.087  1.00  0.00     0.222 A 
ATOM      9  C   UNL     1      -2.699  -0.089  -0.046  1.00  0.00     0.067 C 
ATOM     10  C   UNL     1      -1.207  -0.239   0.002  1.00  0.00     0.050 A 
ATOM     11  N   UNL     1      -0.572   0.929   0.201  1.00  0.00    -0.218 NA
ATOM     12  C   UNL     1      -0.527  -1.432  -0.239  1.00  0.00     0.038 A 
ATOM     13  C   UNL     1       0.758   0.955   0.164  1.00  0.00     0.230 A 
ATOM     14  N   UNL     1       1.492  -0.155   0.059  1.00  0.00    -0.177 NA
BRANCH  12  15
ATOM     15  C   UNL     1      -1.266  -2.641  -0.751  1.00  0.00     0.071 C 
BRANCH  15  16
ATOM     16  C   UNL     1      -1.117  -2.881  -2.257  1.00  0.00     0.161 C 
BRANCH  16  17
ATOM     17  O   UNL     1       0.226  -3.102  -2.666  1.00  0.00    -0.396 OA
ATOM     18  H   UNL     1       0.757  -2.315  -2.470  1.00  0.00     0.210 HD
ENDBRANCH  16  17
ENDBRANCH  15  16
ENDBRANCH  12  15
BRANCH  13  19
ATOM     19  N   UNL     1       1.412   2.186   0.075  1.00  0.00    -0.324 N 
ATOM     20  H   UNL     1       2.394   2.155   0.013  1.00  0.00     0.170 HD
BRANCH  19  21
ATOM     21  C   UNL     1       0.830   3.462   0.063  1.00  0.00     0.041 A 
ATOM     22  C   UNL     1      -0.141   3.828   1.008  1.00  0.00     0.029 A 
ATOM     23  C   UNL     1       1.106   4.353  -0.986  1.00  0.00     0.029 A 
ATOM     24  C   UNL     1      -0.813   5.049   0.921  1.00  0.00     0.041 A 
ATOM     25  C   UNL     1       0.419   5.568  -1.089  1.00  0.00     0.041 A 
ATOM     26  C   UNL     1      -0.534   5.904  -0.135  1.00  0.00     0.123 A 
ATOM     27  F   UNL     1      -1.202   7.060  -0.246  1.00  0.00    -0.207 F 
ENDBRANCH  19  21
ENDBRANCH  13  19
ENDBRANCH   7   8
ENDBRANCH   6   7
ENDBRANCH   3   6
ENDBRANCH   1   2
BRANCH   1  28
ATOM     28  C   UNL     1       2.884  -1.776   3.499  1.00  0.00     0.023 C 
BRANCH  28  29
ATOM     29  C   UNL     1       2.218  -1.776   4.878  1.00  0.00     0.023 C 
BRANCH  29  30
ATOM     30  C   UNL     1       2.670  -2.870   5.839  1.00  0.00     0.116 C 
BRANCH  30  31
ATOM     31  N   UNL     1       4.107  -2.895   6.051  1.00  0.00    -0.352 N 
ATOM     32  C   UNL     1       4.801  -3.061   7.225  1.00  0.00     0.251 C 
ATOM     33  H   UNL     1       4.659  -2.777   5.244  1.00  0.00     0.163 HD
ATOM     34  O   UNL     1       6.025  -2.968   7.234  1.00  0.00    -0.269 OA
BRANCH  32  35
ATOM     35  C   UNL     1       4.061  -3.306   8.480  1.00  0.00     0.039 A 
ATOM     36  C   UNL     1       4.347  -2.511   9.592  1.00  0.00     0.014 A 
ATOM     37  C   UNL     1       3.065  -4.285   8.547  1.00  0.00     0.014 A 
ATOM     38  C   UNL     1       3.586  -2.652  10.753  1.00  0.00     0.010 A 
ATOM     39  C   UNL     1       2.262  -4.374   9.681  1.00  0.00     0.010 A 
ATOM     40  C   UNL     1       2.512  -3.557  10.794  1.00  0.00    -0.014 A 
BRANCH  40  41
ATOM     41  C   UNL     1       1.639  -3.656  11.992  1.00  0.00     0.031 A 
ATOM     42  C   UNL     1       1.595  -4.929  12.790  1.00  0.00     0.074 A 
ATOM     43  C   UNL     1       0.854  -2.615  12.332  1.00  0.00     0.049 A 
ATOM     44  N   UNL     1       0.858  -5.225  13.829  1.00  0.00    -0.248 NA
ATOM     45  C   UNL     1       2.479  -6.021  12.351  1.00  0.00     0.031 C 
ATOM     46  C   UNL     1       0.783  -1.339  11.614  1.00  0.00     0.029 A 
ATOM     47  N   UNL     1      -0.035  -2.461  13.366  1.00  0.00    -0.354 N 
ATOM     48  C   UNL     1       1.185  -6.533  14.166  1.00  0.00     0.074 A 
ATOM     49  C   UNL     1       2.142  -6.995  13.184  1.00  0.00     0.031 C 
ATOM     50  C   UNL     1      -0.072  -0.523  12.251  1.00  0.00     0.029 A 
ATOM     51  C   UNL     1      -0.642  -1.227  13.395  1.00  0.00     0.049 A 
ATOM     52  H   UNL     1      -0.221  -3.168  14.026  1.00  0.00     0.167 HD
ATOM     53  C   UNL     1       0.751  -7.271  15.214  1.00  0.00     0.037 A 
ATOM     54  C   UNL     1      -1.555  -0.719  14.247  1.00  0.00     0.037 A 
ATOM     55  C   UNL     1      -0.186  -6.797  16.200  1.00  0.00     0.049 A 
ATOM     56  C   UNL     1      -2.042  -1.567  15.390  1.00  0.00     0.074 A 
ATOM     57  C   UNL     1      -0.662  -7.457  17.318  1.00  0.00     0.029 A 
ATOM     58  N   UNL     1      -0.784  -5.545  16.188  1.00  0.00    -0.354 N 
ATOM     59  N   UNL     1      -1.696  -2.790  15.713  1.00  0.00    -0.248 NA
ATOM     60  C   UNL     1      -3.043  -0.969  16.285  1.00  0.00     0.031 C 
ATOM     61  C   UNL     1      -1.579  -6.620  17.962  1.00  0.00     0.029 A 
ATOM     62  C   UNL     1      -1.638  -5.420  17.272  1.00  0.00     0.049 A 
ATOM     63  H   UNL     1      -0.626  -4.849  15.511  1.00  0.00     0.167 HD
ATOM     64  C   UNL     1      -2.417  -3.100  16.860  1.00  0.00     0.074 A 
ATOM     65  C   UNL     1      -3.212  -1.932  17.181  1.00  0.00     0.031 C 
ATOM     66  C   UNL     1      -2.420  -4.248  17.581  1.00  0.00     0.037 A 
BRANCH  53  67
ATOM     67  C   UNL     1       1.299  -8.663  15.364  1.00  0.00     0.058 A 
ATOM     68  C   UNL     1       0.475  -9.784  15.175  1.00  0.00     0.135 A 
ATOM     69  C   UNL     1       2.632  -8.887  15.745  1.00  0.00     0.135 A 
ATOM     70  F   UNL     1      -0.805  -9.628  14.804  1.00  0.00    -0.206 F 
ATOM     71  C   UNL     1       0.951 -11.077  15.369  1.00  0.00     0.059 A 
ATOM     72  C   UNL     1       3.137 -10.173  15.918  1.00  0.00     0.059 A 
ATOM     73  F   UNL     1       3.469  -7.851  15.917  1.00  0.00    -0.206 F 
ATOM     74  C   UNL     1       2.284 -11.261  15.740  1.00  0.00     0.060 A 
BRANCH  74  75
ATOM     75  S   UNL     1       2.897 -12.946  15.950  1.00  0.00     0.124 S 
ATOM     76  O   UNL     1       2.222 -13.361  17.175  1.00  0.00    -0.237 OA
ATOM     77  O   UNL     1       2.443 -13.592  14.722  1.00  0.00    -0.237 OA
ATOM     78  O   UNL     1       4.342 -12.769  16.056  1.00  0.00    -0.744 OA
ENDBRANCH  74  75
ENDBRANCH  53  67
BRANCH  54  79
ATOM     79  C   UNL     1      -2.033   0.678  14.069  1.00  0.00     0.058 A 
ATOM     80  C   UNL     1      -2.852   1.040  12.989  1.00  0.00     0.135 A 
ATOM     81  C   UNL     1      -1.640   1.689  14.959  1.00  0.00     0.135 A 
ATOM     82  F   UNL     1      -3.249   0.114  12.103  1.00  0.00    -0.206 F 
ATOM     83  C   UNL     1      -3.242   2.359  12.781  1.00  0.00     0.059 A 
ATOM     84  C   UNL     1      -2.037   3.012  14.787  1.00  0.00     0.059 A 
ATOM     85  F   UNL     1      -0.867   1.388  16.014  1.00  0.00    -0.206 F 
ATOM     86  C   UNL     1      -2.824   3.339  13.683  1.00  0.00     0.060 A 
BRANCH  86  87
ATOM     87  S   UNL     1      -3.321   5.049  13.383  1.00  0.00     0.124 S 
ATOM     88  O   UNL     1      -2.548   5.371  12.188  1.00  0.00    -0.237 OA
ATOM     89  O   UNL     1      -4.762   4.918  13.191  1.00  0.00    -0.237 OA
ATOM     90  O   UNL     1      -2.912   5.739  14.601  1.00  0.00    -0.744 OA
ENDBRANCH  86  87
ENDBRANCH  54  79
BRANCH  66  91
ATOM     91  C   UNL     1      -3.293  -4.304  18.804  1.00  0.00     0.058 A 
ATOM     92  C   UNL     1      -2.719  -4.322  20.086  1.00  0.00     0.135 A 
ATOM     93  C   UNL     1      -4.687  -4.428  18.707  1.00  0.00     0.135 A 
ATOM     94  F   UNL     1      -1.389  -4.212  20.235  1.00  0.00    -0.206 F 
ATOM     95  C   UNL     1      -3.496  -4.484  21.227  1.00  0.00     0.059 A 
ATOM     96  C   UNL     1      -5.487  -4.564  19.838  1.00  0.00     0.059 A 
ATOM     97  F   UNL     1      -5.284  -4.404  17.505  1.00  0.00    -0.206 F 
ATOM     98  C   UNL     1      -4.880  -4.609  21.093  1.00  0.00     0.060 A 
BRANCH  98  99
ATOM     99  S   UNL     1      -5.873  -4.818  22.585  1.00  0.00     0.124 S 
ATOM    100  O   UNL     1      -5.520  -6.174  22.992  1.00  0.00    -0.237 OA
ATOM    101  O   UNL     1      -5.372  -3.747  23.442  1.00  0.00    -0.237 OA
ATOM    102  O   UNL     1      -7.242  -4.641  22.109  1.00  0.00    -0.744 OA
ENDBRANCH  98  99
ENDBRANCH  66  91
ENDBRANCH  40  41
ENDBRANCH  32  35
ENDBRANCH  30  31
ENDBRANCH  29  30
ENDBRANCH  28  29
ENDBRANCH   1  28
TORSDOF 21
