REMARK SMILES COc1cccc(C(=O)N2[C@@H](C(=O)NCCCCNC(=O)c3ccc(-c4c5nc(c(-c6c(F)cc(S(=O)(=O)[O-])cc6F)c6ccc([nH]6)c(-c6c(F)cc(S(=O)(=O)[O-])cc6F)c6nc(c(-c7c(F)cc(S(=O)(=O)[O-])cc7F)c7ccc4[nH]7)C=C6)C=C5)cc3)CS[C@@H]2c2ccccc2Cl)c1
REMARK SMILES IDX 16 1 15 2 14 3 12 4 13 5 11 7 10 8 90 9 88 10 89 11 8 12
REMARK SMILES IDX 9 13 7 14 3 15 4 16 98 17 5 18 6 19 2 20 1 21 91 22 92 23
REMARK SMILES IDX 96 24 93 25 95 26 97 27 94 28 17 29 18 30 19 31 20 32 21 34
REMARK SMILES IDX 22 35 23 36 87 37 24 38 86 39 25 40 26 41 27 42 80 43 28 44
REMARK SMILES IDX 85 45 79 46 81 47 29 48 84 49 78 50 77 51 30 53 64 54 43 55
REMARK SMILES IDX 63 56 44 57 47 58 62 59 82 60 45 61 46 62 61 64 83 65 48 66
REMARK SMILES IDX 31 67 32 68 41 69 33 70 34 71 40 72 42 73 35 74 36 75 37 76
REMARK SMILES IDX 38 77 39 78 65 79 66 80 75 81 67 82 68 83 74 84 76 85 69 86
REMARK SMILES IDX 70 87 71 88 72 89 73 90 49 91 50 92 59 93 51 94 52 95 58 96
REMARK SMILES IDX 60 97 53 98 54 99 55 100 56 101 57 102
REMARK H PARENT 14 6 19 33 81 52 47 63
REMARK Flexibility Score: inf
ROOT
ATOM      1  C   UNL     1       6.283   4.740  -5.335  1.00  0.00     0.023 C 
ENDROOT
BRANCH   1   2
ATOM      2  C   UNL     1       6.532   4.556  -3.838  1.00  0.00     0.116 C 
BRANCH   2   3
ATOM      3  N   UNL     1       5.321   4.248  -3.099  1.00  0.00    -0.354 N 
ATOM      4  C   UNL     1       4.868   3.043  -2.638  1.00  0.00     0.243 C 
ATOM      5  O   UNL     1       3.806   3.015  -2.011  1.00  0.00    -0.273 OA
ATOM      6  H   UNL     1       4.742   5.019  -2.900  1.00  0.00     0.163 HD
BRANCH   4   7
ATOM      7  C   UNL     1       5.732   1.784  -2.847  1.00  0.00     0.186 C 
ATOM      8  N   UNL     1       4.920   0.615  -3.211  1.00  0.00    -0.310 N 
ATOM      9  C   UNL     1       5.288  -0.627  -2.551  1.00  0.00     0.176 C 
ATOM     10  C   UNL     1       6.428   1.508  -1.506  1.00  0.00     0.107 C 
ATOM     11  S   UNL     1       5.640   0.011  -0.848  1.00  0.00    -0.129 SA
BRANCH   8  12
ATOM     12  C   UNL     1       3.929   0.786  -4.165  1.00  0.00     0.255 C 
ATOM     13  O   UNL     1       4.071   1.553  -5.116  1.00  0.00    -0.269 OA
BRANCH  12  14
ATOM     14  C   UNL     1       2.574   0.213  -3.913  1.00  0.00     0.043 A 
ATOM     15  C   UNL     1       0.776  -0.363  -2.380  1.00  0.00     0.119 A 
ATOM     16  C   UNL     1      -0.079  -0.550  -3.467  1.00  0.00     0.046 A 
ATOM     17  C   UNL     1       2.096   0.027  -2.606  1.00  0.00     0.060 A 
ATOM     18  C   UNL     1       0.371  -0.322  -4.769  1.00  0.00     0.005 A 
ATOM     19  C   UNL     1       1.695   0.058  -4.992  1.00  0.00     0.014 A 
BRANCH  15  20
ATOM     20  O   UNL     1       0.222  -0.596  -1.151  1.00  0.00    -0.497 OA
ATOM     21  C   UNL     1       0.825   0.091  -0.057  1.00  0.00     0.278 C 
ENDBRANCH  15  20
ENDBRANCH  12  14
ENDBRANCH   8  12
BRANCH   9  22
ATOM     22  C   UNL     1       6.537  -1.382  -3.055  1.00  0.00     0.003 A 
ATOM     23  C   UNL     1       7.018  -2.427  -2.217  1.00  0.00     0.008 A 
ATOM     24  C   UNL     1       7.273  -1.153  -4.231  1.00  0.00     0.047 A 
ATOM     25  C   UNL     1       8.216  -3.104  -2.464  1.00  0.00     0.001 A 
ATOM     26  C   UNL     1       8.486  -1.829  -4.469  1.00  0.00     0.021 A 
ATOM     27  Cl  UNL     1       6.798  -0.101  -5.510  1.00  0.00    -0.084 Cl
ATOM     28  C   UNL     1       8.968  -2.784  -3.582  1.00  0.00     0.002 A 
ENDBRANCH   9  22
ENDBRANCH   4   7
ENDBRANCH   2   3
ENDBRANCH   1   2
BRANCH   1  29
ATOM     29  C   UNL     1       5.321   5.877  -5.694  1.00  0.00     0.023 C 
BRANCH  29  30
ATOM     30  C   UNL     1       5.648   7.238  -5.087  1.00  0.00     0.116 C 
BRANCH  30  31
ATOM     31  N   UNL     1       6.930   7.768  -5.523  1.00  0.00    -0.352 N 
ATOM     32  C   UNL     1       7.242   9.035  -5.959  1.00  0.00     0.251 C 
ATOM     33  H   UNL     1       7.681   7.131  -5.503  1.00  0.00     0.163 HD
ATOM     34  O   UNL     1       8.364   9.266  -6.404  1.00  0.00    -0.269 OA
BRANCH  32  35
ATOM     35  C   UNL     1       6.221  10.108  -5.926  1.00  0.00     0.039 A 
ATOM     36  C   UNL     1       6.069  10.928  -7.048  1.00  0.00     0.014 A 
ATOM     37  C   UNL     1       5.409  10.303  -4.806  1.00  0.00     0.014 A 
ATOM     38  C   UNL     1       5.056  11.892  -7.074  1.00  0.00     0.010 A 
ATOM     39  C   UNL     1       4.354  11.212  -4.862  1.00  0.00     0.010 A 
ATOM     40  C   UNL     1       4.162  12.014  -5.997  1.00  0.00    -0.014 A 
BRANCH  40  41
ATOM     41  C   UNL     1       3.013  12.960  -6.050  1.00  0.00     0.031 A 
ATOM     42  C   UNL     1       2.916  14.095  -5.066  1.00  0.00     0.074 A 
ATOM     43  C   UNL     1       2.021  12.756  -6.940  1.00  0.00     0.049 A 
ATOM     44  N   UNL     1       1.958  14.974  -4.910  1.00  0.00    -0.248 NA
ATOM     45  C   UNL     1       4.029  14.249  -4.117  1.00  0.00     0.031 C 
ATOM     46  C   UNL     1       1.972  11.665  -7.917  1.00  0.00     0.029 A 
ATOM     47  N   UNL     1       0.856  13.448  -7.161  1.00  0.00    -0.354 N 
ATOM     48  C   UNL     1       2.345  15.774  -3.841  1.00  0.00     0.074 A 
ATOM     49  C   UNL     1       3.600  15.243  -3.353  1.00  0.00     0.031 C 
ATOM     50  C   UNL     1       0.849  11.774  -8.643  1.00  0.00     0.029 A 
ATOM     51  C   UNL     1       0.075  12.913  -8.159  1.00  0.00     0.049 A 
ATOM     52  H   UNL     1       0.603  14.252  -6.653  1.00  0.00     0.167 HD
ATOM     53  C   UNL     1       1.724  16.863  -3.327  1.00  0.00     0.037 A 
ATOM     54  C   UNL     1      -1.133  13.286  -8.626  1.00  0.00     0.037 A 
ATOM     55  C   UNL     1       0.483  17.396  -3.829  1.00  0.00     0.049 A 
ATOM     56  C   UNL     1      -1.811  14.491  -8.030  1.00  0.00     0.074 A 
ATOM     57  C   UNL     1      -0.196  18.529  -3.412  1.00  0.00     0.029 A 
ATOM     58  N   UNL     1      -0.269  16.835  -4.850  1.00  0.00    -0.354 N 
ATOM     59  N   UNL     1      -1.398  15.275  -7.063  1.00  0.00    -0.248 NA
ATOM     60  C   UNL     1      -3.116  14.867  -8.592  1.00  0.00     0.031 C 
ATOM     61  C   UNL     1      -1.384  18.622  -4.145  1.00  0.00     0.029 A 
ATOM     62  C   UNL     1      -1.417  17.582  -5.060  1.00  0.00     0.049 A 
ATOM     63  H   UNL     1      -0.023  16.024  -5.352  1.00  0.00     0.167 HD
ATOM     64  C   UNL     1      -2.377  16.253  -6.921  1.00  0.00     0.074 A 
ATOM     65  C   UNL     1      -3.397  15.968  -7.908  1.00  0.00     0.031 C 
ATOM     66  C   UNL     1      -2.425  17.293  -6.052  1.00  0.00     0.037 A 
BRANCH  53  67
ATOM     67  C   UNL     1       2.376  17.552  -2.158  1.00  0.00     0.058 A 
ATOM     68  C   UNL     1       3.578  18.265  -2.296  1.00  0.00     0.135 A 
ATOM     69  C   UNL     1       1.772  17.532  -0.889  1.00  0.00     0.135 A 
ATOM     70  F   UNL     1       4.206  18.308  -3.482  1.00  0.00    -0.206 F 
ATOM     71  C   UNL     1       4.176  18.903  -1.214  1.00  0.00     0.059 A 
ATOM     72  C   UNL     1       2.337  18.190   0.200  1.00  0.00     0.059 A 
ATOM     73  F   UNL     1       0.621  16.869  -0.698  1.00  0.00    -0.206 F 
ATOM     74  C   UNL     1       3.547  18.859   0.031  1.00  0.00     0.060 A 
BRANCH  74  75
ATOM     75  S   UNL     1       4.338  19.692   1.424  1.00  0.00     0.124 S 
ATOM     76  O   UNL     1       5.473  18.812   1.683  1.00  0.00    -0.237 OA
ATOM     77  O   UNL     1       4.665  20.998   0.861  1.00  0.00    -0.237 OA
ATOM     78  O   UNL     1       3.302  19.697   2.451  1.00  0.00    -0.744 OA
ENDBRANCH  74  75
ENDBRANCH  53  67
BRANCH  54  79
ATOM     79  C   UNL     1      -1.773  12.519  -9.729  1.00  0.00     0.058 A 
ATOM     80  C   UNL     1      -1.908  13.073 -11.011  1.00  0.00     0.135 A 
ATOM     81  C   UNL     1      -2.247  11.213  -9.530  1.00  0.00     0.135 A 
ATOM     82  F   UNL     1      -1.478  14.322 -11.249  1.00  0.00    -0.206 F 
ATOM     83  C   UNL     1      -2.503  12.368 -12.052  1.00  0.00     0.059 A 
ATOM     84  C   UNL     1      -2.820  10.477 -10.563  1.00  0.00     0.059 A 
ATOM     85  F   UNL     1      -2.129  10.630  -8.327  1.00  0.00    -0.206 F 
ATOM     86  C   UNL     1      -2.952  11.067 -11.819  1.00  0.00     0.060 A 
BRANCH  86  87
ATOM     87  S   UNL     1      -3.675  10.143 -13.192  1.00  0.00     0.124 S 
ATOM     88  O   UNL     1      -4.958  10.817 -13.357  1.00  0.00    -0.237 OA
ATOM     89  O   UNL     1      -2.698  10.361 -14.255  1.00  0.00    -0.237 OA
ATOM     90  O   UNL     1      -3.740   8.777 -12.681  1.00  0.00    -0.744 OA
ENDBRANCH  86  87
ENDBRANCH  54  79
BRANCH  66  91
ATOM     91  C   UNL     1      -3.599  18.229  -6.149  1.00  0.00     0.058 A 
ATOM     92  C   UNL     1      -4.886  17.850  -5.737  1.00  0.00     0.135 A 
ATOM     93  C   UNL     1      -3.422  19.544  -6.611  1.00  0.00     0.135 A 
ATOM     94  F   UNL     1      -5.114  16.603  -5.294  1.00  0.00    -0.206 F 
ATOM     95  C   UNL     1      -5.960  18.733  -5.799  1.00  0.00     0.059 A 
ATOM     96  C   UNL     1      -4.474  20.453  -6.653  1.00  0.00     0.059 A 
ATOM     97  F   UNL     1      -2.210  19.963  -7.009  1.00  0.00    -0.206 F 
ATOM     98  C   UNL     1      -5.743  20.035  -6.256  1.00  0.00     0.060 A 
BRANCH  98  99
ATOM     99  S   UNL     1      -7.136  21.182  -6.295  1.00  0.00     0.124 S 
ATOM    100  O   UNL     1      -7.907  20.671  -7.424  1.00  0.00    -0.237 OA
ATOM    101  O   UNL     1      -7.736  20.989  -4.979  1.00  0.00    -0.237 OA
ATOM    102  O   UNL     1      -6.503  22.480  -6.505  1.00  0.00    -0.744 OA
ENDBRANCH  98  99
ENDBRANCH  66  91
ENDBRANCH  40  41
ENDBRANCH  32  35
ENDBRANCH  30  31
ENDBRANCH  29  30
ENDBRANCH   1  29
TORSDOF 18
