REMARK SMILES CCOC(=O)[C@@]1(C)C/C(=N/c2cccc(C(=O)NCCCCNC(=O)c3ccc(-c4c5nc(c(-c6c(F)cc(S(=O)(=O)[O-])cc6F)c6ccc([nH]6)c(-c6c(F)cc(S(=O)(=O)[O-])cc6F)c6nc(c(-c7c(F)cc(S(=O)(=O)[O-])cc7F)c7ccc4[nH]7)C=C6)C=C5)cc3)c2)C(=O)N1c1ccccc1
REMARK SMILES IDX 20 1 19 2 18 3 16 4 17 5 15 7 11 8 12 9 92 10 13 11 14 12
REMARK SMILES IDX 10 13 6 14 7 15 8 16 95 17 9 18 93 19 94 20 4 21 5 22 3 23
REMARK SMILES IDX 2 24 1 25 96 26 97 27 101 28 98 29 100 30 99 31 21 32 22 33
REMARK SMILES IDX 23 34 24 35 25 37 26 38 27 39 91 40 28 41 90 42 29 43 30 44
REMARK SMILES IDX 31 45 84 46 32 47 89 48 83 49 85 50 33 51 88 52 82 53 81 54
REMARK SMILES IDX 34 56 68 57 47 58 67 59 48 60 51 61 66 62 86 63 49 64 50 65
REMARK SMILES IDX 65 67 87 68 52 69 35 70 36 71 45 72 37 73 38 74 44 75 46 76
REMARK SMILES IDX 39 77 40 78 41 79 42 80 43 81 69 82 70 83 79 84 71 85 72 86
REMARK SMILES IDX 78 87 80 88 73 89 74 90 75 91 76 92 77 93 53 94 54 95 63 96
REMARK SMILES IDX 55 97 56 98 62 99 64 100 57 101 58 102 59 103 60 104 61 105
REMARK H PARENT 18 6 23 36 85 55 51 66
REMARK Flexibility Score: inf
ROOT
ATOM      1  C   UNL     1       7.892   5.788   4.970  1.00  0.00     0.023 C 
ENDROOT
BRANCH   1   2
ATOM      2  C   UNL     1       6.470   6.320   4.829  1.00  0.00     0.116 C 
BRANCH   2   3
ATOM      3  N   UNL     1       6.135   7.422   5.710  1.00  0.00    -0.352 N 
ATOM      4  C   UNL     1       5.161   8.390   5.602  1.00  0.00     0.251 C 
ATOM      5  O   UNL     1       5.081   9.237   6.491  1.00  0.00    -0.269 OA
ATOM      6  H   UNL     1       6.696   7.489   6.517  1.00  0.00     0.163 HD
BRANCH   4   7
ATOM      7  C   UNL     1       4.243   8.482   4.433  1.00  0.00     0.041 A 
ATOM      8  C   UNL     1       3.018   7.506   2.561  1.00  0.00     0.064 A 
ATOM      9  C   UNL     1       2.618   8.782   2.167  1.00  0.00     0.028 A 
ATOM     10  C   UNL     1       3.804   7.370   3.713  1.00  0.00     0.042 A 
ATOM     11  C   UNL     1       2.986   9.902   2.916  1.00  0.00     0.003 A 
ATOM     12  C   UNL     1       3.801   9.752   4.041  1.00  0.00     0.014 A 
BRANCH   8  13
ATOM     13  N   UNL     1       2.821   6.420   1.695  1.00  0.00    -0.248 NA
ATOM     14  C   UNL     1       2.817   3.063   2.464  1.00  0.00     0.148 C 
ATOM     15  C   UNL     1       4.340   3.098   2.717  1.00  0.00     0.048 C 
ATOM     16  C   UNL     1       2.471   4.052   1.319  1.00  0.00     0.103 C 
ATOM     17  N   UNL     1       2.073   3.587   3.636  1.00  0.00    -0.290 N 
ATOM     18  C   UNL     1       2.332   5.298   2.115  1.00  0.00     0.109 C 
ATOM     19  C   UNL     1       1.756   4.933   3.457  1.00  0.00     0.273 C 
ATOM     20  O   UNL     1       1.160   5.734   4.144  1.00  0.00    -0.267 OA
BRANCH  14  21
ATOM     21  C   UNL     1       2.389   1.695   1.900  1.00  0.00     0.332 C 
ATOM     22  O   UNL     1       3.095   1.021   1.157  1.00  0.00    -0.249 OA
BRANCH  21  23
ATOM     23  O   UNL     1       1.093   1.403   2.197  1.00  0.00    -0.464 OA
BRANCH  23  24
ATOM     24  C   UNL     1       0.609   0.145   1.703  1.00  0.00     0.229 C 
ATOM     25  C   UNL     1       0.182   0.265   0.251  1.00  0.00     0.049 C 
ENDBRANCH  23  24
ENDBRANCH  21  23
ENDBRANCH  14  21
BRANCH  17  26
ATOM     26  C   UNL     1       1.822   2.851   4.836  1.00  0.00     0.045 A 
ATOM     27  C   UNL     1       0.963   3.350   5.828  1.00  0.00     0.026 A 
ATOM     28  C   UNL     1       2.424   1.607   5.083  1.00  0.00     0.026 A 
ATOM     29  C   UNL     1       0.721   2.645   7.014  1.00  0.00     0.002 A 
ATOM     30  C   UNL     1       2.191   0.904   6.273  1.00  0.00     0.002 A 
ATOM     31  C   UNL     1       1.339   1.422   7.239  1.00  0.00     0.000 A 
ENDBRANCH  17  26
ENDBRANCH   8  13
ENDBRANCH   4   7
ENDBRANCH   2   3
ENDBRANCH   1   2
BRANCH   1  32
ATOM     32  C   UNL     1       8.332   5.339   6.365  1.00  0.00     0.023 C 
BRANCH  32  33
ATOM     33  C   UNL     1       7.339   4.511   7.177  1.00  0.00     0.116 C 
BRANCH  33  34
ATOM     34  N   UNL     1       6.901   3.295   6.511  1.00  0.00    -0.352 N 
ATOM     35  C   UNL     1       7.090   1.969   6.818  1.00  0.00     0.251 C 
ATOM     36  H   UNL     1       6.375   3.449   5.693  1.00  0.00     0.163 HD
ATOM     37  O   UNL     1       6.661   1.117   6.042  1.00  0.00    -0.269 OA
BRANCH  35  38
ATOM     38  C   UNL     1       7.834   1.550   8.030  1.00  0.00     0.039 A 
ATOM     39  C   UNL     1       8.783   0.529   7.903  1.00  0.00     0.014 A 
ATOM     40  C   UNL     1       7.597   2.117   9.285  1.00  0.00     0.014 A 
ATOM     41  C   UNL     1       9.558   0.149   9.003  1.00  0.00     0.010 A 
ATOM     42  C   UNL     1       8.406   1.775  10.371  1.00  0.00     0.010 A 
ATOM     43  C   UNL     1       9.409   0.804  10.235  1.00  0.00    -0.014 A 
BRANCH  43  44
ATOM     44  C   UNL     1      10.327   0.527  11.371  1.00  0.00     0.031 A 
ATOM     45  C   UNL     1       9.820  -0.104  12.635  1.00  0.00     0.074 A 
ATOM     46  C   UNL     1      11.613   0.920  11.294  1.00  0.00     0.049 A 
ATOM     47  N   UNL     1      10.434  -0.260  13.781  1.00  0.00    -0.248 NA
ATOM     48  C   UNL     1       8.438  -0.605  12.616  1.00  0.00     0.031 C 
ATOM     49  C   UNL     1      12.232   1.578  10.142  1.00  0.00     0.029 A 
ATOM     50  N   UNL     1      12.628   0.834  12.214  1.00  0.00    -0.354 N 
ATOM     51  C   UNL     1       9.497  -0.818  14.639  1.00  0.00     0.074 A 
ATOM     52  C   UNL     1       8.281  -1.003  13.872  1.00  0.00     0.031 C 
ATOM     53  C   UNL     1      13.524   1.822  10.417  1.00  0.00     0.029 A 
ATOM     54  C   UNL     1      13.815   1.366  11.774  1.00  0.00     0.049 A 
ATOM     55  H   UNL     1      12.516   0.430  13.104  1.00  0.00     0.167 HD
ATOM     56  C   UNL     1       9.630  -1.133  15.950  1.00  0.00     0.037 A 
ATOM     57  C   UNL     1      15.004   1.489  12.393  1.00  0.00     0.037 A 
ATOM     58  C   UNL     1      10.846  -1.003  16.709  1.00  0.00     0.049 A 
ATOM     59  C   UNL     1      15.163   1.017  13.806  1.00  0.00     0.074 A 
ATOM     60  C   UNL     1      11.070  -1.298  18.043  1.00  0.00     0.029 A 
ATOM     61  N   UNL     1      12.053  -0.559  16.191  1.00  0.00    -0.354 N 
ATOM     62  N   UNL     1      14.257   0.520  14.611  1.00  0.00    -0.248 NA
ATOM     63  C   UNL     1      16.505   1.127  14.396  1.00  0.00     0.031 C 
ATOM     64  C   UNL     1      12.419  -1.045  18.328  1.00  0.00     0.029 A 
ATOM     65  C   UNL     1      13.031  -0.592  17.171  1.00  0.00     0.049 A 
ATOM     66  H   UNL     1      12.194  -0.265  15.262  1.00  0.00     0.167 HD
ATOM     67  C   UNL     1      14.914   0.267  15.808  1.00  0.00     0.074 A 
ATOM     68  C   UNL     1      16.299   0.649  15.617  1.00  0.00     0.031 C 
ATOM     69  C   UNL     1      14.407  -0.224  16.965  1.00  0.00     0.037 A 
BRANCH  56  70
ATOM     70  C   UNL     1       8.399  -1.623  16.648  1.00  0.00     0.058 A 
ATOM     71  C   UNL     1       8.026  -2.974  16.613  1.00  0.00     0.135 A 
ATOM     72  C   UNL     1       7.567  -0.722  17.330  1.00  0.00     0.135 A 
ATOM     73  F   UNL     1       8.783  -3.866  15.956  1.00  0.00    -0.206 F 
ATOM     74  C   UNL     1       6.849  -3.415  17.209  1.00  0.00     0.059 A 
ATOM     75  C   UNL     1       6.390  -1.142  17.939  1.00  0.00     0.059 A 
ATOM     76  F   UNL     1       7.880   0.582  17.381  1.00  0.00    -0.206 F 
ATOM     77  C   UNL     1       6.029  -2.487  17.855  1.00  0.00     0.060 A 
BRANCH  77  78
ATOM     78  S   UNL     1       4.471  -3.027  18.591  1.00  0.00     0.124 S 
ATOM     79  O   UNL     1       3.532  -2.757  17.507  1.00  0.00    -0.237 OA
ATOM     80  O   UNL     1       4.713  -4.438  18.879  1.00  0.00    -0.237 OA
ATOM     81  O   UNL     1       4.349  -2.166  19.763  1.00  0.00    -0.744 OA
ENDBRANCH  77  78
ENDBRANCH  56  70
BRANCH  57  82
ATOM     82  C   UNL     1      16.141   2.090  11.660  1.00  0.00     0.058 A 
ATOM     83  C   UNL     1      17.049   1.280  10.965  1.00  0.00     0.135 A 
ATOM     84  C   UNL     1      16.301   3.480  11.588  1.00  0.00     0.135 A 
ATOM     85  F   UNL     1      16.927  -0.055  11.009  1.00  0.00    -0.206 F 
ATOM     86  C   UNL     1      18.079   1.829  10.210  1.00  0.00     0.059 A 
ATOM     87  C   UNL     1      17.320   4.053  10.836  1.00  0.00     0.059 A 
ATOM     88  F   UNL     1      15.445   4.289  12.230  1.00  0.00    -0.206 F 
ATOM     89  C   UNL     1      18.205   3.218  10.150  1.00  0.00     0.060 A 
BRANCH  89  90
ATOM     90  S   UNL     1      19.476   3.951   9.096  1.00  0.00     0.124 S 
ATOM     91  O   UNL     1      20.579   4.109  10.036  1.00  0.00    -0.237 OA
ATOM     92  O   UNL     1      19.661   2.939   8.061  1.00  0.00    -0.237 OA
ATOM     93  O   UNL     1      18.843   5.186   8.642  1.00  0.00    -0.744 OA
ENDBRANCH  89  90
ENDBRANCH  57  82
BRANCH  69  94
ATOM     94  C   UNL     1      15.362  -0.381  18.107  1.00  0.00     0.058 A 
ATOM     95  C   UNL     1      15.605   0.678  18.995  1.00  0.00     0.135 A 
ATOM     96  C   UNL     1      16.028  -1.595  18.326  1.00  0.00     0.135 A 
ATOM     97  F   UNL     1      14.994   1.860  18.819  1.00  0.00    -0.206 F 
ATOM     98  C   UNL     1      16.488   0.541  20.061  1.00  0.00     0.059 A 
ATOM     99  C   UNL     1      16.913  -1.755  19.387  1.00  0.00     0.059 A 
ATOM    100  F   UNL     1      15.829  -2.633  17.498  1.00  0.00    -0.206 F 
ATOM    101  C   UNL     1      17.145  -0.677  20.244  1.00  0.00     0.060 A 
BRANCH 101 102
ATOM    102  S   UNL     1      18.281  -0.875  21.634  1.00  0.00     0.124 S 
ATOM    103  O   UNL     1      19.548  -0.471  21.034  1.00  0.00    -0.237 OA
ATOM    104  O   UNL     1      17.736   0.036  22.635  1.00  0.00    -0.237 OA
ATOM    105  O   UNL     1      18.159  -2.293  21.957  1.00  0.00    -0.744 OA
ENDBRANCH 101 102
ENDBRANCH  69  94
ENDBRANCH  43  44
ENDBRANCH  35  38
ENDBRANCH  33  34
ENDBRANCH  32  33
ENDBRANCH   1  32
TORSDOF 19
