REMARK SMILES O=C(NCCCCNC(=O)c1ccc(-c2c3nc(c(-c4c(F)cc(S(=O)(=O)[O-])cc4F)c4ccc([nH]4)c(-c4c(F)cc(S(=O)(=O)[O-])cc4F)c4nc(c(-c5c(F)cc(S(=O)(=O)[O-])cc5F)c5ccc2[nH]5)C=C4)C=C3)cc1)C1=Cc2cc(Cl)cc(C#Cc3ccccc3)c2O[C@@H]1C(F)(F)F
REMARK SMILES IDX 6 1 5 2 4 3 3 4 1 5 2 6 77 8 78 9 95 10 79 11 94 12 80 13
REMARK SMILES IDX 93 14 81 15 84 16 82 17 83 18 96 19 97 20 98 21 99 22 85 23
REMARK SMILES IDX 86 24 87 25 88 26 92 27 89 28 91 29 90 30 7 31 8 32 9 33
REMARK SMILES IDX 10 35 11 36 12 37 76 38 13 39 75 40 14 41 15 42 16 43 69 44
REMARK SMILES IDX 17 45 74 46 68 47 70 48 18 49 73 50 67 51 66 52 19 54 53 55
REMARK SMILES IDX 32 56 52 57 33 58 36 59 51 60 71 61 34 62 35 63 50 65 72 66
REMARK SMILES IDX 37 67 20 68 21 69 30 70 22 71 23 72 29 73 31 74 24 75 25 76
REMARK SMILES IDX 26 77 27 78 28 79 54 80 55 81 64 82 56 83 57 84 63 85 65 86
REMARK SMILES IDX 58 87 59 88 60 89 61 90 62 91 38 92 39 93 48 94 40 95 41 96
REMARK SMILES IDX 47 97 49 98 42 99 43 100 44 101 45 102 46 103
REMARK H PARENT 3 7 8 34 70 53 36 64
REMARK Flexibility Score: inf
ROOT
ATOM      1  C   UNL     1       4.079  -4.481  -0.160  1.00  0.00     0.023 C 
ENDROOT
BRANCH   1   2
ATOM      2  C   UNL     1       4.336  -3.242   0.677  1.00  0.00     0.023 C 
BRANCH   2   3
ATOM      3  C   UNL     1       3.855  -1.945   0.052  1.00  0.00     0.116 C 
BRANCH   3   4
ATOM      4  N   UNL     1       2.620  -1.399   0.577  1.00  0.00    -0.352 N 
ATOM      5  O   UNL     1       1.109   0.216   1.002  1.00  0.00    -0.270 OA
ATOM      6  C   UNL     1       2.277  -0.086   0.766  1.00  0.00     0.251 C 
ATOM      7  H   UNL     1       1.936  -2.059   0.831  1.00  0.00     0.163 HD
BRANCH   6   8
ATOM      8  C   UNL     1       3.271   1.017   0.594  1.00  0.00     0.067 C 
ATOM      9  C   UNL     1       4.490   0.978   1.159  1.00  0.00     0.025 C 
ATOM     10  C   UNL     1       3.112   1.754  -0.710  1.00  0.00     0.314 C 
ATOM     11  C   UNL     1       5.583   0.825   0.159  1.00  0.00     0.020 A 
ATOM     12  O   UNL     1       4.073   1.290  -1.700  1.00  0.00    -0.474 OA
ATOM     13  C   UNL     1       6.783   0.277   0.630  1.00  0.00     0.032 A 
ATOM     14  C   UNL     1       5.262   0.784  -1.220  1.00  0.00     0.143 A 
ATOM     15  C   UNL     1       7.612  -0.406  -0.255  1.00  0.00     0.043 A 
ATOM     16  C   UNL     1       6.085   0.047  -2.091  1.00  0.00     0.069 A 
ATOM     17  Cl  UNL     1       8.985  -1.246   0.355  1.00  0.00    -0.084 Cl
ATOM     18  C   UNL     1       7.261  -0.542  -1.597  1.00  0.00     0.041 A 
BRANCH  10  19
ATOM     19  C   UNL     1       3.169   3.274  -0.464  1.00  0.00     0.429 C 
ATOM     20  F   UNL     1       2.838   3.980  -1.569  1.00  0.00    -0.167 F 
ATOM     21  F   UNL     1       2.304   3.650   0.513  1.00  0.00    -0.167 F 
ATOM     22  F   UNL     1       4.398   3.693  -0.072  1.00  0.00    -0.167 F 
ENDBRANCH  10  19
BRANCH  16  23
ATOM     23  C   UNL     1       5.673  -0.347  -3.411  1.00  0.00    -0.058 C 
ATOM     24  C   UNL     1       5.374  -0.855  -4.467  1.00  0.00    -0.062 C 
BRANCH  24  25
ATOM     25  C   UNL     1       5.034  -1.562  -5.669  1.00  0.00     0.025 A 
ATOM     26  C   UNL     1       4.048  -1.069  -6.525  1.00  0.00     0.017 A 
ATOM     27  C   UNL     1       5.661  -2.774  -5.980  1.00  0.00     0.017 A 
ATOM     28  C   UNL     1       3.676  -1.791  -7.665  1.00  0.00     0.001 A 
ATOM     29  C   UNL     1       5.271  -3.509  -7.106  1.00  0.00     0.001 A 
ATOM     30  C   UNL     1       4.276  -3.018  -7.947  1.00  0.00     0.000 A 
ENDBRANCH  24  25
ENDBRANCH  16  23
ENDBRANCH   6   8
ENDBRANCH   3   4
ENDBRANCH   2   3
ENDBRANCH   1   2
BRANCH   1  31
ATOM     31  C   UNL     1       4.599  -4.427  -1.591  1.00  0.00     0.116 C 
BRANCH  31  32
ATOM     32  N   UNL     1       6.041  -4.236  -1.707  1.00  0.00    -0.352 N 
ATOM     33  C   UNL     1       6.927  -4.938  -2.498  1.00  0.00     0.251 C 
ATOM     34  H   UNL     1       6.429  -3.520  -1.154  1.00  0.00     0.163 HD
ATOM     35  O   UNL     1       8.131  -4.712  -2.448  1.00  0.00    -0.269 OA
BRANCH  33  36
ATOM     36  C   UNL     1       6.396  -5.982  -3.400  1.00  0.00     0.039 A 
ATOM     37  C   UNL     1       6.934  -7.271  -3.377  1.00  0.00     0.014 A 
ATOM     38  C   UNL     1       5.290  -5.691  -4.199  1.00  0.00     0.014 A 
ATOM     39  C   UNL     1       6.295  -8.290  -4.087  1.00  0.00     0.010 A 
ATOM     40  C   UNL     1       4.620  -6.708  -4.851  1.00  0.00     0.010 A 
ATOM     41  C   UNL     1       5.111  -8.017  -4.791  1.00  0.00    -0.014 A 
BRANCH  41  42
ATOM     42  C   UNL     1       4.304  -9.061  -5.455  1.00  0.00     0.031 A 
ATOM     43  C   UNL     1       4.130  -9.005  -6.946  1.00  0.00     0.074 A 
ATOM     44  C   UNL     1       3.585  -9.909  -4.694  1.00  0.00     0.049 A 
ATOM     45  N   UNL     1       3.310  -9.677  -7.706  1.00  0.00    -0.248 NA
ATOM     46  C   UNL     1       4.954  -8.020  -7.671  1.00  0.00     0.031 C 
ATOM     47  C   UNL     1       3.616  -9.965  -3.230  1.00  0.00     0.029 A 
ATOM     48  N   UNL     1       2.653 -10.852  -5.040  1.00  0.00    -0.354 N 
ATOM     49  C   UNL     1       3.499  -9.183  -8.991  1.00  0.00     0.074 A 
ATOM     50  C   UNL     1       4.475  -8.121  -8.903  1.00  0.00     0.031 C 
ATOM     51  C   UNL     1       2.743 -10.893  -2.805  1.00  0.00     0.029 A 
ATOM     52  C   UNL     1       2.067 -11.471  -3.960  1.00  0.00     0.049 A 
ATOM     53  H   UNL     1       2.425 -11.067  -5.974  1.00  0.00     0.167 HD
ATOM     54  C   UNL     1       2.920  -9.602 -10.139  1.00  0.00     0.037 A 
ATOM     55  C   UNL     1       1.082 -12.389  -3.915  1.00  0.00     0.037 A 
ATOM     56  C   UNL     1       1.981 -10.691 -10.197  1.00  0.00     0.049 A 
ATOM     57  C   UNL     1       0.492 -12.871  -5.215  1.00  0.00     0.074 A 
ATOM     58  C   UNL     1       1.409 -11.272 -11.314  1.00  0.00     0.029 A 
ATOM     59  N   UNL     1       1.478 -11.363  -9.092  1.00  0.00    -0.354 N 
ATOM     60  N   UNL     1       0.755 -12.469  -6.437  1.00  0.00    -0.248 NA
ATOM     61  C   UNL     1      -0.514 -13.938  -5.138  1.00  0.00     0.031 C 
ATOM     62  C   UNL     1       0.522 -12.261 -10.882  1.00  0.00     0.029 A 
ATOM     63  C   UNL     1       0.592 -12.343  -9.500  1.00  0.00     0.049 A 
ATOM     64  H   UNL     1       1.717 -11.170  -8.156  1.00  0.00     0.167 HD
ATOM     65  C   UNL     1      -0.014 -13.268  -7.274  1.00  0.00     0.074 A 
ATOM     66  C   UNL     1      -0.752 -14.175  -6.421  1.00  0.00     0.031 C 
ATOM     67  C   UNL     1      -0.100 -13.257  -8.627  1.00  0.00     0.037 A 
BRANCH  54  68
ATOM     68  C   UNL     1       3.293  -8.918 -11.426  1.00  0.00     0.058 A 
ATOM     69  C   UNL     1       4.572  -9.054 -11.989  1.00  0.00     0.135 A 
ATOM     70  C   UNL     1       2.332  -8.200 -12.157  1.00  0.00     0.135 A 
ATOM     71  F   UNL     1       5.537  -9.712 -11.327  1.00  0.00    -0.206 F 
ATOM     72  C   UNL     1       4.886  -8.502 -13.226  1.00  0.00     0.059 A 
ATOM     73  C   UNL     1       2.614  -7.667 -13.411  1.00  0.00     0.059 A 
ATOM     74  F   UNL     1       1.095  -8.031 -11.663  1.00  0.00    -0.206 F 
ATOM     75  C   UNL     1       3.895  -7.822 -13.936  1.00  0.00     0.060 A 
BRANCH  75  76
ATOM     76  S   UNL     1       4.305  -7.172 -15.569  1.00  0.00     0.124 S 
ATOM     77  O   UNL     1       5.215  -6.083 -15.230  1.00  0.00    -0.237 OA
ATOM     78  O   UNL     1       4.914  -8.329 -16.218  1.00  0.00    -0.237 OA
ATOM     79  O   UNL     1       3.011  -6.763 -16.108  1.00  0.00    -0.744 OA
ENDBRANCH  75  76
ENDBRANCH  54  68
BRANCH  55  80
ATOM     80  C   UNL     1       0.617 -12.936  -2.612  1.00  0.00     0.058 A 
ATOM     81  C   UNL     1       0.857 -14.275  -2.267  1.00  0.00     0.135 A 
ATOM     82  C   UNL     1      -0.086 -12.144  -1.690  1.00  0.00     0.135 A 
ATOM     83  F   UNL     1       1.530 -15.073  -3.111  1.00  0.00    -0.206 F 
ATOM     84  C   UNL     1       0.379 -14.823  -1.082  1.00  0.00     0.059 A 
ATOM     85  C   UNL     1      -0.546 -12.660  -0.482  1.00  0.00     0.059 A 
ATOM     86  F   UNL     1      -0.317 -10.849  -1.954  1.00  0.00    -0.206 F 
ATOM     87  C   UNL     1      -0.327 -14.007  -0.197  1.00  0.00     0.060 A 
BRANCH  87  88
ATOM     88  S   UNL     1      -0.946 -14.730   1.338  1.00  0.00     0.124 S 
ATOM     89  O   UNL     1      -2.024 -15.580   0.846  1.00  0.00    -0.237 OA
ATOM     90  O   UNL     1       0.234 -15.424   1.846  1.00  0.00    -0.237 OA
ATOM     91  O   UNL     1      -1.362 -13.566   2.113  1.00  0.00    -0.744 OA
ENDBRANCH  87  88
ENDBRANCH  55  80
BRANCH  67  92
ATOM     92  C   UNL     1      -0.960 -14.303  -9.280  1.00  0.00     0.058 A 
ATOM     93  C   UNL     1      -2.360 -14.252  -9.233  1.00  0.00     0.135 A 
ATOM     94  C   UNL     1      -0.362 -15.322 -10.042  1.00  0.00     0.135 A 
ATOM     95  F   UNL     1      -2.979 -13.303  -8.512  1.00  0.00    -0.206 F 
ATOM     96  C   UNL     1      -3.140 -15.183  -9.909  1.00  0.00     0.059 A 
ATOM     97  C   UNL     1      -1.122 -16.242 -10.753  1.00  0.00     0.059 A 
ATOM     98  F   UNL     1       0.975 -15.407 -10.126  1.00  0.00    -0.206 F 
ATOM     99  C   UNL     1      -2.512 -16.168 -10.675  1.00  0.00     0.060 A 
BRANCH  99 100
ATOM    100  S   UNL     1      -3.539 -17.327 -11.601  1.00  0.00     0.124 S 
ATOM    101  O   UNL     1      -4.093 -18.149 -10.531  1.00  0.00    -0.237 OA
ATOM    102  O   UNL     1      -4.483 -16.437 -12.271  1.00  0.00    -0.237 OA
ATOM    103  O   UNL     1      -2.587 -17.999 -12.480  1.00  0.00    -0.744 OA
ENDBRANCH  99 100
ENDBRANCH  67  92
ENDBRANCH  41  42
ENDBRANCH  33  36
ENDBRANCH  31  32
ENDBRANCH   1  31
TORSDOF 17
