REMARK SMILES Cc1ccccc1OCc1nc2cc(C(=O)NCCCCNC(=O)c3ccc(-c4c5nc(c(-c6c(F)cc(S(=O)(=O)[O-])cc6F)c6ccc([nH]6)c(-c6c(F)cc(S(=O)(=O)[O-])cc6F)c6nc(c(-c7c(F)cc(S(=O)(=O)[O-])cc7F)c7ccc4[nH]7)C=C6)C=C5)cc3)ccc2n1C[C@H](C)O
REMARK SMILES IDX 19 1 18 2 17 3 15 4 16 5 14 7 10 8 11 9 94 10 12 11 93 12
REMARK SMILES IDX 13 13 92 14 91 15 9 16 8 17 7 18 1 19 2 20 3 21 4 22 6 23
REMARK SMILES IDX 5 24 95 25 96 26 97 27 98 28 20 30 21 31 22 32 23 33 24 35
REMARK SMILES IDX 25 36 26 37 90 38 27 39 89 40 28 41 29 42 30 43 83 44 31 45
REMARK SMILES IDX 88 46 82 47 84 48 32 49 87 50 81 51 80 52 33 54 67 55 46 56
REMARK SMILES IDX 66 57 47 58 50 59 65 60 85 61 48 62 49 63 64 65 86 66 51 67
REMARK SMILES IDX 34 68 35 69 44 70 36 71 37 72 43 73 45 74 38 75 39 76 40 77
REMARK SMILES IDX 41 78 42 79 68 80 69 81 78 82 70 83 71 84 77 85 79 86 72 87
REMARK SMILES IDX 73 88 74 89 75 90 76 91 52 92 53 93 62 94 54 95 55 96 61 97
REMARK SMILES IDX 63 98 56 99 57 100 58 101 59 102 60 103
REMARK H PARENT 17 6 98 29 22 34 84 53 50 64
REMARK Flexibility Score: inf
ROOT
ATOM      1  C   UNL     1      -2.027   3.563  -2.078  1.00  0.00     0.023 C 
ENDROOT
BRANCH   1   2
ATOM      2  C   UNL     1      -1.838   3.725  -0.565  1.00  0.00     0.116 C 
BRANCH   2   3
ATOM      3  N   UNL     1      -3.118   3.786   0.148  1.00  0.00    -0.352 N 
ATOM      4  C   UNL     1      -3.818   2.743   0.724  1.00  0.00     0.251 C 
ATOM      5  O   UNL     1      -4.900   2.895   1.273  1.00  0.00    -0.269 OA
ATOM      6  H   UNL     1      -3.527   4.677   0.226  1.00  0.00     0.163 HD
BRANCH   4   7
ATOM      7  C   UNL     1      -3.137   1.438   0.729  1.00  0.00     0.042 A 
ATOM      8  C   UNL     1      -0.409  -1.283  -1.487  1.00  0.00     0.148 A 
ATOM      9  N   UNL     1      -1.663  -0.925  -1.734  1.00  0.00    -0.229 NA
ATOM     10  N   UNL     1       0.118  -0.440  -0.538  1.00  0.00    -0.322 N 
ATOM     11  C   UNL     1      -2.005  -0.102  -0.685  1.00  0.00     0.090 A 
ATOM     12  C   UNL     1      -0.956  -0.030   0.226  1.00  0.00     0.068 A 
ATOM     13  C   UNL     1      -3.146   0.669  -0.447  1.00  0.00     0.044 A 
ATOM     14  C   UNL     1      -1.038   0.544   1.495  1.00  0.00     0.029 A 
ATOM     15  C   UNL     1      -2.186   1.281   1.745  1.00  0.00     0.016 A 
BRANCH   8  16
ATOM     16  C   UNL     1       0.259  -2.572  -1.841  1.00  0.00     0.304 C 
BRANCH  16  17
ATOM     17  O   UNL     1       0.240  -3.344  -0.618  1.00  0.00    -0.485 OA
BRANCH  17  18
ATOM     18  C   UNL     1       1.467  -3.768  -0.189  1.00  0.00     0.122 A 
ATOM     19  C   UNL     1       1.308  -2.262   1.873  1.00  0.00     0.048 C 
ATOM     20  C   UNL     1       1.994  -3.292   1.025  1.00  0.00    -0.009 A 
ATOM     21  C   UNL     1       3.245  -3.764   1.451  1.00  0.00     0.007 A 
ATOM     22  C   UNL     1       3.913  -4.752   0.731  1.00  0.00     0.001 A 
ATOM     23  C   UNL     1       2.130  -4.769  -0.900  1.00  0.00     0.047 A 
ATOM     24  C   UNL     1       3.348  -5.266  -0.434  1.00  0.00     0.004 A 
ENDBRANCH  17  18
ENDBRANCH  16  17
ENDBRANCH   8  16
BRANCH  10  25
ATOM     25  C   UNL     1       1.309   0.395  -0.657  1.00  0.00     0.155 C 
BRANCH  25  26
ATOM     26  C   UNL     1       2.612  -0.287  -1.071  1.00  0.00     0.131 C 
ATOM     27  C   UNL     1       3.784   0.330  -0.321  1.00  0.00     0.040 C 
BRANCH  26  28
ATOM     28  O   UNL     1       2.787  -0.160  -2.481  1.00  0.00    -0.392 OA
ATOM     29  H   UNL     1       2.828   0.780  -2.719  1.00  0.00     0.211 HD
ENDBRANCH  26  28
ENDBRANCH  25  26
ENDBRANCH  10  25
ENDBRANCH   4   7
ENDBRANCH   2   3
ENDBRANCH   1   2
BRANCH   1  30
ATOM     30  C   UNL     1      -2.497   4.847  -2.759  1.00  0.00     0.023 C 
BRANCH  30  31
ATOM     31  C   UNL     1      -1.405   5.910  -2.767  1.00  0.00     0.116 C 
BRANCH  31  32
ATOM     32  N   UNL     1      -0.963   6.301  -4.090  1.00  0.00    -0.352 N 
ATOM     33  C   UNL     1      -0.091   7.325  -4.421  1.00  0.00     0.251 C 
ATOM     34  H   UNL     1      -1.325   5.778  -4.842  1.00  0.00     0.163 HD
ATOM     35  O   UNL     1      -0.075   7.817  -5.536  1.00  0.00    -0.269 OA
BRANCH  33  36
ATOM     36  C   UNL     1       0.939   7.688  -3.419  1.00  0.00     0.039 A 
ATOM     37  C   UNL     1       2.278   7.484  -3.779  1.00  0.00     0.014 A 
ATOM     38  C   UNL     1       0.594   7.968  -2.101  1.00  0.00     0.014 A 
ATOM     39  C   UNL     1       3.252   7.381  -2.788  1.00  0.00     0.010 A 
ATOM     40  C   UNL     1       1.539   7.767  -1.116  1.00  0.00     0.010 A 
ATOM     41  C   UNL     1       2.858   7.433  -1.455  1.00  0.00    -0.014 A 
BRANCH  41  42
ATOM     42  C   UNL     1       3.720   7.129  -0.319  1.00  0.00     0.031 A 
ATOM     43  C   UNL     1       4.148   8.226   0.581  1.00  0.00     0.074 A 
ATOM     44  C   UNL     1       3.974   5.844   0.004  1.00  0.00     0.049 A 
ATOM     45  N   UNL     1       4.996   8.110   1.545  1.00  0.00    -0.248 NA
ATOM     46  C   UNL     1       3.675   9.594   0.403  1.00  0.00     0.031 C 
ATOM     47  C   UNL     1       4.384   5.329   1.307  1.00  0.00     0.029 A 
ATOM     48  N   UNL     1       4.101   4.753  -0.845  1.00  0.00    -0.354 N 
ATOM     49  C   UNL     1       4.990   9.284   2.270  1.00  0.00     0.074 A 
ATOM     50  C   UNL     1       4.210  10.195   1.469  1.00  0.00     0.031 C 
ATOM     51  C   UNL     1       4.915   4.107   1.147  1.00  0.00     0.029 A 
ATOM     52  C   UNL     1       5.038   3.877  -0.284  1.00  0.00     0.049 A 
ATOM     53  H   UNL     1       3.618   4.619  -1.692  1.00  0.00     0.167 HD
ATOM     54  C   UNL     1       5.551   9.290   3.516  1.00  0.00     0.037 A 
ATOM     55  C   UNL     1       6.223   3.596  -0.907  1.00  0.00     0.037 A 
ATOM     56  C   UNL     1       6.304   8.051   3.739  1.00  0.00     0.049 A 
ATOM     57  C   UNL     1       7.437   4.005  -0.103  1.00  0.00     0.074 A 
ATOM     58  C   UNL     1       6.012   6.874   4.410  1.00  0.00     0.029 A 
ATOM     59  N   UNL     1       7.440   7.795   2.975  1.00  0.00    -0.354 N 
ATOM     60  N   UNL     1       7.419   4.904   0.844  1.00  0.00    -0.248 NA
ATOM     61  C   UNL     1       8.759   3.415  -0.288  1.00  0.00     0.031 C 
ATOM     62  C   UNL     1       6.936   5.885   3.983  1.00  0.00     0.029 A 
ATOM     63  C   UNL     1       7.807   6.466   3.075  1.00  0.00     0.049 A 
ATOM     64  H   UNL     1       7.917   8.468   2.437  1.00  0.00     0.167 HD
ATOM     65  C   UNL     1       8.678   5.041   1.371  1.00  0.00     0.074 A 
ATOM     66  C   UNL     1       9.474   4.068   0.644  1.00  0.00     0.031 C 
ATOM     67  C   UNL     1       8.964   5.945   2.355  1.00  0.00     0.037 A 
BRANCH  54  68
ATOM     68  C   UNL     1       5.213  10.279   4.632  1.00  0.00     0.058 A 
ATOM     69  C   UNL     1       5.447   9.938   5.986  1.00  0.00     0.135 A 
ATOM     70  C   UNL     1       4.578  11.527   4.466  1.00  0.00     0.135 A 
ATOM     71  F   UNL     1       6.112   8.825   6.323  1.00  0.00    -0.206 F 
ATOM     72  C   UNL     1       5.003  10.713   7.066  1.00  0.00     0.059 A 
ATOM     73  C   UNL     1       4.092  12.301   5.525  1.00  0.00     0.059 A 
ATOM     74  F   UNL     1       4.431  12.099   3.270  1.00  0.00    -0.206 F 
ATOM     75  C   UNL     1       4.294  11.881   6.826  1.00  0.00     0.060 A 
BRANCH  75  76
ATOM     76  S   UNL     1       3.663  12.842   8.212  1.00  0.00     0.124 S 
ATOM     77  O   UNL     1       2.779  11.885   8.870  1.00  0.00    -0.237 OA
ATOM     78  O   UNL     1       4.885  13.182   8.933  1.00  0.00    -0.237 OA
ATOM     79  O   UNL     1       2.987  13.966   7.568  1.00  0.00    -0.744 OA
ENDBRANCH  75  76
ENDBRANCH  54  68
BRANCH  55  80
ATOM     80  C   UNL     1       6.130   3.594  -2.396  1.00  0.00     0.058 A 
ATOM     81  C   UNL     1       5.431   2.534  -3.000  1.00  0.00     0.135 A 
ATOM     82  C   UNL     1       6.242   4.787  -3.124  1.00  0.00     0.135 A 
ATOM     83  F   UNL     1       5.365   1.338  -2.396  1.00  0.00    -0.206 F 
ATOM     84  C   UNL     1       4.671   2.717  -4.147  1.00  0.00     0.059 A 
ATOM     85  C   UNL     1       5.513   4.984  -4.299  1.00  0.00     0.059 A 
ATOM     86  F   UNL     1       6.925   5.825  -2.620  1.00  0.00    -0.206 F 
ATOM     87  C   UNL     1       4.656   3.975  -4.739  1.00  0.00     0.060 A 
BRANCH  87  88
ATOM     88  S   UNL     1       3.359   4.316  -5.950  1.00  0.00     0.124 S 
ATOM     89  O   UNL     1       3.500   3.195  -6.873  1.00  0.00    -0.237 OA
ATOM     90  O   UNL     1       2.170   4.293  -5.100  1.00  0.00    -0.237 OA
ATOM     91  O   UNL     1       3.734   5.622  -6.478  1.00  0.00    -0.744 OA
ENDBRANCH  87  88
ENDBRANCH  55  80
BRANCH  67  92
ATOM     92  C   UNL     1      10.354   6.353   2.796  1.00  0.00     0.058 A 
ATOM     93  C   UNL     1      11.486   6.306   1.963  1.00  0.00     0.135 A 
ATOM     94  C   UNL     1      10.560   6.957   4.061  1.00  0.00     0.135 A 
ATOM     95  F   UNL     1      11.406   5.878   0.696  1.00  0.00    -0.206 F 
ATOM     96  C   UNL     1      12.745   6.747   2.378  1.00  0.00     0.059 A 
ATOM     97  C   UNL     1      11.794   7.458   4.473  1.00  0.00     0.059 A 
ATOM     98  F   UNL     1       9.558   7.098   4.941  1.00  0.00    -0.206 F 
ATOM     99  C   UNL     1      12.890   7.323   3.634  1.00  0.00     0.060 A 
BRANCH  99 100
ATOM    100  S   UNL     1      14.495   7.962   4.146  1.00  0.00     0.124 S 
ATOM    101  O   UNL     1      15.063   6.805   4.831  1.00  0.00    -0.237 OA
ATOM    102  O   UNL     1      15.126   8.314   2.877  1.00  0.00    -0.237 OA
ATOM    103  O   UNL     1      14.145   9.095   4.997  1.00  0.00    -0.744 OA
ENDBRANCH  99 100
ENDBRANCH  67  92
ENDBRANCH  41  42
ENDBRANCH  33  36
ENDBRANCH  31  32
ENDBRANCH  30  31
ENDBRANCH   1  30
TORSDOF 20
