REMARK SMILES C[C@@H](NC(=O)[C@@H]([NH3+])CC(=O)NCCCCNC(=O)c1ccc(-c2c3nc(c(-c4c(F)cc(S(=O)(=O)[O-])cc4F)c4ccc([nH]4)c(-c4c(F)cc(S(=O)(=O)[O-])cc4F)c4nc(c(-c5c(F)cc(S(=O)(=O)[O-])cc5F)c5ccc2[nH]5)C=C4)C=C3)cc1)C(=O)NC1C(C)(C)SC1(C)C
REMARK SMILES IDX 12 1 11 2 9 3 10 4 8 6 6 7 4 8 3 9 5 11 2 12 1 13 85 14
REMARK SMILES IDX 86 15 87 16 88 18 89 19 93 20 90 21 91 22 92 23 94 24 95 25
REMARK SMILES IDX 7 26 13 30 14 31 15 32 16 33 17 34 18 36 19 37 20 38 84 39
REMARK SMILES IDX 21 40 83 41 22 42 23 43 24 44 77 45 25 46 82 47 76 48 78 49
REMARK SMILES IDX 26 50 81 51 75 52 74 53 27 55 61 56 40 57 60 58 41 59 44 60
REMARK SMILES IDX 59 61 79 62 42 63 43 64 58 66 80 67 45 68 28 69 29 70 38 71
REMARK SMILES IDX 30 72 31 73 37 74 39 75 32 76 33 77 34 78 35 79 36 80 62 81
REMARK SMILES IDX 63 82 72 83 64 84 65 85 71 86 73 87 66 88 67 89 68 90 69 91
REMARK SMILES IDX 70 92 46 93 47 94 56 95 48 96 49 97 55 98 57 99 50 100
REMARK SMILES IDX 51 101 52 102 53 103 54 104
REMARK H PARENT 11 5 3 10 87 17 7 27 7 28 7 29 16 35 78 54 44 65
REMARK Flexibility Score: inf
ROOT
ATOM      1  C   UNL     1       1.212  -3.711   3.754  1.00  0.00     0.116 C 
ENDROOT
BRANCH   1   2
ATOM      2  N   UNL     1      -0.002  -4.390   4.159  1.00  0.00    -0.356 N 
ATOM      3  C   UNL     1      -1.284  -4.160   3.764  1.00  0.00     0.226 C 
ATOM      4  O   UNL     1      -2.201  -4.771   4.312  1.00  0.00    -0.275 OA
ATOM      5  H   UNL     1       0.116  -5.119   4.811  1.00  0.00     0.163 HD
BRANCH   3   6
ATOM      6  C   UNL     1      -1.565  -3.148   2.677  1.00  0.00     0.175 C 
BRANCH   6   7
ATOM      7  C   UNL     1      -1.746  -1.766   3.286  1.00  0.00     0.280 C 
BRANCH   7   8
ATOM      8  C   UNL     1      -0.490  -0.861   3.298  1.00  0.00     0.279 C 
ATOM      9  N   UNL     1       0.224  -0.472   2.211  1.00  0.00    -0.339 N 
ATOM     10  H   UNL     1       1.046   0.032   2.413  1.00  0.00     0.164 HD
ATOM     11  O   UNL     1      -0.114  -0.377   4.371  1.00  0.00    -0.268 OA
BRANCH   9  12
ATOM     12  C   UNL     1      -0.034  -0.682   0.794  1.00  0.00     0.168 C 
ATOM     13  C   UNL     1       1.121  -0.168  -0.065  1.00  0.00     0.041 C 
BRANCH  12  14
ATOM     14  C   UNL     1      -1.353  -0.025   0.370  1.00  0.00     0.242 C 
ATOM     15  O   UNL     1      -1.978  -0.435  -0.611  1.00  0.00    -0.273 OA
ATOM     16  N   UNL     1      -1.828   1.087   1.024  1.00  0.00    -0.349 N 
ATOM     17  H   UNL     1      -2.805   1.128   1.140  1.00  0.00     0.163 HD
BRANCH  16  18
ATOM     18  C   UNL     1      -1.064   2.241   1.581  1.00  0.00     0.113 C 
ATOM     19  C   UNL     1      -1.552   3.573   0.879  1.00  0.00     0.032 C 
ATOM     20  C   UNL     1      -1.359   2.767   3.058  1.00  0.00     0.032 C 
ATOM     21  C   UNL     1      -0.575   4.023  -0.203  1.00  0.00     0.025 C 
ATOM     22  C   UNL     1      -2.997   3.651   0.377  1.00  0.00     0.025 C 
ATOM     23  S   UNL     1      -1.366   4.516   2.417  1.00  0.00    -0.145 SA
ATOM     24  C   UNL     1      -2.680   2.442   3.752  1.00  0.00     0.025 C 
ATOM     25  C   UNL     1      -0.197   2.669   4.062  1.00  0.00     0.025 C 
ENDBRANCH  16  18
ENDBRANCH  12  14
ENDBRANCH   9  12
ENDBRANCH   7   8
BRANCH   7  26
ATOM     26  N   UNL     1      -2.866  -1.061   2.630  1.00  0.00    -0.347 N 
ATOM     27  H   UNL     1      -2.636  -0.895   1.650  1.00  0.00     0.345 HD
ATOM     28  H   UNL     1      -3.027  -0.168   3.097  1.00  0.00     0.345 HD
ATOM     29  H   UNL     1      -3.709  -1.632   2.689  1.00  0.00     0.345 HD
ENDBRANCH   7  26
ENDBRANCH   6   7
ENDBRANCH   3   6
ENDBRANCH   1   2
BRANCH   1  30
ATOM     30  C   UNL     1       1.634  -2.683   4.800  1.00  0.00     0.023 C 
BRANCH  30  31
ATOM     31  C   UNL     1       2.499  -3.199   5.938  1.00  0.00     0.023 C 
BRANCH  31  32
ATOM     32  C   UNL     1       3.796  -3.840   5.496  1.00  0.00     0.116 C 
BRANCH  32  33
ATOM     33  N   UNL     1       4.651  -2.982   4.688  1.00  0.00    -0.352 N 
ATOM     34  C   UNL     1       6.016  -3.090   4.535  1.00  0.00     0.251 C 
ATOM     35  H   UNL     1       4.208  -2.250   4.200  1.00  0.00     0.163 HD
ATOM     36  O   UNL     1       6.648  -2.262   3.888  1.00  0.00    -0.269 OA
BRANCH  34  37
ATOM     37  C   UNL     1       6.700  -4.199   5.233  1.00  0.00     0.039 A 
ATOM     38  C   UNL     1       7.731  -3.903   6.124  1.00  0.00     0.014 A 
ATOM     39  C   UNL     1       6.207  -5.502   5.121  1.00  0.00     0.014 A 
ATOM     40  C   UNL     1       8.213  -4.908   6.963  1.00  0.00     0.010 A 
ATOM     41  C   UNL     1       6.607  -6.466   6.036  1.00  0.00     0.010 A 
ATOM     42  C   UNL     1       7.621  -6.184   6.961  1.00  0.00    -0.014 A 
BRANCH  42  43
ATOM     43  C   UNL     1       8.066  -7.233   7.913  1.00  0.00     0.031 A 
ATOM     44  C   UNL     1       8.642  -8.524   7.393  1.00  0.00     0.074 A 
ATOM     45  C   UNL     1       7.921  -7.037   9.240  1.00  0.00     0.049 A 
ATOM     46  N   UNL     1       9.091  -9.555   8.061  1.00  0.00    -0.248 NA
ATOM     47  C   UNL     1       8.689  -8.698   5.930  1.00  0.00     0.031 C 
ATOM     48  C   UNL     1       7.291  -5.869   9.864  1.00  0.00     0.029 A 
ATOM     49  N   UNL     1       8.299  -7.813  10.306  1.00  0.00    -0.354 N 
ATOM     50  C   UNL     1       9.471 -10.489   7.105  1.00  0.00     0.074 A 
ATOM     51  C   UNL     1       9.123  -9.943   5.814  1.00  0.00     0.031 C 
ATOM     52  C   UNL     1       7.367  -5.987  11.200  1.00  0.00     0.029 A 
ATOM     53  C   UNL     1       8.029  -7.244  11.529  1.00  0.00     0.049 A 
ATOM     54  H   UNL     1       8.725  -8.695  10.206  1.00  0.00     0.167 HD
ATOM     55  C   UNL     1      10.099 -11.675   7.281  1.00  0.00     0.037 A 
ATOM     56  C   UNL     1       8.301  -7.683  12.774  1.00  0.00     0.037 A 
ATOM     57  C   UNL     1      10.479 -12.199   8.565  1.00  0.00     0.049 A 
ATOM     58  C   UNL     1       9.041  -8.984  12.938  1.00  0.00     0.074 A 
ATOM     59  C   UNL     1      11.152 -13.373   8.853  1.00  0.00     0.029 A 
ATOM     60  N   UNL     1      10.232 -11.571   9.777  1.00  0.00    -0.354 N 
ATOM     61  N   UNL     1       9.452  -9.822  12.016  1.00  0.00    -0.248 NA
ATOM     62  C   UNL     1       9.372  -9.389  14.311  1.00  0.00     0.031 C 
ATOM     63  C   UNL     1      11.293 -13.466  10.242  1.00  0.00     0.029 A 
ATOM     64  C   UNL     1      10.741 -12.332  10.815  1.00  0.00     0.049 A 
ATOM     65  H   UNL     1       9.764 -10.712   9.882  1.00  0.00     0.167 HD
ATOM     66  C   UNL     1      10.109 -10.841  12.696  1.00  0.00     0.074 A 
ATOM     67  C   UNL     1      10.065 -10.499  14.102  1.00  0.00     0.031 C 
ATOM     68  C   UNL     1      10.690 -11.965  12.206  1.00  0.00     0.037 A 
BRANCH  55  69
ATOM     69  C   UNL     1      10.458 -12.462   6.051  1.00  0.00     0.058 A 
ATOM     70  C   UNL     1      11.474 -12.029   5.183  1.00  0.00     0.135 A 
ATOM     71  C   UNL     1       9.819 -13.677   5.758  1.00  0.00     0.135 A 
ATOM     72  F   UNL     1      12.100 -10.862   5.402  1.00  0.00    -0.206 F 
ATOM     73  C   UNL     1      11.834 -12.765   4.060  1.00  0.00     0.059 A 
ATOM     74  C   UNL     1      10.182 -14.443   4.653  1.00  0.00     0.059 A 
ATOM     75  F   UNL     1       8.835 -14.132   6.549  1.00  0.00    -0.206 F 
ATOM     76  C   UNL     1      11.186 -13.975   3.807  1.00  0.00     0.060 A 
BRANCH  76  77
ATOM     77  S   UNL     1      11.695 -14.935   2.365  1.00  0.00     0.124 S 
ATOM     78  O   UNL     1      11.139 -14.140   1.275  1.00  0.00    -0.237 OA
ATOM     79  O   UNL     1      13.150 -14.921   2.480  1.00  0.00    -0.237 OA
ATOM     80  O   UNL     1      11.064 -16.233   2.582  1.00  0.00    -0.744 OA
ENDBRANCH  76  77
ENDBRANCH  55  69
BRANCH  56  81
ATOM     81  C   UNL     1       7.910  -6.879  13.964  1.00  0.00     0.058 A 
ATOM     82  C   UNL     1       8.878  -6.262  14.772  1.00  0.00     0.135 A 
ATOM     83  C   UNL     1       6.565  -6.742  14.340  1.00  0.00     0.135 A 
ATOM     84  F   UNL     1      10.178  -6.363  14.455  1.00  0.00    -0.206 F 
ATOM     85  C   UNL     1       8.533  -5.578  15.933  1.00  0.00     0.059 A 
ATOM     86  C   UNL     1       6.192  -6.039  15.481  1.00  0.00     0.059 A 
ATOM     87  F   UNL     1       5.597  -7.292  13.589  1.00  0.00    -0.206 F 
ATOM     88  C   UNL     1       7.186  -5.479  16.284  1.00  0.00     0.060 A 
BRANCH  88  89
ATOM     89  S   UNL     1       6.742  -4.591  17.793  1.00  0.00     0.124 S 
ATOM     90  O   UNL     1       7.090  -5.567  18.819  1.00  0.00    -0.237 OA
ATOM     91  O   UNL     1       7.595  -3.409  17.719  1.00  0.00    -0.237 OA
ATOM     92  O   UNL     1       5.315  -4.335  17.621  1.00  0.00    -0.744 OA
ENDBRANCH  88  89
ENDBRANCH  56  81
BRANCH  68  93
ATOM     93  C   UNL     1      11.347 -12.879  13.201  1.00  0.00     0.058 A 
ATOM     94  C   UNL     1      10.594 -13.656  14.094  1.00  0.00     0.135 A 
ATOM     95  C   UNL     1      12.746 -12.980  13.258  1.00  0.00     0.135 A 
ATOM     96  F   UNL     1       9.253 -13.594  14.080  1.00  0.00    -0.206 F 
ATOM     97  C   UNL     1      11.206 -14.466  15.044  1.00  0.00     0.059 A 
ATOM     98  C   UNL     1      13.379 -13.806  14.180  1.00  0.00     0.059 A 
ATOM     99  F   UNL     1      13.512 -12.271  12.414  1.00  0.00    -0.206 F 
ATOM    100  C   UNL     1      12.600 -14.527  15.085  1.00  0.00     0.060 A 
BRANCH 100 101
ATOM    101  S   UNL     1      13.386 -15.569  16.331  1.00  0.00     0.124 S 
ATOM    102  O   UNL     1      13.249 -14.745  17.528  1.00  0.00    -0.237 OA
ATOM    103  O   UNL     1      12.567 -16.777  16.295  1.00  0.00    -0.237 OA
ATOM    104  O   UNL     1      14.748 -15.728  15.829  1.00  0.00    -0.744 OA
ENDBRANCH 100 101
ENDBRANCH  68  93
ENDBRANCH  42  43
ENDBRANCH  34  37
ENDBRANCH  32  33
ENDBRANCH  31  32
ENDBRANCH  30  31
ENDBRANCH   1  30
TORSDOF 20
