REMARK SMILES CC(C)[C@H](NC(=O)[C@H]1CC(=O)N(c2ccc(F)cc2)C1)C(=O)N1CCC[C@@H]1C(=O)NCCCCNC(=O)c1ccc(-c2c3nc(c(-c4c(F)cc(S(=O)(=O)[O-])cc4F)c4ccc([nH]4)c(-c4c(F)cc(S(=O)(=O)[O-])cc4F)c4nc(c(-c5c(F)cc(S(=O)(=O)[O-])cc5F)c5ccc2[nH]5)C=C4)C=C3)cc1
REMARK SMILES IDX 31 1 30 2 28 3 29 4 27 6 23 7 24 8 25 9 26 10 21 11 22 12
REMARK SMILES IDX 4 13 2 14 1 15 3 16 5 17 6 18 7 20 8 21 9 22 20 23 10 24
REMARK SMILES IDX 12 25 11 26 13 27 14 28 19 29 15 30 18 31 16 32 17 33 32 34
REMARK SMILES IDX 33 35 34 36 35 37 36 38 37 40 38 41 39 42 103 43 40 44
REMARK SMILES IDX 102 45 41 46 42 47 43 48 96 49 44 50 101 51 95 52 97 53
REMARK SMILES IDX 45 54 100 55 94 56 93 57 46 59 80 60 59 61 79 62 60 63 63 64
REMARK SMILES IDX 78 65 98 66 61 67 62 68 77 70 99 71 64 72 47 73 48 74 57 75
REMARK SMILES IDX 49 76 50 77 56 78 58 79 51 80 52 81 53 82 54 83 55 84 81 85
REMARK SMILES IDX 82 86 91 87 83 88 84 89 90 90 92 91 85 92 86 93 87 94 88 95
REMARK SMILES IDX 89 96 65 97 66 98 75 99 67 100 68 101 74 102 76 103 69 104
REMARK SMILES IDX 70 105 71 106 72 107 73 108
REMARK H PARENT 30 5 5 19 35 39 97 58 63 69
REMARK Flexibility Score: inf
ROOT
ATOM      1  C   UNL     1      -4.345   3.568   0.783  1.00  0.00     0.116 C 
ENDROOT
BRANCH   1   2
ATOM      2  N   UNL     1      -3.360   4.613   0.663  1.00  0.00    -0.354 N 
ATOM      3  C   UNL     1      -2.023   4.580   0.933  1.00  0.00     0.242 C 
ATOM      4  O   UNL     1      -1.428   5.662   0.957  1.00  0.00    -0.273 OA
ATOM      5  H   UNL     1      -3.702   5.478   0.339  1.00  0.00     0.163 HD
BRANCH   3   6
ATOM      6  C   UNL     1      -1.311   3.286   1.390  1.00  0.00     0.174 C 
ATOM      7  N   UNL     1      -1.634   2.050   0.660  1.00  0.00    -0.329 N 
ATOM      8  C   UNL     1      -1.598   0.941   1.593  1.00  0.00     0.120 C 
ATOM      9  C   UNL     1      -2.128   1.532   2.883  1.00  0.00     0.024 C 
ATOM     10  C   UNL     1      -1.622   2.973   2.864  1.00  0.00     0.037 C 
BRANCH   7  11
ATOM     11  C   UNL     1      -1.259   1.945  -0.666  1.00  0.00     0.246 C 
ATOM     12  O   UNL     1      -0.450   2.749  -1.141  1.00  0.00    -0.272 OA
BRANCH  11  13
ATOM     13  C   UNL     1      -2.064   1.022  -1.638  1.00  0.00     0.174 C 
BRANCH  13  14
ATOM     14  C   UNL     1      -3.172   1.792  -2.397  1.00  0.00     0.015 C 
ATOM     15  C   UNL     1      -2.858   3.210  -2.888  1.00  0.00     0.010 C 
ATOM     16  C   UNL     1      -3.658   0.987  -3.615  1.00  0.00     0.010 C 
ENDBRANCH  13  14
BRANCH  13  17
ATOM     17  N   UNL     1      -2.504  -0.306  -1.121  1.00  0.00    -0.344 N 
ATOM     18  C   UNL     1      -3.592  -0.848  -0.502  1.00  0.00     0.226 C 
ATOM     19  H   UNL     1      -1.809  -0.988  -1.270  1.00  0.00     0.164 HD
ATOM     20  O   UNL     1      -3.479  -2.028  -0.157  1.00  0.00    -0.275 OA
BRANCH  18  21
ATOM     21  C   UNL     1      -4.866  -0.073  -0.208  1.00  0.00     0.107 C 
ATOM     22  C   UNL     1      -5.745   0.077  -1.439  1.00  0.00     0.116 C 
ATOM     23  C   UNL     1      -5.802  -0.783   0.786  1.00  0.00     0.139 C 
ATOM     24  C   UNL     1      -7.151   0.035  -0.952  1.00  0.00     0.227 C 
ATOM     25  N   UNL     1      -7.139  -0.442   0.354  1.00  0.00    -0.312 N 
ATOM     26  O   UNL     1      -8.079   0.421  -1.639  1.00  0.00    -0.274 OA
BRANCH  25  27
ATOM     27  C   UNL     1      -8.319  -0.652   1.105  1.00  0.00     0.044 A 
ATOM     28  C   UNL     1      -9.525  -0.939   0.440  1.00  0.00     0.029 A 
ATOM     29  C   UNL     1      -8.344  -0.491   2.496  1.00  0.00     0.029 A 
ATOM     30  C   UNL     1     -10.737  -1.004   1.127  1.00  0.00     0.041 A 
ATOM     31  C   UNL     1      -9.566  -0.530   3.183  1.00  0.00     0.041 A 
ATOM     32  C   UNL     1     -10.749  -0.775   2.491  1.00  0.00     0.123 A 
ATOM     33  F   UNL     1     -11.914  -0.784   3.152  1.00  0.00    -0.207 F 
ENDBRANCH  25  27
ENDBRANCH  18  21
ENDBRANCH  13  17
ENDBRANCH  11  13
ENDBRANCH   7  11
ENDBRANCH   3   6
ENDBRANCH   1   2
BRANCH   1  34
ATOM     34  C   UNL     1      -5.357   3.840   1.888  1.00  0.00     0.023 C 
BRANCH  34  35
ATOM     35  C   UNL     1      -6.419   4.868   1.508  1.00  0.00     0.023 C 
BRANCH  35  36
ATOM     36  C   UNL     1      -7.295   4.468   0.324  1.00  0.00     0.116 C 
BRANCH  36  37
ATOM     37  N   UNL     1      -8.066   3.264   0.578  1.00  0.00    -0.352 N 
ATOM     38  C   UNL     1      -9.372   3.001   0.240  1.00  0.00     0.251 C 
ATOM     39  H   UNL     1      -7.593   2.544   1.054  1.00  0.00     0.163 HD
ATOM     40  O   UNL     1      -9.966   2.089   0.804  1.00  0.00    -0.269 OA
BRANCH  38  41
ATOM     41  C   UNL     1     -10.097   3.874  -0.704  1.00  0.00     0.039 A 
ATOM     42  C   UNL     1     -11.443   4.133  -0.433  1.00  0.00     0.014 A 
ATOM     43  C   UNL     1      -9.466   4.487  -1.789  1.00  0.00     0.014 A 
ATOM     44  C   UNL     1     -12.117   5.102  -1.167  1.00  0.00     0.010 A 
ATOM     45  C   UNL     1     -10.109   5.520  -2.461  1.00  0.00     0.010 A 
ATOM     46  C   UNL     1     -11.429   5.855  -2.131  1.00  0.00    -0.014 A 
BRANCH  46  47
ATOM     47  C   UNL     1     -12.075   7.040  -2.739  1.00  0.00     0.031 A 
ATOM     48  C   UNL     1     -12.377   7.067  -4.206  1.00  0.00     0.074 A 
ATOM     49  C   UNL     1     -12.368   8.092  -1.947  1.00  0.00     0.049 A 
ATOM     50  N   UNL     1     -12.940   8.014  -4.908  1.00  0.00    -0.248 NA
ATOM     51  C   UNL     1     -11.983   5.886  -4.993  1.00  0.00     0.031 C 
ATOM     52  C   UNL     1     -12.080   8.172  -0.511  1.00  0.00     0.029 A 
ATOM     53  N   UNL     1     -12.986   9.284  -2.224  1.00  0.00    -0.354 N 
ATOM     54  C   UNL     1     -12.980   7.541  -6.213  1.00  0.00     0.074 A 
ATOM     55  C   UNL     1     -12.325   6.253  -6.220  1.00  0.00     0.031 C 
ATOM     56  C   UNL     1     -12.570   9.322  -0.025  1.00  0.00     0.029 A 
ATOM     57  C   UNL     1     -13.161  10.085  -1.118  1.00  0.00     0.049 A 
ATOM     58  H   UNL     1     -13.277   9.543  -3.128  1.00  0.00     0.167 HD
ATOM     59  C   UNL     1     -13.545   8.121  -7.296  1.00  0.00     0.037 A 
ATOM     60  C   UNL     1     -13.737  11.297  -1.001  1.00  0.00     0.037 A 
ATOM     61  C   UNL     1     -14.203   9.402  -7.264  1.00  0.00     0.049 A 
ATOM     62  C   UNL     1     -14.316  11.936  -2.233  1.00  0.00     0.074 A 
ATOM     63  C   UNL     1     -14.820  10.076  -8.303  1.00  0.00     0.029 A 
ATOM     64  N   UNL     1     -14.333  10.199  -6.135  1.00  0.00    -0.354 N 
ATOM     65  N   UNL     1     -14.374  11.461  -3.455  1.00  0.00    -0.248 NA
ATOM     66  C   UNL     1     -14.904  13.272  -2.077  1.00  0.00     0.031 C 
ATOM     67  C   UNL     1     -15.280  11.301  -7.813  1.00  0.00     0.029 A 
ATOM     68  C   UNL     1     -15.003  11.367  -6.456  1.00  0.00     0.049 A 
ATOM     69  H   UNL     1     -13.997   9.968  -5.239  1.00  0.00     0.167 HD
ATOM     70  C   UNL     1     -15.030  12.428  -4.208  1.00  0.00     0.074 A 
ATOM     71  C   UNL     1     -15.361  13.508  -3.300  1.00  0.00     0.031 C 
ATOM     72  C   UNL     1     -15.331  12.423  -5.530  1.00  0.00     0.037 A 
BRANCH  59  73
ATOM     73  C   UNL     1     -13.498   7.374  -8.600  1.00  0.00     0.058 A 
ATOM     74  C   UNL     1     -12.736   7.854  -9.676  1.00  0.00     0.135 A 
ATOM     75  C   UNL     1     -14.267   6.216  -8.807  1.00  0.00     0.135 A 
ATOM     76  F   UNL     1     -11.975   8.949  -9.531  1.00  0.00    -0.206 F 
ATOM     77  C   UNL     1     -12.756   7.227 -10.918  1.00  0.00     0.059 A 
ATOM     78  C   UNL     1     -14.280   5.557 -10.032  1.00  0.00     0.059 A 
ATOM     79  F   UNL     1     -14.994   5.700  -7.803  1.00  0.00    -0.206 F 
ATOM     80  C   UNL     1     -13.534   6.081 -11.087  1.00  0.00     0.060 A 
BRANCH  80  81
ATOM     81  S   UNL     1     -13.543   5.277 -12.704  1.00  0.00     0.124 S 
ATOM     82  O   UNL     1     -14.224   6.268 -13.529  1.00  0.00    -0.237 OA
ATOM     83  O   UNL     1     -12.117   5.103 -12.964  1.00  0.00    -0.237 OA
ATOM     84  O   UNL     1     -14.283   4.042 -12.464  1.00  0.00    -0.744 OA
ENDBRANCH  80  81
ENDBRANCH  59  73
BRANCH  60  85
ATOM     85  C   UNL     1     -13.822  11.961   0.329  1.00  0.00     0.058 A 
ATOM     86  C   UNL     1     -12.674  12.407   1.001  1.00  0.00     0.135 A 
ATOM     87  C   UNL     1     -15.060  12.146   0.965  1.00  0.00     0.135 A 
ATOM     88  F   UNL     1     -11.462  12.245   0.446  1.00  0.00    -0.206 F 
ATOM     89  C   UNL     1     -12.745  12.995   2.259  1.00  0.00     0.059 A 
ATOM     90  C   UNL     1     -15.161  12.758   2.212  1.00  0.00     0.059 A 
ATOM     91  F   UNL     1     -16.189  11.744   0.362  1.00  0.00    -0.206 F 
ATOM     92  C   UNL     1     -13.995  13.168   2.856  1.00  0.00     0.060 A 
BRANCH  92  93
ATOM     93  S   UNL     1     -14.064  13.947   4.484  1.00  0.00     0.124 S 
ATOM     94  O   UNL     1     -13.437  12.931   5.322  1.00  0.00    -0.237 OA
ATOM     95  O   UNL     1     -13.287  15.164   4.272  1.00  0.00    -0.237 OA
ATOM     96  O   UNL     1     -15.493  14.148   4.703  1.00  0.00    -0.744 OA
ENDBRANCH  92  93
ENDBRANCH  60  85
BRANCH  72  97
ATOM     97  C   UNL     1     -16.078  13.607  -6.077  1.00  0.00     0.058 A 
ATOM     98  C   UNL     1     -17.406  13.467  -6.513  1.00  0.00     0.135 A 
ATOM     99  C   UNL     1     -15.457  14.853  -6.251  1.00  0.00     0.135 A 
ATOM    100  F   UNL     1     -18.044  12.294  -6.376  1.00  0.00    -0.206 F 
ATOM    101  C   UNL     1     -18.083  14.514  -7.126  1.00  0.00     0.059 A 
ATOM    102  C   UNL     1     -16.127  15.925  -6.832  1.00  0.00     0.059 A 
ATOM    103  F   UNL     1     -14.193  15.041  -5.839  1.00  0.00    -0.206 F 
ATOM    104  C   UNL     1     -17.434  15.739  -7.284  1.00  0.00     0.060 A 
BRANCH 104 105
ATOM    105  S   UNL     1     -18.331  17.088  -8.079  1.00  0.00     0.124 S 
ATOM    106  O   UNL     1     -18.422  16.616  -9.456  1.00  0.00    -0.237 OA
ATOM    107  O   UNL     1     -19.583  17.108  -7.329  1.00  0.00    -0.237 OA
ATOM    108  O   UNL     1     -17.463  18.243  -7.867  1.00  0.00    -0.744 OA
ENDBRANCH 104 105
ENDBRANCH  72  97
ENDBRANCH  46  47
ENDBRANCH  38  41
ENDBRANCH  36  37
ENDBRANCH  35  36
ENDBRANCH  34  35
ENDBRANCH   1  34
TORSDOF 20
