REMARK SMILES CC(C)(C)c1csc(C[NH2+][C@H]2CCC[C@@H](C(=O)NCCCCNC(=O)c3ccc(-c4c5nc(c(-c6c(F)cc(S(=O)(=O)[O-])cc6F)c6ccc([nH]6)c(-c6c(F)cc(S(=O)(=O)[O-])cc6F)c6nc(c(-c7c(F)cc(S(=O)(=O)[O-])cc7F)c7ccc4[nH]7)C=C6)C=C5)cc3)C2)n1
REMARK SMILES IDX 20 1 19 2 18 3 16 4 17 5 15 7 11 8 12 9 92 10 13 11 14 12
REMARK SMILES IDX 10 13 9 16 8 17 5 18 6 19 93 20 7 21 2 22 1 23 3 24 4 25
REMARK SMILES IDX 21 26 22 27 23 28 24 29 25 31 26 32 27 33 91 34 28 35 90 36
REMARK SMILES IDX 29 37 30 38 31 39 84 40 32 41 89 42 83 43 85 44 33 45 88 46
REMARK SMILES IDX 82 47 81 48 34 50 68 51 47 52 67 53 48 54 51 55 66 56 86 57
REMARK SMILES IDX 49 58 50 59 65 61 87 62 52 63 35 64 36 65 45 66 37 67 38 68
REMARK SMILES IDX 44 69 46 70 39 71 40 72 41 73 42 74 43 75 69 76 70 77 79 78
REMARK SMILES IDX 71 79 72 80 78 81 80 82 73 83 74 84 75 85 76 86 77 87 53 88
REMARK SMILES IDX 54 89 63 90 55 91 56 92 62 93 64 94 57 95 58 96 59 97 60 98
REMARK SMILES IDX 61 99
REMARK H PARENT 18 6 10 14 10 15 23 30 85 49 51 60
REMARK Flexibility Score: inf
ROOT
ATOM      1  C   UNL     1      11.687  -6.913  -0.728  1.00  0.00     0.023 C 
ENDROOT
BRANCH   1   2
ATOM      2  C   UNL     1      10.916  -5.642  -0.369  1.00  0.00     0.116 C 
BRANCH   2   3
ATOM      3  N   UNL     1       9.741  -5.486  -1.201  1.00  0.00    -0.356 N 
ATOM      4  C   UNL     1       8.420  -5.522  -0.886  1.00  0.00     0.223 C 
ATOM      5  O   UNL     1       7.630  -5.471  -1.827  1.00  0.00    -0.275 OA
ATOM      6  H   UNL     1       9.932  -5.326  -2.154  1.00  0.00     0.163 HD
BRANCH   4   7
ATOM      7  C   UNL     1       7.983  -5.668   0.572  1.00  0.00     0.084 C 
ATOM      8  C   UNL     1       5.373  -5.954   0.477  1.00  0.00     0.183 C 
ATOM      9  C   UNL     1       5.590  -7.392   0.974  1.00  0.00     0.065 C 
ATOM     10  C   UNL     1       6.586  -5.078   0.872  1.00  0.00     0.078 C 
ATOM     11  C   UNL     1       6.925  -7.984   0.538  1.00  0.00     0.007 C 
ATOM     12  C   UNL     1       8.090  -7.127   1.026  1.00  0.00     0.014 C 
BRANCH   8  13
ATOM     13  N   UNL     1       5.155  -5.803  -0.953  1.00  0.00    -0.338 N 
ATOM     14  H   UNL     1       5.039  -4.806  -1.137  1.00  0.00     0.346 HD
ATOM     15  H   UNL     1       5.970  -6.242  -1.381  1.00  0.00     0.346 HD
BRANCH  13  16
ATOM     16  C   UNL     1       4.017  -6.489  -1.551  1.00  0.00     0.329 C 
BRANCH  16  17
ATOM     17  C   UNL     1       4.072  -6.462  -3.064  1.00  0.00     0.147 A 
ATOM     18  C   UNL     1       4.109  -7.206  -5.167  1.00  0.00     0.057 A 
ATOM     19  C   UNL     1       4.345  -5.861  -5.391  1.00  0.00     0.091 A 
ATOM     20  N   UNL     1       3.962  -7.535  -3.823  1.00  0.00    -0.240 NA
ATOM     21  S   UNL     1       4.301  -4.987  -3.920  1.00  0.00    -0.121 S 
BRANCH  18  22
ATOM     22  C   UNL     1       4.026  -8.319  -6.202  1.00  0.00     0.005 C 
ATOM     23  C   UNL     1       2.988  -9.377  -5.768  1.00  0.00     0.017 C 
ATOM     24  C   UNL     1       5.399  -9.002  -6.344  1.00  0.00     0.017 C 
ATOM     25  C   UNL     1       3.595  -7.783  -7.583  1.00  0.00     0.017 C 
ENDBRANCH  18  22
ENDBRANCH  16  17
ENDBRANCH  13  16
ENDBRANCH   8  13
ENDBRANCH   4   7
ENDBRANCH   2   3
ENDBRANCH   1   2
BRANCH   1  26
ATOM     26  C   UNL     1      12.123  -7.014  -2.192  1.00  0.00     0.023 C 
BRANCH  26  27
ATOM     27  C   UNL     1      12.890  -5.812  -2.729  1.00  0.00     0.116 C 
BRANCH  27  28
ATOM     28  N   UNL     1      14.115  -5.555  -1.991  1.00  0.00    -0.352 N 
ATOM     29  C   UNL     1      15.387  -5.353  -2.467  1.00  0.00     0.251 C 
ATOM     30  H   UNL     1      14.020  -5.522  -1.012  1.00  0.00     0.163 HD
ATOM     31  O   UNL     1      16.331  -5.311  -1.680  1.00  0.00    -0.269 OA
BRANCH  29  32
ATOM     32  C   UNL     1      15.622  -5.213  -3.920  1.00  0.00     0.039 A 
ATOM     33  C   UNL     1      16.700  -5.888  -4.498  1.00  0.00     0.014 A 
ATOM     34  C   UNL     1      14.788  -4.418  -4.712  1.00  0.00     0.014 A 
ATOM     35  C   UNL     1      16.910  -5.807  -5.877  1.00  0.00     0.010 A 
ATOM     36  C   UNL     1      14.950  -4.405  -6.095  1.00  0.00     0.010 A 
ATOM     37  C   UNL     1      16.020  -5.088  -6.692  1.00  0.00    -0.014 A 
BRANCH  37  38
ATOM     38  C   UNL     1      16.207  -5.020  -8.166  1.00  0.00     0.031 A 
ATOM     39  C   UNL     1      16.468  -3.694  -8.831  1.00  0.00     0.074 A 
ATOM     40  C   UNL     1      16.092  -6.138  -8.910  1.00  0.00     0.049 A 
ATOM     41  N   UNL     1      16.599  -3.419 -10.104  1.00  0.00    -0.248 NA
ATOM     42  C   UNL     1      16.566  -2.517  -7.952  1.00  0.00     0.031 C 
ATOM     43  C   UNL     1      15.797  -7.475  -8.390  1.00  0.00     0.029 A 
ATOM     44  N   UNL     1      16.200  -6.329 -10.265  1.00  0.00    -0.354 N 
ATOM     45  C   UNL     1      16.781  -2.043 -10.178  1.00  0.00     0.074 A 
ATOM     46  C   UNL     1      16.682  -1.531  -8.829  1.00  0.00     0.031 C 
ATOM     47  C   UNL     1      15.771  -8.349  -9.409  1.00  0.00     0.029 A 
ATOM     48  C   UNL     1      16.008  -7.633 -10.659  1.00  0.00     0.049 A 
ATOM     49  H   UNL     1      16.398  -5.600 -10.897  1.00  0.00     0.167 HD
ATOM     50  C   UNL     1      17.033  -1.277 -11.267  1.00  0.00     0.037 A 
ATOM     51  C   UNL     1      16.013  -8.188 -11.887  1.00  0.00     0.037 A 
ATOM     52  C   UNL     1      17.151  -1.797 -12.605  1.00  0.00     0.049 A 
ATOM     53  C   UNL     1      16.292  -7.316 -13.083  1.00  0.00     0.074 A 
ATOM     54  C   UNL     1      17.453  -1.113 -13.770  1.00  0.00     0.029 A 
ATOM     55  N   UNL     1      16.973  -3.127 -12.959  1.00  0.00    -0.354 N 
ATOM     56  N   UNL     1      16.519  -6.025 -13.128  1.00  0.00    -0.248 NA
ATOM     57  C   UNL     1      16.328  -7.979 -14.394  1.00  0.00     0.031 C 
ATOM     58  C   UNL     1      17.407  -2.019 -14.834  1.00  0.00     0.029 A 
ATOM     59  C   UNL     1      17.140  -3.280 -14.325  1.00  0.00     0.049 A 
ATOM     60  H   UNL     1      16.758  -3.854 -12.331  1.00  0.00     0.167 HD
ATOM     61  C   UNL     1      16.764  -5.728 -14.465  1.00  0.00     0.074 A 
ATOM     62  C   UNL     1      16.663  -6.976 -15.193  1.00  0.00     0.031 C 
ATOM     63  C   UNL     1      17.052  -4.532 -15.037  1.00  0.00     0.037 A 
BRANCH  50  64
ATOM     64  C   UNL     1      17.198   0.205 -11.057  1.00  0.00     0.058 A 
ATOM     65  C   UNL     1      18.306   0.736 -10.377  1.00  0.00     0.135 A 
ATOM     66  C   UNL     1      16.256   1.109 -11.573  1.00  0.00     0.135 A 
ATOM     67  F   UNL     1      19.232  -0.080  -9.848  1.00  0.00    -0.206 F 
ATOM     68  C   UNL     1      18.457   2.106 -10.187  1.00  0.00     0.059 A 
ATOM     69  C   UNL     1      16.403   2.485 -11.424  1.00  0.00     0.059 A 
ATOM     70  F   UNL     1      15.177   0.659 -12.233  1.00  0.00    -0.206 F 
ATOM     71  C   UNL     1      17.499   2.973 -10.715  1.00  0.00     0.060 A 
BRANCH  71  72
ATOM     72  S   UNL     1      17.714   4.748 -10.465  1.00  0.00     0.124 S 
ATOM     73  O   UNL     1      17.424   4.878  -9.040  1.00  0.00    -0.237 OA
ATOM     74  O   UNL     1      19.108   4.950 -10.848  1.00  0.00    -0.237 OA
ATOM     75  O   UNL     1      16.727   5.341 -11.362  1.00  0.00    -0.744 OA
ENDBRANCH  71  72
ENDBRANCH  50  64
BRANCH  51  76
ATOM     76  C   UNL     1      15.771  -9.648 -12.046  1.00  0.00     0.058 A 
ATOM     77  C   UNL     1      16.799 -10.512 -12.452  1.00  0.00     0.135 A 
ATOM     78  C   UNL     1      14.511 -10.210 -11.789  1.00  0.00     0.135 A 
ATOM     79  F   UNL     1      18.021 -10.023 -12.715  1.00  0.00    -0.206 F 
ATOM     80  C   UNL     1      16.584 -11.876 -12.619  1.00  0.00     0.059 A 
ATOM     81  C   UNL     1      14.278 -11.576 -11.921  1.00  0.00     0.059 A 
ATOM     82  F   UNL     1      13.497  -9.431 -11.382  1.00  0.00    -0.206 F 
ATOM     83  C   UNL     1      15.318 -12.399 -12.348  1.00  0.00     0.060 A 
BRANCH  83  84
ATOM     84  S   UNL     1      15.061 -14.178 -12.527  1.00  0.00     0.124 S 
ATOM     85  O   UNL     1      15.090 -14.335 -13.976  1.00  0.00    -0.237 OA
ATOM     86  O   UNL     1      16.203 -14.726 -11.802  1.00  0.00    -0.237 OA
ATOM     87  O   UNL     1      13.764 -14.395 -11.894  1.00  0.00    -0.744 OA
ENDBRANCH  83  84
ENDBRANCH  51  76
BRANCH  63  88
ATOM     88  C   UNL     1      17.340  -4.518 -16.514  1.00  0.00     0.058 A 
ATOM     89  C   UNL     1      16.337  -4.728 -17.473  1.00  0.00     0.135 A 
ATOM     90  C   UNL     1      18.639  -4.244 -16.975  1.00  0.00     0.135 A 
ATOM     91  F   UNL     1      15.080  -4.997 -17.088  1.00  0.00    -0.206 F 
ATOM     92  C   UNL     1      16.617  -4.698 -18.836  1.00  0.00     0.059 A 
ATOM     93  C   UNL     1      18.935  -4.177 -18.333  1.00  0.00     0.059 A 
ATOM     94  F   UNL     1      19.635  -4.022 -16.102  1.00  0.00    -0.206 F 
ATOM     95  C   UNL     1      17.919  -4.421 -19.256  1.00  0.00     0.060 A 
BRANCH  95  96
ATOM     96  S   UNL     1      18.265  -4.364 -21.027  1.00  0.00     0.124 S 
ATOM     97  O   UNL     1      18.208  -5.778 -21.383  1.00  0.00    -0.237 OA
ATOM     98  O   UNL     1      17.172  -3.538 -21.531  1.00  0.00    -0.237 OA
ATOM     99  O   UNL     1      19.588  -3.752 -21.096  1.00  0.00    -0.744 OA
ENDBRANCH  95  96
ENDBRANCH  63  88
ENDBRANCH  37  38
ENDBRANCH  29  32
ENDBRANCH  27  28
ENDBRANCH  26  27
ENDBRANCH   1  26
TORSDOF 18
