REMARK SMILES COCCCC(=O)Nc1nc2ccc(C(=O)NCCCCNC(=O)c3ccc(-c4c5nc(c(-c6c(F)cc(S(=O)(=O)[O-])cc6F)c6ccc([nH]6)c(-c6c(F)cc(S(=O)(=O)[O-])cc6F)c6nc(c(-c7c(F)cc(S(=O)(=O)[O-])cc7F)c7ccc4[nH]7)C=C6)C=C5)cc3)cc2s1
REMARK SMILES IDX 18 1 17 2 15 3 16 4 14 6 9 7 10 8 93 9 11 10 92 11 12 12
REMARK SMILES IDX 91 13 13 14 8 15 6 16 7 17 5 19 4 20 3 21 2 22 1 23 19 24
REMARK SMILES IDX 20 25 21 26 22 27 23 28 24 30 25 31 26 32 90 33 27 34 89 35
REMARK SMILES IDX 28 36 29 37 30 38 83 39 31 40 88 41 82 42 84 43 32 44 87 45
REMARK SMILES IDX 81 46 80 47 33 49 67 50 46 51 66 52 47 53 50 54 65 55 85 56
REMARK SMILES IDX 48 57 49 58 64 60 86 61 51 62 34 63 35 64 44 65 36 66 37 67
REMARK SMILES IDX 43 68 45 69 38 70 39 71 40 72 41 73 42 74 68 75 69 76 78 77
REMARK SMILES IDX 70 78 71 79 77 80 79 81 72 82 73 83 74 84 75 85 76 86 52 87
REMARK SMILES IDX 53 88 62 89 54 90 55 91 61 92 63 93 56 94 57 95 58 96 59 97
REMARK SMILES IDX 60 98
REMARK H PARENT 17 5 8 18 22 29 84 48 50 59
REMARK Flexibility Score: inf
ROOT
ATOM      1  C   UNL     1       1.014   5.514   5.127  1.00  0.00     0.116 C 
ENDROOT
BRANCH   1   2
ATOM      2  N   UNL     1       0.005   4.485   5.277  1.00  0.00    -0.352 N 
ATOM      3  C   UNL     1      -0.037   3.204   4.796  1.00  0.00     0.251 C 
ATOM      4  O   UNL     1      -0.951   2.464   5.155  1.00  0.00    -0.269 OA
ATOM      5  H   UNL     1      -0.777   4.750   5.813  1.00  0.00     0.163 HD
BRANCH   3   6
ATOM      6  C   UNL     1       0.991   2.662   3.868  1.00  0.00     0.041 A 
ATOM      7  C   UNL     1       3.172  -0.649   1.375  1.00  0.00     0.190 A 
ATOM      8  N   UNL     1       3.240   0.600   0.992  1.00  0.00    -0.220 NA
ATOM      9  S   UNL     1       2.787  -0.904   3.020  1.00  0.00    -0.097 S 
ATOM     10  C   UNL     1       2.622   1.394   1.953  1.00  0.00     0.084 A 
ATOM     11  C   UNL     1       2.175   0.710   3.087  1.00  0.00     0.057 A 
ATOM     12  C   UNL     1       2.337   2.770   1.841  1.00  0.00     0.031 A 
ATOM     13  C   UNL     1       1.357   1.318   4.051  1.00  0.00     0.035 A 
ATOM     14  C   UNL     1       1.494   3.382   2.782  1.00  0.00     0.016 A 
BRANCH   7  15
ATOM     15  N   UNL     1       3.654  -1.732   0.714  1.00  0.00    -0.302 N 
ATOM     16  C   UNL     1       3.008  -2.487  -0.213  1.00  0.00     0.226 C 
ATOM     17  O   UNL     1       3.666  -3.386  -0.754  1.00  0.00    -0.275 OA
ATOM     18  H   UNL     1       4.576  -2.001   0.930  1.00  0.00     0.172 HD
BRANCH  16  19
ATOM     19  C   UNL     1       1.565  -2.260  -0.656  1.00  0.00     0.103 C 
BRANCH  19  20
ATOM     20  C   UNL     1       0.426  -2.731   0.255  1.00  0.00     0.038 C 
BRANCH  20  21
ATOM     21  C   UNL     1      -0.248  -1.710   1.173  1.00  0.00     0.160 C 
BRANCH  21  22
ATOM     22  O   UNL     1      -1.017  -0.721   0.500  1.00  0.00    -0.385 OA
ATOM     23  C   UNL     1      -0.273   0.322  -0.106  1.00  0.00     0.194 C 
ENDBRANCH  21  22
ENDBRANCH  20  21
ENDBRANCH  19  20
ENDBRANCH  16  19
ENDBRANCH   7  15
ENDBRANCH   3   6
ENDBRANCH   1   2
BRANCH   1  24
ATOM     24  C   UNL     1       0.517   6.634   4.213  1.00  0.00     0.023 C 
BRANCH  24  25
ATOM     25  C   UNL     1      -0.379   7.666   4.905  1.00  0.00     0.023 C 
BRANCH  25  26
ATOM     26  C   UNL     1       0.270   8.417   6.065  1.00  0.00     0.116 C 
BRANCH  26  27
ATOM     27  N   UNL     1       1.530   9.051   5.707  1.00  0.00    -0.352 N 
ATOM     28  C   UNL     1       2.058  10.233   6.163  1.00  0.00     0.251 C 
ATOM     29  H   UNL     1       2.078   8.566   5.049  1.00  0.00     0.163 HD
ATOM     30  O   UNL     1       3.090  10.674   5.663  1.00  0.00    -0.269 OA
BRANCH  28  31
ATOM     31  C   UNL     1       1.359  10.986   7.224  1.00  0.00     0.039 A 
ATOM     32  C   UNL     1       1.161  12.357   7.054  1.00  0.00     0.014 A 
ATOM     33  C   UNL     1       0.876  10.340   8.366  1.00  0.00     0.014 A 
ATOM     34  C   UNL     1       0.423  13.068   8.000  1.00  0.00     0.010 A 
ATOM     35  C   UNL     1       0.074  11.035   9.267  1.00  0.00     0.010 A 
ATOM     36  C   UNL     1      -0.160  12.406   9.095  1.00  0.00    -0.014 A 
BRANCH  36  37
ATOM     37  C   UNL     1      -1.032  13.141  10.045  1.00  0.00     0.031 A 
ATOM     38  C   UNL     1      -0.639  13.291  11.489  1.00  0.00     0.074 A 
ATOM     39  C   UNL     1      -2.204  13.645   9.607  1.00  0.00     0.049 A 
ATOM     40  N   UNL     1      -1.263  13.919  12.452  1.00  0.00    -0.248 NA
ATOM     41  C   UNL     1       0.604  12.627  11.914  1.00  0.00     0.031 C 
ATOM     42  C   UNL     1      -2.728  13.502   8.245  1.00  0.00     0.029 A 
ATOM     43  N   UNL     1      -3.163  14.381  10.254  1.00  0.00    -0.354 N 
ATOM     44  C   UNL     1      -0.494  13.725  13.594  1.00  0.00     0.074 A 
ATOM     45  C   UNL     1       0.608  12.867  13.217  1.00  0.00     0.031 C 
ATOM     46  C   UNL     1      -3.891  14.164   8.150  1.00  0.00     0.029 A 
ATOM     47  C   UNL     1      -4.213  14.750   9.446  1.00  0.00     0.049 A 
ATOM     48  H   UNL     1      -3.106  14.622  11.207  1.00  0.00     0.167 HD
ATOM     49  C   UNL     1      -0.673  14.239  14.835  1.00  0.00     0.037 A 
ATOM     50  C   UNL     1      -5.309  15.485   9.718  1.00  0.00     0.037 A 
ATOM     51  C   UNL     1      -1.768  15.104  15.197  1.00  0.00     0.049 A 
ATOM     52  C   UNL     1      -5.479  16.056  11.099  1.00  0.00     0.074 A 
ATOM     53  C   UNL     1      -2.010  15.725  16.409  1.00  0.00     0.029 A 
ATOM     54  N   UNL     1      -2.807  15.465  14.350  1.00  0.00    -0.354 N 
ATOM     55  N   UNL     1      -4.698  15.930  12.146  1.00  0.00    -0.248 NA
ATOM     56  C   UNL     1      -6.672  16.880  11.331  1.00  0.00     0.031 C 
ATOM     57  C   UNL     1      -3.220  16.421  16.311  1.00  0.00     0.029 A 
ATOM     58  C   UNL     1      -3.705  16.280  15.021  1.00  0.00     0.049 A 
ATOM     59  H   UNL     1      -2.893  15.183  13.411  1.00  0.00     0.167 HD
ATOM     60  C   UNL     1      -5.295  16.675  13.157  1.00  0.00     0.074 A 
ATOM     61  C   UNL     1      -6.488  17.269  12.585  1.00  0.00     0.031 C 
ATOM     62  C   UNL     1      -4.896  16.852  14.441  1.00  0.00     0.037 A 
BRANCH  49  63
ATOM     63  C   UNL     1       0.341  13.882  15.889  1.00  0.00     0.058 A 
ATOM     64  C   UNL     1       1.661  14.360  15.835  1.00  0.00     0.135 A 
ATOM     65  C   UNL     1      -0.015  13.075  16.982  1.00  0.00     0.135 A 
ATOM     66  F   UNL     1       2.063  15.123  14.805  1.00  0.00    -0.206 F 
ATOM     67  C   UNL     1       2.599  14.023  16.805  1.00  0.00     0.059 A 
ATOM     68  C   UNL     1       0.899  12.751  17.981  1.00  0.00     0.059 A 
ATOM     69  F   UNL     1      -1.262  12.590  17.086  1.00  0.00    -0.206 F 
ATOM     70  C   UNL     1       2.208  13.217  17.875  1.00  0.00     0.060 A 
BRANCH  70  71
ATOM     71  S   UNL     1       3.439  12.790  19.125  1.00  0.00     0.124 S 
ATOM     72  O   UNL     1       4.277  11.842  18.396  1.00  0.00    -0.237 OA
ATOM     73  O   UNL     1       4.050  14.083  19.416  1.00  0.00    -0.237 OA
ATOM     74  O   UNL     1       2.642  12.219  20.206  1.00  0.00    -0.744 OA
ENDBRANCH  70  71
ENDBRANCH  49  63
BRANCH  50  75
ATOM     75  C   UNL     1      -6.308  15.752   8.648  1.00  0.00     0.058 A 
ATOM     76  C   UNL     1      -6.456  17.036   8.103  1.00  0.00     0.135 A 
ATOM     77  C   UNL     1      -7.120  14.728   8.137  1.00  0.00     0.135 A 
ATOM     78  F   UNL     1      -5.707  18.050   8.561  1.00  0.00    -0.206 F 
ATOM     79  C   UNL     1      -7.385  17.300   7.101  1.00  0.00     0.059 A 
ATOM     80  C   UNL     1      -8.036  14.961   7.117  1.00  0.00     0.059 A 
ATOM     81  F   UNL     1      -7.003  13.478   8.612  1.00  0.00    -0.206 F 
ATOM     82  C   UNL     1      -8.168  16.254   6.611  1.00  0.00     0.060 A 
BRANCH  82  83
ATOM     83  S   UNL     1      -9.331  16.596   5.273  1.00  0.00     0.124 S 
ATOM     84  O   UNL     1     -10.368  17.347   5.969  1.00  0.00    -0.237 OA
ATOM     85  O   UNL     1      -8.507  17.357   4.339  1.00  0.00    -0.237 OA
ATOM     86  O   UNL     1      -9.715  15.264   4.814  1.00  0.00    -0.744 OA
ENDBRANCH  82  83
ENDBRANCH  50  75
BRANCH  62  87
ATOM     87  C   UNL     1      -5.751  17.738  15.307  1.00  0.00     0.058 A 
ATOM     88  C   UNL     1      -7.032  17.345  15.728  1.00  0.00     0.135 A 
ATOM     89  C   UNL     1      -5.282  18.994  15.725  1.00  0.00     0.135 A 
ATOM     90  F   UNL     1      -7.530  16.156  15.355  1.00  0.00    -0.206 F 
ATOM     91  C   UNL     1      -7.835  18.185  16.492  1.00  0.00     0.059 A 
ATOM     92  C   UNL     1      -6.056  19.837  16.516  1.00  0.00     0.059 A 
ATOM     93  F   UNL     1      -4.059  19.415  15.364  1.00  0.00    -0.206 F 
ATOM     94  C   UNL     1      -7.340  19.432  16.876  1.00  0.00     0.060 A 
BRANCH  94  95
ATOM     95  S   UNL     1      -8.396  20.518  17.857  1.00  0.00     0.124 S 
ATOM     96  O   UNL     1      -9.348  20.985  16.855  1.00  0.00    -0.237 OA
ATOM     97  O   UNL     1      -8.932  19.608  18.865  1.00  0.00    -0.237 OA
ATOM     98  O   UNL     1      -7.470  21.527  18.362  1.00  0.00    -0.744 OA
ENDBRANCH  94  95
ENDBRANCH  62  87
ENDBRANCH  36  37
ENDBRANCH  28  31
ENDBRANCH  26  27
ENDBRANCH  25  26
ENDBRANCH  24  25
ENDBRANCH   1  24
TORSDOF 19
