REMARK SMILES CC(C)(C)OC(=O)N1CCN(C(=O)c2ccc3c(c2)OCO3)[C@H](C(=O)NCCCCNC(=O)c2ccc(-c3c4nc(c(-c5c(F)cc(S(=O)(=O)[O-])cc5F)c5ccc([nH]5)c(-c5c(F)cc(S(=O)(=O)[O-])cc5F)c5nc(c(-c6c(F)cc(S(=O)(=O)[O-])cc6F)c6ccc3[nH]6)C=C5)C=C4)cc2)C1
REMARK SMILES IDX 28 1 27 2 26 3 24 4 25 5 23 7 8 8 9 9 100 10 10 11 11 12
REMARK SMILES IDX 6 13 7 14 5 15 2 16 1 17 3 18 4 19 12 20 13 21 14 22 15 23
REMARK SMILES IDX 19 24 16 25 18 26 17 27 20 28 22 29 21 30 29 31 30 32 31 33
REMARK SMILES IDX 32 34 33 36 34 37 35 38 99 39 36 40 98 41 37 42 38 43 39 44
REMARK SMILES IDX 92 45 40 46 97 47 91 48 93 49 41 50 96 51 90 52 89 53 42 55
REMARK SMILES IDX 76 56 55 57 75 58 56 59 59 60 74 61 94 62 57 63 58 64 73 66
REMARK SMILES IDX 95 67 60 68 43 69 44 70 53 71 45 72 46 73 52 74 54 75 47 76
REMARK SMILES IDX 48 77 49 78 50 79 51 80 77 81 78 82 87 83 79 84 80 85 86 86
REMARK SMILES IDX 88 87 81 88 82 89 83 90 84 91 85 92 61 93 62 94 71 95 63 96
REMARK SMILES IDX 64 97 70 98 72 99 65 100 66 101 67 102 68 103 69 104
REMARK H PARENT 26 6 31 35 93 54 59 65
REMARK Flexibility Score: inf
ROOT
ATOM      1  C   UNL     1       5.064   5.558  -2.095  1.00  0.00     0.023 C 
ENDROOT
BRANCH   1   2
ATOM      2  C   UNL     1       4.976   4.716  -0.824  1.00  0.00     0.116 C 
BRANCH   2   3
ATOM      3  N   UNL     1       4.822   5.509   0.383  1.00  0.00    -0.354 N 
ATOM      4  C   UNL     1       3.752   5.968   1.086  1.00  0.00     0.244 C 
ATOM      5  O   UNL     1       4.016   6.393   2.220  1.00  0.00    -0.273 OA
ATOM      6  H   UNL     1       5.683   5.772   0.781  1.00  0.00     0.163 HD
BRANCH   4   7
ATOM      7  C   UNL     1       2.289   6.090   0.568  1.00  0.00     0.194 C 
ATOM      8  N   UNL     1       0.549   4.884  -0.825  1.00  0.00    -0.304 N 
ATOM      9  C   UNL     1       0.023   6.144  -1.323  1.00  0.00     0.144 C 
ATOM     10  C   UNL     1       1.934   4.925  -0.369  1.00  0.00     0.158 C 
ATOM     11  C   UNL     1       0.345   7.312  -0.393  1.00  0.00     0.142 C 
ATOM     12  N   UNL     1       1.756   7.389   0.035  1.00  0.00    -0.323 N 
BRANCH   8  13
ATOM     13  C   UNL     1      -0.050   3.697  -1.207  1.00  0.00     0.410 C 
ATOM     14  O   UNL     1      -1.039   3.640  -1.930  1.00  0.00    -0.224 OA
BRANCH  13  15
ATOM     15  O   UNL     1       0.599   2.621  -0.700  1.00  0.00    -0.444 OA
BRANCH  15  16
ATOM     16  C   UNL     1       0.251   1.257  -1.052  1.00  0.00     0.106 C 
ATOM     17  C   UNL     1       1.004   0.391  -0.030  1.00  0.00     0.056 C 
ATOM     18  C   UNL     1       0.776   0.946  -2.456  1.00  0.00     0.056 C 
ATOM     19  C   UNL     1      -1.247   0.960  -0.926  1.00  0.00     0.056 C 
ENDBRANCH  15  16
ENDBRANCH  13  15
ENDBRANCH   8  13
BRANCH  12  20
ATOM     20  C   UNL     1       2.095   8.652   0.552  1.00  0.00     0.254 C 
ATOM     21  O   UNL     1       1.279   9.567   0.669  1.00  0.00    -0.269 OA
BRANCH  20  22
ATOM     22  C   UNL     1       3.492   8.980   0.887  1.00  0.00     0.044 A 
ATOM     23  C   UNL     1       4.510   8.828  -0.075  1.00  0.00     0.018 A 
ATOM     24  C   UNL     1       3.766   9.532   2.146  1.00  0.00     0.064 A 
ATOM     25  C   UNL     1       5.832   9.150   0.246  1.00  0.00     0.051 A 
ATOM     26  C   UNL     1       5.079   9.834   2.430  1.00  0.00     0.166 A 
ATOM     27  C   UNL     1       6.084   9.637   1.512  1.00  0.00     0.165 A 
ATOM     28  O   UNL     1       5.542  10.346   3.603  1.00  0.00    -0.454 OA
ATOM     29  O   UNL     1       7.305   9.985   1.997  1.00  0.00    -0.454 OA
ATOM     30  C   UNL     1       6.959  10.399   3.335  1.00  0.00     0.468 C 
ENDBRANCH  20  22
ENDBRANCH  12  20
ENDBRANCH   4   7
ENDBRANCH   2   3
ENDBRANCH   1   2
BRANCH   1  31
ATOM     31  C   UNL     1       6.459   6.125  -2.385  1.00  0.00     0.023 C 
BRANCH  31  32
ATOM     32  C   UNL     1       7.578   5.090  -2.485  1.00  0.00     0.116 C 
BRANCH  32  33
ATOM     33  N   UNL     1       7.292   4.012  -3.416  1.00  0.00    -0.352 N 
ATOM     34  C   UNL     1       8.178   3.151  -4.018  1.00  0.00     0.251 C 
ATOM     35  H   UNL     1       6.343   3.881  -3.644  1.00  0.00     0.163 HD
ATOM     36  O   UNL     1       7.781   2.356  -4.864  1.00  0.00    -0.269 OA
BRANCH  34  37
ATOM     37  C   UNL     1       9.614   3.227  -3.676  1.00  0.00     0.039 A 
ATOM     38  C   UNL     1      10.547   3.285  -4.715  1.00  0.00     0.014 A 
ATOM     39  C   UNL     1      10.038   3.252  -2.345  1.00  0.00     0.014 A 
ATOM     40  C   UNL     1      11.904   3.420  -4.417  1.00  0.00     0.010 A 
ATOM     41  C   UNL     1      11.383   3.454  -2.051  1.00  0.00     0.010 A 
ATOM     42  C   UNL     1      12.329   3.530  -3.083  1.00  0.00    -0.014 A 
BRANCH  42  43
ATOM     43  C   UNL     1      13.766   3.692  -2.751  1.00  0.00     0.031 A 
ATOM     44  C   UNL     1      14.492   2.602  -2.012  1.00  0.00     0.074 A 
ATOM     45  C   UNL     1      14.400   4.837  -3.072  1.00  0.00     0.049 A 
ATOM     46  N   UNL     1      15.732   2.568  -1.597  1.00  0.00    -0.248 NA
ATOM     47  C   UNL     1      13.712   1.401  -1.669  1.00  0.00     0.031 C 
ATOM     48  C   UNL     1      13.787   5.986  -3.742  1.00  0.00     0.029 A 
ATOM     49  N   UNL     1      15.701   5.223  -2.875  1.00  0.00    -0.354 N 
ATOM     50  C   UNL     1      15.876   1.356  -0.933  1.00  0.00     0.074 A 
ATOM     51  C   UNL     1      14.583   0.708  -0.951  1.00  0.00     0.031 C 
ATOM     52  C   UNL     1      14.718   6.936  -3.926  1.00  0.00     0.029 A 
ATOM     53  C   UNL     1      15.985   6.475  -3.367  1.00  0.00     0.049 A 
ATOM     54  H   UNL     1      16.369   4.658  -2.424  1.00  0.00     0.167 HD
ATOM     55  C   UNL     1      16.991   0.818  -0.382  1.00  0.00     0.037 A 
ATOM     56  C   UNL     1      17.141   7.167  -3.374  1.00  0.00     0.037 A 
ATOM     57  C   UNL     1      18.281   1.454  -0.397  1.00  0.00     0.049 A 
ATOM     58  C   UNL     1      18.374   6.536  -2.786  1.00  0.00     0.074 A 
ATOM     59  C   UNL     1      19.485   0.977   0.092  1.00  0.00     0.029 A 
ATOM     60  N   UNL     1      18.537   2.705  -0.940  1.00  0.00    -0.354 N 
ATOM     61  N   UNL     1      18.504   5.365  -2.208  1.00  0.00    -0.248 NA
ATOM     62  C   UNL     1      19.618   7.312  -2.865  1.00  0.00     0.031 C 
ATOM     63  C   UNL     1      20.464   1.951  -0.134  1.00  0.00     0.029 A 
ATOM     64  C   UNL     1      19.878   3.019  -0.795  1.00  0.00     0.049 A 
ATOM     65  H   UNL     1      17.864   3.285  -1.365  1.00  0.00     0.167 HD
ATOM     66  C   UNL     1      19.851   5.252  -1.881  1.00  0.00     0.074 A 
ATOM     67  C   UNL     1      20.494   6.469  -2.334  1.00  0.00     0.031 C 
ATOM     68  C   UNL     1      20.499   4.231  -1.266  1.00  0.00     0.037 A 
BRANCH  55  69
ATOM     69  C   UNL     1      16.855  -0.530   0.270  1.00  0.00     0.058 A 
ATOM     70  C   UNL     1      16.641  -1.694  -0.487  1.00  0.00     0.135 A 
ATOM     71  C   UNL     1      16.939  -0.664   1.665  1.00  0.00     0.135 A 
ATOM     72  F   UNL     1      16.535  -1.620  -1.824  1.00  0.00    -0.206 F 
ATOM     73  C   UNL     1      16.474  -2.935   0.116  1.00  0.00     0.059 A 
ATOM     74  C   UNL     1      16.803  -1.901   2.289  1.00  0.00     0.059 A 
ATOM     75  F   UNL     1      17.143   0.414   2.437  1.00  0.00    -0.206 F 
ATOM     76  C   UNL     1      16.550  -3.028   1.506  1.00  0.00     0.060 A 
BRANCH  76  77
ATOM     77  S   UNL     1      16.311  -4.642   2.279  1.00  0.00     0.124 S 
ATOM     78  O   UNL     1      14.862  -4.795   2.186  1.00  0.00    -0.237 OA
ATOM     79  O   UNL     1      17.098  -5.522   1.421  1.00  0.00    -0.237 OA
ATOM     80  O   UNL     1      16.837  -4.453   3.627  1.00  0.00    -0.744 OA
ENDBRANCH  76  77
ENDBRANCH  55  69
BRANCH  56  81
ATOM     81  C   UNL     1      17.199   8.511  -4.006  1.00  0.00     0.058 A 
ATOM     82  C   UNL     1      17.849   8.697  -5.235  1.00  0.00     0.135 A 
ATOM     83  C   UNL     1      16.595   9.627  -3.408  1.00  0.00     0.135 A 
ATOM     84  F   UNL     1      18.443   7.659  -5.843  1.00  0.00    -0.206 F 
ATOM     85  C   UNL     1      17.916   9.947  -5.842  1.00  0.00     0.059 A 
ATOM     86  C   UNL     1      16.630  10.883  -4.006  1.00  0.00     0.059 A 
ATOM     87  F   UNL     1      15.944   9.496  -2.242  1.00  0.00    -0.206 F 
ATOM     88  C   UNL     1      17.302  11.035  -5.219  1.00  0.00     0.060 A 
BRANCH  88  89
ATOM     89  S   UNL     1      17.351  12.643  -6.039  1.00  0.00     0.124 S 
ATOM     90  O   UNL     1      18.725  13.060  -5.784  1.00  0.00    -0.237 OA
ATOM     91  O   UNL     1      17.035  12.295  -7.421  1.00  0.00    -0.237 OA
ATOM     92  O   UNL     1      16.319  13.404  -5.342  1.00  0.00    -0.744 OA
ENDBRANCH  88  89
ENDBRANCH  56  81
BRANCH  68  93
ATOM     93  C   UNL     1      21.983   4.370  -1.087  1.00  0.00     0.058 A 
ATOM     94  C   UNL     1      22.533   5.229  -0.123  1.00  0.00     0.135 A 
ATOM     95  C   UNL     1      22.865   3.605  -1.866  1.00  0.00     0.135 A 
ATOM     96  F   UNL     1      21.731   5.986   0.643  1.00  0.00    -0.206 F 
ATOM     97  C   UNL     1      23.909   5.344   0.045  1.00  0.00     0.059 A 
ATOM     98  C   UNL     1      24.243   3.687  -1.700  1.00  0.00     0.059 A 
ATOM     99  F   UNL     1      22.388   2.760  -2.795  1.00  0.00    -0.206 F 
ATOM    100  C   UNL     1      24.756   4.570  -0.751  1.00  0.00     0.060 A 
BRANCH 100 101
ATOM    101  S   UNL     1      26.540   4.709  -0.511  1.00  0.00     0.124 S 
ATOM    102  O   UNL     1      26.830   5.964  -1.197  1.00  0.00    -0.237 OA
ATOM    103  O   UNL     1      26.661   4.739   0.943  1.00  0.00    -0.237 OA
ATOM    104  O   UNL     1      27.062   3.506  -1.152  1.00  0.00    -0.744 OA
ENDBRANCH 100 101
ENDBRANCH  68  93
ENDBRANCH  42  43
ENDBRANCH  34  37
ENDBRANCH  32  33
ENDBRANCH  31  32
ENDBRANCH   1  31
TORSDOF 19
