REMARK SMILES O=C(NCCCCNC(=O)[C@H](CO)NC(=O)[C@H](Cc1ccc(O)cc1)NC(=O)c1ccc(F)cc1)c1ccc(-c2c3nc(c(-c4c(F)cc(S(=O)(=O)[O-])cc4F)c4ccc([nH]4)c(-c4c(F)cc(S(=O)(=O)[O-])cc4F)c4nc(c(-c5c(F)cc(S(=O)(=O)[O-])cc5F)c5ccc2[nH]5)C=C4)C=C3)cc1
REMARK SMILES IDX 6 1 5 2 4 3 3 4 1 5 2 6 36 8 37 9 101 10 38 11 100 12 39 13
REMARK SMILES IDX 40 14 41 15 94 16 42 17 99 18 93 19 95 20 43 21 98 22 92 23
REMARK SMILES IDX 91 24 44 26 78 27 57 28 77 29 58 30 61 31 76 32 96 33 59 34
REMARK SMILES IDX 60 35 75 37 97 38 62 39 45 40 46 41 55 42 47 43 48 44 54 45
REMARK SMILES IDX 56 46 49 47 50 48 51 49 52 50 53 51 79 52 80 53 89 54 81 55
REMARK SMILES IDX 82 56 88 57 90 58 83 59 84 60 85 61 86 62 87 63 63 64 64 65
REMARK SMILES IDX 73 66 65 67 66 68 72 69 74 70 67 71 68 72 69 73 70 74 71 75
REMARK SMILES IDX 7 76 8 77 9 78 10 80 11 81 14 82 15 83 16 85 17 86 26 87
REMARK SMILES IDX 27 88 28 90 29 91 30 92 35 93 31 94 34 95 32 96 33 97 18 98
REMARK SMILES IDX 19 99 20 100 25 101 21 102 24 103 22 104 23 105 12 107
REMARK SMILES IDX 13 108
REMARK H PARENT 3 7 95 25 61 36 8 79 14 84 26 89 23 106 13 109
REMARK Flexibility Score: inf
ROOT
ATOM      1  C   UNL     1       9.256   6.273  -9.461  1.00  0.00     0.023 C 
ENDROOT
BRANCH   1   2
ATOM      2  C   UNL     1       9.919   6.532 -10.803  1.00  0.00     0.023 C 
BRANCH   2   3
ATOM      3  C   UNL     1      11.085   5.611 -11.105  1.00  0.00     0.116 C 
BRANCH   3   4
ATOM      4  N   UNL     1      10.745   4.194 -11.036  1.00  0.00    -0.352 N 
ATOM      5  O   UNL     1      10.707   2.047 -11.761  1.00  0.00    -0.269 OA
ATOM      6  C   UNL     1      11.142   3.187 -11.886  1.00  0.00     0.251 C 
ATOM      7  H   UNL     1      10.161   3.925 -10.290  1.00  0.00     0.163 HD
BRANCH   6   8
ATOM      8  C   UNL     1      12.076   3.527 -12.976  1.00  0.00     0.039 A 
ATOM      9  C   UNL     1      13.202   4.298 -12.689  1.00  0.00     0.014 A 
ATOM     10  C   UNL     1      11.764   3.181 -14.292  1.00  0.00     0.014 A 
ATOM     11  C   UNL     1      13.895   4.891 -13.729  1.00  0.00     0.010 A 
ATOM     12  C   UNL     1      12.549   3.677 -15.337  1.00  0.00     0.010 A 
ATOM     13  C   UNL     1      13.597   4.568 -15.065  1.00  0.00    -0.014 A 
BRANCH  13  14
ATOM     14  C   UNL     1      14.462   5.141 -16.128  1.00  0.00     0.031 A 
ATOM     15  C   UNL     1      13.919   6.075 -17.174  1.00  0.00     0.074 A 
ATOM     16  C   UNL     1      15.784   4.880 -16.059  1.00  0.00     0.049 A 
ATOM     17  N   UNL     1      14.571   6.712 -18.114  1.00  0.00    -0.248 NA
ATOM     18  C   UNL     1      12.469   6.325 -17.182  1.00  0.00     0.031 C 
ATOM     19  C   UNL     1      16.410   3.981 -15.083  1.00  0.00     0.029 A 
ATOM     20  N   UNL     1      16.842   5.386 -16.765  1.00  0.00    -0.354 N 
ATOM     21  C   UNL     1      13.615   7.410 -18.841  1.00  0.00     0.074 A 
ATOM     22  C   UNL     1      12.332   7.117 -18.240  1.00  0.00     0.031 C 
ATOM     23  C   UNL     1      17.741   4.089 -15.174  1.00  0.00     0.029 A 
ATOM     24  C   UNL     1      18.064   4.989 -16.273  1.00  0.00     0.049 A 
ATOM     25  H   UNL     1      16.740   5.975 -17.547  1.00  0.00     0.167 HD
ATOM     26  C   UNL     1      13.799   8.220 -19.911  1.00  0.00     0.037 A 
ATOM     27  C   UNL     1      19.311   5.307 -16.664  1.00  0.00     0.037 A 
ATOM     28  C   UNL     1      15.089   8.530 -20.475  1.00  0.00     0.049 A 
ATOM     29  C   UNL     1      19.482   6.219 -17.840  1.00  0.00     0.074 A 
ATOM     30  C   UNL     1      15.382   9.342 -21.558  1.00  0.00     0.029 A 
ATOM     31  N   UNL     1      16.301   8.057 -19.994  1.00  0.00    -0.354 N 
ATOM     32  N   UNL     1      18.560   6.838 -18.537  1.00  0.00    -0.248 NA
ATOM     33  C   UNL     1      20.855   6.453 -18.302  1.00  0.00     0.031 C 
ATOM     34  C   UNL     1      16.768   9.337 -21.748  1.00  0.00     0.029 A 
ATOM     35  C   UNL     1      17.342   8.552 -20.762  1.00  0.00     0.049 A 
ATOM     36  H   UNL     1      16.406   7.457 -19.220  1.00  0.00     0.167 HD
ATOM     37  C   UNL     1      19.239   7.524 -19.532  1.00  0.00     0.074 A 
ATOM     38  C   UNL     1      20.652   7.275 -19.322  1.00  0.00     0.031 C 
ATOM     39  C   UNL     1      18.739   8.277 -20.541  1.00  0.00     0.037 A 
BRANCH  26  40
ATOM     40  C   UNL     1      12.590   8.835 -20.560  1.00  0.00     0.058 A 
ATOM     41  C   UNL     1      12.155   8.385 -21.818  1.00  0.00     0.135 A 
ATOM     42  C   UNL     1      11.930   9.935 -19.994  1.00  0.00     0.135 A 
ATOM     43  F   UNL     1      12.747   7.330 -22.401  1.00  0.00    -0.206 F 
ATOM     44  C   UNL     1      11.127   9.024 -22.505  1.00  0.00     0.059 A 
ATOM     45  C   UNL     1      10.887  10.579 -20.656  1.00  0.00     0.059 A 
ATOM     46  F   UNL     1      12.292  10.390 -18.784  1.00  0.00    -0.206 F 
ATOM     47  C   UNL     1      10.506  10.128 -21.920  1.00  0.00     0.060 A 
BRANCH  47  48
ATOM     48  S   UNL     1       9.181  10.954 -22.828  1.00  0.00     0.124 S 
ATOM     49  O   UNL     1       9.917  11.609 -23.904  1.00  0.00    -0.237 OA
ATOM     50  O   UNL     1       8.336   9.832 -23.226  1.00  0.00    -0.237 OA
ATOM     51  O   UNL     1       8.594  11.846 -21.832  1.00  0.00    -0.744 OA
ENDBRANCH  47  48
ENDBRANCH  26  40
BRANCH  27  52
ATOM     52  C   UNL     1      20.478   4.743 -15.940  1.00  0.00     0.058 A 
ATOM     53  C   UNL     1      20.767   3.370 -15.989  1.00  0.00     0.135 A 
ATOM     54  C   UNL     1      21.296   5.558 -15.144  1.00  0.00     0.135 A 
ATOM     55  F   UNL     1      20.005   2.547 -16.726  1.00  0.00    -0.206 F 
ATOM     56  C   UNL     1      21.805   2.819 -15.250  1.00  0.00     0.059 A 
ATOM     57  C   UNL     1      22.360   5.033 -14.417  1.00  0.00     0.059 A 
ATOM     58  F   UNL     1      21.062   6.877 -15.073  1.00  0.00    -0.206 F 
ATOM     59  C   UNL     1      22.593   3.658 -14.461  1.00  0.00     0.060 A 
BRANCH  59  60
ATOM     60  S   UNL     1      23.940   2.927 -13.507  1.00  0.00     0.124 S 
ATOM     61  O   UNL     1      23.212   2.332 -12.391  1.00  0.00    -0.237 OA
ATOM     62  O   UNL     1      24.522   1.988 -14.459  1.00  0.00    -0.237 OA
ATOM     63  O   UNL     1      24.775   4.077 -13.174  1.00  0.00    -0.744 OA
ENDBRANCH  59  60
ENDBRANCH  27  52
BRANCH  39  64
ATOM     64  C   UNL     1      19.731   8.871 -21.495  1.00  0.00     0.058 A 
ATOM     65  C   UNL     1      20.040  10.238 -21.447  1.00  0.00     0.135 A 
ATOM     66  C   UNL     1      20.356   8.084 -22.475  1.00  0.00     0.135 A 
ATOM     67  F   UNL     1      19.466  11.030 -20.528  1.00  0.00    -0.206 F 
ATOM     68  C   UNL     1      20.937  10.808 -22.342  1.00  0.00     0.059 A 
ATOM     69  C   UNL     1      21.273   8.629 -23.367  1.00  0.00     0.059 A 
ATOM     70  F   UNL     1      20.102   6.768 -22.547  1.00  0.00    -0.206 F 
ATOM     71  C   UNL     1      21.549   9.995 -23.299  1.00  0.00     0.060 A 
BRANCH  71  72
ATOM     72  S   UNL     1      22.749  10.737 -24.424  1.00  0.00     0.124 S 
ATOM     73  O   UNL     1      21.882  11.441 -25.362  1.00  0.00    -0.237 OA
ATOM     74  O   UNL     1      23.535  11.581 -23.529  1.00  0.00    -0.237 OA
ATOM     75  O   UNL     1      23.460   9.583 -24.966  1.00  0.00    -0.744 OA
ENDBRANCH  71  72
ENDBRANCH  39  64
ENDBRANCH  13  14
ENDBRANCH   6   8
ENDBRANCH   3   4
ENDBRANCH   2   3
ENDBRANCH   1   2
BRANCH   1  76
ATOM     76  C   UNL     1      10.176   6.354  -8.246  1.00  0.00     0.116 C 
BRANCH  76  77
ATOM     77  N   UNL     1      10.621   7.707  -7.948  1.00  0.00    -0.354 N 
ATOM     78  C   UNL     1      10.430   8.537  -6.884  1.00  0.00     0.244 C 
ATOM     79  H   UNL     1      11.172   8.103  -8.660  1.00  0.00     0.163 HD
ATOM     80  O   UNL     1      10.996   9.636  -6.943  1.00  0.00    -0.273 OA
BRANCH  78  81
ATOM     81  C   UNL     1       9.373   8.284  -5.779  1.00  0.00     0.197 C 
BRANCH  81  82
ATOM     82  N   UNL     1       9.100   6.894  -5.422  1.00  0.00    -0.340 N 
ATOM     83  C   UNL     1       7.969   6.149  -5.620  1.00  0.00     0.243 C 
ATOM     84  H   UNL     1       9.839   6.423  -4.972  1.00  0.00     0.164 HD
ATOM     85  O   UNL     1       8.030   4.939  -5.386  1.00  0.00    -0.273 OA
BRANCH  83  86
ATOM     86  C   UNL     1       6.695   6.790  -6.202  1.00  0.00     0.176 C 
BRANCH  86  87
ATOM     87  N   UNL     1       6.417   6.194  -7.513  1.00  0.00    -0.340 N 
ATOM     88  C   UNL     1       5.871   6.766  -8.638  1.00  0.00     0.251 C 
ATOM     89  H   UNL     1       6.658   5.243  -7.601  1.00  0.00     0.164 HD
ATOM     90  O   UNL     1       5.446   6.043  -9.534  1.00  0.00    -0.269 OA
BRANCH  88  91
ATOM     91  C   UNL     1       5.814   8.242  -8.815  1.00  0.00     0.040 A 
ATOM     92  C   UNL     1       6.932   9.057  -8.586  1.00  0.00     0.017 A 
ATOM     93  C   UNL     1       4.660   8.815  -9.358  1.00  0.00     0.017 A 
ATOM     94  C   UNL     1       6.882  10.431  -8.818  1.00  0.00     0.040 A 
ATOM     95  C   UNL     1       4.610  10.192  -9.603  1.00  0.00     0.040 A 
ATOM     96  C   UNL     1       5.715  10.988  -9.319  1.00  0.00     0.123 A 
ATOM     97  F   UNL     1       5.663  12.305  -9.549  1.00  0.00    -0.207 F 
ENDBRANCH  88  91
ENDBRANCH  86  87
BRANCH  86  98
ATOM     98  C   UNL     1       5.535   6.553  -5.216  1.00  0.00     0.070 C 
BRANCH  98  99
ATOM     99  C   UNL     1       4.718   7.759  -4.789  1.00  0.00    -0.045 A 
ATOM    100  C   UNL     1       5.106   9.094  -4.978  1.00  0.00     0.007 A 
ATOM    101  C   UNL     1       3.521   7.512  -4.094  1.00  0.00     0.007 A 
ATOM    102  C   UNL     1       4.306  10.147  -4.530  1.00  0.00     0.046 A 
ATOM    103  C   UNL     1       2.729   8.563  -3.630  1.00  0.00     0.046 A 
ATOM    104  C   UNL     1       3.123   9.872  -3.859  1.00  0.00     0.115 A 
BRANCH 104 105
ATOM    105  O   UNL     1       2.324  10.875  -3.398  1.00  0.00    -0.508 OA
ATOM    106  H   UNL     1       2.567  11.769  -3.539  1.00  0.00     0.293 HD
ENDBRANCH 104 105
ENDBRANCH  98  99
ENDBRANCH  86  98
ENDBRANCH  83  86
ENDBRANCH  81  82
BRANCH  81 107
ATOM    107  C   UNL     1       9.692   9.124  -4.525  1.00  0.00     0.191 C 
BRANCH 107 108
ATOM    108  O   UNL     1       8.937  10.341  -4.540  1.00  0.00    -0.394 OA
ATOM    109  H   UNL     1       9.169  10.856  -5.328  1.00  0.00     0.210 HD
ENDBRANCH 107 108
ENDBRANCH  81 107
ENDBRANCH  78  81
ENDBRANCH  76  77
ENDBRANCH   1  76
TORSDOF 23
