REMARK SMILES O=C(NCCCCNC(=O)c1ccc(-c2c3nc(c(-c4c(F)cc(S(=O)(=O)[O-])cc4F)c4ccc([nH]4)c(-c4c(F)cc(S(=O)(=O)[O-])cc4F)c4nc(c(-c5c(F)cc(S(=O)(=O)[O-])cc5F)c5ccc2[nH]5)C=C4)C=C3)cc1)C1=Cc2cc(Cl)cc(-c3ccc(CO)cc3)c2O[C@@H]1C(F)(F)F
REMARK SMILES IDX 5 1 4 2 3 3 1 4 2 5 77 7 78 8 95 9 79 10 94 11 80 12 93 13
REMARK SMILES IDX 81 14 84 15 82 16 83 17 96 18 97 19 98 20 99 21 85 22 86 23
REMARK SMILES IDX 92 24 87 25 91 26 88 27 89 28 90 29 6 31 7 32 8 33 9 34
REMARK SMILES IDX 10 36 11 37 12 38 76 39 13 40 75 41 14 42 15 43 16 44 69 45
REMARK SMILES IDX 17 46 74 47 68 48 70 49 18 50 73 51 67 52 66 53 19 55 53 56
REMARK SMILES IDX 32 57 52 58 33 59 36 60 51 61 71 62 34 63 35 64 50 66 72 67
REMARK SMILES IDX 37 68 20 69 21 70 30 71 22 72 23 73 29 74 31 75 24 76 25 77
REMARK SMILES IDX 26 78 27 79 28 80 54 81 55 82 64 83 56 84 57 85 63 86 65 87
REMARK SMILES IDX 58 88 59 89 60 90 61 91 62 92 38 93 39 94 48 95 40 96 41 97
REMARK SMILES IDX 47 98 49 99 42 100 43 101 44 102 45 103 46 104
REMARK H PARENT 3 6 90 30 8 35 70 54 36 65
REMARK Flexibility Score: inf
ROOT
ATOM      1  C   UNL     1       4.335  -3.361  -0.688  1.00  0.00     0.023 C 
ENDROOT
BRANCH   1   2
ATOM      2  C   UNL     1       3.635  -2.011  -0.869  1.00  0.00     0.116 C 
BRANCH   2   3
ATOM      3  N   UNL     1       2.610  -1.719   0.132  1.00  0.00    -0.352 N 
ATOM      4  O   UNL     1       1.159  -0.427   1.268  1.00  0.00    -0.270 OA
ATOM      5  C   UNL     1       2.280  -0.558   0.783  1.00  0.00     0.251 C 
ATOM      6  H   UNL     1       2.058  -2.494   0.384  1.00  0.00     0.163 HD
BRANCH   5   7
ATOM      7  C   UNL     1       3.221   0.588   0.848  1.00  0.00     0.067 C 
ATOM      8  C   UNL     1       4.490   0.380   1.220  1.00  0.00     0.025 C 
ATOM      9  C   UNL     1       2.910   1.737  -0.067  1.00  0.00     0.314 C 
ATOM     10  C   UNL     1       5.484   0.710   0.198  1.00  0.00     0.019 A 
ATOM     11  O   UNL     1       3.783   1.742  -1.221  1.00  0.00    -0.475 OA
ATOM     12  C   UNL     1       6.750   0.135   0.333  1.00  0.00     0.032 A 
ATOM     13  C   UNL     1       5.048   1.222  -1.046  1.00  0.00     0.135 A 
ATOM     14  C   UNL     1       7.553   0.001  -0.791  1.00  0.00     0.042 A 
ATOM     15  C   UNL     1       5.837   1.038  -2.193  1.00  0.00     0.026 A 
ATOM     16  Cl  UNL     1       9.043  -0.850  -0.668  1.00  0.00    -0.084 Cl
ATOM     17  C   UNL     1       7.101   0.430  -2.039  1.00  0.00     0.033 A 
BRANCH   9  18
ATOM     18  C   UNL     1       2.965   3.071   0.711  1.00  0.00     0.429 C 
ATOM     19  F   UNL     1       2.579   4.117  -0.058  1.00  0.00    -0.167 F 
ATOM     20  F   UNL     1       2.142   3.057   1.790  1.00  0.00    -0.167 F 
ATOM     21  F   UNL     1       4.207   3.357   1.175  1.00  0.00    -0.167 F 
ENDBRANCH   9  18
BRANCH  15  22
ATOM     22  C   UNL     1       5.326   1.221  -3.564  1.00  0.00    -0.015 A 
ATOM     23  C   UNL     1       4.303   0.390  -4.050  1.00  0.00     0.009 A 
ATOM     24  C   UNL     1       5.951   2.091  -4.465  1.00  0.00     0.009 A 
ATOM     25  C   UNL     1       3.979   0.359  -5.408  1.00  0.00     0.007 A 
ATOM     26  C   UNL     1       5.623   2.070  -5.825  1.00  0.00     0.007 A 
ATOM     27  C   UNL     1       4.658   1.179  -6.313  1.00  0.00    -0.023 A 
BRANCH  27  28
ATOM     28  C   UNL     1       4.416   1.026  -7.789  1.00  0.00     0.191 C 
BRANCH  28  29
ATOM     29  O   UNL     1       5.179  -0.075  -8.266  1.00  0.00    -0.392 OA
ATOM     30  H   UNL     1       6.121   0.087  -8.098  1.00  0.00     0.211 HD
ENDBRANCH  28  29
ENDBRANCH  27  28
ENDBRANCH  15  22
ENDBRANCH   5   7
ENDBRANCH   2   3
ENDBRANCH   1   2
BRANCH   1  31
ATOM     31  C   UNL     1       4.327  -4.242  -1.945  1.00  0.00     0.023 C 
BRANCH  31  32
ATOM     32  C   UNL     1       4.887  -3.632  -3.229  1.00  0.00     0.116 C 
BRANCH  32  33
ATOM     33  N   UNL     1       6.332  -3.434  -3.245  1.00  0.00    -0.352 N 
ATOM     34  C   UNL     1       7.186  -3.561  -4.327  1.00  0.00     0.251 C 
ATOM     35  H   UNL     1       6.748  -3.182  -2.389  1.00  0.00     0.163 HD
ATOM     36  O   UNL     1       8.372  -3.383  -4.221  1.00  0.00    -0.269 OA
BRANCH  34  37
ATOM     37  C   UNL     1       6.597  -3.984  -5.630  1.00  0.00     0.039 A 
ATOM     38  C   UNL     1       6.979  -5.210  -6.179  1.00  0.00     0.014 A 
ATOM     39  C   UNL     1       5.583  -3.228  -6.222  1.00  0.00     0.014 A 
ATOM     40  C   UNL     1       6.260  -5.733  -7.259  1.00  0.00     0.010 A 
ATOM     41  C   UNL     1       4.833  -3.780  -7.260  1.00  0.00     0.010 A 
ATOM     42  C   UNL     1       5.138  -5.055  -7.766  1.00  0.00    -0.014 A 
BRANCH  42  43
ATOM     43  C   UNL     1       4.222  -5.697  -8.752  1.00  0.00     0.031 A 
ATOM     44  C   UNL     1       4.015  -5.095 -10.116  1.00  0.00     0.074 A 
ATOM     45  C   UNL     1       3.493  -6.771  -8.377  1.00  0.00     0.049 A 
ATOM     46  N   UNL     1       3.199  -5.474 -11.067  1.00  0.00    -0.248 NA
ATOM     47  C   UNL     1       4.807  -3.900 -10.447  1.00  0.00     0.031 C 
ATOM     48  C   UNL     1       3.542  -7.412  -7.059  1.00  0.00     0.029 A 
ATOM     49  N   UNL     1       2.549  -7.503  -9.057  1.00  0.00    -0.354 N 
ATOM     50  C   UNL     1       3.362  -4.556 -12.097  1.00  0.00     0.074 A 
ATOM     51  C   UNL     1       4.333  -3.583 -11.645  1.00  0.00     0.031 C 
ATOM     52  C   UNL     1       2.677  -8.439  -7.031  1.00  0.00     0.029 A 
ATOM     53  C   UNL     1       1.984  -8.515  -8.313  1.00  0.00     0.049 A 
ATOM     54  H   UNL     1       2.298  -7.320  -9.992  1.00  0.00     0.167 HD
ATOM     55  C   UNL     1       2.765  -4.533 -13.313  1.00  0.00     0.037 A 
ATOM     56  C   UNL     1       1.011  -9.397  -8.618  1.00  0.00     0.037 A 
ATOM     57  C   UNL     1       1.827  -5.522 -13.777  1.00  0.00     0.049 A 
ATOM     58  C   UNL     1       0.386  -9.363  -9.988  1.00  0.00     0.074 A 
ATOM     59  C   UNL     1       1.250  -5.634 -15.031  1.00  0.00     0.029 A 
ATOM     60  N   UNL     1       1.324  -6.562 -13.012  1.00  0.00    -0.354 N 
ATOM     61  N   UNL     1       0.637  -8.551 -10.986  1.00  0.00    -0.248 NA
ATOM     62  C   UNL     1      -0.648 -10.368 -10.278  1.00  0.00     0.031 C 
ATOM     63  C   UNL     1       0.366  -6.717 -15.012  1.00  0.00     0.029 A 
ATOM     64  C   UNL     1       0.426  -7.306 -13.759  1.00  0.00     0.049 A 
ATOM     65  H   UNL     1       1.569  -6.745 -12.076  1.00  0.00     0.167 HD
ATOM     66  C   UNL     1      -0.179  -8.970 -12.031  1.00  0.00     0.074 A 
ATOM     67  C   UNL     1      -0.930 -10.109 -11.547  1.00  0.00     0.031 C 
ATOM     68  C   UNL     1      -0.293  -8.457 -13.279  1.00  0.00     0.037 A 
BRANCH  55  69
ATOM     69  C   UNL     1       3.111  -3.411 -14.252  1.00  0.00     0.058 A 
ATOM     70  C   UNL     1       4.344  -3.367 -14.919  1.00  0.00     0.135 A 
ATOM     71  C   UNL     1       2.159  -2.426 -14.565  1.00  0.00     0.135 A 
ATOM     72  F   UNL     1       5.292  -4.278 -14.649  1.00  0.00    -0.206 F 
ATOM     73  C   UNL     1       4.626  -2.381 -15.859  1.00  0.00     0.059 A 
ATOM     74  C   UNL     1       2.411  -1.444 -15.518  1.00  0.00     0.059 A 
ATOM     75  F   UNL     1       0.963  -2.425 -13.955  1.00  0.00    -0.206 F 
ATOM     76  C   UNL     1       3.650  -1.427 -16.157  1.00  0.00     0.060 A 
BRANCH  76  77
ATOM     77  S   UNL     1       4.014  -0.185 -17.415  1.00  0.00     0.124 S 
ATOM     78  O   UNL     1       4.950   0.682 -16.706  1.00  0.00    -0.237 OA
ATOM     79  O   UNL     1       4.587  -0.988 -18.491  1.00  0.00    -0.237 OA
ATOM     80  O   UNL     1       2.710   0.403 -17.701  1.00  0.00    -0.744 OA
ENDBRANCH  76  77
ENDBRANCH  55  69
BRANCH  56  81
ATOM     81  C   UNL     1       0.561 -10.402  -7.616  1.00  0.00     0.058 A 
ATOM     82  C   UNL     1       0.837 -11.767  -7.788  1.00  0.00     0.135 A 
ATOM     83  C   UNL     1      -0.185 -10.024  -6.489  1.00  0.00     0.135 A 
ATOM     84  F   UNL     1       1.541 -12.179  -8.853  1.00  0.00    -0.206 F 
ATOM     85  C   UNL     1       0.359 -12.726  -6.900  1.00  0.00     0.059 A 
ATOM     86  C   UNL     1      -0.651 -10.962  -5.572  1.00  0.00     0.059 A 
ATOM     87  F   UNL     1      -0.460  -8.730  -6.266  1.00  0.00    -0.206 F 
ATOM     88  C   UNL     1      -0.391 -12.314  -5.798  1.00  0.00     0.060 A 
BRANCH  88  89
ATOM     89  S   UNL     1      -1.003 -13.562  -4.645  1.00  0.00     0.124 S 
ATOM     90  O   UNL     1      -2.126 -14.120  -5.388  1.00  0.00    -0.237 OA
ATOM     91  O   UNL     1       0.157 -14.435  -4.489  1.00  0.00    -0.237 OA
ATOM     92  O   UNL     1      -1.351 -12.780  -3.462  1.00  0.00    -0.744 OA
ENDBRANCH  88  89
ENDBRANCH  56  81
BRANCH  68  93
ATOM     93  C   UNL     1      -1.219  -9.148 -14.240  1.00  0.00     0.058 A 
ATOM     94  C   UNL     1      -2.612  -9.018 -14.145  1.00  0.00     0.135 A 
ATOM     95  C   UNL     1      -0.699  -9.886 -15.315  1.00  0.00     0.135 A 
ATOM     96  F   UNL     1      -3.160  -8.330 -13.131  1.00  0.00    -0.206 F 
ATOM     97  C   UNL     1      -3.460  -9.603 -15.081  1.00  0.00     0.059 A 
ATOM     98  C   UNL     1      -1.526 -10.460 -16.275  1.00  0.00     0.059 A 
ATOM     99  F   UNL     1       0.628 -10.034 -15.454  1.00  0.00    -0.206 F 
ATOM    100  C   UNL     1      -2.907 -10.317 -16.146  1.00  0.00     0.060 A 
BRANCH 100 101
ATOM    101  S   UNL     1      -4.014 -11.020 -17.387  1.00  0.00     0.124 S 
ATOM    102  O   UNL     1      -4.556 -12.175 -16.679  1.00  0.00    -0.237 OA
ATOM    103  O   UNL     1      -4.951  -9.927 -17.628  1.00  0.00    -0.237 OA
ATOM    104  O   UNL     1      -3.123 -11.328 -18.502  1.00  0.00    -0.744 OA
ENDBRANCH 100 101
ENDBRANCH  68  93
ENDBRANCH  42  43
ENDBRANCH  34  37
ENDBRANCH  32  33
ENDBRANCH  31  32
ENDBRANCH   1  31
TORSDOF 18
