REMARK SMILES CCC[NH2+][C@@]1(C(=O)NCCCCNC(=O)c2ccc(-c3c4nc(c(-c5c(F)cc(S(=O)(=O)[O-])cc5F)c5ccc([nH]5)c(-c5c(F)cc(S(=O)(=O)[O-])cc5F)c5nc(c(-c6c(F)cc(S(=O)(=O)[O-])cc6F)c6ccc3[nH]6)C=C5)C=C4)cc2)CC[C@@H](SC2CCCC2)C1
REMARK SMILES IDX 10 1 9 2 8 3 6 4 7 5 5 7 82 8 91 9 83 10 84 11 4 12 3 15
REMARK SMILES IDX 2 16 1 17 85 18 86 19 87 20 90 21 88 22 89 23 11 24 12 25
REMARK SMILES IDX 13 26 14 27 15 29 16 30 17 31 81 32 18 33 80 34 19 35 20 36
REMARK SMILES IDX 21 37 74 38 22 39 79 40 73 41 75 42 23 43 78 44 72 45 71 46
REMARK SMILES IDX 24 48 58 49 37 50 57 51 38 52 41 53 56 54 76 55 39 56 40 57
REMARK SMILES IDX 55 59 77 60 42 61 25 62 26 63 35 64 27 65 28 66 34 67 36 68
REMARK SMILES IDX 29 69 30 70 31 71 32 72 33 73 59 74 60 75 69 76 61 77 62 78
REMARK SMILES IDX 68 79 70 80 63 81 64 82 65 83 66 84 67 85 43 86 44 87 53 88
REMARK SMILES IDX 45 89 46 90 52 91 54 92 47 93 48 94 49 95 50 96 51 97
REMARK H PARENT 8 6 4 13 4 14 13 28 75 47 41 58
REMARK Flexibility Score: inf
ROOT
ATOM      1  C   UNL     1       2.853  -4.401   6.208  1.00  0.00     0.023 C 
ENDROOT
BRANCH   1   2
ATOM      2  C   UNL     1       1.406  -4.503   5.729  1.00  0.00     0.116 C 
BRANCH   2   3
ATOM      3  N   UNL     1       0.904  -3.232   5.276  1.00  0.00    -0.351 N 
ATOM      4  C   UNL     1       0.785  -2.674   4.050  1.00  0.00     0.281 C 
ATOM      5  O   UNL     1       0.435  -1.481   4.064  1.00  0.00    -0.268 OA
ATOM      6  H   UNL     1       0.584  -2.652   6.005  1.00  0.00     0.163 HD
BRANCH   4   7
ATOM      7  C   UNL     1       1.093  -3.385   2.654  1.00  0.00     0.176 C 
ATOM      8  C   UNL     1       0.328  -4.706   2.446  1.00  0.00     0.080 C 
ATOM      9  C   UNL     1       2.589  -3.729   2.519  1.00  0.00     0.093 C 
ATOM     10  C   UNL     1       1.321  -5.866   2.532  1.00  0.00     0.022 C 
ATOM     11  C   UNL     1       2.713  -5.253   2.581  1.00  0.00     0.054 C 
BRANCH   7  12
ATOM     12  N   UNL     1       0.559  -2.396   1.667  1.00  0.00    -0.334 N 
ATOM     13  H   UNL     1      -0.442  -2.576   1.581  1.00  0.00     0.347 HD
ATOM     14  H   UNL     1       0.842  -1.498   2.058  1.00  0.00     0.347 HD
BRANCH  12  15
ATOM     15  C   UNL     1       1.093  -2.355   0.320  1.00  0.00     0.261 C 
BRANCH  15  16
ATOM     16  C   UNL     1       0.418  -1.256  -0.511  1.00  0.00     0.058 C 
ATOM     17  C   UNL     1       0.862   0.146  -0.109  1.00  0.00     0.010 C 
ENDBRANCH  15  16
ENDBRANCH  12  15
ENDBRANCH   7  12
BRANCH  11  18
ATOM     18  S   UNL     1       4.035  -6.028   1.569  1.00  0.00    -0.155 SA
BRANCH  18  19
ATOM     19  C   UNL     1       3.526  -6.002  -0.186  1.00  0.00     0.047 C 
ATOM     20  C   UNL     1       2.122  -6.426  -0.584  1.00  0.00     0.014 C 
ATOM     21  C   UNL     1       3.742  -4.696  -0.944  1.00  0.00     0.014 C 
ATOM     22  C   UNL     1       2.098  -6.123  -2.074  1.00  0.00     0.001 C 
ATOM     23  C   UNL     1       2.865  -4.809  -2.200  1.00  0.00     0.001 C 
ENDBRANCH  18  19
ENDBRANCH  11  18
ENDBRANCH   4   7
ENDBRANCH   2   3
ENDBRANCH   1   2
BRANCH   1  24
ATOM     24  C   UNL     1       3.001  -4.200   7.715  1.00  0.00     0.023 C 
BRANCH  24  25
ATOM     25  C   UNL     1       2.354  -5.280   8.577  1.00  0.00     0.116 C 
BRANCH  25  26
ATOM     26  N   UNL     1       2.756  -6.637   8.233  1.00  0.00    -0.352 N 
ATOM     27  C   UNL     1       2.756  -7.741   9.054  1.00  0.00     0.251 C 
ATOM     28  H   UNL     1       3.062  -6.781   7.309  1.00  0.00     0.163 HD
ATOM     29  O   UNL     1       3.194  -8.817   8.659  1.00  0.00    -0.269 OA
BRANCH  27  30
ATOM     30  C   UNL     1       2.268  -7.586  10.438  1.00  0.00     0.039 A 
ATOM     31  C   UNL     1       3.111  -7.939  11.493  1.00  0.00     0.014 A 
ATOM     32  C   UNL     1       1.023  -7.002  10.684  1.00  0.00     0.014 A 
ATOM     33  C   UNL     1       2.732  -7.634  12.801  1.00  0.00     0.010 A 
ATOM     34  C   UNL     1       0.685  -6.628  11.979  1.00  0.00     0.010 A 
ATOM     35  C   UNL     1       1.535  -6.940  13.050  1.00  0.00    -0.014 A 
BRANCH  35  36
ATOM     36  C   UNL     1       1.160  -6.532  14.426  1.00  0.00     0.031 A 
ATOM     37  C   UNL     1      -0.078  -7.097  15.067  1.00  0.00     0.074 A 
ATOM     38  C   UNL     1       1.900  -5.609  15.073  1.00  0.00     0.049 A 
ATOM     39  N   UNL     1      -0.589  -6.840  16.242  1.00  0.00    -0.248 NA
ATOM     40  C   UNL     1      -0.863  -8.052  14.267  1.00  0.00     0.031 C 
ATOM     41  C   UNL     1       3.080  -4.934  14.527  1.00  0.00     0.029 A 
ATOM     42  N   UNL     1       1.767  -5.075  16.329  1.00  0.00    -0.354 N 
ATOM     43  C   UNL     1      -1.758  -7.587  16.317  1.00  0.00     0.074 A 
ATOM     44  C   UNL     1      -1.914  -8.259  15.046  1.00  0.00     0.031 C 
ATOM     45  C   UNL     1       3.580  -4.101  15.454  1.00  0.00     0.029 A 
ATOM     46  C   UNL     1       2.744  -4.163  16.649  1.00  0.00     0.049 A 
ATOM     47  H   UNL     1       1.039  -5.322  16.945  1.00  0.00     0.167 HD
ATOM     48  C   UNL     1      -2.610  -7.725  17.361  1.00  0.00     0.037 A 
ATOM     49  C   UNL     1       2.948  -3.463  17.782  1.00  0.00     0.037 A 
ATOM     50  C   UNL     1      -2.429  -7.083  18.636  1.00  0.00     0.049 A 
ATOM     51  C   UNL     1       2.014  -3.666  18.943  1.00  0.00     0.074 A 
ATOM     52  C   UNL     1      -3.197  -7.206  19.780  1.00  0.00     0.029 A 
ATOM     53  N   UNL     1      -1.402  -6.200  18.936  1.00  0.00    -0.354 N 
ATOM     54  N   UNL     1       0.951  -4.432  19.021  1.00  0.00    -0.248 NA
ATOM     55  C   UNL     1       2.312  -2.921  20.174  1.00  0.00     0.031 C 
ATOM     56  C   UNL     1      -2.651  -6.375  20.764  1.00  0.00     0.029 A 
ATOM     57  C   UNL     1      -1.521  -5.763  20.245  1.00  0.00     0.049 A 
ATOM     58  H   UNL     1      -0.693  -5.924  18.311  1.00  0.00     0.167 HD
ATOM     59  C   UNL     1       0.469  -4.281  20.317  1.00  0.00     0.074 A 
ATOM     60  C   UNL     1       1.364  -3.361  20.990  1.00  0.00     0.031 C 
ATOM     61  C   UNL     1      -0.616  -4.851  20.897  1.00  0.00     0.037 A 
BRANCH  48  62
ATOM     62  C   UNL     1      -3.802  -8.620  17.167  1.00  0.00     0.058 A 
ATOM     63  C   UNL     1      -3.664 -10.015  17.067  1.00  0.00     0.135 A 
ATOM     64  C   UNL     1      -5.097  -8.084  17.094  1.00  0.00     0.135 A 
ATOM     65  F   UNL     1      -2.446 -10.579  17.112  1.00  0.00    -0.206 F 
ATOM     66  C   UNL     1      -4.763 -10.842  16.867  1.00  0.00     0.059 A 
ATOM     67  C   UNL     1      -6.215  -8.896  16.922  1.00  0.00     0.059 A 
ATOM     68  F   UNL     1      -5.286  -6.758  17.181  1.00  0.00    -0.206 F 
ATOM     69  C   UNL     1      -6.035 -10.273  16.792  1.00  0.00     0.060 A 
BRANCH  69  70
ATOM     70  S   UNL     1      -7.452 -11.360  16.529  1.00  0.00     0.124 S 
ATOM     71  O   UNL     1      -7.313 -11.680  15.112  1.00  0.00    -0.237 OA
ATOM     72  O   UNL     1      -7.184 -12.456  17.455  1.00  0.00    -0.237 OA
ATOM     73  O   UNL     1      -8.594 -10.518  16.874  1.00  0.00    -0.744 OA
ENDBRANCH  69  70
ENDBRANCH  48  62
BRANCH  49  74
ATOM     74  C   UNL     1       4.110  -2.542  17.889  1.00  0.00     0.058 A 
ATOM     75  C   UNL     1       5.216  -2.870  18.688  1.00  0.00     0.135 A 
ATOM     76  C   UNL     1       4.148  -1.328  17.186  1.00  0.00     0.135 A 
ATOM     77  F   UNL     1       5.224  -4.018  19.382  1.00  0.00    -0.206 F 
ATOM     78  C   UNL     1       6.311  -2.020  18.803  1.00  0.00     0.059 A 
ATOM     79  C   UNL     1       5.242  -0.472  17.267  1.00  0.00     0.059 A 
ATOM     80  F   UNL     1       3.124  -0.978  16.392  1.00  0.00    -0.206 F 
ATOM     81  C   UNL     1       6.315  -0.822  18.086  1.00  0.00     0.060 A 
BRANCH  81  82
ATOM     82  S   UNL     1       7.763   0.252  18.201  1.00  0.00     0.124 S 
ATOM     83  O   UNL     1       7.583   0.846  19.520  1.00  0.00    -0.237 OA
ATOM     84  O   UNL     1       8.863  -0.699  18.073  1.00  0.00    -0.237 OA
ATOM     85  O   UNL     1       7.595   1.160  17.070  1.00  0.00    -0.744 OA
ENDBRANCH  81  82
ENDBRANCH  49  74
BRANCH  61  86
ATOM     86  C   UNL     1      -0.875  -4.521  22.340  1.00  0.00     0.058 A 
ATOM     87  C   UNL     1      -1.376  -3.269  22.729  1.00  0.00     0.135 A 
ATOM     88  C   UNL     1      -0.654  -5.481  23.339  1.00  0.00     0.135 A 
ATOM     89  F   UNL     1      -1.599  -2.315  21.811  1.00  0.00    -0.206 F 
ATOM     90  C   UNL     1      -1.622  -2.970  24.064  1.00  0.00     0.059 A 
ATOM     91  C   UNL     1      -0.917  -5.213  24.678  1.00  0.00     0.059 A 
ATOM     92  F   UNL     1      -0.187  -6.698  23.017  1.00  0.00    -0.206 F 
ATOM     93  C   UNL     1      -1.387  -3.949  25.033  1.00  0.00     0.060 A 
BRANCH  93  94
ATOM     94  S   UNL     1      -1.728  -3.558  26.762  1.00  0.00     0.124 S 
ATOM     95  O   UNL     1      -0.574  -2.735  27.109  1.00  0.00    -0.237 OA
ATOM     96  O   UNL     1      -3.006  -2.857  26.680  1.00  0.00    -0.237 OA
ATOM     97  O   UNL     1      -1.781  -4.870  27.401  1.00  0.00    -0.744 OA
ENDBRANCH  93  94
ENDBRANCH  61  86
ENDBRANCH  35  36
ENDBRANCH  27  30
ENDBRANCH  25  26
ENDBRANCH  24  25
ENDBRANCH   1  24
TORSDOF 19
