REMARK SMILES O=C(NCCCCNC(=O)c1ccc(-c2c3nc(c(-c4c(F)cc(S(=O)(=O)[O-])cc4F)c4ccc([nH]4)c(-c4c(F)cc(S(=O)(=O)[O-])cc4F)c4nc(c(-c5c(F)cc(S(=O)(=O)[O-])cc5F)c5ccc2[nH]5)C=C4)C=C3)cc1)C1=Cc2cc(Cl)cc(-c3ccccc3)c2O[C@@H]1C(F)(F)F
REMARK SMILES IDX 6 1 5 2 4 3 3 4 1 5 2 6 77 8 78 9 93 10 79 11 92 12 80 13
REMARK SMILES IDX 91 14 81 15 84 16 82 17 83 18 94 19 95 20 96 21 97 22 85 23
REMARK SMILES IDX 86 24 90 25 87 26 89 27 88 28 7 29 8 30 9 31 10 33 11 34
REMARK SMILES IDX 12 35 76 36 13 37 75 38 14 39 15 40 16 41 69 42 17 43 74 44
REMARK SMILES IDX 68 45 70 46 18 47 73 48 67 49 66 50 19 52 53 53 32 54 52 55
REMARK SMILES IDX 33 56 36 57 51 58 71 59 34 60 35 61 50 63 72 64 37 65 20 66
REMARK SMILES IDX 21 67 30 68 22 69 23 70 29 71 31 72 24 73 25 74 26 75 27 76
REMARK SMILES IDX 28 77 54 78 55 79 64 80 56 81 57 82 63 83 65 84 58 85 59 86
REMARK SMILES IDX 60 87 61 88 62 89 38 90 39 91 48 92 40 93 41 94 47 95 49 96
REMARK SMILES IDX 42 97 43 98 44 99 45 100 46 101
REMARK H PARENT 3 7 8 32 70 51 36 62
REMARK Flexibility Score: inf
ROOT
ATOM      1  C   UNL     1       4.117  -1.308   4.257  1.00  0.00     0.023 C 
ENDROOT
BRANCH   1   2
ATOM      2  C   UNL     1       4.337  -0.275   3.151  1.00  0.00     0.023 C 
BRANCH   2   3
ATOM      3  C   UNL     1       3.770  -0.667   1.787  1.00  0.00     0.116 C 
BRANCH   3   4
ATOM      4  N   UNL     1       2.605   0.117   1.385  1.00  0.00    -0.352 N 
ATOM      5  O   UNL     1       1.161   1.157   0.002  1.00  0.00    -0.270 OA
ATOM      6  C   UNL     1       2.301   0.749   0.203  1.00  0.00     0.251 C 
ATOM      7  H   UNL     1       1.917   0.210   2.083  1.00  0.00     0.163 HD
BRANCH   6   8
ATOM      8  C   UNL     1       3.299   0.777  -0.896  1.00  0.00     0.067 C 
ATOM      9  C   UNL     1       4.524   1.308  -0.797  1.00  0.00     0.025 C 
ATOM     10  C   UNL     1       3.091  -0.243  -1.967  1.00  0.00     0.314 C 
ATOM     11  C   UNL     1       5.607   0.319  -0.932  1.00  0.00     0.019 A 
ATOM     12  O   UNL     1       4.041  -1.323  -1.835  1.00  0.00    -0.475 OA
ATOM     13  C   UNL     1       6.835   0.603  -0.325  1.00  0.00     0.032 A 
ATOM     14  C   UNL     1       5.272  -1.016  -1.288  1.00  0.00     0.135 A 
ATOM     15  C   UNL     1       7.702  -0.441  -0.027  1.00  0.00     0.042 A 
ATOM     16  C   UNL     1       6.107  -2.090  -0.902  1.00  0.00     0.026 A 
ATOM     17  Cl  UNL     1       9.153  -0.117   0.841  1.00  0.00    -0.084 Cl
ATOM     18  C   UNL     1       7.344  -1.762  -0.302  1.00  0.00     0.033 A 
BRANCH  10  19
ATOM     19  C   UNL     1       3.134   0.442  -3.356  1.00  0.00     0.429 C 
ATOM     20  F   UNL     1       2.803  -0.417  -4.348  1.00  0.00    -0.167 F 
ATOM     21  F   UNL     1       2.259   1.478  -3.430  1.00  0.00    -0.167 F 
ATOM     22  F   UNL     1       4.355   0.947  -3.660  1.00  0.00    -0.167 F 
ENDBRANCH  10  19
BRANCH  16  23
ATOM     23  C   UNL     1       5.667  -3.513  -0.910  1.00  0.00    -0.015 A 
ATOM     24  C   UNL     1       5.909  -4.332   0.215  1.00  0.00     0.009 A 
ATOM     25  C   UNL     1       4.987  -4.102  -1.986  1.00  0.00     0.009 A 
ATOM     26  C   UNL     1       5.524  -5.675   0.251  1.00  0.00     0.001 A 
ATOM     27  C   UNL     1       4.579  -5.443  -1.944  1.00  0.00     0.001 A 
ATOM     28  C   UNL     1       4.854  -6.230  -0.829  1.00  0.00     0.000 A 
ENDBRANCH  16  23
ENDBRANCH   6   8
ENDBRANCH   3   4
ENDBRANCH   2   3
ENDBRANCH   1   2
BRANCH   1  29
ATOM     29  C   UNL     1       4.671  -2.705   3.987  1.00  0.00     0.116 C 
BRANCH  29  30
ATOM     30  N   UNL     1       6.103  -2.760   3.742  1.00  0.00    -0.352 N 
ATOM     31  C   UNL     1       6.960  -3.815   3.964  1.00  0.00     0.251 C 
ATOM     32  H   UNL     1       6.510  -1.943   3.373  1.00  0.00     0.163 HD
ATOM     33  O   UNL     1       8.164  -3.687   3.727  1.00  0.00    -0.269 OA
BRANCH  31  34
ATOM     34  C   UNL     1       6.446  -5.091   4.513  1.00  0.00     0.039 A 
ATOM     35  C   UNL     1       7.135  -5.701   5.565  1.00  0.00     0.014 A 
ATOM     36  C   UNL     1       5.275  -5.673   4.017  1.00  0.00     0.014 A 
ATOM     37  C   UNL     1       6.605  -6.843   6.171  1.00  0.00     0.010 A 
ATOM     38  C   UNL     1       4.718  -6.776   4.654  1.00  0.00     0.010 A 
ATOM     39  C   UNL     1       5.373  -7.363   5.743  1.00  0.00    -0.014 A 
BRANCH  39  40
ATOM     40  C   UNL     1       4.728  -8.496   6.445  1.00  0.00     0.031 A 
ATOM     41  C   UNL     1       4.589  -9.827   5.762  1.00  0.00     0.074 A 
ATOM     42  C   UNL     1       4.195  -8.287   7.665  1.00  0.00     0.049 A 
ATOM     43  N   UNL     1       4.025 -10.922   6.199  1.00  0.00    -0.248 NA
ATOM     44  C   UNL     1       5.134  -9.935   4.398  1.00  0.00     0.031 C 
ATOM     45  C   UNL     1       4.204  -7.008   8.381  1.00  0.00     0.029 A 
ATOM     46  N   UNL     1       3.526  -9.133   8.510  1.00  0.00    -0.354 N 
ATOM     47  C   UNL     1       4.166 -11.854   5.178  1.00  0.00     0.074 A 
ATOM     48  C   UNL     1       4.803 -11.176   4.071  1.00  0.00     0.031 C 
ATOM     49  C   UNL     1       3.573  -7.157   9.558  1.00  0.00     0.029 A 
ATOM     50  C   UNL     1       3.101  -8.532   9.672  1.00  0.00     0.049 A 
ATOM     51  H   UNL     1       3.364 -10.082   8.304  1.00  0.00     0.167 HD
ATOM     52  C   UNL     1       3.825 -13.165   5.181  1.00  0.00     0.037 A 
ATOM     53  C   UNL     1       2.408  -9.038  10.710  1.00  0.00     0.037 A 
ATOM     54  C   UNL     1       3.181 -13.821   6.291  1.00  0.00     0.049 A 
ATOM     55  C   UNL     1       2.043 -10.499  10.688  1.00  0.00     0.074 A 
ATOM     56  C   UNL     1       2.807 -15.148   6.410  1.00  0.00     0.029 A 
ATOM     57  N   UNL     1       2.818 -13.196   7.476  1.00  0.00    -0.354 N 
ATOM     58  N   UNL     1       2.250 -11.387   9.743  1.00  0.00    -0.248 NA
ATOM     59  C   UNL     1       1.377 -11.035  11.882  1.00  0.00     0.031 C 
ATOM     60  C   UNL     1       2.186 -15.317   7.652  1.00  0.00     0.029 A 
ATOM     61  C   UNL     1       2.224 -14.109   8.330  1.00  0.00     0.049 A 
ATOM     62  H   UNL     1       2.961 -12.243   7.679  1.00  0.00     0.167 HD
ATOM     63  C   UNL     1       1.782 -12.595  10.249  1.00  0.00     0.074 A 
ATOM     64  C   UNL     1       1.291 -12.324  11.584  1.00  0.00     0.031 C 
ATOM     65  C   UNL     1       1.763 -13.819   9.665  1.00  0.00     0.037 A 
BRANCH  52  66
ATOM     66  C   UNL     1       4.170 -13.984   3.967  1.00  0.00     0.058 A 
ATOM     67  C   UNL     1       5.504 -14.298   3.657  1.00  0.00     0.135 A 
ATOM     68  C   UNL     1       3.166 -14.519   3.144  1.00  0.00     0.135 A 
ATOM     69  F   UNL     1       6.506 -13.798   4.398  1.00  0.00    -0.206 F 
ATOM     70  C   UNL     1       5.831 -15.102   2.570  1.00  0.00     0.059 A 
ATOM     71  C   UNL     1       3.469 -15.349   2.067  1.00  0.00     0.059 A 
ATOM     72  F   UNL     1       1.875 -14.247   3.389  1.00  0.00    -0.206 F 
ATOM     73  C   UNL     1       4.805 -15.629   1.785  1.00  0.00     0.060 A 
BRANCH  73  74
ATOM     74  S   UNL     1       5.249 -16.705   0.405  1.00  0.00     0.124 S 
ATOM     75  O   UNL     1       5.850 -15.753  -0.525  1.00  0.00    -0.237 OA
ATOM     76  O   UNL     1       6.170 -17.648   1.030  1.00  0.00    -0.237 OA
ATOM     77  O   UNL     1       3.969 -17.266  -0.015  1.00  0.00    -0.744 OA
ENDBRANCH  73  74
ENDBRANCH  52  66
BRANCH  53  78
ATOM     78  C   UNL     1       2.042  -8.175  11.866  1.00  0.00     0.058 A 
ATOM     79  C   UNL     1       2.619  -8.370  13.130  1.00  0.00     0.135 A 
ATOM     80  C   UNL     1       1.092  -7.150  11.736  1.00  0.00     0.135 A 
ATOM     81  F   UNL     1       3.538  -9.332  13.306  1.00  0.00    -0.206 F 
ATOM     82  C   UNL     1       2.234  -7.615  14.233  1.00  0.00     0.059 A 
ATOM     83  C   UNL     1       0.712  -6.361  12.817  1.00  0.00     0.059 A 
ATOM     84  F   UNL     1       0.529  -6.901  10.542  1.00  0.00    -0.206 F 
ATOM     85  C   UNL     1       1.273  -6.617  14.068  1.00  0.00     0.060 A 
BRANCH  85  86
ATOM     86  S   UNL     1       0.776  -5.644  15.506  1.00  0.00     0.124 S 
ATOM     87  O   UNL     1      -0.032  -6.607  16.245  1.00  0.00    -0.237 OA
ATOM     88  O   UNL     1       2.063  -5.298  16.102  1.00  0.00    -0.237 OA
ATOM     89  O   UNL     1       0.046  -4.526  14.917  1.00  0.00    -0.744 OA
ENDBRANCH  85  86
ENDBRANCH  53  78
BRANCH  65  90
ATOM     90  C   UNL     1       1.259 -14.968  10.495  1.00  0.00     0.058 A 
ATOM     91  C   UNL     1      -0.095 -15.102  10.839  1.00  0.00     0.135 A 
ATOM     92  C   UNL     1       2.150 -15.960  10.936  1.00  0.00     0.135 A 
ATOM     93  F   UNL     1      -0.988 -14.180  10.445  1.00  0.00    -0.206 F 
ATOM     94  C   UNL     1      -0.541 -16.156  11.630  1.00  0.00     0.059 A 
ATOM     95  C   UNL     1       1.720 -17.041  11.698  1.00  0.00     0.059 A 
ATOM     96  F   UNL     1       3.453 -15.888  10.622  1.00  0.00    -0.206 F 
ATOM     97  C   UNL     1       0.376 -17.119  12.058  1.00  0.00     0.060 A 
BRANCH  97  98
ATOM     98  S   UNL     1      -0.215 -18.482  13.082  1.00  0.00     0.124 S 
ATOM     99  O   UNL     1      -0.422 -17.816  14.364  1.00  0.00    -0.237 OA
ATOM    100  O   UNL     1      -1.425 -18.898  12.381  1.00  0.00    -0.237 OA
ATOM    101  O   UNL     1       0.886 -19.439  13.042  1.00  0.00    -0.744 OA
ENDBRANCH  97  98
ENDBRANCH  65  90
ENDBRANCH  39  40
ENDBRANCH  31  34
ENDBRANCH  29  30
ENDBRANCH   1  29
TORSDOF 16
