REMARK SMILES Cc1ccc2nc(C(=O)NCCCCNC(=O)c3ccc(-c4c5nc(c(-c6c(F)cc(S(=O)(=O)[O-])cc6F)c6ccc([nH]6)c(-c6c(F)cc(S(=O)(=O)[O-])cc6F)c6nc(c(-c7c(F)cc(S(=O)(=O)[O-])cc7F)c7ccc4[nH]7)C=C6)C=C5)cc3)cc(N3CCOCC3)c2c1
REMARK SMILES IDX 13 1 12 2 11 3 10 4 8 5 9 6 7 8 1 9 2 10 3 11 93 12 4 13
REMARK SMILES IDX 92 14 5 15 85 16 6 17 84 18 86 19 87 20 91 21 88 22 90 23
REMARK SMILES IDX 89 24 14 25 15 26 16 27 17 29 18 30 19 31 83 32 20 33 82 34
REMARK SMILES IDX 21 35 22 36 23 37 76 38 24 39 81 40 75 41 77 42 25 43 80 44
REMARK SMILES IDX 74 45 73 46 26 48 60 49 39 50 59 51 40 52 43 53 58 54 78 55
REMARK SMILES IDX 41 56 42 57 57 59 79 60 44 61 27 62 28 63 37 64 29 65 30 66
REMARK SMILES IDX 36 67 38 68 31 69 32 70 33 71 34 72 35 73 61 74 62 75 71 76
REMARK SMILES IDX 63 77 64 78 70 79 72 80 65 81 66 82 67 83 68 84 69 85 45 86
REMARK SMILES IDX 46 87 55 88 47 89 48 90 54 91 56 92 49 93 50 94 51 95 52 96
REMARK SMILES IDX 53 97
REMARK H PARENT 10 7 15 28 77 47 43 58
REMARK Flexibility Score: inf
ROOT
ATOM      1  C   UNL     1      -7.085  -1.853   1.382  1.00  0.00     0.023 C 
ENDROOT
BRANCH   1   2
ATOM      2  C   UNL     1      -5.649  -2.000   0.868  1.00  0.00     0.023 C 
BRANCH   2   3
ATOM      3  C   UNL     1      -5.359  -1.226  -0.421  1.00  0.00     0.116 C 
BRANCH   3   4
ATOM      4  N   UNL     1      -5.079   0.165  -0.131  1.00  0.00    -0.351 N 
ATOM      5  C   UNL     1      -3.914   0.855   0.124  1.00  0.00     0.269 C 
ATOM      6  O   UNL     1      -4.042   2.065   0.331  1.00  0.00    -0.268 OA
ATOM      7  H   UNL     1      -5.884   0.732  -0.113  1.00  0.00     0.163 HD
BRANCH   5   8
ATOM      8  C   UNL     1      -2.535   0.239   0.132  1.00  0.00     0.130 A 
ATOM      9  C   UNL     1       3.898  -0.440  -0.172  1.00  0.00     0.044 C 
ATOM     10  C   UNL     1       2.461  -0.021  -0.118  1.00  0.00    -0.050 A 
ATOM     11  C   UNL     1       2.091   1.319  -0.164  1.00  0.00     0.005 A 
ATOM     12  C   UNL     1       1.456  -0.989  -0.023  1.00  0.00     0.016 A 
ATOM     13  C   UNL     1       0.739   1.671  -0.123  1.00  0.00     0.029 A 
ATOM     14  C   UNL     1       0.086  -0.640   0.067  1.00  0.00     0.024 A 
ATOM     15  C   UNL     1      -0.266   0.721  -0.015  1.00  0.00     0.073 A 
ATOM     16  C   UNL     1      -0.959  -1.586   0.218  1.00  0.00     0.049 A 
ATOM     17  N   UNL     1      -1.534   1.144  -0.001  1.00  0.00    -0.242 NA
ATOM     18  C   UNL     1      -2.273  -1.111   0.286  1.00  0.00     0.060 A 
BRANCH  16  19
ATOM     19  N   UNL     1      -0.694  -2.953   0.298  1.00  0.00    -0.366 N 
ATOM     20  C   UNL     1      -0.118  -3.471   1.552  1.00  0.00     0.145 C 
ATOM     21  C   UNL     1      -1.565  -3.919  -0.392  1.00  0.00     0.145 C 
ATOM     22  C   UNL     1       0.599  -4.799   1.257  1.00  0.00     0.181 C 
ATOM     23  C   UNL     1      -0.796  -5.235  -0.601  1.00  0.00     0.181 C 
ATOM     24  O   UNL     1      -0.284  -5.753   0.640  1.00  0.00    -0.378 OA
ENDBRANCH  16  19
ENDBRANCH   5   8
ENDBRANCH   3   4
ENDBRANCH   2   3
ENDBRANCH   1   2
BRANCH   1  25
ATOM     25  C   UNL     1      -8.158  -2.433   0.465  1.00  0.00     0.116 C 
BRANCH  25  26
ATOM     26  N   UNL     1      -7.965  -3.845   0.175  1.00  0.00    -0.352 N 
ATOM     27  C   UNL     1      -8.913  -4.784  -0.158  1.00  0.00     0.251 C 
ATOM     28  H   UNL     1      -7.037  -4.170   0.223  1.00  0.00     0.163 HD
ATOM     29  O   UNL     1      -8.598  -5.961  -0.280  1.00  0.00    -0.269 OA
BRANCH  27  30
ATOM     30  C   UNL     1     -10.320  -4.361  -0.315  1.00  0.00     0.039 A 
ATOM     31  C   UNL     1     -11.309  -5.048   0.393  1.00  0.00     0.014 A 
ATOM     32  C   UNL     1     -10.653  -3.268  -1.119  1.00  0.00     0.014 A 
ATOM     33  C   UNL     1     -12.628  -4.594   0.349  1.00  0.00     0.010 A 
ATOM     34  C   UNL     1     -11.957  -2.782  -1.115  1.00  0.00     0.010 A 
ATOM     35  C   UNL     1     -12.955  -3.436  -0.376  1.00  0.00    -0.014 A 
BRANCH  35  36
ATOM     36  C   UNL     1     -14.332  -2.885  -0.365  1.00  0.00     0.031 A 
ATOM     37  C   UNL     1     -15.143  -2.861  -1.631  1.00  0.00     0.074 A 
ATOM     38  C   UNL     1     -14.821  -2.342   0.767  1.00  0.00     0.049 A 
ATOM     39  N   UNL     1     -16.328  -2.349  -1.841  1.00  0.00    -0.248 NA
ATOM     40  C   UNL     1     -14.530  -3.466  -2.825  1.00  0.00     0.031 C 
ATOM     41  C   UNL     1     -14.107  -2.259   2.044  1.00  0.00     0.029 A 
ATOM     42  N   UNL     1     -16.029  -1.743   1.024  1.00  0.00    -0.354 N 
ATOM     43  C   UNL     1     -16.594  -2.551  -3.190  1.00  0.00     0.074 A 
ATOM     44  C   UNL     1     -15.431  -3.196  -3.759  1.00  0.00     0.031 C 
ATOM     45  C   UNL     1     -14.896  -1.660   2.952  1.00  0.00     0.029 A 
ATOM     46  C   UNL     1     -16.157  -1.290   2.317  1.00  0.00     0.049 A 
ATOM     47  H   UNL     1     -16.737  -1.647   0.348  1.00  0.00     0.167 HD
ATOM     48  C   UNL     1     -17.715  -2.245  -3.885  1.00  0.00     0.037 A 
ATOM     49  C   UNL     1     -17.174  -0.644   2.918  1.00  0.00     0.037 A 
ATOM     50  C   UNL     1     -18.884  -1.639  -3.305  1.00  0.00     0.049 A 
ATOM     51  C   UNL     1     -18.419  -0.340   2.129  1.00  0.00     0.074 A 
ATOM     52  C   UNL     1     -20.095  -1.353  -3.910  1.00  0.00     0.029 A 
ATOM     53  N   UNL     1     -18.991  -1.232  -1.984  1.00  0.00    -0.354 N 
ATOM     54  N   UNL     1     -18.678  -0.597   0.869  1.00  0.00    -0.248 NA
ATOM     55  C   UNL     1     -19.511   0.335   2.843  1.00  0.00     0.031 C 
ATOM     56  C   UNL     1     -20.925  -0.746  -2.962  1.00  0.00     0.029 A 
ATOM     57  C   UNL     1     -20.244  -0.686  -1.757  1.00  0.00     0.049 A 
ATOM     58  H   UNL     1     -18.282  -1.318  -1.307  1.00  0.00     0.167 HD
ATOM     59  C   UNL     1     -19.972  -0.141   0.647  1.00  0.00     0.074 A 
ATOM     60  C   UNL     1     -20.446   0.401   1.905  1.00  0.00     0.031 C 
ATOM     61  C   UNL     1     -20.702  -0.167  -0.494  1.00  0.00     0.037 A 
BRANCH  48  62
ATOM     62  C   UNL     1     -17.737  -2.572  -5.352  1.00  0.00     0.058 A 
ATOM     63  C   UNL     1     -17.844  -3.896  -5.806  1.00  0.00     0.135 A 
ATOM     64  C   UNL     1     -17.697  -1.550  -6.313  1.00  0.00     0.135 A 
ATOM     65  F   UNL     1     -17.869  -4.912  -4.928  1.00  0.00    -0.206 F 
ATOM     66  C   UNL     1     -17.889  -4.198  -7.162  1.00  0.00     0.059 A 
ATOM     67  C   UNL     1     -17.764  -1.827  -7.676  1.00  0.00     0.059 A 
ATOM     68  F   UNL     1     -17.593  -0.267  -5.932  1.00  0.00    -0.206 F 
ATOM     69  C   UNL     1     -17.848  -3.156  -8.091  1.00  0.00     0.060 A 
BRANCH  69  70
ATOM     70  S   UNL     1     -17.923  -3.562  -9.848  1.00  0.00     0.124 S 
ATOM     71  O   UNL     1     -16.575  -4.069 -10.086  1.00  0.00    -0.237 OA
ATOM     72  O   UNL     1     -18.991  -4.556  -9.895  1.00  0.00    -0.237 OA
ATOM     73  O   UNL     1     -18.233  -2.283 -10.479  1.00  0.00    -0.744 OA
ENDBRANCH  69  70
ENDBRANCH  48  62
BRANCH  49  74
ATOM     74  C   UNL     1     -17.073  -0.262   4.351  1.00  0.00     0.058 A 
ATOM     75  C   UNL     1     -17.827  -0.931   5.327  1.00  0.00     0.135 A 
ATOM     76  C   UNL     1     -16.229   0.776   4.773  1.00  0.00     0.135 A 
ATOM     77  F   UNL     1     -18.651  -1.928   4.970  1.00  0.00    -0.206 F 
ATOM     78  C   UNL     1     -17.766  -0.570   6.669  1.00  0.00     0.059 A 
ATOM     79  C   UNL     1     -16.135   1.141   6.112  1.00  0.00     0.059 A 
ATOM     80  F   UNL     1     -15.474   1.434   3.880  1.00  0.00    -0.206 F 
ATOM     81  C   UNL     1     -16.918   0.471   7.051  1.00  0.00     0.060 A 
BRANCH  81  82
ATOM     82  S   UNL     1     -16.820   0.912   8.800  1.00  0.00     0.124 S 
ATOM     83  O   UNL     1     -18.057   1.662   8.982  1.00  0.00    -0.237 OA
ATOM     84  O   UNL     1     -16.764  -0.396   9.446  1.00  0.00    -0.237 OA
ATOM     85  O   UNL     1     -15.588   1.692   8.877  1.00  0.00    -0.744 OA
ENDBRANCH  81  82
ENDBRANCH  49  74
BRANCH  61  86
ATOM     86  C   UNL     1     -22.104   0.369  -0.429  1.00  0.00     0.058 A 
ATOM     87  C   UNL     1     -22.362   1.747  -0.379  1.00  0.00     0.135 A 
ATOM     88  C   UNL     1     -23.200  -0.506  -0.471  1.00  0.00     0.135 A 
ATOM     89  F   UNL     1     -21.346   2.623  -0.330  1.00  0.00    -0.206 F 
ATOM     90  C   UNL     1     -23.662   2.240  -0.354  1.00  0.00     0.059 A 
ATOM     91  C   UNL     1     -24.509  -0.035  -0.471  1.00  0.00     0.059 A 
ATOM     92  F   UNL     1     -23.005  -1.833  -0.529  1.00  0.00    -0.206 F 
ATOM     93  C   UNL     1     -24.730   1.340  -0.401  1.00  0.00     0.060 A 
BRANCH  93  94
ATOM     94  S   UNL     1     -26.414   1.991  -0.408  1.00  0.00     0.124 S 
ATOM     95  O   UNL     1     -26.597   2.345   0.996  1.00  0.00    -0.237 OA
ATOM     96  O   UNL     1     -26.314   3.112  -1.337  1.00  0.00    -0.237 OA
ATOM     97  O   UNL     1     -27.210   0.863  -0.881  1.00  0.00    -0.744 OA
ENDBRANCH  93  94
ENDBRANCH  61  86
ENDBRANCH  35  36
ENDBRANCH  27  30
ENDBRANCH  25  26
ENDBRANCH   1  25
TORSDOF 15
