REMARK SMILES CCC(CC)(NC(=O)N(CCC#N)C1CC1)C(=O)NCCCCNC(=O)c1ccc(-c2c3nc(c(-c4c(F)cc(S(=O)(=O)[O-])cc4F)c4ccc([nH]4)c(-c4c(F)cc(S(=O)(=O)[O-])cc4F)c4nc(c(-c5c(F)cc(S(=O)(=O)[O-])cc5F)c5ccc2[nH]5)C=C4)C=C3)cc1
REMARK SMILES IDX 20 1 19 2 17 3 18 4 3 6 2 7 1 8 4 9 5 10 6 11 7 12 8 14 9 15
REMARK SMILES IDX 10 16 11 17 12 18 13 19 14 20 15 21 16 22 21 23 22 24 23 25
REMARK SMILES IDX 24 26 25 27 26 29 27 30 28 31 92 32 29 33 91 34 30 35 31 36
REMARK SMILES IDX 32 37 85 38 33 39 90 40 84 41 86 42 34 43 89 44 83 45 82 46
REMARK SMILES IDX 35 48 69 49 48 50 68 51 49 52 52 53 67 54 87 55 50 56 51 57
REMARK SMILES IDX 66 59 88 60 53 61 36 62 37 63 46 64 38 65 39 66 45 67 47 68
REMARK SMILES IDX 40 69 41 70 42 71 43 72 44 73 70 74 71 75 80 76 72 77 73 78
REMARK SMILES IDX 79 79 81 80 74 81 75 82 76 83 77 84 78 85 54 86 55 87 64 88
REMARK SMILES IDX 56 89 57 90 63 91 65 92 58 93 59 94 60 95 61 96 62 97
REMARK H PARENT 19 5 6 13 24 28 86 47 52 58
REMARK Flexibility Score: inf
ROOT
ATOM      1  C   UNL     1       1.829   2.969   4.652  1.00  0.00     0.116 C 
ENDROOT
BRANCH   1   2
ATOM      2  N   UNL     1       2.519   2.619   3.410  1.00  0.00    -0.354 N 
ATOM      3  C   UNL     1       2.237   1.760   2.371  1.00  0.00     0.245 C 
ATOM      4  O   UNL     1       2.928   1.880   1.355  1.00  0.00    -0.272 OA
ATOM      5  H   UNL     1       3.368   3.103   3.291  1.00  0.00     0.163 HD
BRANCH   3   6
ATOM      6  C   UNL     1       1.032   0.789   2.407  1.00  0.00     0.120 C 
BRANCH   6   7
ATOM      7  C   UNL     1       0.950  -0.340   1.340  1.00  0.00     0.035 C 
ATOM      8  C   UNL     1       0.980   0.047  -0.131  1.00  0.00     0.007 C 
ENDBRANCH   6   7
BRANCH   6   9
ATOM      9  C   UNL     1      -0.193   1.760   2.208  1.00  0.00     0.035 C 
ATOM     10  C   UNL     1      -1.594   1.190   2.363  1.00  0.00     0.007 C 
ENDBRANCH   6   9
BRANCH   6  11
ATOM     11  N   UNL     1       1.033   0.117   3.721  1.00  0.00    -0.323 N 
ATOM     12  C   UNL     1       1.840  -0.676   4.455  1.00  0.00     0.318 C 
ATOM     13  H   UNL     1       0.197   0.304   4.206  1.00  0.00     0.166 HD
ATOM     14  O   UNL     1       1.227  -1.227   5.383  1.00  0.00    -0.249 OA
BRANCH  12  15
ATOM     15  N   UNL     1       3.217  -0.784   4.352  1.00  0.00    -0.321 N 
BRANCH  15  16
ATOM     16  C   UNL     1       4.099  -0.630   3.166  1.00  0.00     0.137 C 
BRANCH  16  17
ATOM     17  C   UNL     1       5.017   0.598   3.096  1.00  0.00     0.141 C 
BRANCH  17  18
ATOM     18  C   UNL     1       6.363   0.436   3.641  1.00  0.00     0.064 C 
ATOM     19  N   UNL     1       7.443   0.380   4.064  1.00  0.00    -0.198 NA
ENDBRANCH  17  18
ENDBRANCH  16  17
ENDBRANCH  15  16
BRANCH  15  20
ATOM     20  C   UNL     1       3.857  -1.294   5.579  1.00  0.00     0.087 C 
ATOM     21  C   UNL     1       4.271  -2.739   5.697  1.00  0.00     0.027 C 
ATOM     22  C   UNL     1       5.297  -1.655   5.806  1.00  0.00     0.027 C 
ENDBRANCH  15  20
ENDBRANCH  12  15
ENDBRANCH   6  11
ENDBRANCH   3   6
ENDBRANCH   1   2
BRANCH   1  23
ATOM     23  C   UNL     1       2.259   2.295   5.958  1.00  0.00     0.023 C 
BRANCH  23  24
ATOM     24  C   UNL     1       3.742   2.214   6.296  1.00  0.00     0.023 C 
BRANCH  24  25
ATOM     25  C   UNL     1       4.530   3.501   6.143  1.00  0.00     0.116 C 
BRANCH  25  26
ATOM     26  N   UNL     1       4.052   4.540   7.034  1.00  0.00    -0.352 N 
ATOM     27  C   UNL     1       4.760   5.314   7.920  1.00  0.00     0.251 C 
ATOM     28  H   UNL     1       3.084   4.717   6.998  1.00  0.00     0.163 HD
ATOM     29  O   UNL     1       4.152   6.010   8.729  1.00  0.00    -0.269 OA
BRANCH  27  30
ATOM     30  C   UNL     1       6.241   5.295   7.916  1.00  0.00     0.039 A 
ATOM     31  C   UNL     1       6.916   5.301   9.140  1.00  0.00     0.014 A 
ATOM     32  C   UNL     1       6.967   5.299   6.720  1.00  0.00     0.014 A 
ATOM     33  C   UNL     1       8.312   5.270   9.165  1.00  0.00     0.010 A 
ATOM     34  C   UNL     1       8.355   5.191   6.747  1.00  0.00     0.010 A 
ATOM     35  C   UNL     1       9.044   5.193   7.968  1.00  0.00    -0.014 A 
BRANCH  35  36
ATOM     36  C   UNL     1      10.529   5.139   7.978  1.00  0.00     0.031 A 
ATOM     37  C   UNL     1      11.328   6.267   7.380  1.00  0.00     0.074 A 
ATOM     38  C   UNL     1      11.156   4.058   8.482  1.00  0.00     0.049 A 
ATOM     39  N   UNL     1      12.625   6.385   7.253  1.00  0.00    -0.248 NA
ATOM     40  C   UNL     1      10.568   7.402   6.830  1.00  0.00     0.031 C 
ATOM     41  C   UNL     1      10.491   2.882   9.048  1.00  0.00     0.029 A 
ATOM     42  N   UNL     1      12.492   3.767   8.592  1.00  0.00    -0.354 N 
ATOM     43  C   UNL     1      12.835   7.592   6.597  1.00  0.00     0.074 A 
ATOM     44  C   UNL     1      11.531   8.148   6.309  1.00  0.00     0.031 C 
ATOM     45  C   UNL     1      11.421   2.009   9.466  1.00  0.00     0.029 A 
ATOM     46  C   UNL     1      12.746   2.543   9.165  1.00  0.00     0.049 A 
ATOM     47  H   UNL     1      13.203   4.378   8.290  1.00  0.00     0.167 HD
ATOM     48  C   UNL     1      14.008   8.193   6.283  1.00  0.00     0.037 A 
ATOM     49  C   UNL     1      13.914   1.919   9.414  1.00  0.00     0.037 A 
ATOM     50  C   UNL     1      15.302   7.646   6.598  1.00  0.00     0.049 A 
ATOM     51  C   UNL     1      15.204   2.607   9.055  1.00  0.00     0.074 A 
ATOM     52  C   UNL     1      16.548   8.207   6.381  1.00  0.00     0.029 A 
ATOM     53  N   UNL     1      15.518   6.411   7.192  1.00  0.00    -0.354 N 
ATOM     54  N   UNL     1      15.385   3.782   8.499  1.00  0.00    -0.248 NA
ATOM     55  C   UNL     1      16.448   1.889   9.361  1.00  0.00     0.031 C 
ATOM     56  C   UNL     1      17.519   7.292   6.803  1.00  0.00     0.029 A 
ATOM     57  C   UNL     1      16.877   6.183   7.329  1.00  0.00     0.049 A 
ATOM     58  H   UNL     1      14.809   5.788   7.474  1.00  0.00     0.167 HD
ATOM     59  C   UNL     1      16.763   3.954   8.415  1.00  0.00     0.074 A 
ATOM     60  C   UNL     1      17.367   2.769   8.988  1.00  0.00     0.031 C 
ATOM     61  C   UNL     1      17.463   5.000   7.911  1.00  0.00     0.037 A 
BRANCH  48  62
ATOM     62  C   UNL     1      13.947   9.513   5.562  1.00  0.00     0.058 A 
ATOM     63  C   UNL     1      13.506  10.683   6.200  1.00  0.00     0.135 A 
ATOM     64  C   UNL     1      14.375   9.618   4.228  1.00  0.00     0.135 A 
ATOM     65  F   UNL     1      13.072  10.639   7.470  1.00  0.00    -0.206 F 
ATOM     66  C   UNL     1      13.463  11.904   5.535  1.00  0.00     0.059 A 
ATOM     67  C   UNL     1      14.367  10.835   3.551  1.00  0.00     0.059 A 
ATOM     68  F   UNL     1      14.807   8.532   3.569  1.00  0.00    -0.206 F 
ATOM     69  C   UNL     1      13.896  11.970   4.209  1.00  0.00     0.060 A 
BRANCH  69  70
ATOM     70  S   UNL     1      13.840  13.563   3.362  1.00  0.00     0.124 S 
ATOM     71  O   UNL     1      12.406  13.727   3.144  1.00  0.00    -0.237 OA
ATOM     72  O   UNL     1      14.437  14.461   4.345  1.00  0.00    -0.237 OA
ATOM     73  O   UNL     1      14.634  13.337   2.159  1.00  0.00    -0.744 OA
ENDBRANCH  69  70
ENDBRANCH  48  62
BRANCH  49  74
ATOM     74  C   UNL     1      13.920   0.579  10.060  1.00  0.00     0.058 A 
ATOM     75  C   UNL     1      14.372   0.416  11.378  1.00  0.00     0.135 A 
ATOM     76  C   UNL     1      13.467  -0.562   9.380  1.00  0.00     0.135 A 
ATOM     77  F   UNL     1      14.821   1.476  12.068  1.00  0.00    -0.206 F 
ATOM     78  C   UNL     1      14.393  -0.831  11.993  1.00  0.00     0.059 A 
ATOM     79  C   UNL     1      13.454  -1.816   9.982  1.00  0.00     0.059 A 
ATOM     80  F   UNL     1      13.011  -0.458   8.122  1.00  0.00    -0.206 F 
ATOM     81  C   UNL     1      13.930  -1.942  11.287  1.00  0.00     0.060 A 
BRANCH  81  82
ATOM     82  S   UNL     1      13.923  -3.550  12.110  1.00  0.00     0.124 S 
ATOM     83  O   UNL     1      15.343  -3.880  12.122  1.00  0.00    -0.237 OA
ATOM     84  O   UNL     1      13.332  -3.229  13.406  1.00  0.00    -0.237 OA
ATOM     85  O   UNL     1      13.090  -4.371  11.237  1.00  0.00    -0.744 OA
ENDBRANCH  81  82
ENDBRANCH  49  74
BRANCH  61  86
ATOM     86  C   UNL     1      18.964   4.932   7.989  1.00  0.00     0.058 A 
ATOM     87  C   UNL     1      19.709   4.076   7.163  1.00  0.00     0.135 A 
ATOM     88  C   UNL     1      19.667   5.774   8.866  1.00  0.00     0.135 A 
ATOM     89  F   UNL     1      19.085   3.246   6.312  1.00  0.00    -0.206 F 
ATOM     90  C   UNL     1      21.098   4.040   7.220  1.00  0.00     0.059 A 
ATOM     91  C   UNL     1      21.058   5.776   8.919  1.00  0.00     0.059 A 
ATOM     92  F   UNL     1      19.004   6.620   9.670  1.00  0.00    -0.206 F 
ATOM     93  C   UNL     1      21.764   4.896   8.100  1.00  0.00     0.060 A 
BRANCH  93  94
ATOM     94  S   UNL     1      23.569   4.866   8.138  1.00  0.00     0.124 S 
ATOM     95  O   UNL     1      23.828   3.616   8.845  1.00  0.00    -0.237 OA
ATOM     96  O   UNL     1      23.912   4.875   6.719  1.00  0.00    -0.237 OA
ATOM     97  O   UNL     1      23.914   6.083   8.867  1.00  0.00    -0.744 OA
ENDBRANCH  93  94
ENDBRANCH  61  86
ENDBRANCH  35  36
ENDBRANCH  27  30
ENDBRANCH  25  26
ENDBRANCH  24  25
ENDBRANCH  23  24
ENDBRANCH   1  23
TORSDOF 22
