REMARK SMILES C[NH2+][C@]1(C(=O)NCCCCNC(=O)c2ccc(-c3c4nc(c(-c5c(F)cc(S(=O)(=O)[O-])cc5F)c5ccc([nH]5)c(-c5c(F)cc(S(=O)(=O)[O-])cc5F)c5nc(c(-c6c(F)cc(S(=O)(=O)[O-])cc6F)c6ccc3[nH]6)C=C5)C=C4)cc2)CC[C@@H]([N@@H+](C)C[C@@H]2CCCCO2)C1
REMARK SMILES IDX 8 1 7 2 6 3 4 4 5 5 3 7 80 8 92 9 81 10 82 11 2 12 1 13
REMARK SMILES IDX 83 16 84 17 85 19 86 20 87 21 91 22 88 23 90 24 89 25 9 26
REMARK SMILES IDX 10 27 11 28 12 29 13 31 14 32 15 33 79 34 16 35 78 36 17 37
REMARK SMILES IDX 18 38 19 39 72 40 20 41 77 42 71 43 73 44 21 45 76 46 70 47
REMARK SMILES IDX 69 48 22 50 56 51 35 52 55 53 36 54 39 55 54 56 74 57 37 58
REMARK SMILES IDX 38 59 53 61 75 62 40 63 23 64 24 65 33 66 25 67 26 68 32 69
REMARK SMILES IDX 34 70 27 71 28 72 29 73 30 74 31 75 57 76 58 77 67 78 59 79
REMARK SMILES IDX 60 80 66 81 68 82 61 83 62 84 63 85 64 86 65 87 41 88 42 89
REMARK SMILES IDX 51 90 43 91 44 92 50 93 52 94 45 95 46 96 47 97 48 98 49 99
REMARK H PARENT 6 6 2 14 2 15 83 18 11 30 73 49 39 60
REMARK Flexibility Score: inf
ROOT
ATOM      1  C   UNL     1      -7.088   1.129  -4.245  1.00  0.00     0.023 C 
ENDROOT
BRANCH   1   2
ATOM      2  C   UNL     1      -5.789   1.681  -3.669  1.00  0.00     0.116 C 
BRANCH   2   3
ATOM      3  N   UNL     1      -5.995   2.354  -2.410  1.00  0.00    -0.351 N 
ATOM      4  C   UNL     1      -5.926   1.976  -1.116  1.00  0.00     0.281 C 
ATOM      5  O   UNL     1      -6.120   2.895  -0.299  1.00  0.00    -0.268 OA
ATOM      6  H   UNL     1      -6.241   3.301  -2.519  1.00  0.00     0.163 HD
BRANCH   4   7
ATOM      7  C   UNL     1      -5.632   0.539  -0.556  1.00  0.00     0.181 C 
ATOM      8  C   UNL     1      -5.508  -0.728  -1.413  1.00  0.00     0.085 C 
ATOM      9  C   UNL     1      -4.224   0.673   0.105  1.00  0.00     0.144 C 
ATOM     10  C   UNL     1      -4.470  -1.617  -0.728  1.00  0.00     0.072 C 
ATOM     11  C   UNL     1      -3.524  -0.695   0.054  1.00  0.00     0.191 C 
BRANCH   7  12
ATOM     12  N   UNL     1      -6.650   0.253   0.511  1.00  0.00    -0.336 N 
ATOM     13  C   UNL     1      -8.026   0.301  -0.003  1.00  0.00     0.331 C 
ATOM     14  H   UNL     1      -6.474  -0.677   0.892  1.00  0.00     0.346 HD
ATOM     15  H   UNL     1      -6.560   0.973   1.229  1.00  0.00     0.346 HD
ENDBRANCH   7  12
BRANCH  11  16
ATOM     16  N   UNL     1      -2.097  -0.701  -0.325  1.00  0.00    -0.333 N 
ATOM     17  C   UNL     1      -1.468  -2.012  -0.303  1.00  0.00     0.333 C 
ATOM     18  H   UNL     1      -1.760  -0.176   0.482  1.00  0.00     0.348 HD
BRANCH  16  19
ATOM     19  C   UNL     1      -1.578   0.203  -1.367  1.00  0.00     0.294 C 
BRANCH  19  20
ATOM     20  C   UNL     1      -2.377   0.369  -2.679  1.00  0.00     0.173 C 
ATOM     21  C   UNL     1      -2.161  -0.712  -3.751  1.00  0.00     0.038 C 
ATOM     22  O   UNL     1      -2.400   1.737  -3.091  1.00  0.00    -0.372 OA
ATOM     23  C   UNL     1      -1.738  -0.230  -5.135  1.00  0.00     0.005 C 
ATOM     24  C   UNL     1      -1.669   2.062  -4.257  1.00  0.00     0.161 C 
ATOM     25  C   UNL     1      -2.149   1.205  -5.408  1.00  0.00     0.029 C 
ENDBRANCH  19  20
ENDBRANCH  16  19
ENDBRANCH  11  16
ENDBRANCH   4   7
ENDBRANCH   2   3
ENDBRANCH   1   2
BRANCH   1  26
ATOM     26  C   UNL     1      -7.959   2.184  -4.936  1.00  0.00     0.023 C 
BRANCH  26  27
ATOM     27  C   UNL     1      -7.277   2.976  -6.051  1.00  0.00     0.116 C 
BRANCH  27  28
ATOM     28  N   UNL     1      -6.645   2.139  -7.061  1.00  0.00    -0.352 N 
ATOM     29  C   UNL     1      -6.510   2.383  -8.408  1.00  0.00     0.251 C 
ATOM     30  H   UNL     1      -6.265   1.290  -6.739  1.00  0.00     0.163 HD
ATOM     31  O   UNL     1      -6.021   1.533  -9.146  1.00  0.00    -0.269 OA
BRANCH  29  32
ATOM     32  C   UNL     1      -7.000   3.663  -8.958  1.00  0.00     0.039 A 
ATOM     33  C   UNL     1      -7.886   3.640 -10.037  1.00  0.00     0.014 A 
ATOM     34  C   UNL     1      -6.628   4.875  -8.370  1.00  0.00     0.014 A 
ATOM     35  C   UNL     1      -8.463   4.833 -10.477  1.00  0.00     0.010 A 
ATOM     36  C   UNL     1      -7.255   6.052  -8.767  1.00  0.00     0.010 A 
ATOM     37  C   UNL     1      -8.184   6.042  -9.819  1.00  0.00    -0.014 A 
BRANCH  37  38
ATOM     38  C   UNL     1      -8.866   7.304 -10.201  1.00  0.00     0.031 A 
ATOM     39  C   UNL     1      -8.069   8.457 -10.747  1.00  0.00     0.074 A 
ATOM     40  C   UNL     1     -10.189   7.439  -9.980  1.00  0.00     0.049 A 
ATOM     41  N   UNL     1      -8.469   9.663 -11.058  1.00  0.00    -0.248 NA
ATOM     42  C   UNL     1      -6.627   8.234 -10.940  1.00  0.00     0.031 C 
ATOM     43  C   UNL     1     -11.060   6.414  -9.399  1.00  0.00     0.029 A 
ATOM     44  N   UNL     1     -11.031   8.499 -10.204  1.00  0.00    -0.354 N 
ATOM     45  C   UNL     1      -7.329  10.347 -11.462  1.00  0.00     0.074 A 
ATOM     46  C   UNL     1      -6.215   9.437 -11.312  1.00  0.00     0.031 C 
ATOM     47  C   UNL     1     -12.314   6.889  -9.329  1.00  0.00     0.029 A 
ATOM     48  C   UNL     1     -12.333   8.261  -9.828  1.00  0.00     0.049 A 
ATOM     49  H   UNL     1     -10.732   9.351 -10.597  1.00  0.00     0.167 HD
ATOM     50  C   UNL     1      -7.225  11.611 -11.937  1.00  0.00     0.037 A 
ATOM     51  C   UNL     1     -13.417   9.059  -9.874  1.00  0.00     0.037 A 
ATOM     52  C   UNL     1      -8.343  12.500 -12.116  1.00  0.00     0.049 A 
ATOM     53  C   UNL     1     -13.281  10.450 -10.430  1.00  0.00     0.074 A 
ATOM     54  C   UNL     1      -8.351  13.774 -12.656  1.00  0.00     0.029 A 
ATOM     55  N   UNL     1      -9.652  12.207 -11.762  1.00  0.00    -0.354 N 
ATOM     56  N   UNL     1     -12.207  11.057 -10.873  1.00  0.00    -0.248 NA
ATOM     57  C   UNL     1     -14.504  11.261 -10.500  1.00  0.00     0.031 C 
ATOM     58  C   UNL     1      -9.659  14.266 -12.596  1.00  0.00     0.029 A 
ATOM     59  C   UNL     1     -10.474  13.282 -12.057  1.00  0.00     0.049 A 
ATOM     60  H   UNL     1      -9.952  11.361 -11.360  1.00  0.00     0.167 HD
ATOM     61  C   UNL     1     -12.627  12.313 -11.296  1.00  0.00     0.074 A 
ATOM     62  C   UNL     1     -14.057  12.373 -11.067  1.00  0.00     0.031 C 
ATOM     63  C   UNL     1     -11.896  13.323 -11.828  1.00  0.00     0.037 A 
BRANCH  50  64
ATOM     64  C   UNL     1      -5.853  12.105 -12.303  1.00  0.00     0.058 A 
ATOM     65  C   UNL     1      -5.172  11.616 -13.430  1.00  0.00     0.135 A 
ATOM     66  C   UNL     1      -5.222  13.098 -11.537  1.00  0.00     0.135 A 
ATOM     67  F   UNL     1      -5.723  10.655 -14.189  1.00  0.00    -0.206 F 
ATOM     68  C   UNL     1      -3.902  12.072 -13.767  1.00  0.00     0.059 A 
ATOM     69  C   UNL     1      -3.962  13.588 -11.871  1.00  0.00     0.059 A 
ATOM     70  F   UNL     1      -5.827  13.600 -10.449  1.00  0.00    -0.206 F 
ATOM     71  C   UNL     1      -3.304  13.056 -12.980  1.00  0.00     0.060 A 
BRANCH  71  72
ATOM     72  S   UNL     1      -1.656  13.638 -13.431  1.00  0.00     0.124 S 
ATOM     73  O   UNL     1      -0.826  12.515 -13.005  1.00  0.00    -0.237 OA
ATOM     74  O   UNL     1      -1.774  13.827 -14.873  1.00  0.00    -0.237 OA
ATOM     75  O   UNL     1      -1.502  14.862 -12.652  1.00  0.00    -0.744 OA
ENDBRANCH  71  72
ENDBRANCH  50  64
BRANCH  51  76
ATOM     76  C   UNL     1     -14.733   8.548  -9.405  1.00  0.00     0.058 A 
ATOM     77  C   UNL     1     -15.753   8.245 -10.319  1.00  0.00     0.135 A 
ATOM     78  C   UNL     1     -14.989   8.333  -8.043  1.00  0.00     0.135 A 
ATOM     79  F   UNL     1     -15.557   8.440 -11.632  1.00  0.00    -0.206 F 
ATOM     80  C   UNL     1     -16.987   7.758  -9.899  1.00  0.00     0.059 A 
ATOM     81  C   UNL     1     -16.207   7.825  -7.599  1.00  0.00     0.059 A 
ATOM     82  F   UNL     1     -14.039   8.591  -7.131  1.00  0.00    -0.206 F 
ATOM     83  C   UNL     1     -17.203   7.549  -8.536  1.00  0.00     0.060 A 
BRANCH  83  84
ATOM     84  S   UNL     1     -18.787   6.861  -8.005  1.00  0.00     0.124 S 
ATOM     85  O   UNL     1     -19.671   8.011  -8.156  1.00  0.00    -0.237 OA
ATOM     86  O   UNL     1     -18.985   5.773  -8.958  1.00  0.00    -0.237 OA
ATOM     87  O   UNL     1     -18.526   6.440  -6.632  1.00  0.00    -0.744 OA
ENDBRANCH  83  84
ENDBRANCH  51  76
BRANCH  63  88
ATOM     88  C   UNL     1     -12.631  14.572 -12.229  1.00  0.00     0.058 A 
ATOM     89  C   UNL     1     -13.104  15.486 -11.275  1.00  0.00     0.135 A 
ATOM     90  C   UNL     1     -12.813  14.883 -13.586  1.00  0.00     0.135 A 
ATOM     91  F   UNL     1     -12.960  15.231  -9.965  1.00  0.00    -0.206 F 
ATOM     92  C   UNL     1     -13.751  16.658 -11.653  1.00  0.00     0.059 A 
ATOM     93  C   UNL     1     -13.435  16.061 -13.987  1.00  0.00     0.059 A 
ATOM     94  F   UNL     1     -12.370  14.046 -14.537  1.00  0.00    -0.206 F 
ATOM     95  C   UNL     1     -13.911  16.938 -13.012  1.00  0.00     0.060 A 
BRANCH  95  96
ATOM     96  S   UNL     1     -14.718  18.480 -13.491  1.00  0.00     0.124 S 
ATOM     97  O   UNL     1     -16.119  18.175 -13.217  1.00  0.00    -0.237 OA
ATOM     98  O   UNL     1     -14.095  19.451 -12.598  1.00  0.00    -0.237 OA
ATOM     99  O   UNL     1     -14.370  18.621 -14.901  1.00  0.00    -0.744 OA
ENDBRANCH  95  96
ENDBRANCH  63  88
ENDBRANCH  37  38
ENDBRANCH  29  32
ENDBRANCH  27  28
ENDBRANCH  26  27
ENDBRANCH   1  26
TORSDOF 18
