REMARK SMILES COc1ccc(CSc2ncccc2C(=O)NCCCCNC(=O)c2ccc(-c3c4nc(c(-c5c(F)cc(S(=O)(=O)[O-])cc5F)c5ccc([nH]5)c(-c5c(F)cc(S(=O)(=O)[O-])cc5F)c5nc(c(-c6c(F)cc(S(=O)(=O)[O-])cc6F)c6ccc3[nH]6)C=C5)C=C4)cc2)cc1
REMARK SMILES IDX 19 1 18 2 17 3 15 4 16 5 14 7 9 8 10 9 11 10 13 11 12 12
REMARK SMILES IDX 8 13 7 14 6 15 3 16 4 17 92 18 5 19 91 20 2 21 1 22 20 23
REMARK SMILES IDX 21 24 22 25 23 26 24 28 25 29 26 30 90 31 27 32 89 33 28 34
REMARK SMILES IDX 29 35 30 36 83 37 31 38 88 39 82 40 84 41 32 42 87 43 81 44
REMARK SMILES IDX 80 45 33 47 67 48 46 49 66 50 47 51 50 52 65 53 85 54 48 55
REMARK SMILES IDX 49 56 64 58 86 59 51 60 34 61 35 62 44 63 36 64 37 65 43 66
REMARK SMILES IDX 45 67 38 68 39 69 40 70 41 71 42 72 68 73 69 74 78 75 70 76
REMARK SMILES IDX 71 77 77 78 79 79 72 80 73 81 74 82 75 83 76 84 52 85 53 86
REMARK SMILES IDX 62 87 54 88 55 89 61 90 63 91 56 92 57 93 58 94 59 95 60 96
REMARK H PARENT 17 6 22 27 84 46 50 57
REMARK Flexibility Score: inf
ROOT
ATOM      1  C   UNL     1       7.948  -1.835   8.556  1.00  0.00     0.023 C 
ENDROOT
BRANCH   1   2
ATOM      2  C   UNL     1       7.304  -2.103   7.192  1.00  0.00     0.116 C 
BRANCH   2   3
ATOM      3  N   UNL     1       6.184  -3.013   7.341  1.00  0.00    -0.352 N 
ATOM      4  C   UNL     1       4.829  -2.865   7.514  1.00  0.00     0.254 C 
ATOM      5  O   UNL     1       4.226  -3.915   7.728  1.00  0.00    -0.269 OA
ATOM      6  H   UNL     1       6.459  -3.958   7.312  1.00  0.00     0.163 HD
BRANCH   4   7
ATOM      7  C   UNL     1       4.096  -1.563   7.405  1.00  0.00     0.072 A 
ATOM      8  C   UNL     1       2.726  -1.507   7.088  1.00  0.00     0.109 A 
ATOM      9  N   UNL     1       2.062  -0.327   6.907  1.00  0.00    -0.249 NA
ATOM     10  C   UNL     1       2.735   0.825   7.063  1.00  0.00     0.112 A 
ATOM     11  C   UNL     1       4.725  -0.332   7.646  1.00  0.00     0.018 A 
ATOM     12  C   UNL     1       4.053   0.874   7.452  1.00  0.00     0.021 A 
BRANCH   8  13
ATOM     13  S   UNL     1       1.596  -2.887   7.001  1.00  0.00    -0.101 SA
BRANCH  13  14
ATOM     14  C   UNL     1       1.993  -3.525   5.348  1.00  0.00     0.112 C 
BRANCH  14  15
ATOM     15  C   UNL     1       1.564  -2.620   4.217  1.00  0.00    -0.037 A 
ATOM     16  C   UNL     1       0.778  -0.964   2.076  1.00  0.00     0.118 A 
ATOM     17  C   UNL     1      -0.136  -1.319   3.067  1.00  0.00     0.047 A 
ATOM     18  C   UNL     1       2.089  -1.433   2.156  1.00  0.00     0.047 A 
ATOM     19  C   UNL     1       0.246  -2.154   4.118  1.00  0.00     0.008 A 
ATOM     20  C   UNL     1       2.478  -2.257   3.219  1.00  0.00     0.008 A 
BRANCH  16  21
ATOM     21  O   UNL     1       0.283  -0.138   1.104  1.00  0.00    -0.497 OA
ATOM     22  C   UNL     1       1.009  -0.109  -0.118  1.00  0.00     0.278 C 
ENDBRANCH  16  21
ENDBRANCH  14  15
ENDBRANCH  13  14
ENDBRANCH   8  13
ENDBRANCH   4   7
ENDBRANCH   2   3
ENDBRANCH   1   2
BRANCH   1  23
ATOM     23  C   UNL     1       8.767  -3.011   9.106  1.00  0.00     0.023 C 
BRANCH  23  24
ATOM     24  C   UNL     1       9.972  -3.416   8.260  1.00  0.00     0.116 C 
BRANCH  24  25
ATOM     25  N   UNL     1      10.906  -2.323   8.042  1.00  0.00    -0.352 N 
ATOM     26  C   UNL     1      12.272  -2.377   7.888  1.00  0.00     0.251 C 
ATOM     27  H   UNL     1      10.508  -1.423   8.000  1.00  0.00     0.163 HD
ATOM     28  O   UNL     1      12.923  -1.345   7.824  1.00  0.00    -0.269 OA
BRANCH  26  29
ATOM     29  C   UNL     1      12.943  -3.694   7.842  1.00  0.00     0.039 A 
ATOM     30  C   UNL     1      14.047  -3.913   8.670  1.00  0.00     0.014 A 
ATOM     31  C   UNL     1      12.473  -4.710   7.006  1.00  0.00     0.014 A 
ATOM     32  C   UNL     1      14.640  -5.176   8.709  1.00  0.00     0.010 A 
ATOM     33  C   UNL     1      13.029  -5.984   7.089  1.00  0.00     0.010 A 
ATOM     34  C   UNL     1      14.114  -6.230   7.944  1.00  0.00    -0.014 A 
BRANCH  34  35
ATOM     35  C   UNL     1      14.676  -7.601   8.035  1.00  0.00     0.031 A 
ATOM     36  C   UNL     1      15.344  -8.224   6.841  1.00  0.00     0.074 A 
ATOM     37  C   UNL     1      14.518  -8.309   9.171  1.00  0.00     0.049 A 
ATOM     38  N   UNL     1      15.822  -9.433   6.700  1.00  0.00    -0.248 NA
ATOM     39  C   UNL     1      15.465  -7.386   5.637  1.00  0.00     0.031 C 
ATOM     40  C   UNL     1      13.841  -7.831  10.379  1.00  0.00     0.029 A 
ATOM     41  N   UNL     1      14.902  -9.586   9.492  1.00  0.00    -0.354 N 
ATOM     42  C   UNL     1      16.285  -9.508   5.392  1.00  0.00     0.074 A 
ATOM     43  C   UNL     1      15.989  -8.237   4.766  1.00  0.00     0.031 C 
ATOM     44  C   UNL     1      13.872  -8.796  11.313  1.00  0.00     0.029 A 
ATOM     45  C   UNL     1      14.541  -9.970  10.762  1.00  0.00     0.049 A 
ATOM     46  H   UNL     1      15.391 -10.173   8.871  1.00  0.00     0.167 HD
ATOM     47  C   UNL     1      16.918 -10.534   4.776  1.00  0.00     0.037 A 
ATOM     48  C   UNL     1      14.723 -11.138  11.407  1.00  0.00     0.037 A 
ATOM     49  C   UNL     1      17.237 -11.785   5.415  1.00  0.00     0.049 A 
ATOM     50  C   UNL     1      15.446 -12.257  10.708  1.00  0.00     0.074 A 
ATOM     51  C   UNL     1      17.929 -12.865   4.895  1.00  0.00     0.029 A 
ATOM     52  N   UNL     1      16.889 -12.121   6.715  1.00  0.00    -0.354 N 
ATOM     53  N   UNL     1      15.931 -12.289   9.490  1.00  0.00    -0.248 NA
ATOM     54  C   UNL     1      15.654 -13.495  11.472  1.00  0.00     0.031 C 
ATOM     55  C   UNL     1      17.971 -13.868   5.870  1.00  0.00     0.029 A 
ATOM     56  C   UNL     1      17.340 -13.397   7.011  1.00  0.00     0.049 A 
ATOM     57  H   UNL     1      16.393 -11.540   7.335  1.00  0.00     0.167 HD
ATOM     58  C   UNL     1      16.526 -13.538   9.350  1.00  0.00     0.074 A 
ATOM     59  C   UNL     1      16.347 -14.229  10.611  1.00  0.00     0.031 C 
ATOM     60  C   UNL     1      17.163 -14.064   8.276  1.00  0.00     0.037 A 
BRANCH  47  61
ATOM     61  C   UNL     1      17.316 -10.344   3.339  1.00  0.00     0.058 A 
ATOM     62  C   UNL     1      18.360  -9.478   2.975  1.00  0.00     0.135 A 
ATOM     63  C   UNL     1      16.669 -11.055   2.316  1.00  0.00     0.135 A 
ATOM     64  F   UNL     1      19.003  -8.762   3.912  1.00  0.00    -0.206 F 
ATOM     65  C   UNL     1      18.728  -9.301   1.645  1.00  0.00     0.059 A 
ATOM     66  C   UNL     1      17.037 -10.912   0.982  1.00  0.00     0.059 A 
ATOM     67  F   UNL     1      15.664 -11.895   2.609  1.00  0.00    -0.206 F 
ATOM     68  C   UNL     1      18.058 -10.021   0.655  1.00  0.00     0.060 A 
BRANCH  68  69
ATOM     69  S   UNL     1      18.546  -9.779  -1.066  1.00  0.00     0.124 S 
ATOM     70  O   UNL     1      17.960  -8.472  -1.352  1.00  0.00    -0.237 OA
ATOM     71  O   UNL     1      20.002  -9.816  -0.988  1.00  0.00    -0.237 OA
ATOM     72  O   UNL     1      17.929 -10.907  -1.756  1.00  0.00    -0.744 OA
ENDBRANCH  68  69
ENDBRANCH  47  61
BRANCH  48  73
ATOM     73  C   UNL     1      14.237 -11.299  12.803  1.00  0.00     0.058 A 
ATOM     74  C   UNL     1      15.139 -11.346  13.877  1.00  0.00     0.135 A 
ATOM     75  C   UNL     1      12.868 -11.393  13.093  1.00  0.00     0.135 A 
ATOM     76  F   UNL     1      16.458 -11.265  13.648  1.00  0.00    -0.206 F 
ATOM     77  C   UNL     1      14.702 -11.498  15.188  1.00  0.00     0.059 A 
ATOM     78  C   UNL     1      12.405 -11.522  14.399  1.00  0.00     0.059 A 
ATOM     79  F   UNL     1      11.965 -11.334  12.102  1.00  0.00    -0.206 F 
ATOM     80  C   UNL     1      13.332 -11.584  15.440  1.00  0.00     0.060 A 
BRANCH  80  81
ATOM     81  S   UNL     1      12.772 -11.731  17.151  1.00  0.00     0.124 S 
ATOM     82  O   UNL     1      13.088 -13.124  17.444  1.00  0.00    -0.237 OA
ATOM     83  O   UNL     1      13.592 -10.733  17.830  1.00  0.00    -0.237 OA
ATOM     84  O   UNL     1      11.351 -11.409  17.066  1.00  0.00    -0.744 OA
ENDBRANCH  80  81
ENDBRANCH  48  73
BRANCH  60  85
ATOM     85  C   UNL     1      17.749 -15.440   8.425  1.00  0.00     0.058 A 
ATOM     86  C   UNL     1      16.942 -16.587   8.431  1.00  0.00     0.135 A 
ATOM     87  C   UNL     1      19.140 -15.613   8.506  1.00  0.00     0.135 A 
ATOM     88  F   UNL     1      15.606 -16.474   8.362  1.00  0.00    -0.206 F 
ATOM     89  C   UNL     1      17.493 -17.861   8.529  1.00  0.00     0.059 A 
ATOM     90  C   UNL     1      19.714 -16.878   8.581  1.00  0.00     0.059 A 
ATOM     91  F   UNL     1      19.956 -14.547   8.496  1.00  0.00    -0.206 F 
ATOM     92  C   UNL     1      18.881 -17.996   8.602  1.00  0.00     0.060 A 
BRANCH  92  93
ATOM     93  S   UNL     1      19.587 -19.655   8.688  1.00  0.00     0.124 S 
ATOM     94  O   UNL     1      19.320 -20.017  10.076  1.00  0.00    -0.237 OA
ATOM     95  O   UNL     1      18.813 -20.378   7.684  1.00  0.00    -0.237 OA
ATOM     96  O   UNL     1      20.992 -19.443   8.353  1.00  0.00    -0.744 OA
ENDBRANCH  92  93
ENDBRANCH  60  85
ENDBRANCH  34  35
ENDBRANCH  26  29
ENDBRANCH  24  25
ENDBRANCH  23  24
ENDBRANCH   1  23
TORSDOF 18
