REMARK SMILES CC1(C)[C@H](C(=O)Nc2ccc(NC(=O)C[NH+]3CCCCC3)cc2)[C@@H]1C(=O)NCCCCNC(=O)c1ccc(-c2c3nc(c(-c4c(F)cc(S(=O)(=O)[O-])cc4F)c4ccc([nH]4)c(-c4c(F)cc(S(=O)(=O)[O-])cc4F)c4nc(c(-c5c(F)cc(S(=O)(=O)[O-])cc5F)c5ccc2[nH]5)C=C4)C=C3)cc1
REMARK SMILES IDX 28 1 27 2 25 3 26 4 24 6 1 7 2 8 3 9 4 10 5 11 6 12 7 13
REMARK SMILES IDX 8 15 9 16 23 17 10 18 22 19 11 20 12 21 13 22 14 24 15 25
REMARK SMILES IDX 16 26 17 27 21 28 18 30 20 31 19 32 29 33 30 34 31 35 32 36
REMARK SMILES IDX 33 37 34 39 35 40 36 41 100 42 37 43 99 44 38 45 39 46 40 47
REMARK SMILES IDX 93 48 41 49 98 50 92 51 94 52 42 53 97 54 91 55 90 56 43 58
REMARK SMILES IDX 77 59 56 60 76 61 57 62 60 63 75 64 95 65 58 66 59 67 74 69
REMARK SMILES IDX 96 70 61 71 44 72 45 73 54 74 46 75 47 76 53 77 55 78 48 79
REMARK SMILES IDX 49 80 50 81 51 82 52 83 78 84 79 85 88 86 80 87 81 88 87 89
REMARK SMILES IDX 89 90 82 91 83 92 84 93 85 94 86 95 62 96 63 97 72 98 64 99
REMARK SMILES IDX 65 100 71 101 73 102 66 103 67 104 68 105 69 106 70 107
REMARK H PARENT 27 5 7 14 12 23 16 29 32 38 94 57 60 68
REMARK Flexibility Score: inf
ROOT
ATOM      1  C   UNL     1      -3.847   0.816   0.074  1.00  0.00     0.116 C 
ENDROOT
BRANCH   1   2
ATOM      2  N   UNL     1      -2.932   1.108   1.157  1.00  0.00    -0.356 N 
ATOM      3  C   UNL     1      -1.649   0.653   1.334  1.00  0.00     0.224 C 
ATOM      4  O   UNL     1      -1.009   0.998   2.315  1.00  0.00    -0.275 OA
ATOM      5  H   UNL     1      -3.274   1.710   1.857  1.00  0.00     0.163 HD
BRANCH   3   6
ATOM      6  C   UNL     1      -1.138  -0.382   0.409  1.00  0.00     0.098 C 
ATOM      7  C   UNL     1       0.910  -1.904  -0.141  1.00  0.00     0.013 C 
ATOM      8  C   UNL     1       0.333  -0.503  -0.022  1.00  0.00    -0.011 C 
ATOM      9  C   UNL     1       1.370   0.472   0.438  1.00  0.00     0.013 C 
ATOM     10  C   UNL     1      -0.746  -0.179  -1.032  1.00  0.00     0.098 C 
BRANCH  10  11
ATOM     11  C   UNL     1      -1.049   0.977  -1.925  1.00  0.00     0.228 C 
ATOM     12  O   UNL     1      -1.439   0.678  -3.059  1.00  0.00    -0.274 OA
ATOM     13  N   UNL     1      -1.160   2.303  -1.606  1.00  0.00    -0.326 N 
ATOM     14  H   UNL     1      -1.760   2.804  -2.205  1.00  0.00     0.169 HD
BRANCH  13  15
ATOM     15  C   UNL     1      -0.599   3.082  -0.608  1.00  0.00     0.041 A 
ATOM     16  C   UNL     1      -1.453   3.778   0.235  1.00  0.00     0.028 A 
ATOM     17  C   UNL     1       0.770   3.288  -0.517  1.00  0.00     0.028 A 
ATOM     18  C   UNL     1      -0.936   4.483   1.318  1.00  0.00     0.028 A 
ATOM     19  C   UNL     1       1.289   4.043   0.542  1.00  0.00     0.028 A 
ATOM     20  C   UNL     1       0.437   4.631   1.484  1.00  0.00     0.041 A 
BRANCH  20  21
ATOM     21  N   UNL     1       1.031   5.294   2.571  1.00  0.00    -0.321 N 
ATOM     22  C   UNL     1       0.563   6.243   3.443  1.00  0.00     0.279 C 
ATOM     23  H   UNL     1       1.963   5.026   2.739  1.00  0.00     0.170 HD
ATOM     24  O   UNL     1       1.264   6.505   4.430  1.00  0.00    -0.268 OA
BRANCH  22  25
ATOM     25  C   UNL     1      -0.754   7.000   3.208  1.00  0.00     0.363 C 
BRANCH  25  26
ATOM     26  N   UNL     1      -0.836   7.476   1.817  1.00  0.00    -0.327 N 
ATOM     27  C   UNL     1      -2.207   7.724   1.371  1.00  0.00     0.262 C 
ATOM     28  C   UNL     1       0.021   8.642   1.576  1.00  0.00     0.262 C 
ATOM     29  H   UNL     1      -0.480   6.708   1.249  1.00  0.00     0.348 HD
ATOM     30  C   UNL     1      -2.204   7.933  -0.145  1.00  0.00     0.062 C 
ATOM     31  C   UNL     1       0.091   8.939   0.077  1.00  0.00     0.062 C 
ATOM     32  C   UNL     1      -1.298   9.095  -0.537  1.00  0.00     0.012 C 
ENDBRANCH  25  26
ENDBRANCH  22  25
ENDBRANCH  20  21
ENDBRANCH  13  15
ENDBRANCH  10  11
ENDBRANCH   3   6
ENDBRANCH   1   2
BRANCH   1  33
ATOM     33  C   UNL     1      -5.296   0.696   0.537  1.00  0.00     0.023 C 
BRANCH  33  34
ATOM     34  C   UNL     1      -5.909   1.953   1.160  1.00  0.00     0.023 C 
BRANCH  34  35
ATOM     35  C   UNL     1      -5.821   3.234   0.335  1.00  0.00     0.116 C 
BRANCH  35  36
ATOM     36  N   UNL     1      -6.418   3.118  -0.983  1.00  0.00    -0.352 N 
ATOM     37  C   UNL     1      -7.332   3.928  -1.612  1.00  0.00     0.251 C 
ATOM     38  H   UNL     1      -6.122   2.338  -1.507  1.00  0.00     0.163 HD
ATOM     39  O   UNL     1      -7.792   3.581  -2.697  1.00  0.00    -0.269 OA
BRANCH  37  40
ATOM     40  C   UNL     1      -7.789   5.193  -0.989  1.00  0.00     0.039 A 
ATOM     41  C   UNL     1      -9.148   5.517  -1.058  1.00  0.00     0.014 A 
ATOM     42  C   UNL     1      -6.897   6.075  -0.373  1.00  0.00     0.014 A 
ATOM     43  C   UNL     1      -9.617   6.696  -0.471  1.00  0.00     0.010 A 
ATOM     44  C   UNL     1      -7.377   7.214   0.276  1.00  0.00     0.010 A 
ATOM     45  C   UNL     1      -8.740   7.545   0.222  1.00  0.00    -0.014 A 
BRANCH  45  46
ATOM     46  C   UNL     1      -9.229   8.800   0.854  1.00  0.00     0.031 A 
ATOM     47  C   UNL     1      -8.744  10.136   0.354  1.00  0.00     0.074 A 
ATOM     48  C   UNL     1     -10.081   8.744   1.899  1.00  0.00     0.049 A 
ATOM     49  N   UNL     1      -9.022  11.336   0.796  1.00  0.00    -0.248 NA
ATOM     50  C   UNL     1      -7.799  10.120  -0.774  1.00  0.00     0.031 C 
ATOM     51  C   UNL     1     -10.591   7.514   2.510  1.00  0.00     0.029 A 
ATOM     52  N   UNL     1     -10.665   9.745   2.634  1.00  0.00    -0.354 N 
ATOM     53  C   UNL     1      -8.277  12.212   0.014  1.00  0.00     0.074 A 
ATOM     54  C   UNL     1      -7.491  11.403  -0.891  1.00  0.00     0.031 C 
ATOM     55  C   UNL     1     -11.429   7.835   3.510  1.00  0.00     0.029 A 
ATOM     56  C   UNL     1     -11.496   9.288   3.630  1.00  0.00     0.049 A 
ATOM     57  H   UNL     1     -10.504  10.701   2.464  1.00  0.00     0.167 HD
ATOM     58  C   UNL     1      -8.268  13.567   0.027  1.00  0.00     0.037 A 
ATOM     59  C   UNL     1     -12.232   9.963   4.535  1.00  0.00     0.037 A 
ATOM     60  C   UNL     1      -9.079  14.372   0.904  1.00  0.00     0.049 A 
ATOM     61  C   UNL     1     -12.230  11.469   4.511  1.00  0.00     0.074 A 
ATOM     62  C   UNL     1      -9.175  15.752   0.963  1.00  0.00     0.029 A 
ATOM     63  N   UNL     1      -9.940  13.870   1.868  1.00  0.00    -0.354 N 
ATOM     64  N   UNL     1     -11.557  12.280   3.729  1.00  0.00    -0.248 NA
ATOM     65  C   UNL     1     -13.100  12.151   5.479  1.00  0.00     0.031 C 
ATOM     66  C   UNL     1     -10.071  16.085   1.985  1.00  0.00     0.029 A 
ATOM     67  C   UNL     1     -10.568  14.912   2.531  1.00  0.00     0.049 A 
ATOM     68  H   UNL     1     -10.084  12.915   2.055  1.00  0.00     0.167 HD
ATOM     69  C   UNL     1     -11.952  13.565   4.086  1.00  0.00     0.074 A 
ATOM     70  C   UNL     1     -12.925  13.423   5.149  1.00  0.00     0.031 C 
ATOM     71  C   UNL     1     -11.550  14.755   3.574  1.00  0.00     0.037 A 
BRANCH  58  72
ATOM     72  C   UNL     1      -7.357  14.265  -0.946  1.00  0.00     0.058 A 
ATOM     73  C   UNL     1      -7.611  14.257  -2.328  1.00  0.00     0.135 A 
ATOM     74  C   UNL     1      -6.229  14.967  -0.493  1.00  0.00     0.135 A 
ATOM     75  F   UNL     1      -8.666  13.588  -2.818  1.00  0.00    -0.206 F 
ATOM     76  C   UNL     1      -6.760  14.889  -3.228  1.00  0.00     0.059 A 
ATOM     77  C   UNL     1      -5.379  15.632  -1.373  1.00  0.00     0.059 A 
ATOM     78  F   UNL     1      -5.938  15.008   0.817  1.00  0.00    -0.206 F 
ATOM     79  C   UNL     1      -5.644  15.572  -2.741  1.00  0.00     0.060 A 
BRANCH  79  80
ATOM     80  S   UNL     1      -4.544  16.381  -3.921  1.00  0.00     0.124 S 
ATOM     81  O   UNL     1      -3.843  15.236  -4.495  1.00  0.00    -0.237 OA
ATOM     82  O   UNL     1      -5.482  17.059  -4.810  1.00  0.00    -0.237 OA
ATOM     83  O   UNL     1      -3.732  17.257  -3.083  1.00  0.00    -0.744 OA
ENDBRANCH  79  80
ENDBRANCH  58  72
BRANCH  59  84
ATOM     84  C   UNL     1     -13.070   9.221   5.515  1.00  0.00     0.058 A 
ATOM     85  C   UNL     1     -14.470   9.216   5.410  1.00  0.00     0.135 A 
ATOM     86  C   UNL     1     -12.492   8.500   6.571  1.00  0.00     0.135 A 
ATOM     87  F   UNL     1     -15.070   9.895   4.420  1.00  0.00    -0.206 F 
ATOM     88  C   UNL     1     -15.268   8.540   6.327  1.00  0.00     0.059 A 
ATOM     89  C   UNL     1     -13.268   7.796   7.486  1.00  0.00     0.059 A 
ATOM     90  F   UNL     1     -11.157   8.459   6.705  1.00  0.00    -0.206 F 
ATOM     91  C   UNL     1     -14.657   7.831   7.362  1.00  0.00     0.060 A 
BRANCH  91  92
ATOM     92  S   UNL     1     -15.699   6.918   8.521  1.00  0.00     0.124 S 
ATOM     93  O   UNL     1     -16.254   7.998   9.329  1.00  0.00    -0.237 OA
ATOM     94  O   UNL     1     -16.635   6.243   7.627  1.00  0.00    -0.237 OA
ATOM     95  O   UNL     1     -14.752   6.040   9.202  1.00  0.00    -0.744 OA
ENDBRANCH  91  92
ENDBRANCH  59  84
BRANCH  71  96
ATOM     96  C   UNL     1     -12.203  15.998   4.114  1.00  0.00     0.058 A 
ATOM     97  C   UNL     1     -11.919  16.490   5.397  1.00  0.00     0.135 A 
ATOM     98  C   UNL     1     -13.101  16.726   3.316  1.00  0.00     0.135 A 
ATOM     99  F   UNL     1     -11.070  15.831   6.201  1.00  0.00    -0.206 F 
ATOM    100  C   UNL     1     -12.527  17.644   5.882  1.00  0.00     0.059 A 
ATOM    101  C   UNL     1     -13.699  17.896   3.771  1.00  0.00     0.059 A 
ATOM    102  F   UNL     1     -13.397  16.305   2.075  1.00  0.00    -0.206 F 
ATOM    103  C   UNL     1     -13.418  18.338   5.062  1.00  0.00     0.060 A 
BRANCH 103 104
ATOM    104  S   UNL     1     -14.190  19.843   5.696  1.00  0.00     0.124 S 
ATOM    105  O   UNL     1     -15.196  19.297   6.601  1.00  0.00    -0.237 OA
ATOM    106  O   UNL     1     -13.069  20.527   6.332  1.00  0.00    -0.237 OA
ATOM    107  O   UNL     1     -14.710  20.489   4.494  1.00  0.00    -0.744 OA
ENDBRANCH 103 104
ENDBRANCH  71  96
ENDBRANCH  45  46
ENDBRANCH  37  40
ENDBRANCH  35  36
ENDBRANCH  34  35
ENDBRANCH  33  34
ENDBRANCH   1  33
TORSDOF 19
