REMARK SMILES O=C(NCCCCNC(=O)[C@H]1[C@H]2CC[C@H](C2)[C@@H]1C(=O)N[C@H]1CCCc2ccccc21)c1ccc(-c2c3nc(c(-c4c(F)cc(S(=O)(=O)[O-])cc4F)c4ccc([nH]4)c(-c4c(F)cc(S(=O)(=O)[O-])cc4F)c4nc(c(-c5c(F)cc(S(=O)(=O)[O-])cc5F)c5ccc2[nH]5)C=C4)C=C3)cc1
REMARK SMILES IDX 5 1 4 2 3 3 1 4 2 5 31 7 32 8 96 9 33 10 95 11 34 12 35 13
REMARK SMILES IDX 36 14 89 15 37 16 94 17 88 18 90 19 38 20 93 21 87 22 86 23
REMARK SMILES IDX 39 25 73 26 52 27 72 28 53 29 56 30 71 31 91 32 54 33 55 34
REMARK SMILES IDX 70 36 92 37 57 38 40 39 41 40 50 41 42 42 43 43 49 44 51 45
REMARK SMILES IDX 44 46 45 47 46 48 47 49 48 50 74 51 75 52 84 53 76 54 77 55
REMARK SMILES IDX 83 56 85 57 78 58 79 59 80 60 81 61 82 62 58 63 59 64 68 65
REMARK SMILES IDX 60 66 61 67 67 68 69 69 62 70 63 71 64 72 65 73 66 74 6 75
REMARK SMILES IDX 7 76 8 77 9 78 10 80 11 81 12 82 17 83 13 84 16 85 15 86
REMARK SMILES IDX 14 87 18 88 19 89 20 90 21 92 22 93 30 94 23 95 25 96 29 97
REMARK SMILES IDX 24 98 26 99 28 100 27 101
REMARK H PARENT 3 6 90 24 56 35 8 79 20 91
REMARK Flexibility Score: inf
ROOT
ATOM      1  C   UNL     1      12.922  10.736  -6.846  1.00  0.00     0.023 C 
ENDROOT
BRANCH   1   2
ATOM      2  C   UNL     1      13.246  10.755  -8.323  1.00  0.00     0.116 C 
BRANCH   2   3
ATOM      3  N   UNL     1      12.103  10.976  -9.204  1.00  0.00    -0.352 N 
ATOM      4  O   UNL     1      11.108  11.788 -11.085  1.00  0.00    -0.269 OA
ATOM      5  C   UNL     1      12.130  11.586 -10.443  1.00  0.00     0.251 C 
ATOM      6  H   UNL     1      11.227  10.659  -8.883  1.00  0.00     0.163 HD
BRANCH   5   7
ATOM      7  C   UNL     1      13.448  12.027 -10.940  1.00  0.00     0.039 A 
ATOM      8  C   UNL     1      14.506  11.120 -10.903  1.00  0.00     0.014 A 
ATOM      9  C   UNL     1      13.666  13.372 -11.243  1.00  0.00     0.014 A 
ATOM     10  C   UNL     1      15.801  11.601 -10.942  1.00  0.00     0.010 A 
ATOM     11  C   UNL     1      14.974  13.823 -11.442  1.00  0.00     0.010 A 
ATOM     12  C   UNL     1      16.056  12.949 -11.254  1.00  0.00    -0.014 A 
BRANCH  12  13
ATOM     13  C   UNL     1      17.468  13.356 -11.467  1.00  0.00     0.031 A 
ATOM     14  C   UNL     1      18.134  14.417 -10.636  1.00  0.00     0.074 A 
ATOM     15  C   UNL     1      18.168  12.680 -12.402  1.00  0.00     0.049 A 
ATOM     16  N   UNL     1      19.372  14.839 -10.690  1.00  0.00    -0.248 NA
ATOM     17  C   UNL     1      17.315  15.103  -9.623  1.00  0.00     0.031 C 
ATOM     18  C   UNL     1      17.609  11.646 -13.282  1.00  0.00     0.029 A 
ATOM     19  N   UNL     1      19.492  12.720 -12.746  1.00  0.00    -0.354 N 
ATOM     20  C   UNL     1      19.481  15.845  -9.736  1.00  0.00     0.074 A 
ATOM     21  C   UNL     1      18.172  15.992  -9.135  1.00  0.00     0.031 C 
ATOM     22  C   UNL     1      18.593  11.096 -14.002  1.00  0.00     0.029 A 
ATOM     23  C   UNL     1      19.830  11.808 -13.718  1.00  0.00     0.049 A 
ATOM     24  H   UNL     1      20.139  13.340 -12.338  1.00  0.00     0.167 HD
ATOM     25  C   UNL     1      20.576  16.567  -9.393  1.00  0.00     0.037 A 
ATOM     26  C   UNL     1      20.998  11.585 -14.344  1.00  0.00     0.037 A 
ATOM     27  C   UNL     1      21.875  16.401 -10.003  1.00  0.00     0.049 A 
ATOM     28  C   UNL     1      22.185  12.412 -13.954  1.00  0.00     0.074 A 
ATOM     29  C   UNL     1      23.049  17.081  -9.728  1.00  0.00     0.029 A 
ATOM     30  N   UNL     1      22.172  15.489 -11.008  1.00  0.00    -0.354 N 
ATOM     31  N   UNL     1      22.266  13.356 -13.046  1.00  0.00    -0.248 NA
ATOM     32  C   UNL     1      23.435  12.150 -14.673  1.00  0.00     0.031 C 
ATOM     33  C   UNL     1      24.043  16.612 -10.594  1.00  0.00     0.029 A 
ATOM     34  C   UNL     1      23.506  15.599 -11.372  1.00  0.00     0.049 A 
ATOM     35  H   UNL     1      21.530  14.857 -11.403  1.00  0.00     0.167 HD
ATOM     36  C   UNL     1      23.581  13.799 -13.082  1.00  0.00     0.074 A 
ATOM     37  C   UNL     1      24.265  12.991 -14.073  1.00  0.00     0.031 C 
ATOM     38  C   UNL     1      24.167  14.792 -12.368  1.00  0.00     0.037 A 
BRANCH  25  39
ATOM     39  C   UNL     1      20.429  17.611  -8.316  1.00  0.00     0.058 A 
ATOM     40  C   UNL     1      20.253  17.261  -6.968  1.00  0.00     0.135 A 
ATOM     41  C   UNL     1      20.540  18.979  -8.623  1.00  0.00     0.135 A 
ATOM     42  F   UNL     1      20.127  15.972  -6.615  1.00  0.00    -0.206 F 
ATOM     43  C   UNL     1      20.177  18.226  -5.966  1.00  0.00     0.059 A 
ATOM     44  C   UNL     1      20.493  19.960  -7.634  1.00  0.00     0.059 A 
ATOM     45  F   UNL     1      20.710  19.374  -9.894  1.00  0.00    -0.206 F 
ATOM     46  C   UNL     1      20.302  19.573  -6.309  1.00  0.00     0.060 A 
BRANCH  46  47
ATOM     47  S   UNL     1      20.226  20.807  -4.992  1.00  0.00     0.124 S 
ATOM     48  O   UNL     1      18.817  20.743  -4.614  1.00  0.00    -0.237 OA
ATOM     49  O   UNL     1      21.168  20.276  -4.013  1.00  0.00    -0.237 OA
ATOM     50  O   UNL     1      20.641  22.040  -5.655  1.00  0.00    -0.744 OA
ENDBRANCH  46  47
ENDBRANCH  25  39
BRANCH  26  51
ATOM     51  C   UNL     1      21.072  10.572 -15.429  1.00  0.00     0.058 A 
ATOM     52  C   UNL     1      21.831   9.403 -15.289  1.00  0.00     0.135 A 
ATOM     53  C   UNL     1      20.356  10.749 -16.626  1.00  0.00     0.135 A 
ATOM     54  F   UNL     1      22.529   9.187 -14.164  1.00  0.00    -0.206 F 
ATOM     55  C   UNL     1      21.903   8.458 -16.307  1.00  0.00     0.059 A 
ATOM     56  C   UNL     1      20.381   9.802 -17.641  1.00  0.00     0.059 A 
ATOM     57  F   UNL     1      19.592  11.839 -16.800  1.00  0.00    -0.206 F 
ATOM     58  C   UNL     1      21.174   8.668 -17.480  1.00  0.00     0.060 A 
BRANCH  58  59
ATOM     59  S   UNL     1      21.254   7.426 -18.787  1.00  0.00     0.124 S 
ATOM     60  O   UNL     1      22.586   7.664 -19.332  1.00  0.00    -0.237 OA
ATOM     61  O   UNL     1      21.079   6.184 -18.043  1.00  0.00    -0.237 OA
ATOM     62  O   UNL     1      20.141   7.787 -19.660  1.00  0.00    -0.744 OA
ENDBRANCH  58  59
ENDBRANCH  26  51
BRANCH  38  63
ATOM     63  C   UNL     1      25.627  15.034 -12.628  1.00  0.00     0.058 A 
ATOM     64  C   UNL     1      26.078  15.592 -13.836  1.00  0.00     0.135 A 
ATOM     65  C   UNL     1      26.587  14.698 -11.661  1.00  0.00     0.135 A 
ATOM     66  F   UNL     1      25.201  15.922 -14.797  1.00  0.00    -0.206 F 
ATOM     67  C   UNL     1      27.433  15.766 -14.093  1.00  0.00     0.059 A 
ATOM     68  C   UNL     1      27.946  14.894 -11.884  1.00  0.00     0.059 A 
ATOM     69  F   UNL     1      26.209  14.170 -10.486  1.00  0.00    -0.206 F 
ATOM     70  C   UNL     1      28.360  15.409 -13.112  1.00  0.00     0.060 A 
BRANCH  70  71
ATOM     71  S   UNL     1      30.116  15.636 -13.460  1.00  0.00     0.124 S 
ATOM     72  O   UNL     1      30.372  14.549 -14.399  1.00  0.00    -0.237 OA
ATOM     73  O   UNL     1      30.152  16.982 -14.022  1.00  0.00    -0.237 OA
ATOM     74  O   UNL     1      30.743  15.494 -12.149  1.00  0.00    -0.744 OA
ENDBRANCH  70  71
ENDBRANCH  38  63
ENDBRANCH  12  13
ENDBRANCH   5   7
ENDBRANCH   2   3
ENDBRANCH   1   2
BRANCH   1  75
ATOM     75  C   UNL     1      11.878   9.712  -6.449  1.00  0.00     0.023 C 
BRANCH  75  76
ATOM     76  C   UNL     1      12.214   8.238  -6.728  1.00  0.00     0.116 C 
BRANCH  76  77
ATOM     77  N   UNL     1      12.941   7.606  -5.636  1.00  0.00    -0.356 N 
ATOM     78  C   UNL     1      12.590   6.473  -4.948  1.00  0.00     0.224 C 
ATOM     79  H   UNL     1      13.780   8.042  -5.361  1.00  0.00     0.163 HD
ATOM     80  O   UNL     1      13.441   5.570  -4.972  1.00  0.00    -0.275 OA
BRANCH  78  81
ATOM     81  C   UNL     1      11.171   6.286  -3.995  1.00  0.00     0.094 C 
ATOM     82  C   UNL     1      10.698   6.656  -1.808  1.00  0.00     0.002 C 
ATOM     83  C   UNL     1       9.875   7.686  -4.745  1.00  0.00     0.094 C 
ATOM     84  C   UNL     1      10.991   8.369  -1.053  1.00  0.00     0.005 C 
ATOM     85  C   UNL     1       8.959   7.532  -1.611  1.00  0.00     0.009 C 
ATOM     86  C   UNL     1       9.122   8.657  -3.115  1.00  0.00     0.002 C 
ATOM     87  C   UNL     1      10.067   9.525  -2.019  1.00  0.00     0.005 C 
BRANCH  83  88
ATOM     88  C   UNL     1       8.943   6.670  -5.678  1.00  0.00     0.224 C 
ATOM     89  O   UNL     1       8.509   7.096  -6.755  1.00  0.00    -0.275 OA
ATOM     90  N   UNL     1       8.651   5.321  -5.352  1.00  0.00    -0.349 N 
ATOM     91  H   UNL     1       8.351   4.809  -6.137  1.00  0.00     0.164 HD
BRANCH  90  92
ATOM     92  C   UNL     1       8.686   4.442  -4.055  1.00  0.00     0.112 C 
ATOM     93  C   UNL     1       9.087   2.984  -4.320  1.00  0.00     0.030 C 
ATOM     94  C   UNL     1       9.629   5.030  -3.021  1.00  0.00    -0.022 A 
ATOM     95  C   UNL     1       9.696   2.310  -3.065  1.00  0.00     0.007 C 
ATOM     96  C   UNL     1      11.047   4.393  -2.588  1.00  0.00    -0.043 A 
ATOM     97  C   UNL     1       9.571   6.578  -3.228  1.00  0.00     0.006 A 
ATOM     98  C   UNL     1      11.086   2.883  -2.683  1.00  0.00     0.036 C 
ATOM     99  C   UNL     1      12.472   5.292  -2.336  1.00  0.00     0.004 A 
ATOM    100  C   UNL     1      11.170   7.796  -3.125  1.00  0.00     0.000 A 
ATOM    101  C   UNL     1      12.624   6.960  -2.573  1.00  0.00     0.000 A 
ENDBRANCH  90  92
ENDBRANCH  83  88
ENDBRANCH  78  81
ENDBRANCH  76  77
ENDBRANCH  75  76
ENDBRANCH   1  75
TORSDOF 16
