REMARK SMILES CSc1ccc(C[C@H]([NH3+])C(=O)NCCCCNC(=O)c2ccc(-c3c4nc(c(-c5c(F)cc(S(=O)(=O)[O-])cc5F)c5ccc([nH]5)c(-c5c(F)cc(S(=O)(=O)[O-])cc5F)c5nc(c(-c6c(F)cc(S(=O)(=O)[O-])cc6F)c6ccc3[nH]6)C=C5)C=C4)cc2)cc1
REMARK SMILES IDX 14 1 13 2 12 3 10 4 11 5 8 7 7 8 6 9 3 10 4 11 87 12 5 13
REMARK SMILES IDX 86 14 2 15 1 16 9 17 15 21 16 22 17 23 18 24 19 26 20 27
REMARK SMILES IDX 21 28 85 29 22 30 84 31 23 32 24 33 25 34 78 35 26 36 83 37
REMARK SMILES IDX 77 38 79 39 27 40 82 41 76 42 75 43 28 45 62 46 41 47 61 48
REMARK SMILES IDX 42 49 45 50 60 51 80 52 43 53 44 54 59 56 81 57 46 58 29 59
REMARK SMILES IDX 30 60 39 61 31 62 32 63 38 64 40 65 33 66 34 67 35 68 36 69
REMARK SMILES IDX 37 70 63 71 64 72 73 73 65 74 66 75 72 76 74 77 67 78 68 79
REMARK SMILES IDX 69 80 70 81 71 82 47 83 48 84 57 85 49 86 50 87 56 88 58 89
REMARK SMILES IDX 51 90 52 91 53 92 54 93 55 94
REMARK H PARENT 12 6 9 18 9 19 9 20 17 25 79 44 45 55
REMARK Flexibility Score: inf
ROOT
ATOM      1  C   UNL     1       4.449  -8.482   0.530  1.00  0.00     0.023 C 
ENDROOT
BRANCH   1   2
ATOM      2  C   UNL     1       3.108  -8.019   1.107  1.00  0.00     0.116 C 
BRANCH   2   3
ATOM      3  N   UNL     1       2.785  -8.650   2.375  1.00  0.00    -0.351 N 
ATOM      4  C   UNL     1       1.835  -8.354   3.306  1.00  0.00     0.278 C 
ATOM      5  O   UNL     1       1.795  -9.077   4.309  1.00  0.00    -0.268 OA
ATOM      6  H   UNL     1       3.349  -9.425   2.600  1.00  0.00     0.163 HD
BRANCH   4   7
ATOM      7  C   UNL     1       0.852  -7.170   3.179  1.00  0.00     0.275 C 
BRANCH   7   8
ATOM      8  C   UNL     1      -0.333  -7.331   2.205  1.00  0.00     0.111 C 
BRANCH   8   9
ATOM      9  C   UNL     1      -0.911  -8.709   1.985  1.00  0.00    -0.041 A 
ATOM     10  C   UNL     1      -1.980 -11.251   1.335  1.00  0.00     0.007 A 
ATOM     11  C   UNL     1      -0.723 -10.875   0.881  1.00  0.00     0.015 A 
ATOM     12  C   UNL     1      -2.686 -10.364   2.158  1.00  0.00     0.015 A 
ATOM     13  C   UNL     1      -0.220  -9.614   1.177  1.00  0.00     0.005 A 
ATOM     14  C   UNL     1      -2.155  -9.104   2.487  1.00  0.00     0.005 A 
BRANCH  10  15
ATOM     15  S   UNL     1      -2.680 -12.835   0.909  1.00  0.00    -0.130 SA
ATOM     16  C   UNL     1      -2.233 -12.957  -0.853  1.00  0.00     0.091 C 
ENDBRANCH  10  15
ENDBRANCH   8   9
ENDBRANCH   7   8
BRANCH   7  17
ATOM     17  N   UNL     1       1.585  -5.907   2.908  1.00  0.00    -0.347 N 
ATOM     18  H   UNL     1       2.026  -5.960   1.989  1.00  0.00     0.345 HD
ATOM     19  H   UNL     1       2.301  -5.769   3.621  1.00  0.00     0.345 HD
ATOM     20  H   UNL     1       0.932  -5.123   2.926  1.00  0.00     0.345 HD
ENDBRANCH   7  17
ENDBRANCH   4   7
ENDBRANCH   2   3
ENDBRANCH   1   2
BRANCH   1  21
ATOM     21  C   UNL     1       4.687  -9.995   0.431  1.00  0.00     0.023 C 
BRANCH  21  22
ATOM     22  C   UNL     1       3.593 -10.823  -0.236  1.00  0.00     0.116 C 
BRANCH  22  23
ATOM     23  N   UNL     1       3.382 -10.478  -1.632  1.00  0.00    -0.352 N 
ATOM     24  C   UNL     1       3.594 -11.218  -2.773  1.00  0.00     0.251 C 
ATOM     25  H   UNL     1       3.033  -9.571  -1.786  1.00  0.00     0.163 HD
ATOM     26  O   UNL     1       3.480 -10.679  -3.869  1.00  0.00    -0.269 OA
BRANCH  24  27
ATOM     27  C   UNL     1       3.987 -12.646  -2.693  1.00  0.00     0.039 A 
ATOM     28  C   UNL     1       5.039 -13.096  -3.496  1.00  0.00     0.014 A 
ATOM     29  C   UNL     1       3.322 -13.543  -1.854  1.00  0.00     0.014 A 
ATOM     30  C   UNL     1       5.478 -14.421  -3.394  1.00  0.00     0.010 A 
ATOM     31  C   UNL     1       3.804 -14.845  -1.703  1.00  0.00     0.010 A 
ATOM     32  C   UNL     1       4.896 -15.296  -2.461  1.00  0.00    -0.014 A 
BRANCH  32  33
ATOM     33  C   UNL     1       5.451 -16.661  -2.242  1.00  0.00     0.031 A 
ATOM     34  C   UNL     1       4.626 -17.887  -2.531  1.00  0.00     0.074 A 
ATOM     35  C   UNL     1       6.689 -16.796  -1.722  1.00  0.00     0.049 A 
ATOM     36  N   UNL     1       4.935 -19.148  -2.362  1.00  0.00    -0.248 NA
ATOM     37  C   UNL     1       3.271 -17.670  -3.060  1.00  0.00     0.031 C 
ATOM     38  C   UNL     1       7.573 -15.689  -1.348  1.00  0.00     0.029 A 
ATOM     39  N   UNL     1       7.418 -17.918  -1.408  1.00  0.00    -0.354 N 
ATOM     40  C   UNL     1       3.815 -19.873  -2.753  1.00  0.00     0.074 A 
ATOM     41  C   UNL     1       2.801 -18.908  -3.123  1.00  0.00     0.031 C 
ATOM     42  C   UNL     1       8.727 -16.185  -0.877  1.00  0.00     0.029 A 
ATOM     43  C   UNL     1       8.656 -17.642  -0.874  1.00  0.00     0.049 A 
ATOM     44  H   UNL     1       7.085 -18.833  -1.551  1.00  0.00     0.167 HD
ATOM     45  C   UNL     1       3.652 -21.217  -2.817  1.00  0.00     0.037 A 
ATOM     46  C   UNL     1       9.623 -18.466  -0.422  1.00  0.00     0.037 A 
ATOM     47  C   UNL     1       4.670 -22.174  -2.461  1.00  0.00     0.049 A 
ATOM     48  C   UNL     1       9.415 -19.955  -0.495  1.00  0.00     0.074 A 
ATOM     49  C   UNL     1       4.620 -23.555  -2.552  1.00  0.00     0.029 A 
ATOM     50  N   UNL     1       5.915 -21.856  -1.937  1.00  0.00    -0.354 N 
ATOM     51  N   UNL     1       8.377 -20.621  -0.942  1.00  0.00    -0.248 NA
ATOM     52  C   UNL     1      10.511 -20.805  -0.011  1.00  0.00     0.031 C 
ATOM     53  C   UNL     1       5.811 -24.073  -2.032  1.00  0.00     0.029 A 
ATOM     54  C   UNL     1       6.629 -23.014  -1.675  1.00  0.00     0.049 A 
ATOM     55  H   UNL     1       6.242 -20.942  -1.776  1.00  0.00     0.167 HD
ATOM     56  C   UNL     1       8.706 -21.966  -0.818  1.00  0.00     0.074 A 
ATOM     57  C   UNL     1      10.044 -22.019  -0.268  1.00  0.00     0.031 C 
ATOM     58  C   UNL     1       7.965 -23.058  -1.131  1.00  0.00     0.037 A 
BRANCH  45  59
ATOM     59  C   UNL     1       2.323 -21.743  -3.291  1.00  0.00     0.058 A 
ATOM     60  C   UNL     1       1.910 -21.611  -4.627  1.00  0.00     0.135 A 
ATOM     61  C   UNL     1       1.474 -22.437  -2.412  1.00  0.00     0.135 A 
ATOM     62  F   UNL     1       2.675 -20.948  -5.509  1.00  0.00    -0.206 F 
ATOM     63  C   UNL     1       0.695 -22.125  -5.068  1.00  0.00     0.059 A 
ATOM     64  C   UNL     1       0.267 -22.985  -2.838  1.00  0.00     0.059 A 
ATOM     65  F   UNL     1       1.818 -22.595  -1.124  1.00  0.00    -0.206 F 
ATOM     66  C   UNL     1      -0.119 -22.812  -4.166  1.00  0.00     0.060 A 
BRANCH  66  67
ATOM     67  S   UNL     1      -1.687 -23.482  -4.761  1.00  0.00     0.124 S 
ATOM     68  O   UNL     1      -2.470 -22.265  -4.951  1.00  0.00    -0.237 OA
ATOM     69  O   UNL     1      -1.286 -24.174  -5.982  1.00  0.00    -0.237 OA
ATOM     70  O   UNL     1      -2.125 -24.346  -3.669  1.00  0.00    -0.744 OA
ENDBRANCH  66  67
ENDBRANCH  45  59
BRANCH  46  71
ATOM     71  C   UNL     1      10.884 -17.900   0.131  1.00  0.00     0.058 A 
ATOM     72  C   UNL     1      12.103 -18.045  -0.548  1.00  0.00     0.135 A 
ATOM     73  C   UNL     1      10.895 -17.197   1.346  1.00  0.00     0.135 A 
ATOM     74  F   UNL     1      12.148 -18.715  -1.710  1.00  0.00    -0.206 F 
ATOM     75  C   UNL     1      13.290 -17.531  -0.035  1.00  0.00     0.059 A 
ATOM     76  C   UNL     1      12.063 -16.649   1.865  1.00  0.00     0.059 A 
ATOM     77  F   UNL     1       9.753 -17.015   2.028  1.00  0.00    -0.206 F 
ATOM     78  C   UNL     1      13.259 -16.831   1.172  1.00  0.00     0.060 A 
BRANCH  78  79
ATOM     79  S   UNL     1      14.797 -16.129   1.805  1.00  0.00     0.124 S 
ATOM     80  O   UNL     1      15.508 -17.324   2.244  1.00  0.00    -0.237 OA
ATOM     81  O   UNL     1      15.337 -15.461   0.625  1.00  0.00    -0.237 OA
ATOM     82  O   UNL     1      14.346 -15.236   2.869  1.00  0.00    -0.744 OA
ENDBRANCH  78  79
ENDBRANCH  46  71
BRANCH  58  83
ATOM     83  C   UNL     1       8.595 -24.410  -0.923  1.00  0.00     0.058 A 
ATOM     84  C   UNL     1       8.816 -24.935   0.360  1.00  0.00     0.135 A 
ATOM     85  C   UNL     1       8.940 -25.210  -2.025  1.00  0.00     0.135 A 
ATOM     86  F   UNL     1       8.512 -24.211   1.449  1.00  0.00    -0.206 F 
ATOM     87  C   UNL     1       9.380 -26.194   0.543  1.00  0.00     0.059 A 
ATOM     88  C   UNL     1       9.476 -26.484  -1.865  1.00  0.00     0.059 A 
ATOM     89  F   UNL     1       8.741 -24.762  -3.275  1.00  0.00    -0.206 F 
ATOM     90  C   UNL     1       9.704 -26.963  -0.576  1.00  0.00     0.060 A 
BRANCH  90  91
ATOM     91  S   UNL     1      10.408 -28.606  -0.324  1.00  0.00     0.124 S 
ATOM     92  O   UNL     1      11.755 -28.283   0.132  1.00  0.00    -0.237 OA
ATOM     93  O   UNL     1       9.517 -29.176   0.683  1.00  0.00    -0.237 OA
ATOM     94  O   UNL     1      10.323 -29.220  -1.646  1.00  0.00    -0.744 OA
ENDBRANCH  90  91
ENDBRANCH  58  83
ENDBRANCH  32  33
ENDBRANCH  24  27
ENDBRANCH  22  23
ENDBRANCH  21  22
ENDBRANCH   1  21
TORSDOF 18
