REMARK SMILES Cc1nsc(NC(=O)[C@H]2Cc3[nH]cnc3C[NH2+]2)c1C(=O)NCCCCNC(=O)c1ccc(-c2c3nc(c(-c4c(F)cc(S(=O)(=O)[O-])cc4F)c4ccc([nH]4)c(-c4c(F)cc(S(=O)(=O)[O-])cc4F)c4nc(c(-c5c(F)cc(S(=O)(=O)[O-])cc5F)c5ccc2[nH]5)C=C4)C=C3)cc1
REMARK SMILES IDX 24 1 23 2 22 3 21 4 19 5 20 6 18 8 1 9 2 10 3 11 4 12 5 13
REMARK SMILES IDX 6 14 7 15 8 17 9 18 10 19 17 20 11 21 16 22 12 25 15 26
REMARK SMILES IDX 13 27 14 29 25 30 26 31 27 32 28 34 29 35 30 36 94 37 31 38
REMARK SMILES IDX 93 39 32 40 33 41 34 42 87 43 35 44 92 45 86 46 88 47 36 48
REMARK SMILES IDX 91 49 85 50 84 51 37 53 71 54 50 55 70 56 51 57 54 58 69 59
REMARK SMILES IDX 89 60 52 61 53 62 68 64 90 65 55 66 38 67 39 68 48 69 40 70
REMARK SMILES IDX 41 71 47 72 49 73 42 74 43 75 44 76 45 77 46 78 72 79 73 80
REMARK SMILES IDX 82 81 74 82 75 83 81 84 83 85 76 86 77 87 78 88 79 89 80 90
REMARK SMILES IDX 56 91 57 92 66 93 58 94 59 95 65 96 67 97 60 98 61 99 62 100
REMARK SMILES IDX 63 101 64 102
REMARK H PARENT 21 7 6 16 17 23 17 24 12 28 26 33 88 52 54 63
REMARK Flexibility Score: inf
ROOT
ATOM      1  C   UNL     1       4.161   2.456   2.096  1.00  0.00     0.023 C 
ENDROOT
BRANCH   1   2
ATOM      2  C   UNL     1       3.428   1.494   1.153  1.00  0.00     0.023 C 
BRANCH   2   3
ATOM      3  C   UNL     1       1.942   1.781   0.951  1.00  0.00     0.116 C 
BRANCH   3   4
ATOM      4  N   UNL     1       1.669   2.629  -0.174  1.00  0.00    -0.352 N 
ATOM      5  C   UNL     1       0.999   2.482  -1.357  1.00  0.00     0.256 C 
ATOM      6  O   UNL     1       0.998   3.524  -2.029  1.00  0.00    -0.269 OA
ATOM      7  H   UNL     1       2.055   3.528  -0.069  1.00  0.00     0.163 HD
BRANCH   5   8
ATOM      8  C   UNL     1       0.310   1.279  -1.877  1.00  0.00     0.097 A 
ATOM      9  C   UNL     1       0.565  -0.887  -0.239  1.00  0.00     0.069 C 
ATOM     10  C   UNL     1       0.096  -0.108  -1.417  1.00  0.00     0.066 A 
ATOM     11  N   UNL     1      -0.673  -0.866  -2.197  1.00  0.00    -0.195 NA
ATOM     12  S   UNL     1      -1.232   0.013  -3.430  1.00  0.00    -0.017 S 
ATOM     13  C   UNL     1      -0.293   1.379  -3.153  1.00  0.00     0.129 A 
BRANCH  13  14
ATOM     14  N   UNL     1      -0.268   2.447  -4.042  1.00  0.00    -0.311 N 
ATOM     15  C   UNL     1      -0.503   2.584  -5.386  1.00  0.00     0.283 C 
ATOM     16  H   UNL     1      -0.027   3.298  -3.609  1.00  0.00     0.171 HD
ATOM     17  O   UNL     1      -0.373   3.724  -5.856  1.00  0.00    -0.268 OA
BRANCH  15  18
ATOM     18  C   UNL     1      -0.771   1.415  -6.364  1.00  0.00     0.279 C 
ATOM     19  C   UNL     1       0.469   0.464  -6.386  1.00  0.00     0.131 C 
ATOM     20  N   UNL     1      -2.153   0.878  -6.171  1.00  0.00    -0.331 N 
ATOM     21  C   UNL     1       0.026  -0.942  -6.470  1.00  0.00     0.050 A 
ATOM     22  C   UNL     1      -2.421  -0.424  -6.823  1.00  0.00     0.320 C 
ATOM     23  H   UNL     1      -2.811   1.560  -6.547  1.00  0.00     0.347 HD
ATOM     24  H   UNL     1      -2.257   0.719  -5.169  1.00  0.00     0.347 HD
ATOM     25  N   UNL     1       0.760  -2.073  -6.282  1.00  0.00    -0.348 N 
ATOM     26  C   UNL     1      -1.271  -1.355  -6.649  1.00  0.00     0.116 A 
ATOM     27  C   UNL     1      -0.117  -3.123  -6.345  1.00  0.00     0.197 A 
ATOM     28  H   UNL     1       1.732  -2.126  -6.129  1.00  0.00     0.167 HD
ATOM     29  N   UNL     1      -1.349  -2.721  -6.584  1.00  0.00    -0.236 NA
ENDBRANCH  15  18
ENDBRANCH  13  14
ENDBRANCH   5   8
ENDBRANCH   3   4
ENDBRANCH   2   3
ENDBRANCH   1   2
BRANCH   1  30
ATOM     30  C   UNL     1       3.589   2.542   3.510  1.00  0.00     0.116 C 
BRANCH  30  31
ATOM     31  N   UNL     1       3.564   1.257   4.211  1.00  0.00    -0.352 N 
ATOM     32  C   UNL     1       2.921   0.958   5.406  1.00  0.00     0.251 C 
ATOM     33  H   UNL     1       4.061   0.520   3.787  1.00  0.00     0.163 HD
ATOM     34  O   UNL     1       3.274   0.020   6.095  1.00  0.00    -0.269 OA
BRANCH  32  35
ATOM     35  C   UNL     1       1.780   1.805   5.801  1.00  0.00     0.039 A 
ATOM     36  C   UNL     1       1.638   2.312   7.095  1.00  0.00     0.014 A 
ATOM     37  C   UNL     1       0.877   2.139   4.798  1.00  0.00     0.014 A 
ATOM     38  C   UNL     1       0.627   3.240   7.342  1.00  0.00     0.010 A 
ATOM     39  C   UNL     1       0.000   3.171   4.997  1.00  0.00     0.010 A 
ATOM     40  C   UNL     1      -0.176   3.683   6.279  1.00  0.00    -0.014 A 
BRANCH  40  41
ATOM     41  C   UNL     1      -1.159   4.746   6.454  1.00  0.00     0.031 A 
ATOM     42  C   UNL     1      -0.618   6.044   6.946  1.00  0.00     0.074 A 
ATOM     43  C   UNL     1      -2.409   4.650   5.949  1.00  0.00     0.049 A 
ATOM     44  N   UNL     1      -0.831   6.611   8.087  1.00  0.00    -0.248 NA
ATOM     45  C   UNL     1       0.391   6.737   6.127  1.00  0.00     0.031 C 
ATOM     46  C   UNL     1      -2.978   3.575   5.123  1.00  0.00     0.029 A 
ATOM     47  N   UNL     1      -3.406   5.572   5.951  1.00  0.00    -0.354 N 
ATOM     48  C   UNL     1      -0.176   7.841   8.039  1.00  0.00     0.074 A 
ATOM     49  C   UNL     1       0.717   7.766   6.913  1.00  0.00     0.031 C 
ATOM     50  C   UNL     1      -4.089   4.024   4.501  1.00  0.00     0.029 A 
ATOM     51  C   UNL     1      -4.410   5.340   5.018  1.00  0.00     0.049 A 
ATOM     52  H   UNL     1      -3.416   6.342   6.564  1.00  0.00     0.167 HD
ATOM     53  C   UNL     1      -0.597   8.903   8.785  1.00  0.00     0.037 A 
ATOM     54  C   UNL     1      -5.406   6.192   4.668  1.00  0.00     0.037 A 
ATOM     55  C   UNL     1      -1.557   8.484   9.778  1.00  0.00     0.049 A 
ATOM     56  C   UNL     1      -5.524   7.191   5.766  1.00  0.00     0.074 A 
ATOM     57  C   UNL     1      -1.543   7.571  10.816  1.00  0.00     0.029 A 
ATOM     58  N   UNL     1      -2.885   8.747   9.531  1.00  0.00    -0.354 N 
ATOM     59  N   UNL     1      -5.917   6.896   6.976  1.00  0.00    -0.248 NA
ATOM     60  C   UNL     1      -4.746   8.417   5.651  1.00  0.00     0.031 C 
ATOM     61  C   UNL     1      -2.830   6.959  10.779  1.00  0.00     0.029 A 
ATOM     62  C   UNL     1      -3.579   7.592   9.786  1.00  0.00     0.049 A 
ATOM     63  H   UNL     1      -3.265   9.603   9.228  1.00  0.00     0.167 HD
ATOM     64  C   UNL     1      -5.087   7.631   7.811  1.00  0.00     0.074 A 
ATOM     65  C   UNL     1      -4.449   8.615   6.938  1.00  0.00     0.031 C 
ATOM     66  C   UNL     1      -4.768   7.191   9.066  1.00  0.00     0.037 A 
BRANCH  53  67
ATOM     67  C   UNL     1      -0.440  10.362   8.412  1.00  0.00     0.058 A 
ATOM     68  C   UNL     1      -0.789  11.353   9.357  1.00  0.00     0.135 A 
ATOM     69  C   UNL     1      -0.234  10.829   7.096  1.00  0.00     0.135 A 
ATOM     70  F   UNL     1      -1.004  11.029  10.642  1.00  0.00    -0.206 F 
ATOM     71  C   UNL     1      -1.009  12.685   9.002  1.00  0.00     0.059 A 
ATOM     72  C   UNL     1      -0.391  12.162   6.732  1.00  0.00     0.059 A 
ATOM     73  F   UNL     1       0.030  10.004   6.077  1.00  0.00    -0.206 F 
ATOM     74  C   UNL     1      -0.826  13.074   7.680  1.00  0.00     0.060 A 
BRANCH  74  75
ATOM     75  S   UNL     1      -1.221  14.762   7.192  1.00  0.00     0.124 S 
ATOM     76  O   UNL     1      -2.675  14.762   7.303  1.00  0.00    -0.237 OA
ATOM     77  O   UNL     1      -0.502  15.543   8.192  1.00  0.00    -0.237 OA
ATOM     78  O   UNL     1      -0.690  14.851   5.835  1.00  0.00    -0.744 OA
ENDBRANCH  74  75
ENDBRANCH  53  67
BRANCH  54  79
ATOM     79  C   UNL     1      -6.019   6.381   3.326  1.00  0.00     0.058 A 
ATOM     80  C   UNL     1      -7.204   7.119   3.164  1.00  0.00     0.135 A 
ATOM     81  C   UNL     1      -5.314   6.075   2.143  1.00  0.00     0.135 A 
ATOM     82  F   UNL     1      -7.931   7.470   4.237  1.00  0.00    -0.206 F 
ATOM     83  C   UNL     1      -7.636   7.575   1.913  1.00  0.00     0.059 A 
ATOM     84  C   UNL     1      -5.731   6.507   0.884  1.00  0.00     0.059 A 
ATOM     85  F   UNL     1      -4.141   5.424   2.182  1.00  0.00    -0.206 F 
ATOM     86  C   UNL     1      -6.878   7.282   0.780  1.00  0.00     0.060 A 
BRANCH  86  87
ATOM     87  S   UNL     1      -7.323   8.030  -0.807  1.00  0.00     0.124 S 
ATOM     88  O   UNL     1      -8.553   7.321  -1.140  1.00  0.00    -0.237 OA
ATOM     89  O   UNL     1      -7.473   9.437  -0.452  1.00  0.00    -0.237 OA
ATOM     90  O   UNL     1      -6.175   7.725  -1.657  1.00  0.00    -0.744 OA
ENDBRANCH  86  87
ENDBRANCH  54  79
BRANCH  66  91
ATOM     91  C   UNL     1      -5.565   6.058   9.663  1.00  0.00     0.058 A 
ATOM     92  C   UNL     1      -5.642   4.759   9.130  1.00  0.00     0.135 A 
ATOM     93  C   UNL     1      -6.151   6.265  10.922  1.00  0.00     0.135 A 
ATOM     94  F   UNL     1      -5.014   4.440   7.990  1.00  0.00    -0.206 F 
ATOM     95  C   UNL     1      -6.315   3.730   9.792  1.00  0.00     0.059 A 
ATOM     96  C   UNL     1      -6.795   5.246  11.617  1.00  0.00     0.059 A 
ATOM     97  F   UNL     1      -6.055   7.465  11.519  1.00  0.00    -0.206 F 
ATOM     98  C   UNL     1      -6.890   3.984  11.037  1.00  0.00     0.060 A 
BRANCH  98  99
ATOM     99  S   UNL     1      -7.714   2.641  11.918  1.00  0.00     0.124 S 
ATOM    100  O   UNL     1      -8.921   2.449  11.122  1.00  0.00    -0.237 OA
ATOM    101  O   UNL     1      -6.730   1.565  11.849  1.00  0.00    -0.237 OA
ATOM    102  O   UNL     1      -7.929   3.191  13.255  1.00  0.00    -0.744 OA
ENDBRANCH  98  99
ENDBRANCH  66  91
ENDBRANCH  40  41
ENDBRANCH  32  35
ENDBRANCH  30  31
ENDBRANCH   1  30
TORSDOF 16
