REMARK SMILES N#CCC[NH2+]C1(C(=O)NCCCCNC(=O)c2ccc(-c3c4nc(c(-c5c(F)cc(S(=O)(=O)[O-])cc5F)c5ccc([nH]5)c(-c5c(F)cc(S(=O)(=O)[O-])cc5F)c5nc(c(-c6c(F)cc(S(=O)(=O)[O-])cc6F)c6ccc3[nH]6)C=C5)C=C4)cc2)CC1
REMARK SMILES IDX 11 1 10 2 9 3 7 4 8 5 6 7 83 8 84 9 5 10 4 13 3 14 2 15 1 16
REMARK SMILES IDX 12 17 13 18 14 19 15 20 16 22 17 23 18 24 82 25 19 26 81 27
REMARK SMILES IDX 20 28 21 29 22 30 75 31 23 32 80 33 74 34 76 35 24 36 79 37
REMARK SMILES IDX 73 38 72 39 25 41 59 42 38 43 58 44 39 45 42 46 57 47 77 48
REMARK SMILES IDX 40 49 41 50 56 52 78 53 43 54 26 55 27 56 36 57 28 58 29 59
REMARK SMILES IDX 35 60 37 61 30 62 31 63 32 64 33 65 34 66 60 67 61 68 70 69
REMARK SMILES IDX 62 70 63 71 69 72 71 73 64 74 65 75 66 76 67 77 68 78 44 79
REMARK SMILES IDX 45 80 54 81 46 82 47 83 53 84 55 85 48 86 49 87 50 88 51 89
REMARK SMILES IDX 52 90
REMARK H PARENT 9 6 5 11 5 12 14 21 76 40 42 51
REMARK Flexibility Score: inf
ROOT
ATOM      1  C   UNL     1       5.819  -1.016  -7.488  1.00  0.00     0.023 C 
ENDROOT
BRANCH   1   2
ATOM      2  C   UNL     1       6.215  -1.649  -6.158  1.00  0.00     0.116 C 
BRANCH   2   3
ATOM      3  N   UNL     1       6.293  -0.663  -5.105  1.00  0.00    -0.351 N 
ATOM      4  C   UNL     1       5.495  -0.347  -4.043  1.00  0.00     0.281 C 
ATOM      5  O   UNL     1       5.862   0.624  -3.374  1.00  0.00    -0.268 OA
ATOM      6  H   UNL     1       7.095  -0.096  -5.167  1.00  0.00     0.163 HD
BRANCH   4   7
ATOM      7  C   UNL     1       4.242  -1.122  -3.636  1.00  0.00     0.176 C 
ATOM      8  C   UNL     1       4.127  -2.625  -3.766  1.00  0.00     0.086 C 
ATOM      9  C   UNL     1       3.313  -1.735  -4.664  1.00  0.00     0.086 C 
BRANCH   7  10
ATOM     10  N   UNL     1       3.580  -0.515  -2.456  1.00  0.00    -0.333 N 
ATOM     11  H   UNL     1       3.595   0.499  -2.563  1.00  0.00     0.347 HD
ATOM     12  H   UNL     1       2.630  -0.886  -2.421  1.00  0.00     0.347 HD
BRANCH  10  13
ATOM     13  C   UNL     1       4.225  -0.858  -1.183  1.00  0.00     0.276 C 
BRANCH  13  14
ATOM     14  C   UNL     1       3.743   0.064  -0.066  1.00  0.00     0.181 C 
BRANCH  14  15
ATOM     15  C   UNL     1       2.223   0.064  -0.066  1.00  0.00     0.068 C 
ATOM     16  N   UNL     1       0.962   0.064  -0.066  1.00  0.00    -0.198 NA
ENDBRANCH  14  15
ENDBRANCH  13  14
ENDBRANCH  10  13
ENDBRANCH   7  10
ENDBRANCH   4   7
ENDBRANCH   2   3
ENDBRANCH   1   2
BRANCH   1  17
ATOM     17  C   UNL     1       6.835  -0.015  -8.041  1.00  0.00     0.023 C 
BRANCH  17  18
ATOM     18  C   UNL     1       8.278  -0.507  -8.074  1.00  0.00     0.116 C 
BRANCH  18  19
ATOM     19  N   UNL     1       8.428  -1.782  -8.758  1.00  0.00    -0.352 N 
ATOM     20  C   UNL     1       9.411  -2.179  -9.630  1.00  0.00     0.251 C 
ATOM     21  H   UNL     1       7.731  -2.451  -8.570  1.00  0.00     0.163 HD
ATOM     22  O   UNL     1       9.327  -3.260 -10.205  1.00  0.00    -0.269 OA
BRANCH  20  23
ATOM     23  C   UNL     1      10.547  -1.274  -9.895  1.00  0.00     0.039 A 
ATOM     24  C   UNL     1      10.886  -0.990 -11.219  1.00  0.00     0.014 A 
ATOM     25  C   UNL     1      11.241  -0.676  -8.839  1.00  0.00     0.014 A 
ATOM     26  C   UNL     1      11.884  -0.053 -11.486  1.00  0.00     0.010 A 
ATOM     27  C   UNL     1      12.185   0.309  -9.108  1.00  0.00     0.010 A 
ATOM     28  C   UNL     1      12.516   0.629 -10.434  1.00  0.00    -0.014 A 
BRANCH  28  29
ATOM     29  C   UNL     1      13.530   1.679 -10.697  1.00  0.00     0.031 A 
ATOM     30  C   UNL     1      14.953   1.475 -10.255  1.00  0.00     0.074 A 
ATOM     31  C   UNL     1      13.157   2.838 -11.274  1.00  0.00     0.049 A 
ATOM     32  N   UNL     1      15.965   2.299 -10.325  1.00  0.00    -0.248 NA
ATOM     33  C   UNL     1      15.271   0.183  -9.626  1.00  0.00     0.031 C 
ATOM     34  C   UNL     1      11.798   3.168 -11.709  1.00  0.00     0.029 A 
ATOM     35  N   UNL     1      13.886   3.957 -11.589  1.00  0.00    -0.354 N 
ATOM     36  C   UNL     1      17.035   1.633  -9.740  1.00  0.00     0.074 A 
ATOM     37  C   UNL     1      16.534   0.360  -9.269  1.00  0.00     0.031 C 
ATOM     38  C   UNL     1      11.797   4.394 -12.258  1.00  0.00     0.029 A 
ATOM     39  C   UNL     1      13.144   4.952 -12.180  1.00  0.00     0.049 A 
ATOM     40  H   UNL     1      14.850   4.039 -11.408  1.00  0.00     0.167 HD
ATOM     41  C   UNL     1      18.324   2.034  -9.627  1.00  0.00     0.037 A 
ATOM     42  C   UNL     1      13.508   6.176 -12.608  1.00  0.00     0.037 A 
ATOM     43  C   UNL     1      18.820   3.294 -10.117  1.00  0.00     0.049 A 
ATOM     44  C   UNL     1      14.943   6.604 -12.464  1.00  0.00     0.074 A 
ATOM     45  C   UNL     1      20.116   3.778 -10.092  1.00  0.00     0.029 A 
ATOM     46  N   UNL     1      18.040   4.269 -10.722  1.00  0.00    -0.354 N 
ATOM     47  N   UNL     1      15.954   5.942 -11.952  1.00  0.00    -0.248 NA
ATOM     48  C   UNL     1      15.289   7.943 -12.960  1.00  0.00     0.031 C 
ATOM     49  C   UNL     1      20.113   5.061 -10.650  1.00  0.00     0.029 A 
ATOM     50  C   UNL     1      18.824   5.359 -11.062  1.00  0.00     0.049 A 
ATOM     51  H   UNL     1      17.072   4.198 -10.885  1.00  0.00     0.167 HD
ATOM     52  C   UNL     1      17.061   6.772 -12.091  1.00  0.00     0.074 A 
ATOM     53  C   UNL     1      16.596   7.981 -12.740  1.00  0.00     0.031 C 
ATOM     54  C   UNL     1      18.345   6.552 -11.716  1.00  0.00     0.037 A 
BRANCH  41  55
ATOM     55  C   UNL     1      19.282   1.093  -8.951  1.00  0.00     0.058 A 
ATOM     56  C   UNL     1      19.677  -0.113  -9.555  1.00  0.00     0.135 A 
ATOM     57  C   UNL     1      19.816   1.397  -7.689  1.00  0.00     0.135 A 
ATOM     58  F   UNL     1      19.185  -0.461 -10.755  1.00  0.00    -0.206 F 
ATOM     59  C   UNL     1      20.532  -1.002  -8.913  1.00  0.00     0.059 A 
ATOM     60  C   UNL     1      20.696   0.535  -7.041  1.00  0.00     0.059 A 
ATOM     61  F   UNL     1      19.474   2.536  -7.066  1.00  0.00    -0.206 F 
ATOM     62  C   UNL     1      21.032  -0.672  -7.653  1.00  0.00     0.060 A 
BRANCH  62  63
ATOM     63  S   UNL     1      22.123  -1.846  -6.823  1.00  0.00     0.124 S 
ATOM     64  O   UNL     1      21.175  -2.868  -6.392  1.00  0.00    -0.237 OA
ATOM     65  O   UNL     1      23.034  -2.239  -7.894  1.00  0.00    -0.237 OA
ATOM     66  O   UNL     1      22.723  -1.055  -5.754  1.00  0.00    -0.744 OA
ENDBRANCH  62  63
ENDBRANCH  41  55
BRANCH  42  67
ATOM     67  C   UNL     1      12.505   7.067 -13.247  1.00  0.00     0.058 A 
ATOM     68  C   UNL     1      12.546   7.317 -14.626  1.00  0.00     0.135 A 
ATOM     69  C   UNL     1      11.477   7.666 -12.503  1.00  0.00     0.135 A 
ATOM     70  F   UNL     1      13.513   6.771 -15.378  1.00  0.00    -0.206 F 
ATOM     71  C   UNL     1      11.611   8.139 -15.246  1.00  0.00     0.059 A 
ATOM     72  C   UNL     1      10.516   8.474 -13.104  1.00  0.00     0.059 A 
ATOM     73  F   UNL     1      11.385   7.444 -11.182  1.00  0.00    -0.206 F 
ATOM     74  C   UNL     1      10.597   8.711 -14.476  1.00  0.00     0.060 A 
BRANCH  74  75
ATOM     75  S   UNL     1       9.355   9.731 -15.300  1.00  0.00     0.124 S 
ATOM     76  O   UNL     1      10.110  10.947 -15.576  1.00  0.00    -0.237 OA
ATOM     77  O   UNL     1       9.010   8.915 -16.461  1.00  0.00    -0.237 OA
ATOM     78  O   UNL     1       8.303   9.854 -14.296  1.00  0.00    -0.744 OA
ENDBRANCH  74  75
ENDBRANCH  42  67
BRANCH  54  79
ATOM     79  C   UNL     1      19.350   7.624 -12.033  1.00  0.00     0.058 A 
ATOM     80  C   UNL     1      19.399   8.826 -11.311  1.00  0.00     0.135 A 
ATOM     81  C   UNL     1      20.311   7.420 -13.037  1.00  0.00     0.135 A 
ATOM     82  F   UNL     1      18.498   9.072 -10.347  1.00  0.00    -0.206 F 
ATOM     83  C   UNL     1      20.354   9.799 -11.587  1.00  0.00     0.059 A 
ATOM     84  C   UNL     1      21.290   8.369 -13.313  1.00  0.00     0.059 A 
ATOM     85  F   UNL     1      20.313   6.283 -13.750  1.00  0.00    -0.206 F 
ATOM     86  C   UNL     1      21.297   9.560 -12.589  1.00  0.00     0.060 A 
BRANCH  86  87
ATOM     87  S   UNL     1      22.555  10.814 -12.912  1.00  0.00     0.124 S 
ATOM     88  O   UNL     1      21.786  11.824 -13.632  1.00  0.00    -0.237 OA
ATOM     89  O   UNL     1      22.982  11.183 -11.565  1.00  0.00    -0.237 OA
ATOM     90  O   UNL     1      23.551  10.099 -13.704  1.00  0.00    -0.744 OA
ENDBRANCH  86  87
ENDBRANCH  54  79
ENDBRANCH  28  29
ENDBRANCH  20  23
ENDBRANCH  18  19
ENDBRANCH  17  18
ENDBRANCH   1  17
TORSDOF 18
