REMARK SMILES CCOc1cc(NC(=O)c2c(C(=O)NCCCCNC(=O)c3ccc(-c4c5nc(c(-c6c(F)cc(S(=O)(=O)[O-])cc6F)c6ccc([nH]6)c(-c6c(F)cc(S(=O)(=O)[O-])cc6F)c6nc(c(-c7c(F)cc(S(=O)(=O)[O-])cc7F)c7ccc4[nH]7)C=C6)C=C5)cc3)cnn2C)ccc1OC(F)F
REMARK SMILES IDX 16 1 15 2 14 3 12 4 13 5 11 7 10 8 90 9 88 10 89 11 91 12
REMARK SMILES IDX 8 13 7 14 9 16 6 17 4 18 5 19 94 20 93 21 92 22 3 23 2 24
REMARK SMILES IDX 1 25 95 26 96 27 97 28 98 29 17 30 18 31 19 32 20 33 21 35
REMARK SMILES IDX 22 36 23 37 87 38 24 39 86 40 25 41 26 42 27 43 80 44 28 45
REMARK SMILES IDX 85 46 79 47 81 48 29 49 84 50 78 51 77 52 30 54 64 55 43 56
REMARK SMILES IDX 63 57 44 58 47 59 62 60 82 61 45 62 46 63 61 65 83 66 48 67
REMARK SMILES IDX 31 68 32 69 41 70 33 71 34 72 40 73 42 74 35 75 36 76 37 77
REMARK SMILES IDX 38 78 39 79 65 80 66 81 75 82 67 83 68 84 74 85 76 86 69 87
REMARK SMILES IDX 70 88 71 89 72 90 73 91 49 92 50 93 59 94 51 95 52 96 58 97
REMARK SMILES IDX 60 98 53 99 54 100 55 101 56 102 57 103
REMARK H PARENT 14 6 7 15 19 34 81 53 47 64
REMARK Flexibility Score: inf
ROOT
ATOM      1  C   UNL     1       3.938  -0.338   7.915  1.00  0.00     0.023 C 
ENDROOT
BRANCH   1   2
ATOM      2  C   UNL     1       3.461  -1.621   7.238  1.00  0.00     0.116 C 
BRANCH   2   3
ATOM      3  N   UNL     1       2.262  -2.189   7.803  1.00  0.00    -0.352 N 
ATOM      4  C   UNL     1       1.328  -3.049   7.291  1.00  0.00     0.255 C 
ATOM      5  O   UNL     1       0.375  -3.311   8.029  1.00  0.00    -0.269 OA
ATOM      6  H   UNL     1       2.081  -1.905   8.728  1.00  0.00     0.163 HD
BRANCH   4   7
ATOM      7  C   UNL     1       1.365  -3.597   5.942  1.00  0.00     0.090 A 
ATOM      8  C   UNL     1       2.384  -3.931   5.051  1.00  0.00     0.138 A 
ATOM      9  N   UNL     1       1.763  -4.564   3.998  1.00  0.00    -0.262 N 
ATOM     10  C   UNL     1       0.186  -3.999   5.255  1.00  0.00     0.149 A 
ATOM     11  N   UNL     1       0.422  -4.518   4.051  1.00  0.00    -0.180 NA
ATOM     12  C   UNL     1       2.379  -5.222   2.867  1.00  0.00     0.174 C 
BRANCH   8  13
ATOM     13  C   UNL     1       3.806  -3.850   5.166  1.00  0.00     0.274 C 
ATOM     14  N   UNL     1       4.530  -2.954   4.409  1.00  0.00    -0.321 N 
ATOM     15  H   UNL     1       5.502  -3.063   4.521  1.00  0.00     0.170 HD
ATOM     16  O   UNL     1       4.436  -4.583   5.928  1.00  0.00    -0.267 OA
BRANCH  14  17
ATOM     17  C   UNL     1       4.198  -1.918   3.511  1.00  0.00     0.045 A 
ATOM     18  C   UNL     1       2.687  -0.519   2.188  1.00  0.00     0.163 A 
ATOM     19  C   UNL     1       2.910  -1.559   3.111  1.00  0.00     0.076 A 
ATOM     20  C   UNL     1       3.765   0.233   1.717  1.00  0.00     0.168 A 
ATOM     21  C   UNL     1       5.053  -0.088   2.152  1.00  0.00     0.053 A 
ATOM     22  C   UNL     1       5.269  -1.166   3.017  1.00  0.00     0.030 A 
BRANCH  18  23
ATOM     23  O   UNL     1       1.417  -0.169   1.815  1.00  0.00    -0.490 OA
BRANCH  23  24
ATOM     24  C   UNL     1       0.559  -1.276   1.508  1.00  0.00     0.226 C 
ATOM     25  C   UNL     1      -0.513  -0.796   0.545  1.00  0.00     0.049 C 
ENDBRANCH  23  24
ENDBRANCH  18  23
BRANCH  20  26
ATOM     26  O   UNL     1       3.709   1.326   0.900  1.00  0.00    -0.431 OA
BRANCH  26  27
ATOM     27  C   UNL     1       2.786   1.303  -0.183  1.00  0.00     0.542 C 
ATOM     28  F   UNL     1       2.618   0.049  -0.668  1.00  0.00    -0.167 F 
ATOM     29  F   UNL     1       1.590   1.798   0.207  1.00  0.00    -0.167 F 
ENDBRANCH  26  27
ENDBRANCH  20  26
ENDBRANCH  14  17
ENDBRANCH   8  13
ENDBRANCH   4   7
ENDBRANCH   2   3
ENDBRANCH   1   2
BRANCH   1  30
ATOM     30  C   UNL     1       4.122  -0.378   9.435  1.00  0.00     0.023 C 
BRANCH  30  31
ATOM     31  C   UNL     1       4.841  -1.595  10.015  1.00  0.00     0.116 C 
BRANCH  31  32
ATOM     32  N   UNL     1       6.193  -1.761   9.510  1.00  0.00    -0.352 N 
ATOM     33  C   UNL     1       7.417  -1.617  10.117  1.00  0.00     0.251 C 
ATOM     34  H   UNL     1       6.240  -2.025   8.563  1.00  0.00     0.163 HD
ATOM     35  O   UNL     1       8.429  -1.696   9.421  1.00  0.00    -0.269 OA
BRANCH  33  36
ATOM     36  C   UNL     1       7.550  -1.338  11.568  1.00  0.00     0.039 A 
ATOM     37  C   UNL     1       8.523  -0.417  11.975  1.00  0.00     0.014 A 
ATOM     38  C   UNL     1       6.788  -2.000  12.535  1.00  0.00     0.014 A 
ATOM     39  C   UNL     1       8.674  -0.101  13.329  1.00  0.00     0.010 A 
ATOM     40  C   UNL     1       6.900  -1.644  13.883  1.00  0.00     0.010 A 
ATOM     41  C   UNL     1       7.834  -0.681  14.292  1.00  0.00    -0.014 A 
BRANCH  41  42
ATOM     42  C   UNL     1       7.903  -0.270  15.719  1.00  0.00     0.031 A 
ATOM     43  C   UNL     1       8.345  -1.239  16.780  1.00  0.00     0.074 A 
ATOM     44  C   UNL     1       7.512   0.969  16.077  1.00  0.00     0.049 A 
ATOM     45  N   UNL     1       8.322  -1.103  18.081  1.00  0.00    -0.248 NA
ATOM     46  C   UNL     1       8.863  -2.536  16.317  1.00  0.00     0.031 C 
ATOM     47  C   UNL     1       7.038   2.007  15.160  1.00  0.00     0.029 A 
ATOM     48  N   UNL     1       7.448   1.562  17.313  1.00  0.00    -0.354 N 
ATOM     49  C   UNL     1       8.763  -2.314  18.598  1.00  0.00     0.074 A 
ATOM     50  C   UNL     1       9.073  -3.165  17.466  1.00  0.00     0.031 C 
ATOM     51  C   UNL     1       6.761   3.118  15.862  1.00  0.00     0.029 A 
ATOM     52  C   UNL     1       7.003   2.861  17.278  1.00  0.00     0.049 A 
ATOM     53  H   UNL     1       7.697   1.100  18.146  1.00  0.00     0.167 HD
ATOM     54  C   UNL     1       8.885  -2.690  19.893  1.00  0.00     0.037 A 
ATOM     55  C   UNL     1       6.803   3.745  18.273  1.00  0.00     0.037 A 
ATOM     56  C   UNL     1       8.633  -1.839  21.025  1.00  0.00     0.049 A 
ATOM     57  C   UNL     1       7.051   3.343  19.695  1.00  0.00     0.074 A 
ATOM     58  C   UNL     1       8.723  -2.141  22.374  1.00  0.00     0.029 A 
ATOM     59  N   UNL     1       8.264  -0.505  20.940  1.00  0.00    -0.354 N 
ATOM     60  N   UNL     1       7.423   2.178  20.164  1.00  0.00    -0.248 NA
ATOM     61  C   UNL     1       6.843   4.373  20.722  1.00  0.00     0.031 C 
ATOM     62  C   UNL     1       8.420  -0.983  23.105  1.00  0.00     0.029 A 
ATOM     63  C   UNL     1       8.142   0.036  22.210  1.00  0.00     0.049 A 
ATOM     64  H   UNL     1       8.111  -0.015  20.101  1.00  0.00     0.167 HD
ATOM     65  C   UNL     1       7.487   2.330  21.543  1.00  0.00     0.074 A 
ATOM     66  C   UNL     1       7.130   3.705  21.832  1.00  0.00     0.031 C 
ATOM     67  C   UNL     1       7.800   1.407  22.484  1.00  0.00     0.037 A 
BRANCH  54  68
ATOM     68  C   UNL     1       9.288  -4.111  20.143  1.00  0.00     0.058 A 
ATOM     69  C   UNL     1      10.636  -4.499  20.151  1.00  0.00     0.135 A 
ATOM     70  C   UNL     1       8.312  -5.097  20.352  1.00  0.00     0.135 A 
ATOM     71  F   UNL     1      11.601  -3.592  19.937  1.00  0.00    -0.206 F 
ATOM     72  C   UNL     1      11.003  -5.829  20.332  1.00  0.00     0.059 A 
ATOM     73  C   UNL     1       8.656  -6.430  20.542  1.00  0.00     0.059 A 
ATOM     74  F   UNL     1       7.009  -4.771  20.344  1.00  0.00    -0.206 F 
ATOM     75  C   UNL     1      10.005  -6.789  20.511  1.00  0.00     0.060 A 
BRANCH  75  76
ATOM     76  S   UNL     1      10.456  -8.527  20.706  1.00  0.00     0.124 S 
ATOM     77  O   UNL     1      10.341  -9.009  19.334  1.00  0.00    -0.237 OA
ATOM     78  O   UNL     1      11.813  -8.459  21.239  1.00  0.00    -0.237 OA
ATOM     79  O   UNL     1       9.447  -9.022  21.637  1.00  0.00    -0.744 OA
ENDBRANCH  75  76
ENDBRANCH  54  68
BRANCH  55  80
ATOM     80  C   UNL     1       6.350   5.115  17.940  1.00  0.00     0.058 A 
ATOM     81  C   UNL     1       7.280   6.152  17.782  1.00  0.00     0.135 A 
ATOM     82  C   UNL     1       4.996   5.398  17.719  1.00  0.00     0.135 A 
ATOM     83  F   UNL     1       8.586   5.920  17.985  1.00  0.00    -0.206 F 
ATOM     84  C   UNL     1       6.883   7.430  17.404  1.00  0.00     0.059 A 
ATOM     85  C   UNL     1       4.576   6.666  17.334  1.00  0.00     0.059 A 
ATOM     86  F   UNL     1       4.077   4.429  17.850  1.00  0.00    -0.206 F 
ATOM     87  C   UNL     1       5.528   7.676  17.179  1.00  0.00     0.060 A 
BRANCH  87  88
ATOM     88  S   UNL     1       5.006   9.304  16.594  1.00  0.00     0.124 S 
ATOM     89  O   UNL     1       4.715   9.986  17.849  1.00  0.00    -0.237 OA
ATOM     90  O   UNL     1       6.181   9.778  15.868  1.00  0.00    -0.237 OA
ATOM     91  O   UNL     1       3.852   8.989  15.757  1.00  0.00    -0.744 OA
ENDBRANCH  87  88
ENDBRANCH  55  80
BRANCH  67  92
ATOM     92  C   UNL     1       7.777   1.861  23.911  1.00  0.00     0.058 A 
ATOM     93  C   UNL     1       6.594   1.818  24.663  1.00  0.00     0.135 A 
ATOM     94  C   UNL     1       8.943   2.331  24.534  1.00  0.00     0.135 A 
ATOM     95  F   UNL     1       5.455   1.381  24.105  1.00  0.00    -0.206 F 
ATOM     96  C   UNL     1       6.564   2.237  25.989  1.00  0.00     0.059 A 
ATOM     97  C   UNL     1       8.935   2.753  25.859  1.00  0.00     0.059 A 
ATOM     98  F   UNL     1      10.096   2.394  23.850  1.00  0.00    -0.206 F 
ATOM     99  C   UNL     1       7.738   2.712  26.576  1.00  0.00     0.060 A 
BRANCH  99 100
ATOM    100  S   UNL     1       7.716   3.246  28.301  1.00  0.00     0.124 S 
ATOM    101  O   UNL     1       7.393   4.662  28.164  1.00  0.00    -0.237 OA
ATOM    102  O   UNL     1       6.670   2.414  28.888  1.00  0.00    -0.237 OA
ATOM    103  O   UNL     1       9.071   2.947  28.755  1.00  0.00    -0.744 OA
ENDBRANCH  99 100
ENDBRANCH  67  92
ENDBRANCH  41  42
ENDBRANCH  33  36
ENDBRANCH  31  32
ENDBRANCH  30  31
ENDBRANCH   1  30
TORSDOF 20
