REMARK SMILES Cc1cc(C(=O)NCCCCNC(=O)c2ccc(-c3c4nc(c(-c5c(F)cc(S(=O)(=O)[O-])cc5F)c5ccc([nH]5)c(-c5c(F)cc(S(=O)(=O)[O-])cc5F)c5nc(c(-c6c(F)cc(S(=O)(=O)[O-])cc6F)c6ccc3[nH]6)C=C5)C=C4)cc2)ccc1NC(=O)CCl
REMARK SMILES IDX 10 1 9 2 8 3 7 4 5 5 6 6 4 8 1 9 2 10 3 11 83 12 82 13 81 14
REMARK SMILES IDX 84 15 85 16 86 18 87 19 88 20 11 21 12 22 13 23 14 25 15 26
REMARK SMILES IDX 16 27 80 28 17 29 79 30 18 31 19 32 20 33 73 34 21 35 78 36
REMARK SMILES IDX 72 37 74 38 22 39 77 40 71 41 70 42 23 44 57 45 36 46 56 47
REMARK SMILES IDX 37 48 40 49 55 50 75 51 38 52 39 53 54 55 76 56 41 57 24 58
REMARK SMILES IDX 25 59 34 60 26 61 27 62 33 63 35 64 28 65 29 66 30 67 31 68
REMARK SMILES IDX 32 69 58 70 59 71 68 72 60 73 61 74 67 75 69 76 62 77 63 78
REMARK SMILES IDX 64 79 65 80 66 81 42 82 43 83 52 84 44 85 45 86 51 87 53 88
REMARK SMILES IDX 46 89 47 90 48 91 49 92 50 93
REMARK H PARENT 7 7 84 17 12 24 74 43 40 54
REMARK Flexibility Score: inf
ROOT
ATOM      1  C   UNL     1      -5.703  -2.010  -2.015  1.00  0.00     0.023 C 
ENDROOT
BRANCH   1   2
ATOM      2  C   UNL     1      -4.860  -1.057  -1.165  1.00  0.00     0.023 C 
BRANCH   2   3
ATOM      3  C   UNL     1      -4.258  -1.680   0.106  1.00  0.00     0.116 C 
BRANCH   3   4
ATOM      4  N   UNL     1      -3.133  -2.556  -0.180  1.00  0.00    -0.352 N 
ATOM      5  C   UNL     1      -1.778  -2.352  -0.256  1.00  0.00     0.251 C 
ATOM      6  O   UNL     1      -1.071  -3.350  -0.419  1.00  0.00    -0.269 OA
ATOM      7  H   UNL     1      -3.398  -3.488  -0.355  1.00  0.00     0.163 HD
BRANCH   5   8
ATOM      8  C   UNL     1      -1.110  -1.017  -0.161  1.00  0.00     0.040 A 
ATOM      9  C   UNL     1       2.519   0.048   0.164  1.00  0.00     0.046 C 
ATOM     10  C   UNL     1       1.025   0.216   0.040  1.00  0.00    -0.027 A 
ATOM     11  C   UNL     1       0.283  -0.993  -0.001  1.00  0.00     0.019 A 
ATOM     12  C   UNL     1       0.350   1.452  -0.070  1.00  0.00     0.044 A 
ATOM     13  C   UNL     1      -1.031   1.413  -0.244  1.00  0.00     0.027 A 
ATOM     14  C   UNL     1      -1.744   0.207  -0.292  1.00  0.00     0.016 A 
BRANCH  12  15
ATOM     15  N   UNL     1       1.086   2.653  -0.014  1.00  0.00    -0.325 N 
ATOM     16  C   UNL     1       0.795   3.985  -0.052  1.00  0.00     0.239 C 
ATOM     17  H   UNL     1       2.053   2.490   0.074  1.00  0.00     0.169 HD
ATOM     18  O   UNL     1       1.764   4.756   0.014  1.00  0.00    -0.273 OA
BRANCH  16  19
ATOM     19  C   UNL     1      -0.598   4.558  -0.148  1.00  0.00     0.209 C 
ATOM     20  Cl  UNL     1      -1.111   4.574  -1.848  1.00  0.00    -0.116 Cl
ENDBRANCH  16  19
ENDBRANCH  12  15
ENDBRANCH   5   8
ENDBRANCH   3   4
ENDBRANCH   2   3
ENDBRANCH   1   2
BRANCH   1  21
ATOM     21  C   UNL     1      -6.984  -2.437  -1.310  1.00  0.00     0.116 C 
BRANCH  21  22
ATOM     22  N   UNL     1      -8.213  -2.096  -2.009  1.00  0.00    -0.352 N 
ATOM     23  C   UNL     1      -9.513  -2.362  -1.603  1.00  0.00     0.251 C 
ATOM     24  H   UNL     1      -8.111  -1.624  -2.867  1.00  0.00     0.163 HD
ATOM     25  O   UNL     1     -10.466  -2.201  -2.345  1.00  0.00    -0.269 OA
BRANCH  23  26
ATOM     26  C   UNL     1      -9.711  -2.756  -0.188  1.00  0.00     0.039 A 
ATOM     27  C   UNL     1     -10.398  -1.863   0.643  1.00  0.00     0.014 A 
ATOM     28  C   UNL     1      -8.982  -3.814   0.347  1.00  0.00     0.014 A 
ATOM     29  C   UNL     1     -10.185  -1.907   2.019  1.00  0.00     0.010 A 
ATOM     30  C   UNL     1      -8.693  -3.792   1.698  1.00  0.00     0.010 A 
ATOM     31  C   UNL     1      -9.252  -2.807   2.528  1.00  0.00    -0.014 A 
BRANCH  31  32
ATOM     32  C   UNL     1      -8.708  -2.744   3.882  1.00  0.00     0.031 A 
ATOM     33  C   UNL     1      -8.995  -3.826   4.855  1.00  0.00     0.074 A 
ATOM     34  C   UNL     1      -7.830  -1.771   4.210  1.00  0.00     0.049 A 
ATOM     35  N   UNL     1      -8.770  -3.762   6.125  1.00  0.00    -0.248 NA
ATOM     36  C   UNL     1      -9.631  -5.075   4.458  1.00  0.00     0.031 C 
ATOM     37  C   UNL     1      -6.884  -1.778   5.322  1.00  0.00     0.029 A 
ATOM     38  N   UNL     1      -7.727  -0.485   3.698  1.00  0.00    -0.354 N 
ATOM     39  C   UNL     1      -8.932  -5.026   6.653  1.00  0.00     0.074 A 
ATOM     40  C   UNL     1      -9.557  -5.777   5.591  1.00  0.00     0.031 C 
ATOM     41  C   UNL     1      -6.466  -0.524   5.552  1.00  0.00     0.029 A 
ATOM     42  C   UNL     1      -7.254   0.359   4.711  1.00  0.00     0.049 A 
ATOM     43  H   UNL     1      -7.948  -0.213   2.779  1.00  0.00     0.167 HD
ATOM     44  C   UNL     1      -8.385  -5.312   7.873  1.00  0.00     0.037 A 
ATOM     45  C   UNL     1      -8.016   1.389   5.191  1.00  0.00     0.037 A 
ATOM     46  C   UNL     1      -7.887  -4.089   8.515  1.00  0.00     0.049 A 
ATOM     47  C   UNL     1      -8.411   1.247   6.646  1.00  0.00     0.074 A 
ATOM     48  C   UNL     1      -6.621  -3.540   8.648  1.00  0.00     0.029 A 
ATOM     49  N   UNL     1      -8.785  -3.091   8.886  1.00  0.00    -0.354 N 
ATOM     50  N   UNL     1      -8.288   0.144   7.332  1.00  0.00    -0.248 NA
ATOM     51  C   UNL     1      -8.992   2.327   7.441  1.00  0.00     0.031 C 
ATOM     52  C   UNL     1      -6.768  -2.179   9.019  1.00  0.00     0.029 A 
ATOM     53  C   UNL     1      -8.119  -1.905   9.138  1.00  0.00     0.049 A 
ATOM     54  H   UNL     1      -9.759  -3.213   8.958  1.00  0.00     0.167 HD
ATOM     55  C   UNL     1      -8.792   0.321   8.593  1.00  0.00     0.074 A 
ATOM     56  C   UNL     1      -9.189   1.717   8.624  1.00  0.00     0.031 C 
ATOM     57  C   UNL     1      -8.853  -0.699   9.500  1.00  0.00     0.037 A 
BRANCH  44  58
ATOM     58  C   UNL     1      -8.012  -6.717   8.345  1.00  0.00     0.058 A 
ATOM     59  C   UNL     1      -6.988  -6.908   9.303  1.00  0.00     0.135 A 
ATOM     60  C   UNL     1      -8.541  -7.921   7.837  1.00  0.00     0.135 A 
ATOM     61  F   UNL     1      -6.459  -5.879   9.980  1.00  0.00    -0.206 F 
ATOM     62  C   UNL     1      -6.448  -8.162   9.616  1.00  0.00     0.059 A 
ATOM     63  C   UNL     1      -7.991  -9.181   8.095  1.00  0.00     0.059 A 
ATOM     64  F   UNL     1      -9.662  -7.949   7.111  1.00  0.00    -0.206 F 
ATOM     65  C   UNL     1      -6.927  -9.293   8.973  1.00  0.00     0.060 A 
BRANCH  65  66
ATOM     66  S   UNL     1      -6.170 -10.892   9.310  1.00  0.00     0.124 S 
ATOM     67  O   UNL     1      -4.776 -10.653   8.949  1.00  0.00    -0.237 OA
ATOM     68  O   UNL     1      -6.439 -11.064  10.733  1.00  0.00    -0.237 OA
ATOM     69  O   UNL     1      -6.891 -11.804   8.425  1.00  0.00    -0.744 OA
ENDBRANCH  65  66
ENDBRANCH  44  58
BRANCH  45  70
ATOM     70  C   UNL     1      -8.823   2.059   4.136  1.00  0.00     0.058 A 
ATOM     71  C   UNL     1      -8.120   2.803   3.170  1.00  0.00     0.135 A 
ATOM     72  C   UNL     1     -10.106   1.602   3.802  1.00  0.00     0.135 A 
ATOM     73  F   UNL     1      -6.896   3.280   3.450  1.00  0.00    -0.206 F 
ATOM     74  C   UNL     1      -8.583   2.923   1.866  1.00  0.00     0.059 A 
ATOM     75  C   UNL     1     -10.595   1.719   2.499  1.00  0.00     0.059 A 
ATOM     76  F   UNL     1     -10.824   0.895   4.686  1.00  0.00    -0.206 F 
ATOM     77  C   UNL     1      -9.786   2.308   1.526  1.00  0.00     0.060 A 
BRANCH  77  78
ATOM     78  S   UNL     1     -10.145   2.099  -0.234  1.00  0.00     0.124 S 
ATOM     79  O   UNL     1     -10.125   3.476  -0.715  1.00  0.00    -0.237 OA
ATOM     80  O   UNL     1      -9.020   1.265  -0.653  1.00  0.00    -0.237 OA
ATOM     81  O   UNL     1     -11.449   1.447  -0.233  1.00  0.00    -0.744 OA
ENDBRANCH  77  78
ENDBRANCH  45  70
BRANCH  57  82
ATOM     82  C   UNL     1      -9.539  -0.639  10.843  1.00  0.00     0.058 A 
ATOM     83  C   UNL     1     -10.704   0.106  11.097  1.00  0.00     0.135 A 
ATOM     84  C   UNL     1      -9.099  -1.467  11.903  1.00  0.00     0.135 A 
ATOM     85  F   UNL     1     -11.277   0.849  10.138  1.00  0.00    -0.206 F 
ATOM     86  C   UNL     1     -11.352   0.081  12.334  1.00  0.00     0.059 A 
ATOM     87  C   UNL     1      -9.760  -1.548  13.126  1.00  0.00     0.059 A 
ATOM     88  F   UNL     1      -8.008  -2.238  11.777  1.00  0.00    -0.206 F 
ATOM     89  C   UNL     1     -10.874  -0.749  13.343  1.00  0.00     0.060 A 
BRANCH  89  90
ATOM     90  S   UNL     1     -11.736  -0.841  14.923  1.00  0.00     0.124 S 
ATOM     91  O   UNL     1     -11.005   0.145  15.712  1.00  0.00    -0.237 OA
ATOM     92  O   UNL     1     -13.105  -0.475  14.571  1.00  0.00    -0.237 OA
ATOM     93  O   UNL     1     -11.552  -2.234  15.319  1.00  0.00    -0.744 OA
ENDBRANCH  89  90
ENDBRANCH  57  82
ENDBRANCH  31  32
ENDBRANCH  23  26
ENDBRANCH  21  22
ENDBRANCH   1  21
TORSDOF 16
