REMARK SMILES Cc1c(Br)c(C(=O)NCCCCNC(=O)c2ccc(-c3c4nc(c(-c5c(F)cc(S(=O)(=O)[O-])cc5F)c5ccc([nH]5)c(-c5c(F)cc(S(=O)(=O)[O-])cc5F)c5nc(c(-c6c(F)cc(S(=O)(=O)[O-])cc6F)c6ccc3[nH]6)C=C5)C=C4)cc2)nn1-c1ccccc1
REMARK SMILES IDX 11 1 10 2 9 3 8 4 6 5 7 6 5 8 1 9 2 10 3 11 83 12 4 13 82 14
REMARK SMILES IDX 84 15 85 16 89 17 86 18 88 19 87 20 12 21 13 22 14 23 15 25
REMARK SMILES IDX 16 26 17 27 81 28 18 29 80 30 19 31 20 32 21 33 74 34 22 35
REMARK SMILES IDX 79 36 73 37 75 38 23 39 78 40 72 41 71 42 24 44 58 45 37 46
REMARK SMILES IDX 57 47 38 48 41 49 56 50 76 51 39 52 40 53 55 55 77 56 42 57
REMARK SMILES IDX 25 58 26 59 35 60 27 61 28 62 34 63 36 64 29 65 30 66 31 67
REMARK SMILES IDX 32 68 33 69 59 70 60 71 69 72 61 73 62 74 68 75 70 76 63 77
REMARK SMILES IDX 64 78 65 79 66 80 67 81 43 82 44 83 53 84 45 85 46 86 52 87
REMARK SMILES IDX 54 88 47 89 48 90 49 91 50 92 51 93
REMARK H PARENT 8 7 13 24 75 43 41 54
REMARK Flexibility Score: inf
ROOT
ATOM      1  C   UNL     1      -0.976  -6.773  -5.164  1.00  0.00     0.023 C 
ENDROOT
BRANCH   1   2
ATOM      2  C   UNL     1      -1.040  -5.356  -4.577  1.00  0.00     0.023 C 
BRANCH   2   3
ATOM      3  C   UNL     1      -1.575  -5.242  -3.146  1.00  0.00     0.116 C 
BRANCH   3   4
ATOM      4  N   UNL     1      -0.639  -5.747  -2.151  1.00  0.00    -0.351 N 
ATOM      5  C   UNL     1       0.133  -5.107  -1.202  1.00  0.00     0.272 C 
ATOM      6  O   UNL     1       0.902  -5.828  -0.549  1.00  0.00    -0.267 OA
ATOM      7  H   UNL     1      -0.538  -6.727  -2.156  1.00  0.00     0.163 HD
BRANCH   5   8
ATOM      8  C   UNL     1       0.085  -3.647  -1.008  1.00  0.00     0.165 A 
ATOM      9  C   UNL     1       1.093  -0.244   0.089  1.00  0.00     0.068 C 
ATOM     10  C   UNL     1       0.577  -1.504  -0.507  1.00  0.00     0.056 A 
ATOM     11  C   UNL     1       1.008  -2.805  -0.339  1.00  0.00     0.072 A 
ATOM     12  N   UNL     1      -0.560  -1.613  -1.284  1.00  0.00    -0.236 N 
ATOM     13  Br  UNL     1       2.531  -3.344   0.620  1.00  0.00    -0.046 Br
ATOM     14  N   UNL     1      -0.949  -2.897  -1.425  1.00  0.00    -0.161 NA
BRANCH  12  15
ATOM     15  C   UNL     1      -1.294  -0.622  -1.983  1.00  0.00     0.065 A 
ATOM     16  C   UNL     1      -2.681  -0.784  -2.120  1.00  0.00     0.028 A 
ATOM     17  C   UNL     1      -0.646   0.436  -2.628  1.00  0.00     0.028 A 
ATOM     18  C   UNL     1      -3.421   0.135  -2.862  1.00  0.00     0.002 A 
ATOM     19  C   UNL     1      -1.392   1.336  -3.395  1.00  0.00     0.002 A 
ATOM     20  C   UNL     1      -2.776   1.191  -3.503  1.00  0.00     0.000 A 
ENDBRANCH  12  15
ENDBRANCH   5   8
ENDBRANCH   3   4
ENDBRANCH   2   3
ENDBRANCH   1   2
BRANCH   1  21
ATOM     21  C   UNL     1      -2.319  -7.488  -5.277  1.00  0.00     0.116 C 
BRANCH  21  22
ATOM     22  N   UNL     1      -3.269  -6.810  -6.163  1.00  0.00    -0.352 N 
ATOM     23  C   UNL     1      -4.597  -7.124  -6.375  1.00  0.00     0.251 C 
ATOM     24  H   UNL     1      -2.919  -6.041  -6.667  1.00  0.00     0.163 HD
ATOM     25  O   UNL     1      -5.178  -6.745  -7.395  1.00  0.00    -0.269 OA
BRANCH  23  26
ATOM     26  C   UNL     1      -5.311  -7.918  -5.362  1.00  0.00     0.039 A 
ATOM     27  C   UNL     1      -6.152  -8.979  -5.711  1.00  0.00     0.014 A 
ATOM     28  C   UNL     1      -5.070  -7.612  -4.027  1.00  0.00     0.014 A 
ATOM     29  C   UNL     1      -6.666  -9.793  -4.701  1.00  0.00     0.010 A 
ATOM     30  C   UNL     1      -5.446  -8.501  -3.051  1.00  0.00     0.010 A 
ATOM     31  C   UNL     1      -6.286  -9.565  -3.369  1.00  0.00    -0.014 A 
BRANCH  31  32
ATOM     32  C   UNL     1      -6.653 -10.501  -2.305  1.00  0.00     0.031 A 
ATOM     33  C   UNL     1      -6.235 -11.914  -2.540  1.00  0.00     0.074 A 
ATOM     34  C   UNL     1      -7.081 -10.088  -1.091  1.00  0.00     0.049 A 
ATOM     35  N   UNL     1      -6.983 -12.948  -2.743  1.00  0.00    -0.248 NA
ATOM     36  C   UNL     1      -4.798 -12.186  -2.712  1.00  0.00     0.031 C 
ATOM     37  C   UNL     1      -7.209  -8.704  -0.610  1.00  0.00     0.029 A 
ATOM     38  N   UNL     1      -7.366 -10.815   0.025  1.00  0.00    -0.354 N 
ATOM     39  C   UNL     1      -6.115 -14.040  -2.812  1.00  0.00     0.074 A 
ATOM     40  C   UNL     1      -4.804 -13.486  -3.014  1.00  0.00     0.031 C 
ATOM     41  C   UNL     1      -7.291  -8.696   0.737  1.00  0.00     0.029 A 
ATOM     42  C   UNL     1      -7.421 -10.065   1.197  1.00  0.00     0.049 A 
ATOM     43  H   UNL     1      -7.521 -11.787   0.005  1.00  0.00     0.167 HD
ATOM     44  C   UNL     1      -6.513 -15.283  -2.413  1.00  0.00     0.037 A 
ATOM     45  C   UNL     1      -7.552 -10.530   2.462  1.00  0.00     0.037 A 
ATOM     46  C   UNL     1      -7.949 -15.325  -2.260  1.00  0.00     0.049 A 
ATOM     47  C   UNL     1      -8.129 -11.890   2.362  1.00  0.00     0.074 A 
ATOM     48  C   UNL     1      -9.045 -15.191  -3.084  1.00  0.00     0.029 A 
ATOM     49  N   UNL     1      -8.404 -15.180  -0.973  1.00  0.00    -0.354 N 
ATOM     50  N   UNL     1      -9.326 -12.140   1.904  1.00  0.00    -0.248 NA
ATOM     51  C   UNL     1      -7.234 -13.036   2.420  1.00  0.00     0.031 C 
ATOM     52  C   UNL     1     -10.061 -14.602  -2.273  1.00  0.00     0.029 A 
ATOM     53  C   UNL     1      -9.559 -14.449  -0.979  1.00  0.00     0.049 A 
ATOM     54  H   UNL     1      -7.966 -15.545  -0.170  1.00  0.00     0.167 HD
ATOM     55  C   UNL     1      -9.198 -13.341   1.226  1.00  0.00     0.074 A 
ATOM     56  C   UNL     1      -7.949 -13.915   1.713  1.00  0.00     0.031 C 
ATOM     57  C   UNL     1      -9.963 -13.602   0.125  1.00  0.00     0.037 A 
BRANCH  44  58
ATOM     58  C   UNL     1      -5.633 -16.311  -1.706  1.00  0.00     0.058 A 
ATOM     59  C   UNL     1      -6.212 -17.547  -1.328  1.00  0.00     0.135 A 
ATOM     60  C   UNL     1      -4.389 -16.028  -1.102  1.00  0.00     0.135 A 
ATOM     61  F   UNL     1      -7.376 -17.950  -1.861  1.00  0.00    -0.206 F 
ATOM     62  C   UNL     1      -5.671 -18.359  -0.328  1.00  0.00     0.059 A 
ATOM     63  C   UNL     1      -3.808 -16.849  -0.139  1.00  0.00     0.059 A 
ATOM     64  F   UNL     1      -3.707 -14.904  -1.338  1.00  0.00    -0.206 F 
ATOM     65  C   UNL     1      -4.482 -17.982   0.283  1.00  0.00     0.060 A 
BRANCH  65  66
ATOM     66  S   UNL     1      -3.853 -18.942   1.671  1.00  0.00     0.124 S 
ATOM     67  O   UNL     1      -4.836 -18.633   2.702  1.00  0.00    -0.237 OA
ATOM     68  O   UNL     1      -3.886 -20.300   1.139  1.00  0.00    -0.237 OA
ATOM     69  O   UNL     1      -2.519 -18.390   1.881  1.00  0.00    -0.744 OA
ENDBRANCH  65  66
ENDBRANCH  44  58
BRANCH  45  70
ATOM     70  C   UNL     1      -6.983  -9.989   3.723  1.00  0.00     0.058 A 
ATOM     71  C   UNL     1      -7.456 -10.418   4.975  1.00  0.00     0.135 A 
ATOM     72  C   UNL     1      -5.771  -9.269   3.727  1.00  0.00     0.135 A 
ATOM     73  F   UNL     1      -8.598 -11.117   5.062  1.00  0.00    -0.206 F 
ATOM     74  C   UNL     1      -6.738 -10.204   6.156  1.00  0.00     0.059 A 
ATOM     75  C   UNL     1      -5.042  -9.036   4.894  1.00  0.00     0.059 A 
ATOM     76  F   UNL     1      -5.213  -8.852   2.581  1.00  0.00    -0.206 F 
ATOM     77  C   UNL     1      -5.517  -9.533   6.102  1.00  0.00     0.060 A 
BRANCH  77  78
ATOM     78  S   UNL     1      -4.497  -9.428   7.593  1.00  0.00     0.124 S 
ATOM     79  O   UNL     1      -5.260  -8.494   8.414  1.00  0.00    -0.237 OA
ATOM     80  O   UNL     1      -4.479 -10.813   8.052  1.00  0.00    -0.237 OA
ATOM     81  O   UNL     1      -3.220  -8.923   7.095  1.00  0.00    -0.744 OA
ENDBRANCH  77  78
ENDBRANCH  45  70
BRANCH  57  82
ATOM     82  C   UNL     1     -11.232 -12.813  -0.049  1.00  0.00     0.058 A 
ATOM     83  C   UNL     1     -11.297 -11.435  -0.317  1.00  0.00     0.135 A 
ATOM     84  C   UNL     1     -12.440 -13.527  -0.059  1.00  0.00     0.135 A 
ATOM     85  F   UNL     1     -10.184 -10.697  -0.417  1.00  0.00    -0.206 F 
ATOM     86  C   UNL     1     -12.515 -10.791  -0.548  1.00  0.00     0.059 A 
ATOM     87  C   UNL     1     -13.660 -12.913  -0.317  1.00  0.00     0.059 A 
ATOM     88  F   UNL     1     -12.436 -14.857   0.136  1.00  0.00    -0.206 F 
ATOM     89  C   UNL     1     -13.692 -11.540  -0.548  1.00  0.00     0.060 A 
BRANCH  89  90
ATOM     90  S   UNL     1     -15.258 -10.723  -0.921  1.00  0.00     0.124 S 
ATOM     91  O   UNL     1     -15.493  -9.941   0.288  1.00  0.00    -0.237 OA
ATOM     92  O   UNL     1     -14.938  -9.955  -2.121  1.00  0.00    -0.237 OA
ATOM     93  O   UNL     1     -16.181 -11.836  -1.134  1.00  0.00    -0.744 OA
ENDBRANCH  89  90
ENDBRANCH  57  82
ENDBRANCH  31  32
ENDBRANCH  23  26
ENDBRANCH  21  22
ENDBRANCH   1  21
TORSDOF 15
