REMARK SMILES Cc1cc(C)c2c(OCCCC(=O)NCCCCNC(=O)c3ccc(-c4c5nc(c(-c6c(F)cc(S(=O)(=O)[O-])cc6F)c6ccc([nH]6)c(-c6c(F)cc(S(=O)(=O)[O-])cc6F)c6nc(c(-c7c(F)cc(S(=O)(=O)[O-])cc7F)c7ccc4[nH]7)C=C6)C=C5)cc3)nsc2n1
REMARK SMILES IDX 16 1 15 2 14 3 12 4 13 5 11 7 10 8 9 9 8 10 7 11 1 12 2 13
REMARK SMILES IDX 3 14 91 15 4 16 90 17 5 18 6 19 89 20 88 21 17 22 18 23
REMARK SMILES IDX 19 24 20 25 21 27 22 28 23 29 87 30 24 31 86 32 25 33 26 34
REMARK SMILES IDX 27 35 80 36 28 37 85 38 79 39 81 40 29 41 84 42 78 43 77 44
REMARK SMILES IDX 30 46 64 47 43 48 63 49 44 50 47 51 62 52 82 53 45 54 46 55
REMARK SMILES IDX 61 57 83 58 48 59 31 60 32 61 41 62 33 63 34 64 40 65 42 66
REMARK SMILES IDX 35 67 36 68 37 69 38 70 39 71 65 72 66 73 75 74 67 75 68 76
REMARK SMILES IDX 74 77 76 78 69 79 70 80 71 81 72 82 73 83 49 84 50 85 59 86
REMARK SMILES IDX 51 87 52 88 58 89 60 90 53 91 54 92 55 93 56 94 57 95
REMARK H PARENT 14 6 19 26 81 45 47 56
REMARK Flexibility Score: inf
ROOT
ATOM      1  C   UNL     1       3.560  -5.967   2.119  1.00  0.00     0.023 C 
ENDROOT
BRANCH   1   2
ATOM      2  C   UNL     1       3.401  -4.546   1.505  1.00  0.00     0.116 C 
BRANCH   2   3
ATOM      3  N   UNL     1       3.459  -4.542   0.003  1.00  0.00    -0.356 N 
ATOM      4  C   UNL     1       2.836  -4.590  -1.201  1.00  0.00     0.220 C 
ATOM      5  O   UNL     1       3.682  -4.652  -2.118  1.00  0.00    -0.275 OA
ATOM      6  H   UNL     1       4.417  -4.467  -0.212  1.00  0.00     0.163 HD
BRANCH   4   7
ATOM      7  C   UNL     1       1.343  -4.452  -1.673  1.00  0.00     0.103 C 
BRANCH   7   8
ATOM      8  C   UNL     1       0.398  -5.596  -2.185  1.00  0.00     0.051 C 
BRANCH   8   9
ATOM      9  C   UNL     1      -0.636  -6.437  -1.367  1.00  0.00     0.232 C 
BRANCH   9  10
ATOM     10  O   UNL     1      -1.994  -6.019  -1.194  1.00  0.00    -0.477 OA
BRANCH  10  11
ATOM     11  C   UNL     1      -2.361  -5.125  -0.239  1.00  0.00     0.235 A 
ATOM     12  C   UNL     1       0.035  -0.353   0.697  1.00  0.00     0.067 C 
ATOM     13  C   UNL     1      -0.553  -1.720   0.917  1.00  0.00     0.039 A 
ATOM     14  C   UNL     1       0.281  -2.831   0.989  1.00  0.00     0.027 A 
ATOM     15  N   UNL     1      -1.900  -1.813   0.939  1.00  0.00    -0.240 NA
ATOM     16  C   UNL     1      -0.258  -4.127   0.928  1.00  0.00    -0.034 A 
ATOM     17  C   UNL     1      -2.350  -3.058   0.703  1.00  0.00     0.147 A 
ATOM     18  C   UNL     1       0.474  -5.375   1.262  1.00  0.00     0.045 C 
ATOM     19  C   UNL     1      -1.582  -4.194   0.501  1.00  0.00     0.078 A 
ATOM     20  S   UNL     1      -3.985  -3.521   0.616  1.00  0.00    -0.012 S 
ATOM     21  N   UNL     1      -3.685  -4.990  -0.130  1.00  0.00    -0.153 NA
ENDBRANCH  10  11
ENDBRANCH   9  10
ENDBRANCH   8   9
ENDBRANCH   7   8
ENDBRANCH   4   7
ENDBRANCH   2   3
ENDBRANCH   1   2
BRANCH   1  22
ATOM     22  C   UNL     1       4.083  -6.048   3.574  1.00  0.00     0.023 C 
BRANCH  22  23
ATOM     23  C   UNL     1       3.084  -5.727   4.689  1.00  0.00     0.116 C 
BRANCH  23  24
ATOM     24  N   UNL     1       2.332  -6.886   5.184  1.00  0.00    -0.352 N 
ATOM     25  C   UNL     1       1.573  -6.945   6.353  1.00  0.00     0.251 C 
ATOM     26  H   UNL     1       2.366  -7.703   4.636  1.00  0.00     0.163 HD
ATOM     27  O   UNL     1       1.204  -7.991   6.832  1.00  0.00    -0.269 OA
BRANCH  25  28
ATOM     28  C   UNL     1       1.238  -5.650   6.986  1.00  0.00     0.039 A 
ATOM     29  C   UNL     1       1.642  -5.350   8.289  1.00  0.00     0.014 A 
ATOM     30  C   UNL     1       0.662  -4.687   6.164  1.00  0.00     0.014 A 
ATOM     31  C   UNL     1       1.572  -4.025   8.722  1.00  0.00     0.010 A 
ATOM     32  C   UNL     1       0.700  -3.368   6.555  1.00  0.00     0.010 A 
ATOM     33  C   UNL     1       1.139  -3.025   7.837  1.00  0.00    -0.014 A 
BRANCH  33  34
ATOM     34  C   UNL     1       1.243  -1.612   8.211  1.00  0.00     0.031 A 
ATOM     35  C   UNL     1       2.582  -1.121   8.674  1.00  0.00     0.074 A 
ATOM     36  C   UNL     1       0.273  -0.713   7.938  1.00  0.00     0.049 A 
ATOM     37  N   UNL     1       2.892  -0.603   9.819  1.00  0.00    -0.248 NA
ATOM     38  C   UNL     1       3.734  -1.275   7.771  1.00  0.00     0.031 C 
ATOM     39  C   UNL     1      -0.984  -0.913   7.207  1.00  0.00     0.029 A 
ATOM     40  N   UNL     1       0.281   0.628   8.160  1.00  0.00    -0.354 N 
ATOM     41  C   UNL     1       4.229  -0.208   9.737  1.00  0.00     0.074 A 
ATOM     42  C   UNL     1       4.727  -0.755   8.500  1.00  0.00     0.031 C 
ATOM     43  C   UNL     1      -1.481   0.285   6.835  1.00  0.00     0.029 A 
ATOM     44  C   UNL     1      -0.683   1.327   7.451  1.00  0.00     0.049 A 
ATOM     45  H   UNL     1       0.917   1.065   8.772  1.00  0.00     0.167 HD
ATOM     46  C   UNL     1       4.787   0.674  10.618  1.00  0.00     0.037 A 
ATOM     47  C   UNL     1      -0.800   2.672   7.344  1.00  0.00     0.037 A 
ATOM     48  C   UNL     1       3.947   0.869  11.771  1.00  0.00     0.049 A 
ATOM     49  C   UNL     1      -0.100   3.263   8.514  1.00  0.00     0.074 A 
ATOM     50  C   UNL     1       3.449   0.041  12.758  1.00  0.00     0.029 A 
ATOM     51  N   UNL     1       3.193   2.017  11.840  1.00  0.00    -0.354 N 
ATOM     52  N   UNL     1      -0.491   3.102   9.751  1.00  0.00    -0.248 NA
ATOM     53  C   UNL     1       1.293   3.654   8.353  1.00  0.00     0.031 C 
ATOM     54  C   UNL     1       2.123   0.510  12.990  1.00  0.00     0.029 A 
ATOM     55  C   UNL     1       1.921   1.626  12.175  1.00  0.00     0.049 A 
ATOM     56  H   UNL     1       3.505   2.937  11.681  1.00  0.00     0.167 HD
ATOM     57  C   UNL     1       0.679   2.955  10.484  1.00  0.00     0.074 A 
ATOM     58  C   UNL     1       1.742   3.403   9.586  1.00  0.00     0.031 C 
ATOM     59  C   UNL     1       0.718   2.231  11.643  1.00  0.00     0.037 A 
BRANCH  46  60
ATOM     60  C   UNL     1       5.955   1.593  10.336  1.00  0.00     0.058 A 
ATOM     61  C   UNL     1       6.577   2.284  11.400  1.00  0.00     0.135 A 
ATOM     62  C   UNL     1       6.298   2.036   9.042  1.00  0.00     0.135 A 
ATOM     63  F   UNL     1       6.327   1.945  12.676  1.00  0.00    -0.206 F 
ATOM     64  C   UNL     1       7.410   3.386  11.195  1.00  0.00     0.059 A 
ATOM     65  C   UNL     1       7.167   3.100   8.813  1.00  0.00     0.059 A 
ATOM     66  F   UNL     1       5.727   1.523   7.945  1.00  0.00    -0.206 F 
ATOM     67  C   UNL     1       7.680   3.800   9.895  1.00  0.00     0.060 A 
BRANCH  67  68
ATOM     68  S   UNL     1       8.632   5.308   9.628  1.00  0.00     0.124 S 
ATOM     69  O   UNL     1       7.702   6.326  10.104  1.00  0.00    -0.237 OA
ATOM     70  O   UNL     1       9.809   5.078  10.460  1.00  0.00    -0.237 OA
ATOM     71  O   UNL     1       8.876   5.299   8.189  1.00  0.00    -0.744 OA
ENDBRANCH  67  68
ENDBRANCH  46  60
BRANCH  47  72
ATOM     72  C   UNL     1      -1.213   3.426   6.134  1.00  0.00     0.058 A 
ATOM     73  C   UNL     1      -1.580   4.780   6.195  1.00  0.00     0.135 A 
ATOM     74  C   UNL     1      -1.031   2.891   4.839  1.00  0.00     0.135 A 
ATOM     75  F   UNL     1      -1.740   5.380   7.384  1.00  0.00    -0.206 F 
ATOM     76  C   UNL     1      -1.732   5.563   5.044  1.00  0.00     0.059 A 
ATOM     77  C   UNL     1      -1.194   3.644   3.680  1.00  0.00     0.059 A 
ATOM     78  F   UNL     1      -0.597   1.633   4.661  1.00  0.00    -0.206 F 
ATOM     79  C   UNL     1      -1.522   4.988   3.790  1.00  0.00     0.060 A 
BRANCH  79  80
ATOM     80  S   UNL     1      -1.563   6.028   2.312  1.00  0.00     0.124 S 
ATOM     81  O   UNL     1      -2.964   6.431   2.263  1.00  0.00    -0.237 OA
ATOM     82  O   UNL     1      -0.607   7.077   2.651  1.00  0.00    -0.237 OA
ATOM     83  O   UNL     1      -1.135   5.123   1.248  1.00  0.00    -0.744 OA
ENDBRANCH  79  80
ENDBRANCH  47  72
BRANCH  59  84
ATOM     84  C   UNL     1      -0.579   1.785  12.274  1.00  0.00     0.058 A 
ATOM     85  C   UNL     1      -1.478   0.889  11.670  1.00  0.00     0.135 A 
ATOM     86  C   UNL     1      -0.814   2.108  13.620  1.00  0.00     0.135 A 
ATOM     87  F   UNL     1      -1.273   0.440  10.427  1.00  0.00    -0.206 F 
ATOM     88  C   UNL     1      -2.571   0.360  12.358  1.00  0.00     0.059 A 
ATOM     89  C   UNL     1      -1.881   1.569  14.337  1.00  0.00     0.059 A 
ATOM     90  F   UNL     1       0.042   2.907  14.279  1.00  0.00    -0.206 F 
ATOM     91  C   UNL     1      -2.761   0.699  13.696  1.00  0.00     0.060 A 
BRANCH  91  92
ATOM     92  S   UNL     1      -4.113  -0.075  14.609  1.00  0.00     0.124 S 
ATOM     93  O   UNL     1      -5.286   0.557  14.015  1.00  0.00    -0.237 OA
ATOM     94  O   UNL     1      -3.932  -1.491  14.304  1.00  0.00    -0.237 OA
ATOM     95  O   UNL     1      -3.842   0.293  15.997  1.00  0.00    -0.744 OA
ENDBRANCH  91  92
ENDBRANCH  59  84
ENDBRANCH  33  34
ENDBRANCH  25  28
ENDBRANCH  23  24
ENDBRANCH  22  23
ENDBRANCH   1  22
TORSDOF 18
