REMARK SMILES Cc1cnn(C2(C(=O)NCCCCNC(=O)c3ccc(-c4c5nc(c(-c6c(F)cc(S(=O)(=O)[O-])cc6F)c6ccc([nH]6)c(-c6c(F)cc(S(=O)(=O)[O-])cc6F)c6nc(c(-c7c(F)cc(S(=O)(=O)[O-])cc7F)c7ccc4[nH]7)C=C6)C=C5)cc3)CCN(C(=O)c3cc4ccccc4[nH]3)CC2)c1
REMARK SMILES IDX 12 1 11 2 10 3 9 4 7 5 8 6 6 8 83 9 98 10 84 11 97 12 85 13
REMARK SMILES IDX 86 14 87 15 5 16 1 17 2 18 3 19 99 20 4 21 88 22 89 23 96 24
REMARK SMILES IDX 90 25 95 26 91 28 94 29 92 30 93 31 13 32 14 33 15 34 16 36
REMARK SMILES IDX 17 37 18 38 82 39 19 40 81 41 20 42 21 43 22 44 75 45 23 46
REMARK SMILES IDX 80 47 74 48 76 49 24 50 79 51 73 52 72 53 25 55 59 56 38 57
REMARK SMILES IDX 58 58 39 59 42 60 57 61 77 62 40 63 41 64 56 66 78 67 43 68
REMARK SMILES IDX 26 69 27 70 36 71 28 72 29 73 35 74 37 75 30 76 31 77 32 78
REMARK SMILES IDX 33 79 34 80 60 81 61 82 70 83 62 84 63 85 69 86 71 87 64 88
REMARK SMILES IDX 65 89 66 90 67 91 68 92 44 93 45 94 54 95 46 96 47 97 53 98
REMARK SMILES IDX 55 99 48 100 49 101 50 102 51 103 52 104
REMARK H PARENT 9 7 96 27 14 35 76 54 42 65
REMARK Flexibility Score: inf
ROOT
ATOM      1  C   UNL     1      -3.771  -2.634   8.447  1.00  0.00     0.023 C 
ENDROOT
BRANCH   1   2
ATOM      2  C   UNL     1      -3.376  -1.395   7.631  1.00  0.00     0.023 C 
BRANCH   2   3
ATOM      3  C   UNL     1      -1.883  -1.232   7.322  1.00  0.00     0.116 C 
BRANCH   3   4
ATOM      4  N   UNL     1      -1.366  -2.291   6.466  1.00  0.00    -0.354 N 
ATOM      5  C   UNL     1      -0.861  -2.325   5.184  1.00  0.00     0.248 C 
ATOM      6  O   UNL     1      -0.538  -3.461   4.832  1.00  0.00    -0.272 OA
ATOM      7  H   UNL     1      -1.381  -3.176   6.897  1.00  0.00     0.163 HD
BRANCH   5   8
ATOM      8  C   UNL     1      -0.716  -1.026   4.310  1.00  0.00     0.144 C 
ATOM      9  C   UNL     1      -2.138  -0.430   4.149  1.00  0.00     0.062 C 
ATOM     10  C   UNL     1       0.315  -0.125   5.043  1.00  0.00     0.062 C 
ATOM     11  C   UNL     1      -2.204   1.084   4.052  1.00  0.00     0.123 C 
ATOM     12  C   UNL     1       0.129   1.372   4.842  1.00  0.00     0.123 C 
ATOM     13  N   UNL     1      -1.276   1.758   4.942  1.00  0.00    -0.337 N 
ATOM     14  C   UNL     1      -1.740   2.772   5.768  1.00  0.00     0.270 C 
ATOM     15  O   UNL     1      -2.940   2.854   6.087  1.00  0.00    -0.267 OA
BRANCH   8  16
ATOM     16  N   UNL     1      -0.183  -1.251   2.922  1.00  0.00    -0.257 N 
ATOM     17  C   UNL     1       1.087  -0.266  -0.376  1.00  0.00     0.048 C 
ATOM     18  C   UNL     1       0.615  -0.897   0.874  1.00  0.00    -0.013 A 
ATOM     19  C   UNL     1       0.636  -2.255   1.235  1.00  0.00     0.138 A 
ATOM     20  C   UNL     1       0.055  -0.281   1.970  1.00  0.00     0.113 A 
ATOM     21  N   UNL     1       0.117  -2.470   2.443  1.00  0.00    -0.180 NA
ENDBRANCH   8  16
BRANCH  14  22
ATOM     22  C   UNL     1      -0.781   3.728   6.251  1.00  0.00     0.105 A 
ATOM     23  C   UNL     1       0.099   4.532   5.541  1.00  0.00     0.042 A 
ATOM     24  N   UNL     1      -0.617   4.038   7.579  1.00  0.00    -0.351 N 
ATOM     25  C   UNL     1       0.854   5.294   6.472  1.00  0.00     0.000 A 
ATOM     26  C   UNL     1       0.414   4.933   7.745  1.00  0.00     0.046 A 
ATOM     27  H   UNL     1      -1.163   3.670   8.311  1.00  0.00     0.167 HD
ATOM     28  C   UNL     1       1.879   6.251   6.353  1.00  0.00     0.010 A 
ATOM     29  C   UNL     1       0.979   5.452   8.914  1.00  0.00     0.026 A 
ATOM     30  C   UNL     1       2.445   6.793   7.512  1.00  0.00     0.001 A 
ATOM     31  C   UNL     1       2.008   6.388   8.772  1.00  0.00     0.002 A 
ENDBRANCH  14  22
ENDBRANCH   5   8
ENDBRANCH   3   4
ENDBRANCH   2   3
ENDBRANCH   1   2
BRANCH   1  32
ATOM     32  C   UNL     1      -3.168  -2.699   9.845  1.00  0.00     0.116 C 
BRANCH  32  33
ATOM     33  N   UNL     1      -3.574  -1.576  10.687  1.00  0.00    -0.352 N 
ATOM     34  C   UNL     1      -3.131  -1.263  11.955  1.00  0.00     0.251 C 
ATOM     35  H   UNL     1      -4.246  -0.968  10.302  1.00  0.00     0.163 HD
ATOM     36  O   UNL     1      -3.795  -0.531  12.685  1.00  0.00    -0.269 OA
BRANCH  34  37
ATOM     37  C   UNL     1      -1.851  -1.822  12.424  1.00  0.00     0.039 A 
ATOM     38  C   UNL     1      -1.728  -2.351  13.712  1.00  0.00     0.014 A 
ATOM     39  C   UNL     1      -0.772  -1.839  11.542  1.00  0.00     0.014 A 
ATOM     40  C   UNL     1      -0.538  -2.982  14.071  1.00  0.00     0.010 A 
ATOM     41  C   UNL     1       0.356  -2.562  11.855  1.00  0.00     0.010 A 
ATOM     42  C   UNL     1       0.494  -3.110  13.128  1.00  0.00    -0.014 A 
BRANCH  42  43
ATOM     43  C   UNL     1       1.669  -3.931  13.426  1.00  0.00     0.031 A 
ATOM     44  C   UNL     1       1.371  -5.348  13.796  1.00  0.00     0.074 A 
ATOM     45  C   UNL     1       2.932  -3.540  13.150  1.00  0.00     0.049 A 
ATOM     46  N   UNL     1       1.598  -5.947  14.919  1.00  0.00    -0.248 NA
ATOM     47  C   UNL     1       0.615  -6.167  12.834  1.00  0.00     0.031 C 
ATOM     48  C   UNL     1       3.372  -2.321  12.461  1.00  0.00     0.029 A 
ATOM     49  N   UNL     1       4.098  -4.223  13.315  1.00  0.00    -0.354 N 
ATOM     50  C   UNL     1       1.216  -7.277  14.735  1.00  0.00     0.074 A 
ATOM     51  C   UNL     1       0.455  -7.304  13.514  1.00  0.00     0.031 C 
ATOM     52  C   UNL     1       4.652  -2.468  12.056  1.00  0.00     0.029 A 
ATOM     53  C   UNL     1       5.175  -3.709  12.598  1.00  0.00     0.049 A 
ATOM     54  H   UNL     1       4.173  -5.015  13.894  1.00  0.00     0.167 HD
ATOM     55  C   UNL     1       1.748  -8.285  15.486  1.00  0.00     0.037 A 
ATOM     56  C   UNL     1       6.393  -4.284  12.431  1.00  0.00     0.037 A 
ATOM     57  C   UNL     1       2.413  -7.760  16.653  1.00  0.00     0.049 A 
ATOM     58  C   UNL     1       6.544  -5.302  13.502  1.00  0.00     0.074 A 
ATOM     59  C   UNL     1       2.027  -6.986  17.731  1.00  0.00     0.029 A 
ATOM     60  N   UNL     1       3.786  -7.712  16.636  1.00  0.00    -0.354 N 
ATOM     61  N   UNL     1       6.654  -5.018  14.770  1.00  0.00    -0.248 NA
ATOM     62  C   UNL     1       6.139  -6.667  13.204  1.00  0.00     0.031 C 
ATOM     63  C   UNL     1       3.138  -6.127  17.983  1.00  0.00     0.029 A 
ATOM     64  C   UNL     1       4.156  -6.475  17.095  1.00  0.00     0.049 A 
ATOM     65  H   UNL     1       4.392  -8.433  16.348  1.00  0.00     0.167 HD
ATOM     66  C   UNL     1       5.923  -6.001  15.418  1.00  0.00     0.074 A 
ATOM     67  C   UNL     1       5.719  -7.043  14.414  1.00  0.00     0.031 C 
ATOM     68  C   UNL     1       5.313  -5.754  16.614  1.00  0.00     0.037 A 
BRANCH  55  69
ATOM     69  C   UNL     1       1.992  -9.704  15.005  1.00  0.00     0.058 A 
ATOM     70  C   UNL     1       2.478 -10.667  15.920  1.00  0.00     0.135 A 
ATOM     71  C   UNL     1       2.050 -10.087  13.647  1.00  0.00     0.135 A 
ATOM     72  F   UNL     1       2.465 -10.424  17.241  1.00  0.00    -0.206 F 
ATOM     73  C   UNL     1       3.066 -11.865  15.512  1.00  0.00     0.059 A 
ATOM     74  C   UNL     1       2.581 -11.302  13.222  1.00  0.00     0.059 A 
ATOM     75  F   UNL     1       1.685  -9.270  12.653  1.00  0.00    -0.206 F 
ATOM     76  C   UNL     1       3.132 -12.163  14.156  1.00  0.00     0.060 A 
BRANCH  76  77
ATOM     77  S   UNL     1       3.994 -13.649  13.616  1.00  0.00     0.124 S 
ATOM     78  O   UNL     1       5.380 -13.301  13.907  1.00  0.00    -0.237 OA
ATOM     79  O   UNL     1       3.398 -14.672  14.469  1.00  0.00    -0.237 OA
ATOM     80  O   UNL     1       3.648 -13.741  12.201  1.00  0.00    -0.744 OA
ENDBRANCH  76  77
ENDBRANCH  55  69
BRANCH  56  81
ATOM     81  C   UNL     1       7.311  -4.231  11.263  1.00  0.00     0.058 A 
ATOM     82  C   UNL     1       8.630  -4.712  11.367  1.00  0.00     0.135 A 
ATOM     83  C   UNL     1       6.835  -4.003   9.957  1.00  0.00     0.135 A 
ATOM     84  F   UNL     1       9.165  -4.960  12.572  1.00  0.00    -0.206 F 
ATOM     85  C   UNL     1       9.400  -5.027  10.244  1.00  0.00     0.059 A 
ATOM     86  C   UNL     1       7.590  -4.298   8.822  1.00  0.00     0.059 A 
ATOM     87  F   UNL     1       5.580  -3.579   9.741  1.00  0.00    -0.206 F 
ATOM     88  C   UNL     1       8.859  -4.844   8.973  1.00  0.00     0.060 A 
BRANCH  88  89
ATOM     89  S   UNL     1       9.761  -5.459   7.531  1.00  0.00     0.124 S 
ATOM     90  O   UNL     1      10.876  -4.522   7.450  1.00  0.00    -0.237 OA
ATOM     91  O   UNL     1      10.100  -6.819   7.937  1.00  0.00    -0.237 OA
ATOM     92  O   UNL     1       8.782  -5.360   6.452  1.00  0.00    -0.744 OA
ENDBRANCH  88  89
ENDBRANCH  56  81
BRANCH  68  93
ATOM     93  C   UNL     1       5.723  -4.526  17.386  1.00  0.00     0.058 A 
ATOM     94  C   UNL     1       5.596  -3.203  16.926  1.00  0.00     0.135 A 
ATOM     95  C   UNL     1       6.160  -4.702  18.708  1.00  0.00     0.135 A 
ATOM     96  F   UNL     1       5.078  -2.935  15.719  1.00  0.00    -0.206 F 
ATOM     97  C   UNL     1       5.949  -2.111  17.722  1.00  0.00     0.059 A 
ATOM     98  C   UNL     1       6.482  -3.628  19.531  1.00  0.00     0.059 A 
ATOM     99  F   UNL     1       6.242  -5.937  19.231  1.00  0.00    -0.206 F 
ATOM    100  C   UNL     1       6.396  -2.335  19.024  1.00  0.00     0.060 A 
BRANCH 100 101
ATOM    101  S   UNL     1       6.816  -0.923  20.068  1.00  0.00     0.124 S 
ATOM    102  O   UNL     1       8.061  -0.457  19.467  1.00  0.00    -0.237 OA
ATOM    103  O   UNL     1       5.662  -0.045  19.896  1.00  0.00    -0.237 OA
ATOM    104  O   UNL     1       6.947  -1.510  21.399  1.00  0.00    -0.744 OA
ENDBRANCH 100 101
ENDBRANCH  68  93
ENDBRANCH  42  43
ENDBRANCH  34  37
ENDBRANCH  32  33
ENDBRANCH   1  32
TORSDOF 16
