REMARK SMILES O=C(NCCCCNC(=O)[C@@H](Cc1ccccc1)[P@TB4](=O)(O)C[NH+]1CCOCC1)c1ccc(-c2c3nc(c(-c4c(F)cc(S(=O)(=O)[O-])cc4F)c4ccc([nH]4)c(-c4c(F)cc(S(=O)(=O)[O-])cc4F)c4nc(c(-c5c(F)cc(S(=O)(=O)[O-])cc5F)c5ccc2[nH]5)C=C4)C=C3)cc1
REMARK SMILES IDX 5 1 4 2 3 3 1 4 2 5 29 7 30 8 94 9 31 10 93 11 32 12 33 13
REMARK SMILES IDX 34 14 87 15 35 16 92 17 86 18 88 19 36 20 91 21 85 22 84 23
REMARK SMILES IDX 37 25 71 26 50 27 70 28 51 29 54 30 69 31 89 32 52 33 53 34
REMARK SMILES IDX 68 36 90 37 55 38 38 39 39 40 48 41 40 42 41 43 47 44 49 45
REMARK SMILES IDX 42 46 43 47 44 48 45 49 46 50 72 51 73 52 82 53 74 54 75 55
REMARK SMILES IDX 81 56 83 57 76 58 77 59 78 60 79 61 80 62 56 63 57 64 66 65
REMARK SMILES IDX 58 66 59 67 65 68 67 69 60 70 61 71 62 72 63 73 64 74 6 75
REMARK SMILES IDX 7 76 8 77 9 78 10 80 11 81 12 82 13 83 14 84 18 85 15 86
REMARK SMILES IDX 17 87 16 88 19 89 20 90 21 91 22 93 23 94 24 95 28 96 25 98
REMARK SMILES IDX 27 99 26 100
REMARK H PARENT 3 6 88 24 54 35 8 79 21 92 23 97
REMARK Flexibility Score: inf
ROOT
ATOM      1  C   UNL     1       5.744   0.723   1.619  1.00  0.00       nan C 
ENDROOT
BRANCH   1   2
ATOM      2  C   UNL     1       5.042  -0.237   0.664  1.00  0.00       nan C 
BRANCH   2   3
ATOM      3  N   UNL     1       3.590  -0.282   0.821  1.00  0.00       nan N 
ATOM      4  O   UNL     1       1.419   0.074   0.271  1.00  0.00       nan OA
ATOM      5  C   UNL     1       2.600   0.091  -0.062  1.00  0.00       nan C 
ATOM      6  H   UNL     1       3.272  -0.631   1.685  1.00  0.00       nan HD
BRANCH   5   7
ATOM      7  C   UNL     1       2.991   0.558  -1.406  1.00  0.00       nan A 
ATOM      8  C   UNL     1       3.920  -0.171  -2.146  1.00  0.00       nan A 
ATOM      9  C   UNL     1       2.511   1.782  -1.877  1.00  0.00       nan A 
ATOM     10  C   UNL     1       4.550   0.432  -3.223  1.00  0.00       inf A 
ATOM     11  C   UNL     1       3.054   2.326  -3.043  1.00  0.00       inf A 
ATOM     12  C   UNL     1       4.121   1.684  -3.692  1.00  0.00    -0.014 A 
BRANCH  12  13
ATOM     13  C   UNL     1       4.781   2.277  -4.882  1.00  0.00     0.031 A 
ATOM     14  C   UNL     1       5.478   3.608  -4.808  1.00  0.00     0.074 A 
ATOM     15  C   UNL     1       4.764   1.582  -6.037  1.00  0.00     0.049 A 
ATOM     16  N   UNL     1       6.053   4.289  -5.767  1.00  0.00    -0.248 NA
ATOM     17  C   UNL     1       5.527   4.270  -3.495  1.00  0.00     0.031 C 
ATOM     18  C   UNL     1       4.114   0.282  -6.224  1.00  0.00     0.029 A 
ATOM     19  N   UNL     1       5.309   1.859  -7.262  1.00  0.00    -0.354 N 
ATOM     20  C   UNL     1       6.492   5.474  -5.187  1.00  0.00     0.074 A 
ATOM     21  C   UNL     1       6.110   5.424  -3.792  1.00  0.00     0.031 C 
ATOM     22  C   UNL     1       4.331  -0.144  -7.474  1.00  0.00     0.029 A 
ATOM     23  C   UNL     1       5.056   0.889  -8.202  1.00  0.00     0.049 A 
ATOM     24  H   UNL     1       5.831   2.672  -7.451  1.00  0.00     0.167 HD
ATOM     25  C   UNL     1       7.148   6.507  -5.770  1.00  0.00     0.037 A 
ATOM     26  C   UNL     1       5.333   0.847  -9.518  1.00  0.00     0.037 A 
ATOM     27  C   UNL     1       7.548   6.526  -7.155  1.00  0.00     0.049 A 
ATOM     28  C   UNL     1       6.059   1.998 -10.142  1.00  0.00     0.074 A 
ATOM     29  C   UNL     1       8.259   7.500  -7.833  1.00  0.00     0.029 A 
ATOM     30  N   UNL     1       7.267   5.524  -8.075  1.00  0.00    -0.354 N 
ATOM     31  N   UNL     1       6.480   3.103  -9.574  1.00  0.00    -0.248 NA
ATOM     32  C   UNL     1       6.342   1.906 -11.578  1.00  0.00     0.031 C 
ATOM     33  C   UNL     1       8.372   7.108  -9.172  1.00  0.00     0.029 A 
ATOM     34  C   UNL     1       7.769   5.868  -9.320  1.00  0.00     0.049 A 
ATOM     35  H   UNL     1       6.782   4.692  -7.873  1.00  0.00     0.167 HD
ATOM     36  C   UNL     1       7.081   3.841 -10.584  1.00  0.00     0.074 A 
ATOM     37  C   UNL     1       6.983   3.047 -11.794  1.00  0.00     0.031 C 
ATOM     38  C   UNL     1       7.658   5.065 -10.514  1.00  0.00     0.037 A 
BRANCH  25  39
ATOM     39  C   UNL     1       7.440   7.717  -4.923  1.00  0.00     0.058 A 
ATOM     40  C   UNL     1       8.414   7.704  -3.913  1.00  0.00     0.135 A 
ATOM     41  C   UNL     1       6.738   8.915  -5.137  1.00  0.00     0.135 A 
ATOM     42  F   UNL     1       9.109   6.584  -3.657  1.00  0.00    -0.206 F 
ATOM     43  C   UNL     1       8.653   8.822  -3.117  1.00  0.00     0.059 A 
ATOM     44  C   UNL     1       6.976  10.052  -4.370  1.00  0.00     0.059 A 
ATOM     45  F   UNL     1       5.799   8.986  -6.094  1.00  0.00    -0.206 F 
ATOM     46  C   UNL     1       7.921   9.989  -3.347  1.00  0.00     0.060 A 
BRANCH  46  47
ATOM     47  S   UNL     1       8.211  11.420  -2.284  1.00  0.00     0.124 S 
ATOM     48  O   UNL     1       7.514  11.020  -1.065  1.00  0.00    -0.237 OA
ATOM     49  O   UNL     1       9.667  11.458  -2.196  1.00  0.00    -0.237 OA
ATOM     50  O   UNL     1       7.602  12.521  -3.023  1.00  0.00    -0.744 OA
ENDBRANCH  46  47
ENDBRANCH  25  39
BRANCH  26  51
ATOM     51  C   UNL     1       4.874  -0.324 -10.305  1.00  0.00     0.058 A 
ATOM     52  C   UNL     1       5.773  -1.310 -10.729  1.00  0.00     0.135 A 
ATOM     53  C   UNL     1       3.505  -0.536 -10.539  1.00  0.00     0.135 A 
ATOM     54  F   UNL     1       7.090  -1.150 -10.527  1.00  0.00    -0.206 F 
ATOM     55  C   UNL     1       5.331  -2.477 -11.344  1.00  0.00     0.059 A 
ATOM     56  C   UNL     1       3.037  -1.704 -11.128  1.00  0.00     0.059 A 
ATOM     57  F   UNL     1       2.604   0.370 -10.127  1.00  0.00    -0.206 F 
ATOM     58  C   UNL     1       3.959  -2.671 -11.527  1.00  0.00     0.060 A 
BRANCH  58  59
ATOM     59  S   UNL     1       3.386  -4.238 -12.217  1.00  0.00     0.124 S 
ATOM     60  O   UNL     1       3.690  -4.063 -13.632  1.00  0.00    -0.237 OA
ATOM     61  O   UNL     1       4.209  -5.209 -11.502  1.00  0.00    -0.237 OA
ATOM     62  O   UNL     1       1.968  -4.257 -11.871  1.00  0.00    -0.744 OA
ENDBRANCH  58  59
ENDBRANCH  26  51
BRANCH  38  63
ATOM     63  C   UNL     1       8.242   5.620 -11.779  1.00  0.00     0.058 A 
ATOM     64  C   UNL     1       7.428   6.163 -12.785  1.00  0.00     0.135 A 
ATOM     65  C   UNL     1       9.634   5.673 -11.955  1.00  0.00     0.135 A 
ATOM     66  F   UNL     1       6.092   6.124 -12.667  1.00  0.00    -0.206 F 
ATOM     67  C   UNL     1       7.975   6.737 -13.927  1.00  0.00     0.059 A 
ATOM     68  C   UNL     1      10.203   6.260 -13.080  1.00  0.00     0.059 A 
ATOM     69  F   UNL     1      10.453   5.170 -11.018  1.00  0.00    -0.206 F 
ATOM     70  C   UNL     1       9.365   6.786 -14.063  1.00  0.00     0.060 A 
BRANCH  70  71
ATOM     71  S   UNL     1      10.065   7.589 -15.520  1.00  0.00     0.124 S 
ATOM     72  O   UNL     1       9.834   6.581 -16.550  1.00  0.00    -0.237 OA
ATOM     73  O   UNL     1       9.260   8.802 -15.627  1.00  0.00    -0.237 OA
ATOM     74  O   UNL     1      11.461   7.802 -15.151  1.00  0.00    -0.744 OA
ENDBRANCH  70  71
ENDBRANCH  38  63
ENDBRANCH  12  13
ENDBRANCH   5   7
ENDBRANCH   2   3
ENDBRANCH   1   2
BRANCH   1  75
ATOM     75  C   UNL     1       5.452   0.482   3.089  1.00  0.00       nan C 
BRANCH  75  76
ATOM     76  C   UNL     1       5.705  -0.944   3.552  1.00  0.00       nan C 
BRANCH  76  77
ATOM     77  N   UNL     1       7.007  -1.153   4.142  1.00  0.00       nan N 
ATOM     78  C   UNL     1       7.374  -2.013   5.127  1.00  0.00       nan C 
ATOM     79  H   UNL     1       7.730  -0.593   3.778  1.00  0.00       nan HD
ATOM     80  O   UNL     1       8.593  -2.141   5.303  1.00  0.00       nan OA
BRANCH  78  81
ATOM     81  C   UNL     1       6.417  -2.749   6.040  1.00  0.00       nan C 
BRANCH  81  82
ATOM     82  C   UNL     1       5.666  -1.807   7.050  1.00  0.00       nan C 
BRANCH  82  83
ATOM     83  C   UNL     1       4.368  -1.122   6.645  1.00  0.00       nan A 
ATOM     84  C   UNL     1       4.339   0.259   6.391  1.00  0.00       nan A 
ATOM     85  C   UNL     1       3.180  -1.847   6.446  1.00  0.00       nan A 
ATOM     86  C   UNL     1       3.201   0.865   5.841  1.00  0.00       nan A 
ATOM     87  C   UNL     1       2.059  -1.250   5.859  1.00  0.00       nan A 
ATOM     88  C   UNL     1       2.075   0.103   5.539  1.00  0.00       nan A 
ENDBRANCH  82  83
ENDBRANCH  81  82
BRANCH  81  89
ATOM     89  P   UNL     1       5.365  -4.146   5.501  1.00  0.00       nan P 
ATOM     90  O   UNL     1       4.619  -3.303   4.465  1.00  0.00       nan OA
BRANCH  89  91
ATOM     91  O   UNL     1       6.640  -4.705   4.601  1.00  0.00       nan OA
ATOM     92  H   UNL     1       7.397  -4.108   4.706  1.00  0.00       nan HD
ENDBRANCH  89  91
BRANCH  89  93
ATOM     93  C   UNL     1       4.313  -5.543   4.963  1.00  0.00       nan C 
BRANCH  93  94
ATOM     94  N   UNL     1       4.708  -6.854   5.551  1.00  0.00       nan N 
ATOM     95  C   UNL     1       6.090  -7.302   5.234  1.00  0.00       nan C 
ATOM     96  C   UNL     1       3.815  -7.910   4.981  1.00  0.00       nan C 
ATOM     97  H   UNL     1       4.639  -6.723   6.561  1.00  0.00       nan HD
ATOM     98  C   UNL     1       6.336  -7.575   3.739  1.00  0.00       nan C 
ATOM     99  C   UNL     1       4.093  -8.264   3.499  1.00  0.00       nan C 
ATOM    100  O   UNL     1       5.464  -8.617   3.279  1.00  0.00       nan OA
ENDBRANCH  93  94
ENDBRANCH  89  93
ENDBRANCH  81  89
ENDBRANCH  78  81
ENDBRANCH  76  77
ENDBRANCH  75  76
ENDBRANCH   1  75
TORSDOF 20
