REMARK SMILES CC(C)(O)CC[C@@H](C(=O)NCCCCNC(=O)c1ccc(-c2c3nc(c(-c4c(F)cc(S(=O)(=O)[O-])cc4F)c4ccc([nH]4)c(-c4c(F)cc(S(=O)(=O)[O-])cc4F)c4nc(c(-c5c(F)cc(S(=O)(=O)[O-])cc5F)c5ccc2[nH]5)C=C4)C=C3)cc1)[C@@H]1CCS(=O)(=O)C1
REMARK SMILES IDX 12 1 11 2 10 3 8 4 9 5 7 7 6 8 5 9 2 10 1 11 3 12 4 13 84 15
REMARK SMILES IDX 85 16 90 17 86 18 87 19 88 20 89 21 13 22 14 23 15 24 16 25
REMARK SMILES IDX 17 27 18 28 19 29 83 30 20 31 82 32 21 33 22 34 23 35 76 36
REMARK SMILES IDX 24 37 81 38 75 39 77 40 25 41 80 42 74 43 73 44 26 46 60 47
REMARK SMILES IDX 39 48 59 49 40 50 43 51 58 52 78 53 41 54 42 55 57 57 79 58
REMARK SMILES IDX 44 59 27 60 28 61 37 62 29 63 30 64 36 65 38 66 31 67 32 68
REMARK SMILES IDX 33 69 34 70 35 71 61 72 62 73 71 74 63 75 64 76 70 77 72 78
REMARK SMILES IDX 65 79 66 80 67 81 68 82 69 83 45 84 46 85 55 86 47 87 48 88
REMARK SMILES IDX 54 89 56 90 49 91 50 92 51 93 52 94 53 95
REMARK H PARENT 10 6 4 14 15 26 77 45 43 56
REMARK Flexibility Score: inf
ROOT
ATOM      1  C   UNL     1       3.617   2.545   1.111  1.00  0.00     0.023 C 
ENDROOT
BRANCH   1   2
ATOM      2  C   UNL     1       3.365   1.055   0.873  1.00  0.00     0.116 C 
BRANCH   2   3
ATOM      3  N   UNL     1       3.483   0.285   2.084  1.00  0.00    -0.356 N 
ATOM      4  C   UNL     1       2.564  -0.385   2.823  1.00  0.00     0.223 C 
ATOM      5  O   UNL     1       3.041  -1.055   3.745  1.00  0.00    -0.275 OA
ATOM      6  H   UNL     1       4.399   0.236   2.441  1.00  0.00     0.163 HD
BRANCH   4   7
ATOM      7  C   UNL     1       1.032  -0.388   2.502  1.00  0.00     0.082 C 
BRANCH   7   8
ATOM      8  C   UNL     1       0.384   1.015   2.562  1.00  0.00     0.017 C 
BRANCH   8   9
ATOM      9  C   UNL     1       0.246   1.951   1.342  1.00  0.00     0.035 C 
BRANCH   9  10
ATOM     10  C   UNL     1      -0.260   1.544  -0.071  1.00  0.00     0.059 C 
ATOM     11  C   UNL     1       0.016   0.138  -0.599  1.00  0.00     0.042 C 
ATOM     12  C   UNL     1       0.299   2.554  -1.092  1.00  0.00     0.042 C 
BRANCH  10  13
ATOM     13  O   UNL     1      -1.682   1.703  -0.059  1.00  0.00    -0.390 OA
ATOM     14  H   UNL     1      -2.042   1.458  -0.926  1.00  0.00     0.211 HD
ENDBRANCH  10  13
ENDBRANCH   9  10
ENDBRANCH   8   9
ENDBRANCH   7   8
BRANCH   7  15
ATOM     15  C   UNL     1       0.342  -1.435   3.497  1.00  0.00     0.017 C 
ATOM     16  C   UNL     1      -0.071  -2.737   2.773  1.00  0.00     0.021 C 
ATOM     17  C   UNL     1      -0.915  -1.038   4.292  1.00  0.00     0.141 C 
ATOM     18  C   UNL     1      -1.450  -2.526   2.159  1.00  0.00     0.137 C 
ATOM     19  S   UNL     1      -2.318  -1.425   3.259  1.00  0.00     0.150 S 
ATOM     20  O   UNL     1      -2.716  -0.252   2.517  1.00  0.00    -0.229 OA
ATOM     21  O   UNL     1      -3.271  -2.194   4.036  1.00  0.00    -0.229 OA
ENDBRANCH   7  15
ENDBRANCH   4   7
ENDBRANCH   2   3
ENDBRANCH   1   2
BRANCH   1  22
ATOM     22  C   UNL     1       5.016   3.012   0.753  1.00  0.00     0.023 C 
BRANCH  22  23
ATOM     23  C   UNL     1       5.374   2.827  -0.715  1.00  0.00     0.116 C 
BRANCH  23  24
ATOM     24  N   UNL     1       4.510   3.543  -1.649  1.00  0.00    -0.352 N 
ATOM     25  C   UNL     1       4.885   4.218  -2.792  1.00  0.00     0.251 C 
ATOM     26  H   UNL     1       3.548   3.545  -1.439  1.00  0.00     0.163 HD
ATOM     27  O   UNL     1       4.062   4.821  -3.470  1.00  0.00    -0.269 OA
BRANCH  25  28
ATOM     28  C   UNL     1       6.320   4.239  -3.140  1.00  0.00     0.039 A 
ATOM     29  C   UNL     1       6.970   5.468  -3.253  1.00  0.00     0.014 A 
ATOM     30  C   UNL     1       7.039   3.042  -3.172  1.00  0.00     0.014 A 
ATOM     31  C   UNL     1       8.364   5.498  -3.299  1.00  0.00     0.010 A 
ATOM     32  C   UNL     1       8.425   3.083  -3.099  1.00  0.00     0.010 A 
ATOM     33  C   UNL     1       9.104   4.311  -3.162  1.00  0.00    -0.014 A 
BRANCH  33  34
ATOM     34  C   UNL     1      10.588   4.327  -3.084  1.00  0.00     0.031 A 
ATOM     35  C   UNL     1      11.395   3.576  -4.108  1.00  0.00     0.074 A 
ATOM     36  C   UNL     1      11.205   4.955  -2.061  1.00  0.00     0.049 A 
ATOM     37  N   UNL     1      12.690   3.407  -4.178  1.00  0.00    -0.248 NA
ATOM     38  C   UNL     1      10.645   2.894  -5.177  1.00  0.00     0.031 C 
ATOM     39  C   UNL     1      10.532   5.663  -0.969  1.00  0.00     0.029 A 
ATOM     40  N   UNL     1      12.539   5.094  -1.768  1.00  0.00    -0.354 N 
ATOM     41  C   UNL     1      12.905   2.595  -5.285  1.00  0.00     0.074 A 
ATOM     42  C   UNL     1      11.606   2.241  -5.811  1.00  0.00     0.031 C 
ATOM     43  C   UNL     1      11.455   6.187  -0.146  1.00  0.00     0.029 A 
ATOM     44  C   UNL     1      12.784   5.817  -0.623  1.00  0.00     0.049 A 
ATOM     45  H   UNL     1      13.255   4.712  -2.325  1.00  0.00     0.167 HD
ATOM     46  C   UNL     1      14.078   2.210  -5.839  1.00  0.00     0.037 A 
ATOM     47  C   UNL     1      13.946   6.140  -0.021  1.00  0.00     0.037 A 
ATOM     48  C   UNL     1      15.367   2.588  -5.325  1.00  0.00     0.049 A 
ATOM     49  C   UNL     1      15.240   5.696  -0.652  1.00  0.00     0.074 A 
ATOM     50  C   UNL     1      16.617   2.295  -5.840  1.00  0.00     0.029 A 
ATOM     51  N   UNL     1      15.573   3.342  -4.178  1.00  0.00    -0.354 N 
ATOM     52  N   UNL     1      15.426   4.987  -1.740  1.00  0.00    -0.248 NA
ATOM     53  C   UNL     1      16.483   6.101   0.020  1.00  0.00     0.031 C 
ATOM     54  C   UNL     1      17.580   2.825  -4.976  1.00  0.00     0.029 A 
ATOM     55  C   UNL     1      16.930   3.504  -3.957  1.00  0.00     0.049 A 
ATOM     56  H   UNL     1      14.860   3.707  -3.607  1.00  0.00     0.167 HD
ATOM     57  C   UNL     1      16.804   4.886  -1.899  1.00  0.00     0.074 A 
ATOM     58  C   UNL     1      17.404   5.620  -0.803  1.00  0.00     0.031 C 
ATOM     59  C   UNL     1      17.510   4.246  -2.864  1.00  0.00     0.037 A 
BRANCH  46  60
ATOM     60  C   UNL     1      14.017   1.346  -7.069  1.00  0.00     0.058 A 
ATOM     61  C   UNL     1      13.537   1.841  -8.294  1.00  0.00     0.135 A 
ATOM     62  C   UNL     1      14.466   0.017  -7.033  1.00  0.00     0.135 A 
ATOM     63  F   UNL     1      13.075   3.098  -8.383  1.00  0.00    -0.206 F 
ATOM     64  C   UNL     1      13.475   1.039  -9.429  1.00  0.00     0.059 A 
ATOM     65  C   UNL     1      14.445  -0.793  -8.165  1.00  0.00     0.059 A 
ATOM     66  F   UNL     1      14.931  -0.509  -5.889  1.00  0.00    -0.206 F 
ATOM     67  C   UNL     1      13.934  -0.277  -9.355  1.00  0.00     0.060 A 
BRANCH  67  68
ATOM     68  S   UNL     1      13.853  -1.298 -10.840  1.00  0.00     0.124 S 
ATOM     69  O   UNL     1      12.416  -1.520 -10.963  1.00  0.00    -0.237 OA
ATOM     70  O   UNL     1      14.449  -0.427 -11.848  1.00  0.00    -0.237 OA
ATOM     71  O   UNL     1      14.641  -2.475 -10.487  1.00  0.00    -0.744 OA
ENDBRANCH  67  68
ENDBRANCH  46  60
BRANCH  47  72
ATOM     72  C   UNL     1      13.943   6.938   1.237  1.00  0.00     0.058 A 
ATOM     73  C   UNL     1      14.425   8.255   1.264  1.00  0.00     0.135 A 
ATOM     74  C   UNL     1      13.451   6.401   2.437  1.00  0.00     0.135 A 
ATOM     75  F   UNL     1      14.912   8.814   0.145  1.00  0.00    -0.206 F 
ATOM     76  C   UNL     1      14.440   9.005   2.436  1.00  0.00     0.059 A 
ATOM     77  C   UNL     1      13.428   7.140   3.616  1.00  0.00     0.059 A 
ATOM     78  F   UNL     1      12.963   5.151   2.465  1.00  0.00    -0.206 F 
ATOM     79  C   UNL     1      13.936   8.438   3.608  1.00  0.00     0.060 A 
BRANCH  79  80
ATOM     80  S   UNL     1      13.918   9.435   5.114  1.00  0.00     0.124 S 
ATOM     81  O   UNL     1      15.336   9.489   5.448  1.00  0.00    -0.237 OA
ATOM     82  O   UNL     1      13.323  10.684   4.646  1.00  0.00    -0.237 OA
ATOM     83  O   UNL     1      13.084   8.655   6.023  1.00  0.00    -0.744 OA
ENDBRANCH  79  80
ENDBRANCH  47  72
BRANCH  59  84
ATOM     84  C   UNL     1      19.011   4.339  -2.807  1.00  0.00     0.058 A 
ATOM     85  C   UNL     1      19.758   3.667  -1.828  1.00  0.00     0.135 A 
ATOM     86  C   UNL     1      19.712   5.064  -3.785  1.00  0.00     0.135 A 
ATOM     87  F   UNL     1      19.138   2.965  -0.867  1.00  0.00    -0.206 F 
ATOM     88  C   UNL     1      21.148   3.730  -1.805  1.00  0.00     0.059 A 
ATOM     89  C   UNL     1      21.102   5.113  -3.801  1.00  0.00     0.059 A 
ATOM     90  F   UNL     1      19.046   5.715  -4.752  1.00  0.00    -0.206 F 
ATOM     91  C   UNL     1      21.811   4.452  -2.800  1.00  0.00     0.060 A 
BRANCH  91  92
ATOM     92  S   UNL     1      23.615   4.494  -2.779  1.00  0.00     0.124 S 
ATOM     93  O   UNL     1      23.876   5.359  -1.633  1.00  0.00    -0.237 OA
ATOM     94  O   UNL     1      23.957   3.086  -2.602  1.00  0.00    -0.237 OA
ATOM     95  O   UNL     1      23.958   5.058  -4.081  1.00  0.00    -0.744 OA
ENDBRANCH  91  92
ENDBRANCH  59  84
ENDBRANCH  33  34
ENDBRANCH  25  28
ENDBRANCH  23  24
ENDBRANCH  22  23
ENDBRANCH   1  22
TORSDOF 19
