REMARK SMILES O=C(NCCCCNC(=O)c1cnc(-c2ccccc2Cl)nc1)c1ccc(-c2c3nc(c(-c4c(F)cc(S(=O)(=O)[O-])cc4F)c4ccc([nH]4)c(-c4c(F)cc(S(=O)(=O)[O-])cc4F)c4nc(c(-c5c(F)cc(S(=O)(=O)[O-])cc5F)c5ccc2[nH]5)C=C4)C=C3)cc1
REMARK SMILES IDX 4 1 3 2 1 3 2 4 24 6 25 7 89 8 26 9 88 10 27 11 28 12 29 13
REMARK SMILES IDX 82 14 30 15 87 16 81 17 83 18 31 19 86 20 80 21 79 22 32 24
REMARK SMILES IDX 66 25 45 26 65 27 46 28 49 29 64 30 84 31 47 32 48 33 63 35
REMARK SMILES IDX 85 36 50 37 33 38 34 39 43 40 35 41 36 42 42 43 44 44 37 45
REMARK SMILES IDX 38 46 39 47 40 48 41 49 67 50 68 51 77 52 69 53 70 54 76 55
REMARK SMILES IDX 78 56 71 57 72 58 73 59 74 60 75 61 51 62 52 63 61 64 53 65
REMARK SMILES IDX 54 66 60 67 62 68 55 69 56 70 57 71 58 72 59 73 5 74 6 75
REMARK SMILES IDX 7 76 8 77 9 78 10 80 11 81 12 82 23 83 13 84 22 85 14 86
REMARK SMILES IDX 15 87 16 88 20 89 17 90 19 91 21 92 18 93
REMARK H PARENT 3 5 83 23 49 34 8 79
REMARK Flexibility Score: inf
ROOT
ATOM      1  C   UNL     1       4.536  -1.225   0.322  1.00  0.00     0.116 C 
ENDROOT
BRANCH   1   2
ATOM      2  N   UNL     1       3.104  -1.097   0.096  1.00  0.00    -0.352 N 
ATOM      3  O   UNL     1       1.129  -0.032  -0.121  1.00  0.00    -0.269 OA
ATOM      4  C   UNL     1       2.352   0.044  -0.065  1.00  0.00     0.251 C 
ATOM      5  H   UNL     1       2.605  -1.944   0.053  1.00  0.00     0.163 HD
BRANCH   4   6
ATOM      6  C   UNL     1       3.024   1.360  -0.139  1.00  0.00     0.039 A 
ATOM      7  C   UNL     1       4.152   1.539  -0.943  1.00  0.00     0.014 A 
ATOM      8  C   UNL     1       2.525   2.424   0.619  1.00  0.00     0.014 A 
ATOM      9  C   UNL     1       4.864   2.731  -0.875  1.00  0.00     0.010 A 
ATOM     10  C   UNL     1       3.196   3.650   0.619  1.00  0.00     0.010 A 
ATOM     11  C   UNL     1       4.389   3.804  -0.102  1.00  0.00    -0.014 A 
BRANCH  11  12
ATOM     12  C   UNL     1       5.128   5.092  -0.117  1.00  0.00     0.031 A 
ATOM     13  C   UNL     1       5.791   5.628   1.122  1.00  0.00     0.074 A 
ATOM     14  C   UNL     1       5.221   5.765  -1.281  1.00  0.00     0.049 A 
ATOM     15  N   UNL     1       6.490   6.725   1.270  1.00  0.00    -0.248 NA
ATOM     16  C   UNL     1       5.647   4.840   2.355  1.00  0.00     0.031 C 
ATOM     17  C   UNL     1       4.605   5.348  -2.544  1.00  0.00     0.029 A 
ATOM     18  N   UNL     1       5.877   6.926  -1.600  1.00  0.00    -0.354 N 
ATOM     19  C   UNL     1       6.855   6.770   2.611  1.00  0.00     0.074 A 
ATOM     20  C   UNL     1       6.280   5.600   3.240  1.00  0.00     0.031 C 
ATOM     21  C   UNL     1       4.949   6.214  -3.509  1.00  0.00     0.029 A 
ATOM     22  C   UNL     1       5.757   7.277  -2.924  1.00  0.00     0.049 A 
ATOM     23  H   UNL     1       6.384   7.457  -0.945  1.00  0.00     0.167 HD
ATOM     24  C   UNL     1       7.605   7.699   3.253  1.00  0.00     0.037 A 
ATOM     25  C   UNL     1       6.229   8.345  -3.593  1.00  0.00     0.037 A 
ATOM     26  C   UNL     1       8.187   8.853   2.613  1.00  0.00     0.049 A 
ATOM     27  C   UNL     1       7.046   9.364  -2.855  1.00  0.00     0.074 A 
ATOM     28  C   UNL     1       8.993   9.831   3.170  1.00  0.00     0.029 A 
ATOM     29  N   UNL     1       8.021   9.188   1.277  1.00  0.00    -0.354 N 
ATOM     30  N   UNL     1       7.405   9.373  -1.593  1.00  0.00    -0.248 NA
ATOM     31  C   UNL     1       7.519  10.520  -3.627  1.00  0.00     0.031 C 
ATOM     32  C   UNL     1       9.282  10.778   2.181  1.00  0.00     0.029 A 
ATOM     33  C   UNL     1       8.691  10.368   0.996  1.00  0.00     0.049 A 
ATOM     34  H   UNL     1       7.503   8.664   0.624  1.00  0.00     0.167 HD
ATOM     35  C   UNL     1       8.153  10.531  -1.421  1.00  0.00     0.074 A 
ATOM     36  C   UNL     1       8.213  11.185  -2.714  1.00  0.00     0.031 C 
ATOM     37  C   UNL     1       8.735  11.010  -0.294  1.00  0.00     0.037 A 
BRANCH  24  38
ATOM     38  C   UNL     1       7.831   7.518   4.729  1.00  0.00     0.058 A 
ATOM     39  C   UNL     1       8.693   6.529   5.230  1.00  0.00     0.135 A 
ATOM     40  C   UNL     1       7.212   8.374   5.655  1.00  0.00     0.135 A 
ATOM     41  F   UNL     1       9.301   5.675   4.392  1.00  0.00    -0.206 F 
ATOM     42  C   UNL     1       8.913   6.379   6.596  1.00  0.00     0.059 A 
ATOM     43  C   UNL     1       7.435   8.257   7.024  1.00  0.00     0.059 A 
ATOM     44  F   UNL     1       6.380   9.338   5.231  1.00  0.00    -0.206 F 
ATOM     45  C   UNL     1       8.276   7.246   7.487  1.00  0.00     0.060 A 
BRANCH  45  46
ATOM     46  S   UNL     1       8.569   7.038   9.256  1.00  0.00     0.124 S 
ATOM     47  O   UNL     1       7.781   5.843   9.541  1.00  0.00    -0.237 OA
ATOM     48  O   UNL     1      10.018   6.870   9.317  1.00  0.00    -0.237 OA
ATOM     49  O   UNL     1       8.060   8.278   9.834  1.00  0.00    -0.744 OA
ENDBRANCH  45  46
ENDBRANCH  24  38
BRANCH  25  50
ATOM     50  C   UNL     1       5.928   8.494  -5.040  1.00  0.00     0.058 A 
ATOM     51  C   UNL     1       6.927   8.320  -6.007  1.00  0.00     0.135 A 
ATOM     52  C   UNL     1       4.625   8.769  -5.483  1.00  0.00     0.135 A 
ATOM     53  F   UNL     1       8.188   8.059  -5.631  1.00  0.00    -0.206 F 
ATOM     54  C   UNL     1       6.647   8.418  -7.366  1.00  0.00     0.059 A 
ATOM     55  C   UNL     1       4.315   8.846  -6.836  1.00  0.00     0.059 A 
ATOM     56  F   UNL     1       3.631   8.925  -4.594  1.00  0.00    -0.206 F 
ATOM     57  C   UNL     1       5.335   8.677  -7.770  1.00  0.00     0.060 A 
BRANCH  57  58
ATOM     58  S   UNL     1       4.966   8.736  -9.537  1.00  0.00     0.124 S 
ATOM     59  O   UNL     1       5.497  10.044  -9.903  1.00  0.00    -0.237 OA
ATOM     60  O   UNL     1       5.702   7.582 -10.045  1.00  0.00    -0.237 OA
ATOM     61  O   UNL     1       3.512   8.609  -9.578  1.00  0.00    -0.744 OA
ENDBRANCH  57  58
ENDBRANCH  25  50
BRANCH  37  62
ATOM     62  C   UNL     1       9.498  12.298  -0.416  1.00  0.00     0.058 A 
ATOM     63  C   UNL     1       8.841  13.530  -0.548  1.00  0.00     0.135 A 
ATOM     64  C   UNL     1      10.901  12.302  -0.367  1.00  0.00     0.135 A 
ATOM     65  F   UNL     1       7.500  13.578  -0.609  1.00  0.00    -0.206 F 
ATOM     66  C   UNL     1       9.549  14.723  -0.653  1.00  0.00     0.059 A 
ATOM     67  C   UNL     1      11.629  13.485  -0.447  1.00  0.00     0.059 A 
ATOM     68  F   UNL     1      11.577  11.150  -0.234  1.00  0.00    -0.206 F 
ATOM     69  C   UNL     1      10.944  14.689  -0.602  1.00  0.00     0.060 A 
BRANCH  69  70
ATOM     70  S   UNL     1      11.853  16.245  -0.714  1.00  0.00     0.124 S 
ATOM     71  O   UNL     1      11.756  16.540  -2.140  1.00  0.00    -0.237 OA
ATOM     72  O   UNL     1      11.088  17.120   0.168  1.00  0.00    -0.237 OA
ATOM     73  O   UNL     1      13.186  15.893  -0.234  1.00  0.00    -0.744 OA
ENDBRANCH  69  70
ENDBRANCH  37  62
ENDBRANCH  11  12
ENDBRANCH   4   6
ENDBRANCH   1   2
BRANCH   1  74
ATOM     74  C   UNL     1       4.877  -2.106   1.517  1.00  0.00     0.023 C 
BRANCH  74  75
ATOM     75  C   UNL     1       4.396  -3.553   1.422  1.00  0.00     0.023 C 
BRANCH  75  76
ATOM     76  C   UNL     1       4.794  -4.287   0.145  1.00  0.00     0.116 C 
BRANCH  76  77
ATOM     77  N   UNL     1       6.239  -4.394  -0.011  1.00  0.00    -0.352 N 
ATOM     78  C   UNL     1       7.027  -5.517  -0.025  1.00  0.00     0.254 C 
ATOM     79  H   UNL     1       6.717  -3.540  -0.122  1.00  0.00     0.163 HD
ATOM     80  O   UNL     1       8.250  -5.436  -0.010  1.00  0.00    -0.269 OA
BRANCH  78  81
ATOM     81  C   UNL     1       6.401  -6.834  -0.036  1.00  0.00     0.076 A 
ATOM     82  C   UNL     1       5.503  -7.222  -1.002  1.00  0.00     0.129 A 
ATOM     83  C   UNL     1       6.679  -7.759   0.940  1.00  0.00     0.129 A 
ATOM     84  N   UNL     1       4.837  -8.395  -0.964  1.00  0.00    -0.236 NA
ATOM     85  N   UNL     1       6.047  -8.950   1.024  1.00  0.00    -0.236 NA
ATOM     86  C   UNL     1       5.109  -9.200   0.087  1.00  0.00     0.160 A 
BRANCH  86  87
ATOM     87  C   UNL     1       4.321 -10.429   0.199  1.00  0.00     0.038 A 
ATOM     88  C   UNL     1       4.171 -11.256  -0.934  1.00  0.00     0.013 A 
ATOM     89  C   UNL     1       3.666 -10.821   1.381  1.00  0.00     0.052 A 
ATOM     90  C   UNL     1       3.420 -12.432  -0.888  1.00  0.00     0.001 A 
ATOM     91  C   UNL     1       2.915 -12.004   1.427  1.00  0.00     0.021 A 
ATOM     92  Cl  UNL     1       3.671  -9.857   2.822  1.00  0.00    -0.084 Cl
ATOM     93  C   UNL     1       2.795 -12.809   0.296  1.00  0.00     0.002 A 
ENDBRANCH  86  87
ENDBRANCH  78  81
ENDBRANCH  76  77
ENDBRANCH  75  76
ENDBRANCH  74  75
ENDBRANCH   1  74
TORSDOF 15
