REMARK SMILES Cc1ccccc1CCNc1ccc(C(=O)NCCCCNC(=O)c2ccc(-c3c4nc(c(-c5c(F)cc(S(=O)(=O)[O-])cc5F)c5ccc([nH]5)c(-c5c(F)cc(S(=O)(=O)[O-])cc5F)c5nc(c(-c6c(F)cc(S(=O)(=O)[O-])cc6F)c6ccc3[nH]6)C=C5)C=C4)cc2)cc1N
REMARK SMILES IDX 19 1 18 2 17 3 15 4 16 5 14 7 11 8 12 9 92 10 13 11 91 12
REMARK SMILES IDX 10 13 9 15 8 16 7 17 1 18 2 19 3 20 4 21 6 22 5 23 93 24
REMARK SMILES IDX 20 27 21 28 22 29 23 30 24 32 25 33 26 34 90 35 27 36 89 37
REMARK SMILES IDX 28 38 29 39 30 40 83 41 31 42 88 43 82 44 84 45 32 46 87 47
REMARK SMILES IDX 81 48 80 49 33 51 67 52 46 53 66 54 47 55 50 56 65 57 85 58
REMARK SMILES IDX 48 59 49 60 64 62 86 63 51 64 34 65 35 66 44 67 36 68 37 69
REMARK SMILES IDX 43 70 45 71 38 72 39 73 40 74 41 75 42 76 68 77 69 78 78 79
REMARK SMILES IDX 70 80 71 81 77 82 79 83 72 84 73 85 74 86 75 87 76 88 52 89
REMARK SMILES IDX 53 90 62 91 54 92 55 93 61 94 63 95 56 96 57 97 58 98 59 99
REMARK SMILES IDX 60 100
REMARK H PARENT 17 6 10 14 93 25 93 26 22 31 84 50 50 61
REMARK Flexibility Score: inf
ROOT
ATOM      1  C   UNL     1      -1.709   9.666  -4.880  1.00  0.00     0.023 C 
ENDROOT
BRANCH   1   2
ATOM      2  C   UNL     1      -0.982   9.622  -3.534  1.00  0.00     0.116 C 
BRANCH   2   3
ATOM      3  N   UNL     1      -1.863   9.821  -2.387  1.00  0.00    -0.352 N 
ATOM      4  C   UNL     1      -2.304   8.980  -1.395  1.00  0.00     0.251 C 
ATOM      5  O   UNL     1      -3.153   9.395  -0.604  1.00  0.00    -0.269 OA
ATOM      6  H   UNL     1      -2.210  10.740  -2.310  1.00  0.00     0.163 HD
BRANCH   4   7
ATOM      7  C   UNL     1      -1.828   7.580  -1.259  1.00  0.00     0.041 A 
ATOM      8  C   UNL     1      -1.068   4.864  -1.092  1.00  0.00     0.057 A 
ATOM      9  C   UNL     1      -0.160   5.845  -1.494  1.00  0.00     0.029 A 
ATOM     10  C   UNL     1      -2.330   5.290  -0.610  1.00  0.00     0.056 A 
ATOM     11  C   UNL     1      -0.519   7.194  -1.527  1.00  0.00     0.016 A 
ATOM     12  C   UNL     1      -2.724   6.624  -0.765  1.00  0.00     0.041 A 
BRANCH   8  13
ATOM     13  N   UNL     1      -0.755   3.515  -1.066  1.00  0.00    -0.383 N 
ATOM     14  H   UNL     1      -1.508   2.880  -1.079  1.00  0.00     0.160 HD
BRANCH  13  15
ATOM     15  C   UNL     1       0.585   2.951  -1.021  1.00  0.00     0.117 C 
BRANCH  15  16
ATOM     16  C   UNL     1       0.803   2.222   0.315  1.00  0.00     0.057 C 
BRANCH  16  17
ATOM     17  C   UNL     1       0.242   0.814   0.295  1.00  0.00    -0.043 A 
ATOM     18  C   UNL     1       2.515  -0.290  -0.182  1.00  0.00     0.044 C 
ATOM     19  C   UNL     1       1.022  -0.325   0.011  1.00  0.00    -0.048 A 
ATOM     20  C   UNL     1       0.395  -1.583  -0.043  1.00  0.00     0.004 A 
ATOM     21  C   UNL     1      -0.979  -1.716   0.151  1.00  0.00     0.000 A 
ATOM     22  C   UNL     1      -1.140   0.655   0.515  1.00  0.00     0.004 A 
ATOM     23  C   UNL     1      -1.748  -0.595   0.433  1.00  0.00     0.000 A 
ENDBRANCH  16  17
ENDBRANCH  15  16
ENDBRANCH  13  15
ENDBRANCH   8  13
BRANCH  10  24
ATOM     24  N   UNL     1      -3.240   4.354  -0.088  1.00  0.00    -0.397 N 
ATOM     25  H   UNL     1      -2.969   3.414   0.024  1.00  0.00     0.156 HD
ATOM     26  H   UNL     1      -4.147   4.638   0.165  1.00  0.00     0.156 HD
ENDBRANCH  10  24
ENDBRANCH   4   7
ENDBRANCH   2   3
ENDBRANCH   1   2
BRANCH   1  27
ATOM     27  C   UNL     1      -2.352  11.002  -5.237  1.00  0.00     0.023 C 
BRANCH  27  28
ATOM     28  C   UNL     1      -1.370  12.156  -5.399  1.00  0.00     0.116 C 
BRANCH  28  29
ATOM     29  N   UNL     1      -0.828  12.320  -6.739  1.00  0.00    -0.352 N 
ATOM     30  C   UNL     1       0.054  13.293  -7.195  1.00  0.00     0.251 C 
ATOM     31  H   UNL     1      -1.123  11.659  -7.406  1.00  0.00     0.163 HD
ATOM     32  O   UNL     1       0.260  13.448  -8.384  1.00  0.00    -0.269 OA
BRANCH  30  33
ATOM     33  C   UNL     1       0.797  14.089  -6.186  1.00  0.00     0.039 A 
ATOM     34  C   UNL     1       2.196  14.034  -6.202  1.00  0.00     0.014 A 
ATOM     35  C   UNL     1       0.127  14.680  -5.120  1.00  0.00     0.014 A 
ATOM     36  C   UNL     1       2.910  14.377  -5.053  1.00  0.00     0.010 A 
ATOM     37  C   UNL     1       0.822  14.919  -3.952  1.00  0.00     0.010 A 
ATOM     38  C   UNL     1       2.209  14.718  -3.899  1.00  0.00    -0.014 A 
BRANCH  38  39
ATOM     39  C   UNL     1       2.796  14.784  -2.563  1.00  0.00     0.031 A 
ATOM     40  C   UNL     1       2.836  16.072  -1.827  1.00  0.00     0.074 A 
ATOM     41  C   UNL     1       3.154  13.642  -1.935  1.00  0.00     0.049 A 
ATOM     42  N   UNL     1       3.448  16.255  -0.706  1.00  0.00    -0.248 NA
ATOM     43  C   UNL     1       2.247  17.302  -2.352  1.00  0.00     0.031 C 
ATOM     44  C   UNL     1       3.314  13.439  -0.497  1.00  0.00     0.029 A 
ATOM     45  N   UNL     1       3.642  12.465  -2.501  1.00  0.00    -0.354 N 
ATOM     46  C   UNL     1       3.095  17.494  -0.223  1.00  0.00     0.074 A 
ATOM     47  C   UNL     1       2.462  18.147  -1.339  1.00  0.00     0.031 C 
ATOM     48  C   UNL     1       4.051  12.339  -0.287  1.00  0.00     0.029 A 
ATOM     49  C   UNL     1       4.534  11.888  -1.579  1.00  0.00     0.049 A 
ATOM     50  H   UNL     1       3.406  12.103  -3.385  1.00  0.00     0.167 HD
ATOM     51  C   UNL     1       3.271  17.752   1.105  1.00  0.00     0.037 A 
ATOM     52  C   UNL     1       5.858  11.726  -1.881  1.00  0.00     0.037 A 
ATOM     53  C   UNL     1       4.174  16.760   1.699  1.00  0.00     0.049 A 
ATOM     54  C   UNL     1       6.800  12.524  -1.008  1.00  0.00     0.074 A 
ATOM     55  C   UNL     1       3.986  15.668   2.529  1.00  0.00     0.029 A 
ATOM     56  N   UNL     1       5.482  16.669   1.223  1.00  0.00    -0.354 N 
ATOM     57  N   UNL     1       6.425  13.493  -0.220  1.00  0.00    -0.248 NA
ATOM     58  C   UNL     1       8.243  12.302  -0.962  1.00  0.00     0.031 C 
ATOM     59  C   UNL     1       5.156  14.863   2.461  1.00  0.00     0.029 A 
ATOM     60  C   UNL     1       6.070  15.486   1.626  1.00  0.00     0.049 A 
ATOM     61  H   UNL     1       5.926  17.356   0.674  1.00  0.00     0.167 HD
ATOM     62  C   UNL     1       7.521  14.053   0.382  1.00  0.00     0.074 A 
ATOM     63  C   UNL     1       8.633  13.246  -0.087  1.00  0.00     0.031 C 
ATOM     64  C   UNL     1       7.423  15.144   1.200  1.00  0.00     0.037 A 
BRANCH  51  65
ATOM     65  C   UNL     1       2.470  18.760   1.929  1.00  0.00     0.058 A 
ATOM     66  C   UNL     1       2.610  18.800   3.339  1.00  0.00     0.135 A 
ATOM     67  C   UNL     1       1.458  19.614   1.435  1.00  0.00     0.135 A 
ATOM     68  F   UNL     1       3.533  18.059   3.968  1.00  0.00    -0.206 F 
ATOM     69  C   UNL     1       1.790  19.574   4.174  1.00  0.00     0.059 A 
ATOM     70  C   UNL     1       0.649  20.416   2.246  1.00  0.00     0.059 A 
ATOM     71  F   UNL     1       1.152  19.700   0.140  1.00  0.00    -0.206 F 
ATOM     72  C   UNL     1       0.801  20.372   3.619  1.00  0.00     0.060 A 
BRANCH  72  73
ATOM     73  S   UNL     1      -0.293  21.327   4.685  1.00  0.00     0.124 S 
ATOM     74  O   UNL     1      -1.053  20.278   5.356  1.00  0.00    -0.237 OA
ATOM     75  O   UNL     1       0.649  22.065   5.519  1.00  0.00    -0.237 OA
ATOM     76  O   UNL     1      -1.059  22.143   3.745  1.00  0.00    -0.744 OA
ENDBRANCH  72  73
ENDBRANCH  51  65
BRANCH  52  77
ATOM     77  C   UNL     1       6.088  11.351  -3.302  1.00  0.00     0.058 A 
ATOM     78  C   UNL     1       5.682  10.060  -3.690  1.00  0.00     0.135 A 
ATOM     79  C   UNL     1       6.195  12.330  -4.301  1.00  0.00     0.135 A 
ATOM     80  F   UNL     1       5.591   9.082  -2.775  1.00  0.00    -0.206 F 
ATOM     81  C   UNL     1       5.207   9.803  -4.969  1.00  0.00     0.059 A 
ATOM     82  C   UNL     1       5.731  12.090  -5.596  1.00  0.00     0.059 A 
ATOM     83  F   UNL     1       6.585  13.575  -3.989  1.00  0.00    -0.206 F 
ATOM     84  C   UNL     1       5.159  10.850  -5.887  1.00  0.00     0.060 A 
BRANCH  84  85
ATOM     85  S   UNL     1       4.130  10.625  -7.357  1.00  0.00     0.124 S 
ATOM     86  O   UNL     1       4.699   9.418  -7.948  1.00  0.00    -0.237 OA
ATOM     87  O   UNL     1       2.807  10.471  -6.754  1.00  0.00    -0.237 OA
ATOM     88  O   UNL     1       4.344  11.857  -8.106  1.00  0.00    -0.744 OA
ENDBRANCH  84  85
ENDBRANCH  52  77
BRANCH  64  89
ATOM     89  C   UNL     1       8.589  15.945   1.737  1.00  0.00     0.058 A 
ATOM     90  C   UNL     1       9.816  16.101   1.068  1.00  0.00     0.135 A 
ATOM     91  C   UNL     1       8.445  16.706   2.922  1.00  0.00     0.135 A 
ATOM     92  F   UNL     1      10.036  15.535  -0.128  1.00  0.00    -0.206 F 
ATOM     93  C   UNL     1      10.856  16.884   1.577  1.00  0.00     0.059 A 
ATOM     94  C   UNL     1       9.448  17.538   3.418  1.00  0.00     0.059 A 
ATOM     95  F   UNL     1       7.311  16.674   3.639  1.00  0.00    -0.206 F 
ATOM     96  C   UNL     1      10.664  17.597   2.755  1.00  0.00     0.060 A 
BRANCH  96  97
ATOM     97  S   UNL     1      11.979  18.650   3.398  1.00  0.00     0.124 S 
ATOM     98  O   UNL     1      12.649  17.745   4.326  1.00  0.00    -0.237 OA
ATOM     99  O   UNL     1      12.737  18.997   2.200  1.00  0.00    -0.237 OA
ATOM    100  O   UNL     1      11.247  19.756   4.008  1.00  0.00    -0.744 OA
ENDBRANCH  96  97
ENDBRANCH  64  89
ENDBRANCH  38  39
ENDBRANCH  30  33
ENDBRANCH  28  29
ENDBRANCH  27  28
ENDBRANCH   1  27
TORSDOF 19
