REMARK SMILES COc1ccc(-n2c(SCc3cn(-c4ccc(C(=O)NCCCCNC(=O)c5ccc(-c6c7nc(c(-c8c(F)cc(S(=O)(=O)[O-])cc8F)c8ccc([nH]8)c(-c8c(F)cc(S(=O)(=O)[O-])cc8F)c8nc(c(-c9c(F)cc(S(=O)(=O)[O-])cc9F)c9ccc6[nH]9)C=C8)C=C7)cc5)cc4)nn3)nc3ccccc3c2=O)cc1
REMARK SMILES IDX 21 1 20 2 18 3 19 4 17 6 14 7 15 8 95 9 16 10 94 11 13 12
REMARK SMILES IDX 11 13 12 14 97 15 96 16 10 17 9 18 8 19 7 20 105 21 98 22
REMARK SMILES IDX 104 23 106 24 99 25 103 26 100 27 102 28 101 29 6 30 3 31
REMARK SMILES IDX 4 32 108 33 5 34 107 35 2 36 1 37 22 38 23 39 24 40 25 41
REMARK SMILES IDX 26 42 27 44 28 45 29 46 93 47 30 48 92 49 31 50 32 51 33 52
REMARK SMILES IDX 86 53 34 54 91 55 85 56 87 57 35 58 90 59 84 60 83 61 36 63
REMARK SMILES IDX 70 64 49 65 69 66 50 67 53 68 68 69 88 70 51 71 52 72 67 74
REMARK SMILES IDX 89 75 54 76 37 77 38 78 47 79 39 80 40 81 46 82 48 83 41 84
REMARK SMILES IDX 42 85 43 86 44 87 45 88 71 89 72 90 81 91 73 92 74 93 80 94
REMARK SMILES IDX 82 95 75 96 76 97 77 98 78 99 79 100 55 101 56 102 65 103
REMARK SMILES IDX 57 104 58 105 64 106 66 107 59 108 60 109 61 110 62 111
REMARK SMILES IDX 63 112
REMARK H PARENT 20 5 25 43 87 62 53 73
REMARK Flexibility Score: inf
ROOT
ATOM      1  C   UNL     1      -2.991   0.966   3.684  1.00  0.00     0.116 C 
ENDROOT
BRANCH   1   2
ATOM      2  N   UNL     1      -3.907   1.917   3.079  1.00  0.00    -0.352 N 
ATOM      3  C   UNL     1      -3.772   2.810   2.044  1.00  0.00     0.251 C 
ATOM      4  O   UNL     1      -4.752   3.484   1.730  1.00  0.00    -0.269 OA
ATOM      5  H   UNL     1      -4.801   1.923   3.493  1.00  0.00     0.163 HD
BRANCH   3   6
ATOM      6  C   UNL     1      -2.507   2.994   1.284  1.00  0.00     0.039 A 
ATOM      7  C   UNL     1      -0.195   3.386  -0.216  1.00  0.00     0.066 A 
ATOM      8  C   UNL     1      -1.421   3.785  -0.747  1.00  0.00     0.029 A 
ATOM      9  C   UNL     1      -0.103   2.829   1.053  1.00  0.00     0.029 A 
ATOM     10  C   UNL     1      -2.580   3.558  -0.002  1.00  0.00     0.016 A 
ATOM     11  C   UNL     1      -1.252   2.685   1.806  1.00  0.00     0.016 A 
BRANCH   7  12
ATOM     12  N   UNL     1       0.991   3.576  -0.923  1.00  0.00    -0.220 N 
ATOM     13  C   UNL     1       3.022   3.460  -1.645  1.00  0.00     0.093 A 
ATOM     14  C   UNL     1       2.135   2.830  -0.816  1.00  0.00     0.141 A 
ATOM     15  N   UNL     1       2.442   4.603  -2.126  1.00  0.00    -0.134 NA
ATOM     16  N   UNL     1       1.171   4.604  -1.768  1.00  0.00    -0.062 NA
BRANCH  13  17
ATOM     17  C   UNL     1       4.343   2.985  -2.073  1.00  0.00     0.138 C 
BRANCH  17  18
ATOM     18  S   UNL     1       4.953   3.779  -3.547  1.00  0.00    -0.081 SA
BRANCH  18  19
ATOM     19  C   UNL     1       3.453   3.981  -4.562  1.00  0.00     0.176 A 
ATOM     20  N   UNL     1       3.158   2.834  -5.272  1.00  0.00    -0.255 N 
ATOM     21  C   UNL     1       3.778   2.719  -6.510  1.00  0.00     0.266 A 
ATOM     22  N   UNL     1       3.359   5.124  -5.174  1.00  0.00    -0.223 NA
ATOM     23  C   UNL     1       4.595   3.925  -6.884  1.00  0.00     0.066 A 
ATOM     24  O   UNL     1       3.761   1.740  -7.247  1.00  0.00    -0.268 OA
ATOM     25  C   UNL     1       4.269   5.140  -6.247  1.00  0.00     0.079 A 
ATOM     26  C   UNL     1       5.796   3.805  -7.575  1.00  0.00     0.016 A 
ATOM     27  C   UNL     1       5.077   6.264  -6.401  1.00  0.00     0.029 A 
ATOM     28  C   UNL     1       6.656   4.908  -7.633  1.00  0.00     0.001 A 
ATOM     29  C   UNL     1       6.287   6.138  -7.075  1.00  0.00     0.002 A 
BRANCH  20  30
ATOM     30  C   UNL     1       2.346   1.833  -4.686  1.00  0.00     0.052 A 
ATOM     31  C   UNL     1       0.901   0.111  -3.015  1.00  0.00     0.119 A 
ATOM     32  C   UNL     1       0.273   1.226  -3.564  1.00  0.00     0.048 A 
ATOM     33  C   UNL     1       2.208  -0.206  -3.387  1.00  0.00     0.048 A 
ATOM     34  C   UNL     1       1.006   2.108  -4.368  1.00  0.00     0.030 A 
ATOM     35  C   UNL     1       2.921   0.639  -4.246  1.00  0.00     0.030 A 
BRANCH  31  36
ATOM     36  O   UNL     1       0.180  -0.696  -2.180  1.00  0.00    -0.497 OA
ATOM     37  C   UNL     1       0.696  -0.717  -0.849  1.00  0.00     0.278 C 
ENDBRANCH  31  36
ENDBRANCH  20  30
ENDBRANCH  18  19
ENDBRANCH  17  18
ENDBRANCH  13  17
ENDBRANCH   7  12
ENDBRANCH   3   6
ENDBRANCH   1   2
BRANCH   1  38
ATOM     38  C   UNL     1      -2.253   1.567   4.893  1.00  0.00     0.023 C 
BRANCH  38  39
ATOM     39  C   UNL     1      -3.081   1.726   6.171  1.00  0.00     0.023 C 
BRANCH  39  40
ATOM     40  C   UNL     1      -3.492   0.416   6.821  1.00  0.00     0.116 C 
BRANCH  40  41
ATOM     41  N   UNL     1      -2.349  -0.390   7.270  1.00  0.00    -0.352 N 
ATOM     42  C   UNL     1      -2.356  -1.717   7.686  1.00  0.00     0.251 C 
ATOM     43  H   UNL     1      -1.475   0.062   7.277  1.00  0.00     0.163 HD
ATOM     44  O   UNL     1      -1.473  -2.170   8.391  1.00  0.00    -0.269 OA
BRANCH  42  45
ATOM     45  C   UNL     1      -3.457  -2.566   7.201  1.00  0.00     0.039 A 
ATOM     46  C   UNL     1      -4.169  -3.449   8.017  1.00  0.00     0.014 A 
ATOM     47  C   UNL     1      -3.819  -2.358   5.879  1.00  0.00     0.014 A 
ATOM     48  C   UNL     1      -5.305  -4.065   7.490  1.00  0.00     0.010 A 
ATOM     49  C   UNL     1      -5.058  -2.743   5.471  1.00  0.00     0.010 A 
ATOM     50  C   UNL     1      -5.745  -3.692   6.213  1.00  0.00    -0.014 A 
BRANCH  50  51
ATOM     51  C   UNL     1      -6.957  -4.212   5.600  1.00  0.00     0.031 A 
ATOM     52  C   UNL     1      -8.204  -3.985   6.377  1.00  0.00     0.074 A 
ATOM     53  C   UNL     1      -6.964  -4.597   4.302  1.00  0.00     0.049 A 
ATOM     54  N   UNL     1      -8.928  -4.870   6.976  1.00  0.00    -0.248 NA
ATOM     55  C   UNL     1      -8.613  -2.599   6.659  1.00  0.00     0.031 C 
ATOM     56  C   UNL     1      -5.870  -4.562   3.317  1.00  0.00     0.029 A 
ATOM     57  N   UNL     1      -8.018  -4.981   3.540  1.00  0.00    -0.354 N 
ATOM     58  C   UNL     1     -10.024  -4.181   7.488  1.00  0.00     0.074 A 
ATOM     59  C   UNL     1      -9.665  -2.787   7.460  1.00  0.00     0.031 C 
ATOM     60  C   UNL     1      -6.374  -4.651   2.068  1.00  0.00     0.029 A 
ATOM     61  C   UNL     1      -7.789  -4.940   2.165  1.00  0.00     0.049 A 
ATOM     62  H   UNL     1      -8.877  -5.265   3.927  1.00  0.00     0.167 HD
ATOM     63  C   UNL     1     -11.234  -4.790   7.646  1.00  0.00     0.037 A 
ATOM     64  C   UNL     1      -8.730  -5.093   1.199  1.00  0.00     0.037 A 
ATOM     65  C   UNL     1     -11.114  -6.224   7.519  1.00  0.00     0.049 A 
ATOM     66  C   UNL     1      -9.873  -5.803   1.846  1.00  0.00     0.074 A 
ATOM     67  C   UNL     1     -10.366  -7.190   8.164  1.00  0.00     0.029 A 
ATOM     68  N   UNL     1     -11.508  -6.796   6.330  1.00  0.00    -0.354 N 
ATOM     69  N   UNL     1      -9.787  -7.025   2.307  1.00  0.00    -0.248 NA
ATOM     70  C   UNL     1     -10.915  -4.983   2.449  1.00  0.00     0.031 C 
ATOM     71  C   UNL     1      -9.911  -8.052   7.122  1.00  0.00     0.029 A 
ATOM     72  C   UNL     1     -10.486  -7.620   5.926  1.00  0.00     0.049 A 
ATOM     73  H   UNL     1     -12.360  -6.643   5.859  1.00  0.00     0.167 HD
ATOM     74  C   UNL     1     -10.464  -7.002   3.520  1.00  0.00     0.074 A 
ATOM     75  C   UNL     1     -11.185  -5.728   3.526  1.00  0.00     0.031 C 
ATOM     76  C   UNL     1     -10.144  -7.856   4.540  1.00  0.00     0.037 A 
BRANCH  63  77
ATOM     77  C   UNL     1     -12.569  -4.095   7.540  1.00  0.00     0.058 A 
ATOM     78  C   UNL     1     -13.736  -4.783   7.933  1.00  0.00     0.135 A 
ATOM     79  C   UNL     1     -12.780  -2.901   6.815  1.00  0.00     0.135 A 
ATOM     80  F   UNL     1     -13.652  -5.933   8.622  1.00  0.00    -0.206 F 
ATOM     81  C   UNL     1     -15.013  -4.358   7.565  1.00  0.00     0.059 A 
ATOM     82  C   UNL     1     -14.046  -2.429   6.487  1.00  0.00     0.059 A 
ATOM     83  F   UNL     1     -11.771  -2.188   6.301  1.00  0.00    -0.206 F 
ATOM     84  C   UNL     1     -15.155  -3.187   6.827  1.00  0.00     0.060 A 
BRANCH  84  85
ATOM     85  S   UNL     1     -16.790  -2.696   6.258  1.00  0.00     0.124 S 
ATOM     86  O   UNL     1     -17.080  -3.736   5.277  1.00  0.00    -0.237 OA
ATOM     87  O   UNL     1     -17.566  -2.745   7.492  1.00  0.00    -0.237 OA
ATOM     88  O   UNL     1     -16.569  -1.359   5.715  1.00  0.00    -0.744 OA
ENDBRANCH  84  85
ENDBRANCH  63  77
BRANCH  64  89
ATOM     89  C   UNL     1      -8.852  -4.329  -0.076  1.00  0.00     0.058 A 
ATOM     90  C   UNL     1      -9.781  -4.703  -1.064  1.00  0.00     0.135 A 
ATOM     91  C   UNL     1      -8.264  -3.056  -0.236  1.00  0.00     0.135 A 
ATOM     92  F   UNL     1     -10.399  -5.892  -0.990  1.00  0.00    -0.206 F 
ATOM     93  C   UNL     1     -10.151  -3.846  -2.109  1.00  0.00     0.059 A 
ATOM     94  C   UNL     1      -8.609  -2.189  -1.273  1.00  0.00     0.059 A 
ATOM     95  F   UNL     1      -7.396  -2.574   0.666  1.00  0.00    -0.206 F 
ATOM     96  C   UNL     1      -9.577  -2.578  -2.190  1.00  0.00     0.060 A 
BRANCH  96  97
ATOM     97  S   UNL     1     -10.194  -1.392  -3.411  1.00  0.00     0.124 S 
ATOM     98  O   UNL     1      -9.718  -1.972  -4.662  1.00  0.00    -0.237 OA
ATOM     99  O   UNL     1     -11.635  -1.445  -3.191  1.00  0.00    -0.237 OA
ATOM    100  O   UNL     1      -9.553  -0.139  -3.020  1.00  0.00    -0.744 OA
ENDBRANCH  96  97
ENDBRANCH  64  89
BRANCH  76 101
ATOM    101  C   UNL     1      -9.189  -8.996   4.271  1.00  0.00     0.058 A 
ATOM    102  C   UNL     1      -7.840  -8.838   3.904  1.00  0.00     0.135 A 
ATOM    103  C   UNL     1      -9.610 -10.297   4.583  1.00  0.00     0.135 A 
ATOM    104  F   UNL     1      -7.320  -7.622   3.695  1.00  0.00    -0.206 F 
ATOM    105  C   UNL     1      -6.963  -9.922   3.815  1.00  0.00     0.059 A 
ATOM    106  C   UNL     1      -8.748 -11.389   4.531  1.00  0.00     0.059 A 
ATOM    107  F   UNL     1     -10.867 -10.511   5.006  1.00  0.00    -0.206 F 
ATOM    108  C   UNL     1      -7.427 -11.197   4.132  1.00  0.00     0.060 A 
BRANCH 108 109
ATOM    109  S   UNL     1      -6.280 -12.591   4.082  1.00  0.00     0.124 S 
ATOM    110  O   UNL     1      -6.047 -12.745   2.650  1.00  0.00    -0.237 OA
ATOM    111  O   UNL     1      -5.146 -12.097   4.859  1.00  0.00    -0.237 OA
ATOM    112  O   UNL     1      -7.030 -13.674   4.713  1.00  0.00    -0.744 OA
ENDBRANCH 108 109
ENDBRANCH  76 101
ENDBRANCH  50  51
ENDBRANCH  42  45
ENDBRANCH  40  41
ENDBRANCH  39  40
ENDBRANCH  38  39
ENDBRANCH   1  38
TORSDOF 20
