REMARK SMILES CC(C)(O)CC[NH2+]CC(=O)NCCCCNC(=O)c1ccc(-c2c3nc(c(-c4c(F)cc(S(=O)(=O)[O-])cc4F)c4ccc([nH]4)c(-c4c(F)cc(S(=O)(=O)[O-])cc4F)c4nc(c(-c5c(F)cc(S(=O)(=O)[O-])cc5F)c5ccc2[nH]5)C=C4)C=C3)cc1
REMARK SMILES IDX 12 1 11 2 9 3 10 4 8 6 7 7 6 10 5 11 2 12 1 13 3 14 4 15
REMARK SMILES IDX 13 17 14 18 15 19 16 20 17 21 18 23 19 24 20 25 84 26 21 27
REMARK SMILES IDX 83 28 22 29 23 30 24 31 77 32 25 33 82 34 76 35 78 36 26 37
REMARK SMILES IDX 81 38 75 39 74 40 27 42 61 43 40 44 60 45 41 46 44 47 59 48
REMARK SMILES IDX 79 49 42 50 43 51 58 53 80 54 45 55 28 56 29 57 38 58 30 59
REMARK SMILES IDX 31 60 37 61 39 62 32 63 33 64 34 65 35 66 36 67 62 68 63 69
REMARK SMILES IDX 72 70 64 71 65 72 71 73 73 74 66 75 67 76 68 77 69 78 70 79
REMARK SMILES IDX 46 80 47 81 56 82 48 83 49 84 55 85 57 86 50 87 51 88 52 89
REMARK SMILES IDX 53 90 54 91
REMARK H PARENT 11 5 7 8 7 9 4 16 16 22 78 41 44 52
REMARK Flexibility Score: inf
ROOT
ATOM      1  C   UNL     1      -1.343  -1.667   4.253  1.00  0.00     0.116 C 
ENDROOT
BRANCH   1   2
ATOM      2  N   UNL     1      -1.600  -2.463   3.063  1.00  0.00    -0.351 N 
ATOM      3  C   UNL     1      -0.727  -3.068   2.200  1.00  0.00     0.275 C 
ATOM      4  O   UNL     1      -1.185  -3.569   1.169  1.00  0.00    -0.269 OA
ATOM      5  H   UNL     1      -2.551  -2.587   2.844  1.00  0.00     0.163 HD
BRANCH   3   6
ATOM      6  C   UNL     1       0.786  -3.117   2.486  1.00  0.00     0.361 C 
BRANCH   6   7
ATOM      7  N   UNL     1       1.539  -2.076   1.732  1.00  0.00    -0.338 N 
ATOM      8  H   UNL     1       2.532  -2.309   1.730  1.00  0.00     0.346 HD
ATOM      9  H   UNL     1       1.196  -2.039   0.772  1.00  0.00     0.346 HD
BRANCH   7  10
ATOM     10  C   UNL     1       1.346  -0.776   2.365  1.00  0.00     0.263 C 
BRANCH  10  11
ATOM     11  C   UNL     1       1.901   0.478   1.686  1.00  0.00     0.096 C 
BRANCH  11  12
ATOM     12  C   UNL     1       1.075   1.056   0.513  1.00  0.00     0.064 C 
ATOM     13  C   UNL     1       1.265   0.256  -0.774  1.00  0.00     0.042 C 
ATOM     14  C   UNL     1       1.465   2.522   0.291  1.00  0.00     0.042 C 
BRANCH  12  15
ATOM     15  O   UNL     1      -0.314   1.051   0.849  1.00  0.00    -0.390 OA
ATOM     16  H   UNL     1      -0.827   1.414   0.110  1.00  0.00     0.211 HD
ENDBRANCH  12  15
ENDBRANCH  11  12
ENDBRANCH  10  11
ENDBRANCH   7  10
ENDBRANCH   6   7
ENDBRANCH   3   6
ENDBRANCH   1   2
BRANCH   1  17
ATOM     17  C   UNL     1      -1.605  -0.174   4.010  1.00  0.00     0.023 C 
BRANCH  17  18
ATOM     18  C   UNL     1      -3.053   0.272   4.117  1.00  0.00     0.023 C 
BRANCH  18  19
ATOM     19  C   UNL     1      -3.629   0.200   5.514  1.00  0.00     0.116 C 
BRANCH  19  20
ATOM     20  N   UNL     1      -2.897   1.000   6.488  1.00  0.00    -0.352 N 
ATOM     21  C   UNL     1      -3.401   1.813   7.478  1.00  0.00     0.251 C 
ATOM     22  H   UNL     1      -1.915   0.953   6.431  1.00  0.00     0.163 HD
ATOM     23  O   UNL     1      -2.655   2.501   8.162  1.00  0.00    -0.269 OA
BRANCH  21  24
ATOM     24  C   UNL     1      -4.865   1.871   7.663  1.00  0.00     0.039 A 
ATOM     25  C   UNL     1      -5.494   3.116   7.715  1.00  0.00     0.014 A 
ATOM     26  C   UNL     1      -5.615   0.693   7.685  1.00  0.00     0.014 A 
ATOM     27  C   UNL     1      -6.888   3.177   7.706  1.00  0.00     0.010 A 
ATOM     28  C   UNL     1      -6.995   0.759   7.567  1.00  0.00     0.010 A 
ATOM     29  C   UNL     1      -7.646   2.001   7.586  1.00  0.00    -0.014 A 
BRANCH  29  30
ATOM     30  C   UNL     1      -9.127   2.032   7.507  1.00  0.00     0.031 A 
ATOM     31  C   UNL     1      -9.936   1.344   8.571  1.00  0.00     0.074 A 
ATOM     32  C   UNL     1      -9.732   2.597   6.444  1.00  0.00     0.049 A 
ATOM     33  N   UNL     1     -11.228   1.153   8.633  1.00  0.00    -0.248 NA
ATOM     34  C   UNL     1      -9.188   0.752   9.694  1.00  0.00     0.031 C 
ATOM     35  C   UNL     1      -9.049   3.232   5.314  1.00  0.00     0.029 A 
ATOM     36  N   UNL     1     -11.063   2.715   6.133  1.00  0.00    -0.354 N 
ATOM     37  C   UNL     1     -11.441   0.399   9.781  1.00  0.00     0.074 A 
ATOM     38  C   UNL     1     -10.144   0.114  10.351  1.00  0.00     0.031 C 
ATOM     39  C   UNL     1      -9.966   3.694   4.447  1.00  0.00     0.029 A 
ATOM     40  C   UNL     1     -11.297   3.360   4.942  1.00  0.00     0.049 A 
ATOM     41  H   UNL     1     -11.783   2.369   6.709  1.00  0.00     0.167 HD
ATOM     42  C   UNL     1     -12.615   0.007  10.330  1.00  0.00     0.037 A 
ATOM     43  C   UNL     1     -12.457   3.647   4.320  1.00  0.00     0.037 A 
ATOM     44  C   UNL     1     -13.902   0.339   9.784  1.00  0.00     0.049 A 
ATOM     45  C   UNL     1     -13.752   3.247   4.974  1.00  0.00     0.074 A 
ATOM     46  C   UNL     1     -15.155   0.050  10.293  1.00  0.00     0.029 A 
ATOM     47  N   UNL     1     -14.100   1.048   8.607  1.00  0.00    -0.354 N 
ATOM     48  N   UNL     1     -13.939   2.584   6.090  1.00  0.00    -0.248 NA
ATOM     49  C   UNL     1     -14.992   3.640   4.291  1.00  0.00     0.031 C 
ATOM     50  C   UNL     1     -16.112   0.564   9.411  1.00  0.00     0.029 A 
ATOM     51  C   UNL     1     -15.454   1.203   8.371  1.00  0.00     0.049 A 
ATOM     52  H   UNL     1     -13.382   1.390   8.027  1.00  0.00     0.167 HD
ATOM     53  C   UNL     1     -15.316   2.499   6.256  1.00  0.00     0.074 A 
ATOM     54  C   UNL     1     -15.914   3.190   5.131  1.00  0.00     0.031 C 
ATOM     55  C   UNL     1     -16.023   1.904   7.247  1.00  0.00     0.037 A 
BRANCH  42  56
ATOM     56  C   UNL     1     -12.548  -0.804  11.594  1.00  0.00     0.058 A 
ATOM     57  C   UNL     1     -12.137  -0.234  12.810  1.00  0.00     0.135 A 
ATOM     58  C   UNL     1     -12.897  -2.163  11.592  1.00  0.00     0.135 A 
ATOM     59  F   UNL     1     -11.773   1.057  12.863  1.00  0.00    -0.206 F 
ATOM     60  C   UNL     1     -12.037  -0.992  13.971  1.00  0.00     0.059 A 
ATOM     61  C   UNL     1     -12.832  -2.934  12.749  1.00  0.00     0.059 A 
ATOM     62  F   UNL     1     -13.294  -2.759  10.456  1.00  0.00    -0.206 F 
ATOM     63  C   UNL     1     -12.382  -2.343  13.930  1.00  0.00     0.060 A 
BRANCH  63  64
ATOM     64  S   UNL     1     -12.239  -3.317  15.442  1.00  0.00     0.124 S 
ATOM     65  O   UNL     1     -10.795  -3.519  15.521  1.00  0.00    -0.237 OA
ATOM     66  O   UNL     1     -12.809  -2.425  16.447  1.00  0.00    -0.237 OA
ATOM     67  O   UNL     1     -13.025  -4.512  15.152  1.00  0.00    -0.744 OA
ENDBRANCH  63  64
ENDBRANCH  42  56
BRANCH  43  68
ATOM     68  C   UNL     1     -12.445   4.384   3.029  1.00  0.00     0.058 A 
ATOM     69  C   UNL     1     -12.837   5.729   2.965  1.00  0.00     0.135 A 
ATOM     70  C   UNL     1     -12.018   3.770   1.842  1.00  0.00     0.135 A 
ATOM     71  F   UNL     1     -13.257   6.358   4.074  1.00  0.00    -0.206 F 
ATOM     72  C   UNL     1     -12.820   6.438   1.768  1.00  0.00     0.059 A 
ATOM     73  C   UNL     1     -11.972   4.464   0.636  1.00  0.00     0.059 A 
ATOM     74  F   UNL     1     -11.614   2.490   1.854  1.00  0.00    -0.206 F 
ATOM     75  C   UNL     1     -12.383   5.796   0.608  1.00  0.00     0.060 A 
BRANCH  75  76
ATOM     76  S   UNL     1     -12.309   6.741  -0.930  1.00  0.00     0.124 S 
ATOM     77  O   UNL     1     -13.717   6.806  -1.302  1.00  0.00    -0.237 OA
ATOM     78  O   UNL     1     -11.704   7.995  -0.493  1.00  0.00    -0.237 OA
ATOM     79  O   UNL     1     -11.465   5.915  -1.788  1.00  0.00    -0.744 OA
ENDBRANCH  75  76
ENDBRANCH  43  68
BRANCH  55  80
ATOM     80  C   UNL     1     -17.520   1.997   7.177  1.00  0.00     0.058 A 
ATOM     81  C   UNL     1     -18.261   1.218   6.276  1.00  0.00     0.135 A 
ATOM     82  C   UNL     1     -18.222   2.830   8.062  1.00  0.00     0.135 A 
ATOM     83  F   UNL     1     -17.635   0.409   5.407  1.00  0.00    -0.206 F 
ATOM     84  C   UNL     1     -19.650   1.275   6.243  1.00  0.00     0.059 A 
ATOM     85  C   UNL     1     -19.611   2.886   8.062  1.00  0.00     0.059 A 
ATOM     86  F   UNL     1     -17.557   3.587   8.949  1.00  0.00    -0.206 F 
ATOM     87  C   UNL     1     -20.316   2.112   7.141  1.00  0.00     0.060 A 
BRANCH  87  88
ATOM     88  S   UNL     1     -22.121   2.148   7.116  1.00  0.00     0.124 S 
ATOM     89  O   UNL     1     -22.381   2.965   5.936  1.00  0.00    -0.237 OA
ATOM     90  O   UNL     1     -22.463   0.734   6.997  1.00  0.00    -0.237 OA
ATOM     91  O   UNL     1     -22.464   2.764   8.395  1.00  0.00    -0.744 OA
ENDBRANCH  87  88
ENDBRANCH  55  80
ENDBRANCH  29  30
ENDBRANCH  21  24
ENDBRANCH  19  20
ENDBRANCH  18  19
ENDBRANCH  17  18
ENDBRANCH   1  17
TORSDOF 19
