REMARK SMILES Cc1cc(OCC(=O)Nc2sccc2C(=O)NCCCCNC(=O)c2ccc(-c3c4nc(c(-c5c(F)cc(S(=O)(=O)[O-])cc5F)c5ccc([nH]5)c(-c5c(F)cc(S(=O)(=O)[O-])cc5F)c5nc(c(-c6c(F)cc(S(=O)(=O)[O-])cc6F)c6ccc3[nH]6)C=C5)C=C4)cc2)ccc1Cl
REMARK SMILES IDX 19 1 18 2 17 3 15 4 16 5 14 7 10 8 11 9 12 10 13 11 9 12
REMARK SMILES IDX 7 13 8 14 6 16 5 17 4 18 1 19 2 20 3 21 93 22 92 23 94 24
REMARK SMILES IDX 91 25 20 26 21 27 22 28 23 29 24 31 25 32 26 33 90 34 27 35
REMARK SMILES IDX 89 36 28 37 29 38 30 39 83 40 31 41 88 42 82 43 84 44 32 45
REMARK SMILES IDX 87 46 81 47 80 48 33 50 67 51 46 52 66 53 47 54 50 55 65 56
REMARK SMILES IDX 85 57 48 58 49 59 64 61 86 62 51 63 34 64 35 65 44 66 36 67
REMARK SMILES IDX 37 68 43 69 45 70 38 71 39 72 40 73 41 74 42 75 68 76 69 77
REMARK SMILES IDX 78 78 70 79 71 80 77 81 79 82 72 83 73 84 74 85 75 86 76 87
REMARK SMILES IDX 52 88 53 89 62 90 54 91 55 92 61 93 63 94 56 95 57 96 58 97
REMARK SMILES IDX 59 98 60 99
REMARK H PARENT 17 6 9 15 22 30 84 49 50 60
REMARK Flexibility Score: inf
ROOT
ATOM      1  C   UNL     1      -1.379   2.244   3.239  1.00  0.00     0.023 C 
ENDROOT
BRANCH   1   2
ATOM      2  C   UNL     1      -2.654   1.483   2.862  1.00  0.00     0.116 C 
BRANCH   2   3
ATOM      3  N   UNL     1      -2.425   0.147   2.354  1.00  0.00    -0.352 N 
ATOM      4  C   UNL     1      -3.312  -0.887   2.161  1.00  0.00     0.254 C 
ATOM      5  O   UNL     1      -2.836  -2.016   2.007  1.00  0.00    -0.269 OA
ATOM      6  H   UNL     1      -1.493  -0.052   2.109  1.00  0.00     0.163 HD
BRANCH   4   7
ATOM      7  C   UNL     1      -4.764  -0.717   2.265  1.00  0.00     0.074 A 
ATOM      8  C   UNL     1      -5.590   0.354   1.972  1.00  0.00     0.108 A 
ATOM      9  S   UNL     1      -7.156   0.173   2.652  1.00  0.00    -0.126 S 
ATOM     10  C   UNL     1      -6.880  -1.462   3.026  1.00  0.00     0.068 A 
ATOM     11  C   UNL     1      -5.577  -1.812   2.770  1.00  0.00     0.028 A 
BRANCH   8  12
ATOM     12  N   UNL     1      -5.493   1.584   1.373  1.00  0.00    -0.314 N 
ATOM     13  C   UNL     1      -4.800   2.012   0.281  1.00  0.00     0.262 C 
ATOM     14  O   UNL     1      -4.663   3.237   0.156  1.00  0.00    -0.271 OA
ATOM     15  H   UNL     1      -6.022   2.287   1.814  1.00  0.00     0.170 HD
BRANCH  13  16
ATOM     16  C   UNL     1      -4.414   1.087  -0.881  1.00  0.00     0.329 C 
BRANCH  16  17
ATOM     17  O   UNL     1      -3.769  -0.138  -0.659  1.00  0.00    -0.484 OA
BRANCH  17  18
ATOM     18  C   UNL     1      -2.433  -0.277  -0.903  1.00  0.00     0.120 A 
ATOM     19  C   UNL     1       0.901   1.522  -1.362  1.00  0.00     0.046 C 
ATOM     20  C   UNL     1      -0.112   0.426  -1.179  1.00  0.00    -0.029 A 
ATOM     21  C   UNL     1      -1.492   0.734  -1.103  1.00  0.00     0.051 A 
ATOM     22  C   UNL     1       0.299  -0.908  -1.031  1.00  0.00     0.044 A 
ATOM     23  C   UNL     1      -0.644  -1.919  -0.883  1.00  0.00     0.024 A 
ATOM     24  Cl  UNL     1       1.966  -1.350  -0.985  1.00  0.00    -0.084 Cl
ATOM     25  C   UNL     1      -1.999  -1.602  -0.839  1.00  0.00     0.048 A 
ENDBRANCH  17  18
ENDBRANCH  16  17
ENDBRANCH  13  16
ENDBRANCH   8  12
ENDBRANCH   4   7
ENDBRANCH   2   3
ENDBRANCH   1   2
BRANCH   1  26
ATOM     26  C   UNL     1      -0.470   2.650   2.068  1.00  0.00     0.023 C 
BRANCH  26  27
ATOM     27  C   UNL     1      -1.080   3.581   1.014  1.00  0.00     0.116 C 
BRANCH  27  28
ATOM     28  N   UNL     1      -1.089   4.983   1.382  1.00  0.00    -0.352 N 
ATOM     29  C   UNL     1      -0.367   6.049   0.894  1.00  0.00     0.251 C 
ATOM     30  H   UNL     1      -1.719   5.212   2.103  1.00  0.00     0.163 HD
ATOM     31  O   UNL     1      -0.524   7.153   1.415  1.00  0.00    -0.269 OA
BRANCH  29  32
ATOM     32  C   UNL     1       0.629   5.909  -0.203  1.00  0.00     0.039 A 
ATOM     33  C   UNL     1       1.870   6.535  -0.041  1.00  0.00     0.014 A 
ATOM     34  C   UNL     1       0.357   5.260  -1.411  1.00  0.00     0.014 A 
ATOM     35  C   UNL     1       2.849   6.451  -1.041  1.00  0.00     0.010 A 
ATOM     36  C   UNL     1       1.360   5.125  -2.388  1.00  0.00     0.010 A 
ATOM     37  C   UNL     1       2.624   5.711  -2.214  1.00  0.00    -0.014 A 
BRANCH  37  38
ATOM     38  C   UNL     1       3.712   5.554  -3.230  1.00  0.00     0.031 A 
ATOM     39  C   UNL     1       3.575   6.123  -4.622  1.00  0.00     0.074 A 
ATOM     40  C   UNL     1       4.846   4.896  -2.906  1.00  0.00     0.049 A 
ATOM     41  N   UNL     1       4.426   6.083  -5.619  1.00  0.00    -0.248 NA
ATOM     42  C   UNL     1       2.319   6.819  -4.940  1.00  0.00     0.031 C 
ATOM     43  C   UNL     1       5.118   4.264  -1.613  1.00  0.00     0.029 A 
ATOM     44  N   UNL     1       5.988   4.652  -3.635  1.00  0.00    -0.354 N 
ATOM     45  C   UNL     1       3.814   6.746  -6.677  1.00  0.00     0.074 A 
ATOM     46  C   UNL     1       2.498   7.137  -6.216  1.00  0.00     0.031 C 
ATOM     47  C   UNL     1       6.354   3.738  -1.629  1.00  0.00     0.029 A 
ATOM     48  C   UNL     1       6.954   3.959  -2.942  1.00  0.00     0.049 A 
ATOM     49  H   UNL     1       6.103   4.948  -4.567  1.00  0.00     0.167 HD
ATOM     50  C   UNL     1       4.304   7.028  -7.910  1.00  0.00     0.037 A 
ATOM     51  C   UNL     1       8.182   3.542  -3.313  1.00  0.00     0.037 A 
ATOM     52  C   UNL     1       5.619   6.665  -8.378  1.00  0.00     0.049 A 
ATOM     53  C   UNL     1       8.693   3.846  -4.697  1.00  0.00     0.074 A 
ATOM     54  C   UNL     1       6.200   6.939  -9.605  1.00  0.00     0.029 A 
ATOM     55  N   UNL     1       6.559   5.958  -7.645  1.00  0.00    -0.354 N 
ATOM     56  N   UNL     1       8.109   4.511  -5.664  1.00  0.00    -0.248 NA
ATOM     57  C   UNL     1      10.033   3.345  -5.039  1.00  0.00     0.031 C 
ATOM     58  C   UNL     1       7.479   6.371  -9.627  1.00  0.00     0.029 A 
ATOM     59  C   UNL     1       7.709   5.777  -8.399  1.00  0.00     0.049 A 
ATOM     60  H   UNL     1       6.429   5.632  -6.725  1.00  0.00     0.167 HD
ATOM     61  C   UNL     1       9.022   4.532  -6.715  1.00  0.00     0.074 A 
ATOM     62  C   UNL     1      10.200   3.825  -6.263  1.00  0.00     0.031 C 
ATOM     63  C   UNL     1       8.890   5.089  -7.943  1.00  0.00     0.037 A 
BRANCH  50  64
ATOM     64  C   UNL     1       3.419   7.792  -8.857  1.00  0.00     0.058 A 
ATOM     65  C   UNL     1       3.178   9.164  -8.683  1.00  0.00     0.135 A 
ATOM     66  C   UNL     1       2.868   7.168  -9.988  1.00  0.00     0.135 A 
ATOM     67  F   UNL     1       3.673   9.806  -7.613  1.00  0.00    -0.206 F 
ATOM     68  C   UNL     1       2.406   9.887  -9.586  1.00  0.00     0.059 A 
ATOM     69  C   UNL     1       2.112   7.877 -10.918  1.00  0.00     0.059 A 
ATOM     70  F   UNL     1       3.072   5.859 -10.205  1.00  0.00    -0.206 F 
ATOM     71  C   UNL     1       1.878   9.235 -10.702  1.00  0.00     0.060 A 
BRANCH  71  72
ATOM     72  S   UNL     1       0.894  10.192 -11.875  1.00  0.00     0.124 S 
ATOM     73  O   UNL     1      -0.348  10.374 -11.130  1.00  0.00    -0.237 OA
ATOM     74  O   UNL     1       1.704  11.392 -12.058  1.00  0.00    -0.237 OA
ATOM     75  O   UNL     1       0.805   9.316 -13.039  1.00  0.00    -0.744 OA
ENDBRANCH  71  72
ENDBRANCH  50  64
BRANCH  51  76
ATOM     76  C   UNL     1       9.039   2.788  -2.357  1.00  0.00     0.058 A 
ATOM     77  C   UNL     1      10.202   3.362  -1.822  1.00  0.00     0.135 A 
ATOM     78  C   UNL     1       8.732   1.470  -1.990  1.00  0.00     0.135 A 
ATOM     79  F   UNL     1      10.544   4.617  -2.152  1.00  0.00    -0.206 F 
ATOM     80  C   UNL     1      11.048   2.646  -0.981  1.00  0.00     0.059 A 
ATOM     81  C   UNL     1       9.547   0.742  -1.130  1.00  0.00     0.059 A 
ATOM     82  F   UNL     1       7.623   0.880  -2.465  1.00  0.00    -0.206 F 
ATOM     83  C   UNL     1      10.713   1.333  -0.644  1.00  0.00     0.060 A 
BRANCH  83  84
ATOM     84  S   UNL     1      11.806   0.413   0.461  1.00  0.00     0.124 S 
ATOM     85  O   UNL     1      12.896   0.054  -0.438  1.00  0.00    -0.237 OA
ATOM     86  O   UNL     1      12.121   1.407   1.483  1.00  0.00    -0.237 OA
ATOM     87  O   UNL     1      10.967  -0.693   0.913  1.00  0.00    -0.744 OA
ENDBRANCH  83  84
ENDBRANCH  51  76
BRANCH  63  88
ATOM     88  C   UNL     1      10.064   4.999  -8.880  1.00  0.00     0.058 A 
ATOM     89  C   UNL     1      10.409   3.797  -9.518  1.00  0.00     0.135 A 
ATOM     90  C   UNL     1      10.826   6.140  -9.179  1.00  0.00     0.135 A 
ATOM     91  F   UNL     1       9.718   2.675  -9.264  1.00  0.00    -0.206 F 
ATOM     92  C   UNL     1      11.482   3.725 -10.403  1.00  0.00     0.059 A 
ATOM     93  C   UNL     1      11.888   6.096 -10.078  1.00  0.00     0.059 A 
ATOM     94  F   UNL     1      10.534   7.317  -8.604  1.00  0.00    -0.206 F 
ATOM     95  C   UNL     1      12.216   4.880 -10.677  1.00  0.00     0.060 A 
BRANCH  95  96
ATOM     96  S   UNL     1      13.584   4.782 -11.852  1.00  0.00     0.124 S 
ATOM     97  O   UNL     1      14.612   4.125 -11.053  1.00  0.00    -0.237 OA
ATOM     98  O   UNL     1      13.014   3.983 -12.932  1.00  0.00    -0.237 OA
ATOM     99  O   UNL     1      13.845   6.179 -12.186  1.00  0.00    -0.744 OA
ENDBRANCH  95  96
ENDBRANCH  63  88
ENDBRANCH  37  38
ENDBRANCH  29  32
ENDBRANCH  27  28
ENDBRANCH  26  27
ENDBRANCH   1  26
TORSDOF 18
