REMARK SMILES O=C(NCCCCNC(=O)[C@@H]1CC[C@@H](CNC(=O)c2cc(Cl)ccc2Cl)O1)c1ccc(-c2c3nc(c(-c4c(F)cc(S(=O)(=O)[O-])cc4F)c4ccc([nH]4)c(-c4c(F)cc(S(=O)(=O)[O-])cc4F)c4nc(c(-c5c(F)cc(S(=O)(=O)[O-])cc5F)c5ccc2[nH]5)C=C4)C=C3)cc1
REMARK SMILES IDX 5 1 4 2 3 3 1 4 2 5 28 7 29 8 93 9 30 10 92 11 31 12 32 13
REMARK SMILES IDX 33 14 86 15 34 16 91 17 85 18 87 19 35 20 90 21 84 22 83 23
REMARK SMILES IDX 36 25 70 26 49 27 69 28 50 29 53 30 68 31 88 32 51 33 52 34
REMARK SMILES IDX 67 36 89 37 54 38 37 39 38 40 47 41 39 42 40 43 46 44 48 45
REMARK SMILES IDX 41 46 42 47 43 48 44 49 45 50 71 51 72 52 81 53 73 54 74 55
REMARK SMILES IDX 80 56 82 57 75 58 76 59 77 60 78 61 79 62 55 63 56 64 65 65
REMARK SMILES IDX 57 66 58 67 64 68 66 69 59 70 60 71 61 72 62 73 63 74 6 75
REMARK SMILES IDX 7 76 8 77 9 78 10 80 11 81 12 82 27 83 13 84 14 85 15 86
REMARK SMILES IDX 16 87 17 88 18 90 19 91 20 92 25 93 21 94 24 95 26 96 22 97
REMARK SMILES IDX 23 98
REMARK H PARENT 3 6 87 24 53 35 8 79 16 89
REMARK Flexibility Score: inf
ROOT
ATOM      1  C   UNL     1       5.046  -0.895   2.408  1.00  0.00     0.023 C 
ENDROOT
BRANCH   1   2
ATOM      2  C   UNL     1       4.687  -0.814   0.926  1.00  0.00     0.116 C 
BRANCH   2   3
ATOM      3  N   UNL     1       3.259  -0.933   0.678  1.00  0.00    -0.352 N 
ATOM      4  O   UNL     1       1.226  -0.323  -0.076  1.00  0.00    -0.269 OA
ATOM      5  C   UNL     1       2.440  -0.135  -0.083  1.00  0.00     0.251 C 
ATOM      6  H   UNL     1       2.816  -1.695   1.118  1.00  0.00     0.163 HD
BRANCH   5   7
ATOM      7  C   UNL     1       3.020   0.965  -0.880  1.00  0.00     0.039 A 
ATOM      8  C   UNL     1       4.133   0.747  -1.699  1.00  0.00     0.014 A 
ATOM      9  C   UNL     1       2.441   2.233  -0.799  1.00  0.00     0.014 A 
ATOM     10  C   UNL     1       4.741   1.824  -2.338  1.00  0.00     0.010 A 
ATOM     11  C   UNL     1       3.016   3.300  -1.492  1.00  0.00     0.010 A 
ATOM     12  C   UNL     1       4.188   3.110  -2.242  1.00  0.00    -0.014 A 
BRANCH  12  13
ATOM     13  C   UNL     1       4.814   4.251  -2.953  1.00  0.00     0.031 A 
ATOM     14  C   UNL     1       5.424   5.389  -2.185  1.00  0.00     0.074 A 
ATOM     15  C   UNL     1       4.803   4.270  -4.299  1.00  0.00     0.049 A 
ATOM     16  N   UNL     1       5.931   6.509  -2.633  1.00  0.00    -0.248 NA
ATOM     17  C   UNL     1       5.461   5.256  -0.721  1.00  0.00     0.031 C 
ATOM     18  C   UNL     1       4.239   3.221  -5.150  1.00  0.00     0.029 A 
ATOM     19  N   UNL     1       5.263   5.209  -5.187  1.00  0.00    -0.354 N 
ATOM     20  C   UNL     1       6.322   7.227  -1.509  1.00  0.00     0.074 A 
ATOM     21  C   UNL     1       5.978   6.421  -0.356  1.00  0.00     0.031 C 
ATOM     22  C   UNL     1       4.390   3.571  -6.436  1.00  0.00     0.029 A 
ATOM     23  C   UNL     1       5.006   4.892  -6.499  1.00  0.00     0.049 A 
ATOM     24  H   UNL     1       5.732   6.029  -4.910  1.00  0.00     0.167 HD
ATOM     25  C   UNL     1       6.915   8.444  -1.448  1.00  0.00     0.037 A 
ATOM     26  C   UNL     1       5.211   5.599  -7.627  1.00  0.00     0.037 A 
ATOM     27  C   UNL     1       7.258   9.232  -2.603  1.00  0.00     0.049 A 
ATOM     28  C   UNL     1       5.846   6.955  -7.537  1.00  0.00     0.074 A 
ATOM     29  C   UNL     1       7.890  10.463  -2.650  1.00  0.00     0.029 A 
ATOM     30  N   UNL     1       6.992   8.871  -3.917  1.00  0.00    -0.354 N 
ATOM     31  N   UNL     1       6.235   7.609  -6.469  1.00  0.00    -0.248 NA
ATOM     32  C   UNL     1       6.072   7.670  -8.799  1.00  0.00     0.031 C 
ATOM     33  C   UNL     1       7.966  10.865  -3.988  1.00  0.00     0.029 A 
ATOM     34  C   UNL     1       7.428   9.863  -4.780  1.00  0.00     0.049 A 
ATOM     35  H   UNL     1       6.556   8.033  -4.195  1.00  0.00     0.167 HD
ATOM     36  C   UNL     1       6.774   8.804  -6.930  1.00  0.00     0.074 A 
ATOM     37  C   UNL     1       6.662   8.781  -8.375  1.00  0.00     0.031 C 
ATOM     38  C   UNL     1       7.319   9.821  -6.219  1.00  0.00     0.037 A 
BRANCH  25  39
ATOM     39  C   UNL     1       7.194   9.011  -0.082  1.00  0.00     0.058 A 
ATOM     40  C   UNL     1       8.196   8.485   0.749  1.00  0.00     0.135 A 
ATOM     41  C   UNL     1       6.449  10.099   0.402  1.00  0.00     0.135 A 
ATOM     42  F   UNL     1       8.931   7.438   0.343  1.00  0.00    -0.206 F 
ATOM     43  C   UNL     1       8.418   8.987   2.028  1.00  0.00     0.059 A 
ATOM     44  C   UNL     1       6.671  10.634   1.667  1.00  0.00     0.059 A 
ATOM     45  F   UNL     1       5.483  10.645  -0.353  1.00  0.00    -0.206 F 
ATOM     46  C   UNL     1       7.642  10.055   2.483  1.00  0.00     0.060 A 
BRANCH  46  47
ATOM     47  S   UNL     1       7.909  10.667   4.160  1.00  0.00     0.124 S 
ATOM     48  O   UNL     1       7.263   9.625   4.953  1.00  0.00    -0.237 OA
ATOM     49  O   UNL     1       9.364  10.719   4.250  1.00  0.00    -0.237 OA
ATOM     50  O   UNL     1       7.237  11.963   4.160  1.00  0.00    -0.744 OA
ENDBRANCH  46  47
ENDBRANCH  25  39
BRANCH  26  51
ATOM     51  C   UNL     1       4.796   5.013  -8.927  1.00  0.00     0.058 A 
ATOM     52  C   UNL     1       5.744   4.507  -9.826  1.00  0.00     0.135 A 
ATOM     53  C   UNL     1       3.437   4.865  -9.251  1.00  0.00     0.135 A 
ATOM     54  F   UNL     1       7.053   4.629  -9.559  1.00  0.00    -0.206 F 
ATOM     55  C   UNL     1       5.361   3.864 -10.998  1.00  0.00     0.059 A 
ATOM     56  C   UNL     1       3.030   4.206 -10.405  1.00  0.00     0.059 A 
ATOM     57  F   UNL     1       2.493   5.317  -8.411  1.00  0.00    -0.206 F 
ATOM     58  C   UNL     1       4.000   3.707 -11.273  1.00  0.00     0.060 A 
BRANCH  58  59
ATOM     59  S   UNL     1       3.515   2.778 -12.743  1.00  0.00     0.124 S 
ATOM     60  O   UNL     1       3.812   3.732 -13.805  1.00  0.00    -0.237 OA
ATOM     61  O   UNL     1       4.389   1.611 -12.670  1.00  0.00    -0.237 OA
ATOM     62  O   UNL     1       2.099   2.505 -12.516  1.00  0.00    -0.744 OA
ENDBRANCH  58  59
ENDBRANCH  26  51
BRANCH  38  63
ATOM     63  C   UNL     1       7.879  10.985  -6.986  1.00  0.00     0.058 A 
ATOM     64  C   UNL     1       7.049  11.960  -7.559  1.00  0.00     0.135 A 
ATOM     65  C   UNL     1       9.269  11.169  -7.072  1.00  0.00     0.135 A 
ATOM     66  F   UNL     1       5.715  11.824  -7.513  1.00  0.00    -0.206 F 
ATOM     67  C   UNL     1       7.579  13.080  -8.193  1.00  0.00     0.059 A 
ATOM     68  C   UNL     1       9.819  12.292  -7.681  1.00  0.00     0.059 A 
ATOM     69  F   UNL     1      10.104  10.266  -6.535  1.00  0.00    -0.206 F 
ATOM     70  C   UNL     1       8.965  13.241  -8.242  1.00  0.00     0.060 A 
BRANCH  70  71
ATOM     71  S   UNL     1       9.639  14.734  -9.002  1.00  0.00     0.124 S 
ATOM     72  O   UNL     1       9.445  14.454 -10.421  1.00  0.00    -0.237 OA
ATOM     73  O   UNL     1       8.792  15.781  -8.440  1.00  0.00    -0.237 OA
ATOM     74  O   UNL     1      11.027  14.748  -8.549  1.00  0.00    -0.744 OA
ENDBRANCH  70  71
ENDBRANCH  38  63
ENDBRANCH  12  13
ENDBRANCH   5   7
ENDBRANCH   2   3
ENDBRANCH   1   2
BRANCH   1  75
ATOM     75  C   UNL     1       4.566  -2.152   3.136  1.00  0.00     0.023 C 
BRANCH  75  76
ATOM     76  C   UNL     1       4.981  -3.467   2.484  1.00  0.00     0.116 C 
BRANCH  76  77
ATOM     77  N   UNL     1       6.411  -3.696   2.564  1.00  0.00    -0.354 N 
ATOM     78  C   UNL     1       7.154  -4.607   3.250  1.00  0.00     0.249 C 
ATOM     79  H   UNL     1       6.946  -3.075   2.019  1.00  0.00     0.163 HD
ATOM     80  O   UNL     1       8.381  -4.544   3.107  1.00  0.00    -0.272 OA
BRANCH  78  81
ATOM     81  C   UNL     1       6.539  -5.712   4.148  1.00  0.00     0.207 C 
ATOM     82  C   UNL     1       6.970  -7.089   3.617  1.00  0.00     0.045 C 
ATOM     83  O   UNL     1       5.123  -5.782   4.318  1.00  0.00    -0.363 OA
ATOM     84  C   UNL     1       5.714  -7.932   3.721  1.00  0.00     0.037 C 
ATOM     85  C   UNL     1       4.654  -6.877   3.510  1.00  0.00     0.138 C 
BRANCH  85  86
ATOM     86  C   UNL     1       3.195  -7.207   3.839  1.00  0.00     0.148 C 
BRANCH  86  87
ATOM     87  N   UNL     1       2.967  -8.444   4.567  1.00  0.00    -0.349 N 
ATOM     88  C   UNL     1       2.828  -8.687   5.907  1.00  0.00     0.252 C 
ATOM     89  H   UNL     1       2.903  -9.245   3.999  1.00  0.00     0.163 HD
ATOM     90  O   UNL     1       2.621  -9.834   6.294  1.00  0.00    -0.269 OA
BRANCH  88  91
ATOM     91  C   UNL     1       2.886  -7.590   6.889  1.00  0.00     0.059 A 
ATOM     92  C   UNL     1       1.919  -6.578   6.835  1.00  0.00     0.036 A 
ATOM     93  C   UNL     1       3.809  -7.621   7.944  1.00  0.00     0.053 A 
ATOM     94  C   UNL     1       1.911  -5.577   7.803  1.00  0.00     0.041 A 
ATOM     95  C   UNL     1       3.776  -6.622   8.923  1.00  0.00     0.023 A 
ATOM     96  Cl  UNL     1       5.027  -8.837   8.089  1.00  0.00    -0.083 Cl
ATOM     97  Cl  UNL     1       0.747  -4.314   7.715  1.00  0.00    -0.084 Cl
ATOM     98  C   UNL     1       2.832  -5.595   8.849  1.00  0.00     0.022 A 
ENDBRANCH  88  91
ENDBRANCH  86  87
ENDBRANCH  85  86
ENDBRANCH  78  81
ENDBRANCH  76  77
ENDBRANCH  75  76
ENDBRANCH   1  75
TORSDOF 17
