REMARK SMILES CCCCCC(=O)N1CSC[C@H]1C(=O)NCCCCNC(=O)c1ccc(-c2c3nc(c(-c4c(F)cc(S(=O)(=O)[O-])cc4F)c4ccc([nH]4)c(-c4c(F)cc(S(=O)(=O)[O-])cc4F)c4nc(c(-c5c(F)cc(S(=O)(=O)[O-])cc5F)c5ccc2[nH]5)C=C4)C=C3)cc1
REMARK SMILES IDX 16 1 15 2 13 3 14 4 12 6 8 7 9 8 10 9 11 10 6 11 7 12 5 13
REMARK SMILES IDX 4 14 3 15 2 16 1 17 17 18 18 19 19 20 20 21 21 22 22 24
REMARK SMILES IDX 23 25 24 26 88 27 25 28 87 29 26 30 27 31 28 32 81 33 29 34
REMARK SMILES IDX 86 35 80 36 82 37 30 38 85 39 79 40 78 41 31 43 65 44 44 45
REMARK SMILES IDX 64 46 45 47 48 48 63 49 83 50 46 51 47 52 62 54 84 55 49 56
REMARK SMILES IDX 32 57 33 58 42 59 34 60 35 61 41 62 43 63 36 64 37 65 38 66
REMARK SMILES IDX 39 67 40 68 66 69 67 70 76 71 68 72 69 73 75 74 77 75 70 76
REMARK SMILES IDX 71 77 72 78 73 79 74 80 50 81 51 82 60 83 52 84 53 85 59 86
REMARK SMILES IDX 61 87 54 88 55 89 56 90 57 91 58 92
REMARK H PARENT 15 5 20 23 82 42 48 53
REMARK Flexibility Score: inf
ROOT
ATOM      1  C   UNL     1      -0.143  -6.791   2.125  1.00  0.00     0.116 C 
ENDROOT
BRANCH   1   2
ATOM      2  N   UNL     1      -1.539  -6.820   2.491  1.00  0.00    -0.354 N 
ATOM      3  C   UNL     1      -2.574  -6.056   2.045  1.00  0.00     0.243 C 
ATOM      4  O   UNL     1      -3.715  -6.438   2.332  1.00  0.00    -0.273 OA
ATOM      5  H   UNL     1      -1.779  -7.496   3.166  1.00  0.00     0.163 HD
BRANCH   3   6
ATOM      6  C   UNL     1      -2.382  -4.913   1.029  1.00  0.00     0.185 C 
ATOM      7  N   UNL     1      -1.346  -3.903   1.282  1.00  0.00    -0.321 N 
ATOM      8  C   UNL     1      -0.335  -3.785   0.271  1.00  0.00     0.190 C 
ATOM      9  S   UNL     1      -0.774  -4.781  -1.149  1.00  0.00    -0.138 SA
ATOM     10  C   UNL     1      -2.226  -5.519  -0.369  1.00  0.00     0.106 C 
BRANCH   7  11
ATOM     11  C   UNL     1      -1.540  -3.020   2.328  1.00  0.00     0.223 C 
ATOM     12  O   UNL     1      -2.225  -3.342   3.302  1.00  0.00    -0.275 OA
BRANCH  11  13
ATOM     13  C   UNL     1      -1.066  -1.571   2.199  1.00  0.00     0.100 C 
BRANCH  13  14
ATOM     14  C   UNL     1       0.365  -1.201   2.586  1.00  0.00     0.010 C 
BRANCH  14  15
ATOM     15  C   UNL     1       1.449  -1.262   1.501  1.00  0.00     0.000 C 
BRANCH  15  16
ATOM     16  C   UNL     1       1.125  -0.610   0.149  1.00  0.00    -0.003 C 
ATOM     17  C   UNL     1       1.325   0.892   0.107  1.00  0.00     0.004 C 
ENDBRANCH  15  16
ENDBRANCH  14  15
ENDBRANCH  13  14
ENDBRANCH  11  13
ENDBRANCH   7  11
ENDBRANCH   3   6
ENDBRANCH   1   2
BRANCH   1  18
ATOM     18  C   UNL     1       0.718  -6.114   3.185  1.00  0.00     0.023 C 
BRANCH  18  19
ATOM     19  C   UNL     1       0.987  -6.984   4.415  1.00  0.00     0.023 C 
BRANCH  19  20
ATOM     20  C   UNL     1       1.690  -8.307   4.127  1.00  0.00     0.116 C 
BRANCH  20  21
ATOM     21  N   UNL     1       2.972  -8.146   3.461  1.00  0.00    -0.352 N 
ATOM     22  C   UNL     1       4.091  -8.943   3.558  1.00  0.00     0.251 C 
ATOM     23  H   UNL     1       3.050  -7.367   2.864  1.00  0.00     0.163 HD
ATOM     24  O   UNL     1       5.136  -8.601   3.029  1.00  0.00    -0.269 OA
BRANCH  22  25
ATOM     25  C   UNL     1       4.018 -10.196   4.344  1.00  0.00     0.039 A 
ATOM     26  C   UNL     1       5.027 -10.467   5.269  1.00  0.00     0.014 A 
ATOM     27  C   UNL     1       2.951 -11.084   4.184  1.00  0.00     0.014 A 
ATOM     28  C   UNL     1       4.939 -11.607   6.070  1.00  0.00     0.010 A 
ATOM     29  C   UNL     1       2.825 -12.177   5.037  1.00  0.00     0.010 A 
ATOM     30  C   UNL     1       3.824 -12.457   5.980  1.00  0.00    -0.014 A 
BRANCH  30  31
ATOM     31  C   UNL     1       3.706 -13.652   6.855  1.00  0.00     0.031 A 
ATOM     32  C   UNL     1       3.701 -15.032   6.253  1.00  0.00     0.074 A 
ATOM     33  C   UNL     1       3.571 -13.493   8.187  1.00  0.00     0.049 A 
ATOM     34  N   UNL     1       3.600 -16.192   6.849  1.00  0.00    -0.248 NA
ATOM     35  C   UNL     1       3.796 -15.120   4.786  1.00  0.00     0.031 C 
ATOM     36  C   UNL     1       3.498 -12.206   8.881  1.00  0.00     0.029 A 
ATOM     37  N   UNL     1       3.469 -14.418   9.195  1.00  0.00    -0.354 N 
ATOM     38  C   UNL     1       3.621 -17.143   5.835  1.00  0.00     0.074 A 
ATOM     39  C   UNL     1       3.671 -16.423   4.582  1.00  0.00     0.031 C 
ATOM     40  C   UNL     1       3.390 -12.423  10.202  1.00  0.00     0.029 A 
ATOM     41  C   UNL     1       3.356 -13.861  10.447  1.00  0.00     0.049 A 
ATOM     42  H   UNL     1       3.476 -15.390   9.037  1.00  0.00     0.167 HD
ATOM     43  C   UNL     1       3.633 -18.493   5.939  1.00  0.00     0.037 A 
ATOM     44  C   UNL     1       3.237 -14.444  11.657  1.00  0.00     0.037 A 
ATOM     45  C   UNL     1       3.602 -19.203   7.191  1.00  0.00     0.049 A 
ATOM     46  C   UNL     1       3.256 -15.947  11.748  1.00  0.00     0.074 A 
ATOM     47  C   UNL     1       3.655 -20.569   7.407  1.00  0.00     0.029 A 
ATOM     48  N   UNL     1       3.511 -18.604   8.439  1.00  0.00    -0.354 N 
ATOM     49  N   UNL     1       3.348 -16.830  10.782  1.00  0.00    -0.248 NA
ATOM     50  C   UNL     1       3.168 -16.533  13.092  1.00  0.00     0.031 C 
ATOM     51  C   UNL     1       3.552 -20.797   8.783  1.00  0.00     0.029 A 
ATOM     52  C   UNL     1       3.489 -19.572   9.429  1.00  0.00     0.049 A 
ATOM     53  H   UNL     1       3.468 -17.633   8.598  1.00  0.00     0.167 HD
ATOM     54  C   UNL     1       3.353 -18.074  11.403  1.00  0.00     0.074 A 
ATOM     55  C   UNL     1       3.273 -17.828  12.828  1.00  0.00     0.031 C 
ATOM     56  C   UNL     1       3.415 -19.309  10.845  1.00  0.00     0.037 A 
BRANCH  43  57
ATOM     57  C   UNL     1       3.701 -19.289   4.664  1.00  0.00     0.058 A 
ATOM     58  C   UNL     1       4.860 -19.304   3.869  1.00  0.00     0.135 A 
ATOM     59  C   UNL     1       2.614 -20.075   4.247  1.00  0.00     0.135 A 
ATOM     60  F   UNL     1       5.923 -18.559   4.211  1.00  0.00    -0.206 F 
ATOM     61  C   UNL     1       4.928 -20.044   2.694  1.00  0.00     0.059 A 
ATOM     62  C   UNL     1       2.671 -20.847   3.090  1.00  0.00     0.059 A 
ATOM     63  F   UNL     1       1.481 -20.098   4.966  1.00  0.00    -0.206 F 
ATOM     64  C   UNL     1       3.829 -20.814   2.313  1.00  0.00     0.060 A 
BRANCH  64  65
ATOM     65  S   UNL     1       3.940 -21.776   0.790  1.00  0.00     0.124 S 
ATOM     66  O   UNL     1       3.875 -20.726  -0.223  1.00  0.00    -0.237 OA
ATOM     67  O   UNL     1       5.233 -22.437   0.933  1.00  0.00    -0.237 OA
ATOM     68  O   UNL     1       2.778 -22.656   0.856  1.00  0.00    -0.744 OA
ENDBRANCH  64  65
ENDBRANCH  43  57
BRANCH  44  69
ATOM     69  C   UNL     1       3.112 -13.604  12.878  1.00  0.00     0.058 A 
ATOM     70  C   UNL     1       4.148 -13.534  13.822  1.00  0.00     0.135 A 
ATOM     71  C   UNL     1       1.956 -12.846  13.122  1.00  0.00     0.135 A 
ATOM     72  F   UNL     1       5.272 -14.243  13.637  1.00  0.00    -0.206 F 
ATOM     73  C   UNL     1       4.036 -12.760  14.973  1.00  0.00     0.059 A 
ATOM     74  C   UNL     1       1.831 -12.043  14.252  1.00  0.00     0.059 A 
ATOM     75  F   UNL     1       0.943 -12.863  12.242  1.00  0.00    -0.206 F 
ATOM     76  C   UNL     1       2.873 -12.016  15.178  1.00  0.00     0.060 A 
BRANCH  76  77
ATOM     77  S   UNL     1       2.753 -10.983  16.655  1.00  0.00     0.124 S 
ATOM     78  O   UNL     1       2.566 -11.984  17.699  1.00  0.00    -0.237 OA
ATOM     79  O   UNL     1       4.041 -10.296  16.652  1.00  0.00    -0.237 OA
ATOM     80  O   UNL     1       1.599 -10.134  16.378  1.00  0.00    -0.744 OA
ENDBRANCH  76  77
ENDBRANCH  44  69
BRANCH  56  81
ATOM     81  C   UNL     1       3.430 -20.490  11.775  1.00  0.00     0.058 A 
ATOM     82  C   UNL     1       2.284 -20.888  12.481  1.00  0.00     0.135 A 
ATOM     83  C   UNL     1       4.591 -21.267  11.918  1.00  0.00     0.135 A 
ATOM     84  F   UNL     1       1.149 -20.177  12.384  1.00  0.00    -0.206 F 
ATOM     85  C   UNL     1       2.296 -22.000  13.317  1.00  0.00     0.059 A 
ATOM     86  C   UNL     1       4.617 -22.400  12.725  1.00  0.00     0.059 A 
ATOM     87  F   UNL     1       5.712 -20.938  11.256  1.00  0.00    -0.206 F 
ATOM     88  C   UNL     1       3.467 -22.752  13.430  1.00  0.00     0.060 A 
BRANCH  88  89
ATOM     89  S   UNL     1       3.458 -24.212  14.491  1.00  0.00     0.124 S 
ATOM     90  O   UNL     1       3.456 -23.610  15.820  1.00  0.00    -0.237 OA
ATOM     91  O   UNL     1       2.220 -24.878  14.095  1.00  0.00    -0.237 OA
ATOM     92  O   UNL     1       4.684 -24.911  14.119  1.00  0.00    -0.744 OA
ENDBRANCH  88  89
ENDBRANCH  56  81
ENDBRANCH  30  31
ENDBRANCH  22  25
ENDBRANCH  20  21
ENDBRANCH  19  20
ENDBRANCH  18  19
ENDBRANCH   1  18
TORSDOF 19
