REMARK SMILES Cc1ccccc1[C@@H](CC(=O)NCCCCNC(=O)c1ccc(-c2c3nc(c(-c4c(F)cc(S(=O)(=O)[O-])cc4F)c4ccc([nH]4)c(-c4c(F)cc(S(=O)(=O)[O-])cc4F)c4nc(c(-c5c(F)cc(S(=O)(=O)[O-])cc5F)c5ccc2[nH]5)C=C4)C=C3)cc1)NC(=O)C(F)(F)F
REMARK SMILES IDX 14 1 13 2 12 3 10 4 11 5 9 7 8 8 7 9 1 10 2 11 3 12 4 13
REMARK SMILES IDX 6 14 5 15 86 16 87 17 88 19 89 20 90 21 91 22 92 23 15 24
REMARK SMILES IDX 16 25 17 26 18 27 19 29 20 30 21 31 85 32 22 33 84 34 23 35
REMARK SMILES IDX 24 36 25 37 78 38 26 39 83 40 77 41 79 42 27 43 82 44 76 45
REMARK SMILES IDX 75 46 28 48 62 49 41 50 61 51 42 52 45 53 60 54 80 55 43 56
REMARK SMILES IDX 44 57 59 59 81 60 46 61 29 62 30 63 39 64 31 65 32 66 38 67
REMARK SMILES IDX 40 68 33 69 34 70 35 71 36 72 37 73 63 74 64 75 73 76 65 77
REMARK SMILES IDX 66 78 72 79 74 80 67 81 68 82 69 83 70 84 71 85 47 86 48 87
REMARK SMILES IDX 57 88 49 89 50 90 56 91 58 92 51 93 52 94 53 95 54 96 55 97
REMARK H PARENT 12 6 86 18 17 28 79 47 45 58
REMARK Flexibility Score: inf
ROOT
ATOM      1  C   UNL     1      -2.706   1.278   0.298  1.00  0.00     0.023 C 
ENDROOT
BRANCH   1   2
ATOM      2  C   UNL     1      -2.169   1.625  -1.096  1.00  0.00     0.116 C 
BRANCH   2   3
ATOM      3  N   UNL     1      -1.755   3.018  -1.149  1.00  0.00    -0.356 N 
ATOM      4  C   UNL     1      -0.510   3.560  -1.084  1.00  0.00     0.222 C 
ATOM      5  O   UNL     1      -0.419   4.786  -0.978  1.00  0.00    -0.275 OA
ATOM      6  H   UNL     1      -2.489   3.668  -1.248  1.00  0.00     0.163 HD
BRANCH   4   7
ATOM      7  C   UNL     1       0.737   2.701  -1.146  1.00  0.00     0.129 C 
BRANCH   7   8
ATOM      8  C   UNL     1       1.401   2.329   0.201  1.00  0.00     0.122 C 
BRANCH   8   9
ATOM      9  C   UNL     1       1.214   0.848   0.533  1.00  0.00    -0.022 A 
ATOM     10  C   UNL     1       3.335   0.090  -0.720  1.00  0.00     0.045 C 
ATOM     11  C   UNL     1       2.011  -0.165  -0.051  1.00  0.00    -0.046 A 
ATOM     12  C   UNL     1       1.621  -1.515   0.073  1.00  0.00     0.004 A 
ATOM     13  C   UNL     1       0.484  -1.875   0.787  1.00  0.00     0.000 A 
ATOM     14  C   UNL     1       0.152   0.443   1.359  1.00  0.00     0.006 A 
ATOM     15  C   UNL     1      -0.223  -0.899   1.467  1.00  0.00     0.000 A 
ENDBRANCH   8   9
BRANCH   8  16
ATOM     16  N   UNL     1       1.039   3.209   1.308  1.00  0.00    -0.341 N 
ATOM     17  C   UNL     1       1.864   3.674   2.309  1.00  0.00     0.326 C 
ATOM     18  H   UNL     1       0.101   3.504   1.344  1.00  0.00     0.164 HD
ATOM     19  O   UNL     1       1.348   4.352   3.205  1.00  0.00    -0.265 OA
BRANCH  17  20
ATOM     20  C   UNL     1       3.377   3.361   2.259  1.00  0.00     0.471 C 
ATOM     21  F   UNL     1       3.641   2.025   2.220  1.00  0.00    -0.162 F 
ATOM     22  F   UNL     1       3.974   3.894   1.152  1.00  0.00    -0.162 F 
ATOM     23  F   UNL     1       4.063   3.853   3.329  1.00  0.00    -0.162 F 
ENDBRANCH  17  20
ENDBRANCH   8  16
ENDBRANCH   7   8
ENDBRANCH   4   7
ENDBRANCH   2   3
ENDBRANCH   1   2
BRANCH   1  24
ATOM     24  C   UNL     1      -4.203   1.435   0.494  1.00  0.00     0.023 C 
BRANCH  24  25
ATOM     25  C   UNL     1      -5.005   0.374  -0.240  1.00  0.00     0.116 C 
BRANCH  25  26
ATOM     26  N   UNL     1      -5.212  -0.880   0.473  1.00  0.00    -0.352 N 
ATOM     27  C   UNL     1      -6.023  -1.944   0.093  1.00  0.00     0.251 C 
ATOM     28  H   UNL     1      -4.722  -0.986   1.320  1.00  0.00     0.163 HD
ATOM     29  O   UNL     1      -6.327  -2.833   0.884  1.00  0.00    -0.269 OA
BRANCH  27  30
ATOM     30  C   UNL     1      -6.427  -2.032  -1.331  1.00  0.00     0.039 A 
ATOM     31  C   UNL     1      -5.992  -3.135  -2.076  1.00  0.00     0.014 A 
ATOM     32  C   UNL     1      -6.912  -0.901  -1.969  1.00  0.00     0.014 A 
ATOM     33  C   UNL     1      -5.821  -3.006  -3.455  1.00  0.00     0.010 A 
ATOM     34  C   UNL     1      -6.574  -0.713  -3.289  1.00  0.00     0.010 A 
ATOM     35  C   UNL     1      -6.004  -1.753  -4.035  1.00  0.00    -0.014 A 
BRANCH  35  36
ATOM     36  C   UNL     1      -5.567  -1.371  -5.374  1.00  0.00     0.031 A 
ATOM     37  C   UNL     1      -6.562  -0.923  -6.378  1.00  0.00     0.074 A 
ATOM     38  C   UNL     1      -4.249  -1.206  -5.626  1.00  0.00     0.049 A 
ATOM     39  N   UNL     1      -6.308  -0.780  -7.633  1.00  0.00    -0.248 NA
ATOM     40  C   UNL     1      -7.943  -0.586  -6.037  1.00  0.00     0.031 C 
ATOM     41  C   UNL     1      -3.643  -0.453  -6.722  1.00  0.00     0.029 A 
ATOM     42  N   UNL     1      -3.168  -1.838  -5.013  1.00  0.00    -0.354 N 
ATOM     43  C   UNL     1      -7.353  -0.088  -8.198  1.00  0.00     0.074 A 
ATOM     44  C   UNL     1      -8.359  -0.009  -7.166  1.00  0.00     0.031 C 
ATOM     45  C   UNL     1      -2.368  -0.843  -6.870  1.00  0.00     0.029 A 
ATOM     46  C   UNL     1      -2.152  -1.971  -5.984  1.00  0.00     0.049 A 
ATOM     47  H   UNL     1      -3.122  -2.137  -4.076  1.00  0.00     0.167 HD
ATOM     48  C   UNL     1      -7.216   0.441  -9.445  1.00  0.00     0.037 A 
ATOM     49  C   UNL     1      -1.778  -3.221  -6.397  1.00  0.00     0.037 A 
ATOM     50  C   UNL     1      -5.923   0.102 -10.037  1.00  0.00     0.049 A 
ATOM     51  C   UNL     1      -2.190  -3.559  -7.822  1.00  0.00     0.074 A 
ATOM     52  C   UNL     1      -4.712   0.754 -10.192  1.00  0.00     0.029 A 
ATOM     53  N   UNL     1      -5.665  -1.228 -10.301  1.00  0.00    -0.354 N 
ATOM     54  N   UNL     1      -2.722  -2.717  -8.668  1.00  0.00    -0.248 NA
ATOM     55  C   UNL     1      -2.096  -4.910  -8.379  1.00  0.00     0.031 C 
ATOM     56  C   UNL     1      -3.719  -0.220 -10.517  1.00  0.00     0.029 A 
ATOM     57  C   UNL     1      -4.332  -1.458 -10.571  1.00  0.00     0.049 A 
ATOM     58  H   UNL     1      -6.354  -1.932 -10.298  1.00  0.00     0.167 HD
ATOM     59  C   UNL     1      -3.147  -3.397  -9.782  1.00  0.00     0.074 A 
ATOM     60  C   UNL     1      -2.692  -4.760  -9.574  1.00  0.00     0.031 C 
ATOM     61  C   UNL     1      -3.900  -2.832 -10.771  1.00  0.00     0.037 A 
BRANCH  48  62
ATOM     62  C   UNL     1      -8.197   1.425 -10.027  1.00  0.00     0.058 A 
ATOM     63  C   UNL     1      -7.755   2.483 -10.845  1.00  0.00     0.135 A 
ATOM     64  C   UNL     1      -9.586   1.394  -9.787  1.00  0.00     0.135 A 
ATOM     65  F   UNL     1      -6.470   2.599 -11.206  1.00  0.00    -0.206 F 
ATOM     66  C   UNL     1      -8.607   3.485 -11.309  1.00  0.00     0.059 A 
ATOM     67  C   UNL     1     -10.450   2.417 -10.188  1.00  0.00     0.059 A 
ATOM     68  F   UNL     1     -10.160   0.347  -9.174  1.00  0.00    -0.206 F 
ATOM     69  C   UNL     1      -9.948   3.463 -10.948  1.00  0.00     0.060 A 
BRANCH  69  70
ATOM     70  S   UNL     1     -11.008   4.822 -11.478  1.00  0.00     0.124 S 
ATOM     71  O   UNL     1     -10.233   5.992 -11.076  1.00  0.00    -0.237 OA
ATOM     72  O   UNL     1     -11.104   4.586 -12.914  1.00  0.00    -0.237 OA
ATOM     73  O   UNL     1     -12.238   4.607 -10.721  1.00  0.00    -0.744 OA
ENDBRANCH  69  70
ENDBRANCH  48  62
BRANCH  49  74
ATOM     74  C   UNL     1      -1.702  -4.170  -5.246  1.00  0.00     0.058 A 
ATOM     75  C   UNL     1      -0.723  -3.907  -4.265  1.00  0.00     0.135 A 
ATOM     76  C   UNL     1      -2.808  -4.944  -4.867  1.00  0.00     0.135 A 
ATOM     77  F   UNL     1       0.368  -3.189  -4.580  1.00  0.00    -0.206 F 
ATOM     78  C   UNL     1      -0.931  -4.216  -2.926  1.00  0.00     0.059 A 
ATOM     79  C   UNL     1      -3.026  -5.282  -3.530  1.00  0.00     0.059 A 
ATOM     80  F   UNL     1      -3.770  -5.231  -5.757  1.00  0.00    -0.206 F 
ATOM     81  C   UNL     1      -2.124  -4.834  -2.563  1.00  0.00     0.060 A 
BRANCH  81  82
ATOM     82  S   UNL     1      -2.560  -4.852  -0.807  1.00  0.00     0.124 S 
ATOM     83  O   UNL     1      -1.380  -5.462  -0.203  1.00  0.00    -0.237 OA
ATOM     84  O   UNL     1      -2.736  -3.426  -0.540  1.00  0.00    -0.237 OA
ATOM     85  O   UNL     1      -3.775  -5.659  -0.777  1.00  0.00    -0.744 OA
ENDBRANCH  81  82
ENDBRANCH  49  74
BRANCH  61  86
ATOM     86  C   UNL     1      -4.325  -3.575 -12.011  1.00  0.00     0.058 A 
ATOM     87  C   UNL     1      -3.409  -4.306 -12.785  1.00  0.00     0.135 A 
ATOM     88  C   UNL     1      -5.631  -3.467 -12.538  1.00  0.00     0.135 A 
ATOM     89  F   UNL     1      -2.129  -4.429 -12.395  1.00  0.00    -0.206 F 
ATOM     90  C   UNL     1      -3.773  -4.921 -13.984  1.00  0.00     0.059 A 
ATOM     91  C   UNL     1      -6.002  -4.024 -13.757  1.00  0.00     0.059 A 
ATOM     92  F   UNL     1      -6.608  -2.841 -11.866  1.00  0.00    -0.206 F 
ATOM     93  C   UNL     1      -5.072  -4.771 -14.464  1.00  0.00     0.060 A 
BRANCH  93  94
ATOM     94  S   UNL     1      -5.544  -5.542 -16.023  1.00  0.00     0.124 S 
ATOM     95  O   UNL     1      -4.331  -5.410 -16.825  1.00  0.00    -0.237 OA
ATOM     96  O   UNL     1      -5.869  -6.897 -15.588  1.00  0.00    -0.237 OA
ATOM     97  O   UNL     1      -6.674  -4.735 -16.471  1.00  0.00    -0.744 OA
ENDBRANCH  93  94
ENDBRANCH  61  86
ENDBRANCH  35  36
ENDBRANCH  27  30
ENDBRANCH  25  26
ENDBRANCH  24  25
ENDBRANCH   1  24
TORSDOF 18
