REMARK SMILES C[NH2+][C@@]1(C(=O)NCCCCNC(=O)c2ccc(-c3c4nc(c(-c5c(F)cc(S(=O)(=O)[O-])cc5F)c5ccc([nH]5)c(-c5c(F)cc(S(=O)(=O)[O-])cc5F)c5nc(c(-c6c(F)cc(S(=O)(=O)[O-])cc6F)c6ccc3[nH]6)C=C5)C=C4)cc2)CCC[C@H](n2cc(I)cn2)C1
REMARK SMILES IDX 9 1 8 2 7 3 6 4 4 5 5 6 3 8 80 9 90 10 81 11 83 12 82 13
REMARK SMILES IDX 2 14 1 15 84 18 85 19 89 20 86 21 88 22 87 23 10 24 11 25
REMARK SMILES IDX 12 26 13 28 14 29 15 30 79 31 16 32 78 33 17 34 18 35 19 36
REMARK SMILES IDX 72 37 20 38 77 39 71 40 73 41 21 42 76 43 70 44 69 45 22 47
REMARK SMILES IDX 56 48 35 49 55 50 36 51 39 52 54 53 74 54 37 55 38 56 53 58
REMARK SMILES IDX 75 59 40 60 23 61 24 62 33 63 25 64 26 65 32 66 34 67 27 68
REMARK SMILES IDX 28 69 29 70 30 71 31 72 57 73 58 74 67 75 59 76 60 77 66 78
REMARK SMILES IDX 68 79 61 80 62 81 63 82 64 83 65 84 41 85 42 86 51 87 43 88
REMARK SMILES IDX 44 89 50 90 52 91 45 92 46 93 47 94 48 95 49 96
REMARK H PARENT 6 7 2 16 2 17 11 27 73 46 39 57
REMARK Flexibility Score: inf
ROOT
ATOM      1  C   UNL     1      -5.822  -0.633  -0.638  1.00  0.00     0.023 C 
ENDROOT
BRANCH   1   2
ATOM      2  C   UNL     1      -4.956  -1.125   0.509  1.00  0.00     0.023 C 
BRANCH   2   3
ATOM      3  C   UNL     1      -3.849  -2.088   0.109  1.00  0.00     0.116 C 
BRANCH   3   4
ATOM      4  N   UNL     1      -2.771  -1.460  -0.629  1.00  0.00    -0.351 N 
ATOM      5  C   UNL     1      -1.470  -1.160  -0.385  1.00  0.00     0.281 C 
ATOM      6  O   UNL     1      -0.782  -1.204  -1.420  1.00  0.00    -0.268 OA
ATOM      7  H   UNL     1      -3.053  -1.183  -1.530  1.00  0.00     0.163 HD
BRANCH   5   8
ATOM      8  C   UNL     1      -0.787  -0.819   1.029  1.00  0.00     0.177 C 
ATOM      9  C   UNL     1      -1.289  -1.730   2.162  1.00  0.00     0.079 C 
ATOM     10  C   UNL     1      -0.832   0.633   1.559  1.00  0.00     0.106 C 
ATOM     11  C   UNL     1      -2.467  -1.213   3.005  1.00  0.00     0.009 C 
ATOM     12  C   UNL     1      -2.221   1.177   1.873  1.00  0.00     0.114 C 
ATOM     13  C   UNL     1      -2.949   0.245   2.864  1.00  0.00     0.028 C 
BRANCH   8  14
ATOM     14  N   UNL     1       0.686  -1.189   0.882  1.00  0.00    -0.336 N 
ATOM     15  C   UNL     1       1.493  -0.236   0.106  1.00  0.00     0.331 C 
ATOM     16  H   UNL     1       1.089  -1.258   1.817  1.00  0.00     0.346 HD
ATOM     17  H   UNL     1       0.708  -2.068   0.365  1.00  0.00     0.346 HD
ENDBRANCH   8  14
BRANCH  12  18
ATOM     18  N   UNL     1      -2.914   1.633   0.662  1.00  0.00    -0.268 N 
ATOM     19  C   UNL     1      -4.093   2.328   0.563  1.00  0.00     0.123 A 
ATOM     20  N   UNL     1      -2.261   1.583  -0.521  1.00  0.00    -0.180 NA
ATOM     21  C   UNL     1      -4.239   2.618  -0.774  1.00  0.00     0.051 A 
ATOM     22  C   UNL     1      -3.092   2.134  -1.401  1.00  0.00     0.149 A 
ATOM     23  I   UNL     1      -5.784   3.554  -1.654  1.00  0.00    -0.041 I 
ENDBRANCH  12  18
ENDBRANCH   5   8
ENDBRANCH   3   4
ENDBRANCH   2   3
ENDBRANCH   1   2
BRANCH   1  24
ATOM     24  C   UNL     1      -6.925  -1.611  -0.974  1.00  0.00     0.116 C 
BRANCH  24  25
ATOM     25  N   UNL     1      -7.974  -1.611   0.043  1.00  0.00    -0.352 N 
ATOM     26  C   UNL     1      -9.324  -1.385  -0.110  1.00  0.00     0.251 C 
ATOM     27  H   UNL     1      -7.676  -1.797   0.963  1.00  0.00     0.163 HD
ATOM     28  O   UNL     1     -10.037  -1.209   0.869  1.00  0.00    -0.269 OA
BRANCH  26  29
ATOM     29  C   UNL     1      -9.883  -1.336  -1.477  1.00  0.00     0.039 A 
ATOM     30  C   UNL     1     -10.830  -0.367  -1.809  1.00  0.00     0.014 A 
ATOM     31  C   UNL     1      -9.413  -2.225  -2.445  1.00  0.00     0.014 A 
ATOM     32  C   UNL     1     -11.258  -0.258  -3.134  1.00  0.00     0.010 A 
ATOM     33  C   UNL     1      -9.716  -2.010  -3.776  1.00  0.00     0.010 A 
ATOM     34  C   UNL     1     -10.678  -1.057  -4.133  1.00  0.00    -0.014 A 
BRANCH  34  35
ATOM     35  C   UNL     1     -11.108  -0.990  -5.551  1.00  0.00     0.031 A 
ATOM     36  C   UNL     1     -11.625  -2.242  -6.217  1.00  0.00     0.074 A 
ATOM     37  C   UNL     1     -10.964   0.152  -6.250  1.00  0.00     0.049 A 
ATOM     38  N   UNL     1     -11.934  -2.446  -7.470  1.00  0.00    -0.248 NA
ATOM     39  C   UNL     1     -11.757  -3.444  -5.371  1.00  0.00     0.031 C 
ATOM     40  C   UNL     1     -10.409   1.405  -5.729  1.00  0.00     0.029 A 
ATOM     41  N   UNL     1     -11.270   0.444  -7.554  1.00  0.00    -0.354 N 
ATOM     42  C   UNL     1     -12.256  -3.797  -7.562  1.00  0.00     0.074 A 
ATOM     43  C   UNL     1     -12.021  -4.382  -6.264  1.00  0.00     0.031 C 
ATOM     44  C   UNL     1     -10.459   2.342  -6.691  1.00  0.00     0.029 A 
ATOM     45  C   UNL     1     -11.007   1.748  -7.905  1.00  0.00     0.049 A 
ATOM     46  H   UNL     1     -11.642  -0.217  -8.180  1.00  0.00     0.167 HD
ATOM     47  C   UNL     1     -12.749  -4.480  -8.621  1.00  0.00     0.037 A 
ATOM     48  C   UNL     1     -11.194   2.386  -9.076  1.00  0.00     0.037 A 
ATOM     49  C   UNL     1     -13.049  -3.866  -9.884  1.00  0.00     0.049 A 
ATOM     50  C   UNL     1     -11.787   1.619 -10.227  1.00  0.00     0.074 A 
ATOM     51  C   UNL     1     -13.623  -4.437 -11.005  1.00  0.00     0.029 A 
ATOM     52  N   UNL     1     -12.815  -2.531 -10.185  1.00  0.00    -0.354 N 
ATOM     53  N   UNL     1     -12.140   0.356 -10.282  1.00  0.00    -0.248 NA
ATOM     54  C   UNL     1     -12.015   2.362 -11.473  1.00  0.00     0.031 C 
ATOM     55  C   UNL     1     -13.704  -3.454 -11.997  1.00  0.00     0.029 A 
ATOM     56  C   UNL     1     -13.223  -2.261 -11.478  1.00  0.00     0.049 A 
ATOM     57  H   UNL     1     -12.416  -1.875  -9.569  1.00  0.00     0.167 HD
ATOM     58  C   UNL     1     -12.657   0.160 -11.557  1.00  0.00     0.074 A 
ATOM     59  C   UNL     1     -12.583   1.438 -12.236  1.00  0.00     0.031 C 
ATOM     60  C   UNL     1     -13.148  -0.973 -12.120  1.00  0.00     0.037 A 
BRANCH  47  61
ATOM     61  C   UNL     1     -13.018  -5.949  -8.441  1.00  0.00     0.058 A 
ATOM     62  C   UNL     1     -14.039  -6.415  -7.595  1.00  0.00     0.135 A 
ATOM     63  C   UNL     1     -12.258  -6.906  -9.132  1.00  0.00     0.135 A 
ATOM     64  F   UNL     1     -14.784  -5.547  -6.891  1.00  0.00    -0.206 F 
ATOM     65  C   UNL     1     -14.272  -7.774  -7.412  1.00  0.00     0.059 A 
ATOM     66  C   UNL     1     -12.496  -8.271  -8.991  1.00  0.00     0.059 A 
ATOM     67  F   UNL     1     -11.267  -6.520  -9.951  1.00  0.00    -0.206 F 
ATOM     68  C   UNL     1     -13.495  -8.695  -8.116  1.00  0.00     0.060 A 
BRANCH  68  69
ATOM     69  S   UNL     1     -13.819 -10.454  -7.875  1.00  0.00     0.124 S 
ATOM     70  O   UNL     1     -13.271 -10.670  -6.539  1.00  0.00    -0.237 OA
ATOM     71  O   UNL     1     -15.273 -10.521  -7.981  1.00  0.00    -0.237 OA
ATOM     72  O   UNL     1     -13.083 -11.088  -8.964  1.00  0.00    -0.744 OA
ENDBRANCH  68  69
ENDBRANCH  47  61
BRANCH  48  73
ATOM     73  C   UNL     1     -10.864   3.831  -9.200  1.00  0.00     0.058 A 
ATOM     74  C   UNL     1     -11.880   4.793  -9.316  1.00  0.00     0.135 A 
ATOM     75  C   UNL     1      -9.537   4.285  -9.183  1.00  0.00     0.135 A 
ATOM     76  F   UNL     1     -13.166   4.409  -9.339  1.00  0.00    -0.206 F 
ATOM     77  C   UNL     1     -11.593   6.149  -9.431  1.00  0.00     0.059 A 
ATOM     78  C   UNL     1      -9.225   5.639  -9.271  1.00  0.00     0.059 A 
ATOM     79  F   UNL     1      -8.528   3.410  -9.052  1.00  0.00    -0.206 F 
ATOM     80  C   UNL     1     -10.260   6.563  -9.406  1.00  0.00     0.060 A 
BRANCH  80  81
ATOM     81  S   UNL     1      -9.902   8.330  -9.511  1.00  0.00     0.124 S 
ATOM     82  O   UNL     1     -10.196   8.606 -10.913  1.00  0.00    -0.237 OA
ATOM     83  O   UNL     1     -10.835   8.891  -8.540  1.00  0.00    -0.237 OA
ATOM     84  O   UNL     1      -8.493   8.410  -9.134  1.00  0.00    -0.744 OA
ENDBRANCH  80  81
ENDBRANCH  48  73
BRANCH  60  85
ATOM     85  C   UNL     1     -13.676  -0.872 -13.522  1.00  0.00     0.058 A 
ATOM     86  C   UNL     1     -12.818  -0.743 -14.623  1.00  0.00     0.135 A 
ATOM     87  C   UNL     1     -15.055  -0.972 -13.767  1.00  0.00     0.135 A 
ATOM     88  F   UNL     1     -11.492  -0.639 -14.439  1.00  0.00    -0.206 F 
ATOM     89  C   UNL     1     -13.311  -0.693 -15.922  1.00  0.00     0.059 A 
ATOM     90  C   UNL     1     -15.568  -0.954 -15.059  1.00  0.00     0.059 A 
ATOM     91  F   UNL     1     -15.916  -1.111 -12.746  1.00  0.00    -0.206 F 
ATOM     92  C   UNL     1     -14.687  -0.802 -16.129  1.00  0.00     0.060 A 
BRANCH  92  93
ATOM     93  S   UNL     1     -15.310  -0.774 -17.823  1.00  0.00     0.124 S 
ATOM     94  O   UNL     1     -15.167   0.637 -18.164  1.00  0.00    -0.237 OA
ATOM     95  O   UNL     1     -14.400  -1.688 -18.506  1.00  0.00    -0.237 OA
ATOM     96  O   UNL     1     -16.683  -1.251 -17.688  1.00  0.00    -0.744 OA
ENDBRANCH  92  93
ENDBRANCH  60  85
ENDBRANCH  34  35
ENDBRANCH  26  29
ENDBRANCH  24  25
ENDBRANCH   1  24
TORSDOF 16
