REMARK SMILES C[NH2+][C@H](CC(=O)NCCCCNC(=O)c1ccc(-c2c3nc(c(-c4c(F)cc(S(=O)(=O)[O-])cc4F)c4ccc([nH]4)c(-c4c(F)cc(S(=O)(=O)[O-])cc4F)c4nc(c(-c5c(F)cc(S(=O)(=O)[O-])cc5F)c5ccc2[nH]5)C=C4)C=C3)cc1)c1cccc(C2CC2)c1
REMARK SMILES IDX 9 1 8 2 7 3 5 4 6 5 4 7 3 8 2 9 1 10 81 13 82 14 89 15 83 16
REMARK SMILES IDX 85 17 84 18 86 19 87 20 88 21 10 22 11 23 12 24 13 25 14 27
REMARK SMILES IDX 15 28 16 29 80 30 17 31 79 32 18 33 19 34 20 35 73 36 21 37
REMARK SMILES IDX 78 38 72 39 74 40 22 41 77 42 71 43 70 44 23 46 57 47 36 48
REMARK SMILES IDX 56 49 37 50 40 51 55 52 75 53 38 54 39 55 54 57 76 58 41 59
REMARK SMILES IDX 24 60 25 61 34 62 26 63 27 64 33 65 35 66 28 67 29 68 30 69
REMARK SMILES IDX 31 70 32 71 58 72 59 73 68 74 60 75 61 76 67 77 69 78 62 79
REMARK SMILES IDX 63 80 64 81 65 82 66 83 42 84 43 85 52 86 44 87 45 88 51 89
REMARK SMILES IDX 53 90 46 91 47 92 48 93 49 94 50 95
REMARK H PARENT 7 6 2 11 2 12 12 26 74 45 40 56
REMARK Flexibility Score: inf
ROOT
ATOM      1  C   UNL     1      -1.032   4.384   1.362  1.00  0.00     0.023 C 
ENDROOT
BRANCH   1   2
ATOM      2  C   UNL     1       0.198   3.556   0.988  1.00  0.00     0.116 C 
BRANCH   2   3
ATOM      3  N   UNL     1       0.748   2.805   2.097  1.00  0.00    -0.356 N 
ATOM      4  C   UNL     1       0.871   1.468   2.302  1.00  0.00     0.226 C 
ATOM      5  O   UNL     1       1.544   1.099   3.269  1.00  0.00    -0.275 OA
ATOM      6  H   UNL     1       1.095   3.362   2.831  1.00  0.00     0.163 HD
BRANCH   4   7
ATOM      7  C   UNL     1       0.259   0.452   1.360  1.00  0.00     0.170 C 
BRANCH   7   8
ATOM      8  C   UNL     1      -1.278   0.333   1.402  1.00  0.00     0.222 C 
BRANCH   8   9
ATOM      9  N   UNL     1      -1.707  -1.004   0.935  1.00  0.00    -0.342 N 
ATOM     10  C   UNL     1      -1.762  -1.101  -0.517  1.00  0.00     0.331 C 
ATOM     11  H   UNL     1      -1.046  -1.699   1.284  1.00  0.00     0.346 HD
ATOM     12  H   UNL     1      -2.648  -1.167   1.291  1.00  0.00     0.346 HD
ENDBRANCH   8   9
BRANCH   8  13
ATOM     13  C   UNL     1      -1.901   0.631   2.759  1.00  0.00     0.010 A 
ATOM     14  C   UNL     1      -2.787   1.708   2.873  1.00  0.00     0.010 A 
ATOM     15  C   UNL     1      -1.618  -0.120   3.912  1.00  0.00     0.014 A 
ATOM     16  C   UNL     1      -3.234   2.139   4.113  1.00  0.00     0.001 A 
ATOM     17  C   UNL     1      -2.153   0.222   5.172  1.00  0.00    -0.044 A 
ATOM     18  C   UNL     1      -2.908   1.407   5.248  1.00  0.00     0.004 A 
BRANCH  17  19
ATOM     19  C   UNL     1      -2.014  -0.627   6.419  1.00  0.00     0.019 C 
ATOM     20  C   UNL     1      -2.314  -2.107   6.316  1.00  0.00     0.009 C 
ATOM     21  C   UNL     1      -0.923  -1.639   6.638  1.00  0.00     0.009 C 
ENDBRANCH  17  19
ENDBRANCH   8  13
ENDBRANCH   7   8
ENDBRANCH   4   7
ENDBRANCH   2   3
ENDBRANCH   1   2
BRANCH   1  22
ATOM     22  C   UNL     1      -0.905   5.249   2.618  1.00  0.00     0.023 C 
BRANCH  22  23
ATOM     23  C   UNL     1      -0.009   6.466   2.436  1.00  0.00     0.116 C 
BRANCH  23  24
ATOM     24  N   UNL     1      -0.578   7.396   1.471  1.00  0.00    -0.352 N 
ATOM     25  C   UNL     1      -1.031   8.679   1.640  1.00  0.00     0.251 C 
ATOM     26  H   UNL     1      -0.649   7.049   0.552  1.00  0.00     0.163 HD
ATOM     27  O   UNL     1      -1.755   9.172   0.774  1.00  0.00    -0.269 OA
BRANCH  25  28
ATOM     28  C   UNL     1      -0.651   9.473   2.829  1.00  0.00     0.039 A 
ATOM     29  C   UNL     1      -1.554  10.417   3.328  1.00  0.00     0.014 A 
ATOM     30  C   UNL     1       0.615   9.350   3.408  1.00  0.00     0.014 A 
ATOM     31  C   UNL     1      -1.192  11.217   4.414  1.00  0.00     0.010 A 
ATOM     32  C   UNL     1       0.937  10.078   4.549  1.00  0.00     0.010 A 
ATOM     33  C   UNL     1       0.052  11.044   5.042  1.00  0.00    -0.014 A 
BRANCH  33  34
ATOM     34  C   UNL     1       0.459  11.904   6.181  1.00  0.00     0.031 A 
ATOM     35  C   UNL     1       1.651  12.818   6.046  1.00  0.00     0.074 A 
ATOM     36  C   UNL     1      -0.223  11.836   7.340  1.00  0.00     0.049 A 
ATOM     37  N   UNL     1       2.175  13.628   6.929  1.00  0.00    -0.248 NA
ATOM     38  C   UNL     1       2.373  12.791   4.762  1.00  0.00     0.031 C 
ATOM     39  C   UNL     1      -1.342  10.930   7.610  1.00  0.00     0.029 A 
ATOM     40  N   UNL     1      -0.076  12.538   8.508  1.00  0.00    -0.354 N 
ATOM     41  C   UNL     1       3.287  14.193   6.314  1.00  0.00     0.074 A 
ATOM     42  C   UNL     1       3.405  13.583   5.010  1.00  0.00     0.031 C 
ATOM     43  C   UNL     1      -1.801  11.155   8.852  1.00  0.00     0.029 A 
ATOM     44  C   UNL     1      -0.998  12.203   9.471  1.00  0.00     0.049 A 
ATOM     45  H   UNL     1       0.622  13.219   8.643  1.00  0.00     0.167 HD
ATOM     46  C   UNL     1       4.114  15.161   6.778  1.00  0.00     0.037 A 
ATOM     47  C   UNL     1      -1.179  12.697  10.711  1.00  0.00     0.037 A 
ATOM     48  C   UNL     1       3.963  15.790   8.064  1.00  0.00     0.049 A 
ATOM     49  C   UNL     1      -0.293  13.819  11.177  1.00  0.00     0.074 A 
ATOM     50  C   UNL     1       4.715  16.809   8.622  1.00  0.00     0.029 A 
ATOM     51  N   UNL     1       2.979  15.466   8.988  1.00  0.00    -0.354 N 
ATOM     52  N   UNL     1       0.721  14.379  10.560  1.00  0.00    -0.248 NA
ATOM     53  C   UNL     1      -0.588  14.392  12.496  1.00  0.00     0.031 C 
ATOM     54  C   UNL     1       4.197  17.088   9.892  1.00  0.00     0.029 A 
ATOM     55  C   UNL     1       3.101  16.267  10.110  1.00  0.00     0.049 A 
ATOM     56  H   UNL     1       2.295  14.770   8.863  1.00  0.00     0.167 HD
ATOM     57  C   UNL     1       1.179  15.377  11.411  1.00  0.00     0.074 A 
ATOM     58  C   UNL     1       0.311  15.363  12.572  1.00  0.00     0.031 C 
ATOM     59  C   UNL     1       2.225  16.226  11.254  1.00  0.00     0.037 A 
BRANCH  46  60
ATOM     60  C   UNL     1       5.231  15.614   5.876  1.00  0.00     0.058 A 
ATOM     61  C   UNL     1       4.973  16.350   4.707  1.00  0.00     0.135 A 
ATOM     62  C   UNL     1       6.570  15.329   6.185  1.00  0.00     0.135 A 
ATOM     63  F   UNL     1       3.710  16.634   4.352  1.00  0.00    -0.206 F 
ATOM     64  C   UNL     1       5.999  16.759   3.861  1.00  0.00     0.059 A 
ATOM     65  C   UNL     1       7.615  15.753   5.367  1.00  0.00     0.059 A 
ATOM     66  F   UNL     1       6.875  14.628   7.288  1.00  0.00    -0.206 F 
ATOM     67  C   UNL     1       7.318  16.454   4.199  1.00  0.00     0.060 A 
BRANCH  67  68
ATOM     68  S   UNL     1       8.640  16.996   3.095  1.00  0.00     0.124 S 
ATOM     69  O   UNL     1       8.496  16.055   1.986  1.00  0.00    -0.237 OA
ATOM     70  O   UNL     1       8.257  18.377   2.803  1.00  0.00    -0.237 OA
ATOM     71  O   UNL     1       9.843  16.840   3.900  1.00  0.00    -0.744 OA
ENDBRANCH  67  68
ENDBRANCH  46  60
BRANCH  47  72
ATOM     72  C   UNL     1      -2.267  12.163  11.571  1.00  0.00     0.058 A 
ATOM     73  C   UNL     1      -3.418  12.920  11.835  1.00  0.00     0.135 A 
ATOM     74  C   UNL     1      -2.190  10.876  12.126  1.00  0.00     0.135 A 
ATOM     75  F   UNL     1      -3.539  14.156  11.327  1.00  0.00    -0.206 F 
ATOM     76  C   UNL     1      -4.445  12.431  12.636  1.00  0.00     0.059 A 
ATOM     77  C   UNL     1      -3.215  10.355  12.910  1.00  0.00     0.059 A 
ATOM     78  F   UNL     1      -1.120  10.102  11.883  1.00  0.00    -0.206 F 
ATOM     79  C   UNL     1      -4.334  11.146  13.169  1.00  0.00     0.060 A 
BRANCH  79  80
ATOM     80  S   UNL     1      -5.693  10.498  14.168  1.00  0.00     0.124 S 
ATOM     81  O   UNL     1      -5.488  11.198  15.430  1.00  0.00    -0.237 OA
ATOM     82  O   UNL     1      -6.864  10.902  13.396  1.00  0.00    -0.237 OA
ATOM     83  O   UNL     1      -5.434   9.061  14.191  1.00  0.00    -0.744 OA
ENDBRANCH  79  80
ENDBRANCH  47  72
BRANCH  59  84
ATOM     84  C   UNL     1       2.471  17.209  12.362  1.00  0.00     0.058 A 
ATOM     85  C   UNL     1       3.007  16.805  13.594  1.00  0.00     0.135 A 
ATOM     86  C   UNL     1       2.179  18.570  12.184  1.00  0.00     0.135 A 
ATOM     87  F   UNL     1       3.300  15.513  13.812  1.00  0.00    -0.206 F 
ATOM     88  C   UNL     1       3.207  17.711  14.629  1.00  0.00     0.059 A 
ATOM     89  C   UNL     1       2.395  19.498  13.197  1.00  0.00     0.059 A 
ATOM     90  F   UNL     1       1.678  19.009  11.018  1.00  0.00    -0.206 F 
ATOM     91  C   UNL     1       2.890  19.055  14.423  1.00  0.00     0.060 A 
BRANCH  91  92
ATOM     92  S   UNL     1       3.148  20.223  15.774  1.00  0.00     0.124 S 
ATOM     93  O   UNL     1       1.993  19.947  16.623  1.00  0.00    -0.237 OA
ATOM     94  O   UNL     1       4.441  19.808  16.308  1.00  0.00    -0.237 OA
ATOM     95  O   UNL     1       3.141  21.521  15.105  1.00  0.00    -0.744 OA
ENDBRANCH  91  92
ENDBRANCH  59  84
ENDBRANCH  33  34
ENDBRANCH  25  28
ENDBRANCH  23  24
ENDBRANCH  22  23
ENDBRANCH   1  22
TORSDOF 18
