REMARK SMILES CNC(=O)C[N@H+]1CC[C@@H](C(=O)NCCCCNC(=O)c2ccc(-c3c4nc(c(-c5c(F)cc(S(=O)(=O)[O-])cc5F)c5ccc([nH]5)c(-c5c(F)cc(S(=O)(=O)[O-])cc5F)c5nc(c(-c6c(F)cc(S(=O)(=O)[O-])cc6F)c6ccc3[nH]6)C=C5)C=C4)cc2)[C@H]1C
REMARK SMILES IDX 15 1 14 2 13 3 12 4 10 5 11 6 9 8 6 9 7 10 86 11 8 13 87 14
REMARK SMILES IDX 5 15 3 16 1 17 2 18 4 20 16 21 17 22 18 23 19 25 20 26 21 27
REMARK SMILES IDX 85 28 22 29 84 30 23 31 24 32 25 33 78 34 26 35 83 36 77 37
REMARK SMILES IDX 79 38 27 39 82 40 76 41 75 42 28 44 62 45 41 46 61 47 42 48
REMARK SMILES IDX 45 49 60 50 80 51 43 52 44 53 59 55 81 56 46 57 29 58 30 59
REMARK SMILES IDX 39 60 31 61 32 62 38 63 40 64 33 65 34 66 35 67 36 68 37 69
REMARK SMILES IDX 63 70 64 71 73 72 65 73 66 74 72 75 74 76 67 77 68 78 69 79
REMARK SMILES IDX 70 80 71 81 47 82 48 83 57 84 49 85 50 86 56 87 58 88 51 89
REMARK SMILES IDX 52 90 53 91 54 92 55 93
REMARK H PARENT 12 7 6 12 2 19 17 24 79 43 45 54
REMARK Flexibility Score: inf
ROOT
ATOM      1  C   UNL     1      -3.307  -7.552  -1.718  1.00  0.00     0.023 C 
ENDROOT
BRANCH   1   2
ATOM      2  C   UNL     1      -2.683  -6.163  -1.631  1.00  0.00     0.023 C 
BRANCH   2   3
ATOM      3  C   UNL     1      -1.640  -5.988  -0.527  1.00  0.00     0.116 C 
BRANCH   3   4
ATOM      4  N   UNL     1      -0.422  -6.712  -0.833  1.00  0.00    -0.356 N 
ATOM      5  C   UNL     1       0.857  -6.284  -0.994  1.00  0.00     0.229 C 
ATOM      6  O   UNL     1       1.692  -7.128  -1.336  1.00  0.00    -0.275 OA
ATOM      7  H   UNL     1      -0.542  -7.683  -0.944  1.00  0.00     0.163 HD
BRANCH   5   8
ATOM      8  C   UNL     1       1.299  -4.851  -0.732  1.00  0.00     0.142 C 
ATOM      9  N   UNL     1       0.434  -2.645  -0.808  1.00  0.00    -0.324 N 
ATOM     10  C   UNL     1       0.786  -2.879   0.572  1.00  0.00     0.263 C 
ATOM     11  C   UNL     1       0.865  -3.725  -1.691  1.00  0.00     0.194 C 
ATOM     12  H   UNL     1       1.007  -1.887  -1.178  1.00  0.00     0.348 HD
ATOM     13  C   UNL     1       1.003  -4.373   0.687  1.00  0.00     0.081 C 
ATOM     14  C   UNL     1      -0.066  -4.093  -2.840  1.00  0.00     0.076 C 
BRANCH   9  15
ATOM     15  C   UNL     1      -0.644  -1.729  -1.127  1.00  0.00     0.363 C 
BRANCH  15  16
ATOM     16  C   UNL     1      -0.138  -0.548  -1.959  1.00  0.00     0.274 C 
ATOM     17  C   UNL     1       0.947   0.552   0.039  1.00  0.00     0.143 C 
ATOM     18  N   UNL     1       0.533   0.471  -1.339  1.00  0.00    -0.354 N 
ATOM     19  H   UNL     1       0.761   1.244  -1.904  1.00  0.00     0.163 HD
ATOM     20  O   UNL     1      -0.339  -0.469  -3.172  1.00  0.00    -0.269 OA
ENDBRANCH  15  16
ENDBRANCH   9  15
ENDBRANCH   5   8
ENDBRANCH   3   4
ENDBRANCH   2   3
ENDBRANCH   1   2
BRANCH   1  21
ATOM     21  C   UNL     1      -4.035  -8.009  -0.464  1.00  0.00     0.116 C 
BRANCH  21  22
ATOM     22  N   UNL     1      -5.096  -7.098  -0.058  1.00  0.00    -0.352 N 
ATOM     23  C   UNL     1      -6.421  -7.368   0.203  1.00  0.00     0.251 C 
ATOM     24  H   UNL     1      -4.828  -6.156   0.046  1.00  0.00     0.163 HD
ATOM     25  O   UNL     1      -7.209  -6.456   0.403  1.00  0.00    -0.269 OA
BRANCH  23  26
ATOM     26  C   UNL     1      -6.877  -8.774   0.204  1.00  0.00     0.039 A 
ATOM     27  C   UNL     1      -8.017  -9.120  -0.525  1.00  0.00     0.014 A 
ATOM     28  C   UNL     1      -6.144  -9.751   0.881  1.00  0.00     0.014 A 
ATOM     29  C   UNL     1      -8.375 -10.465  -0.640  1.00  0.00     0.010 A 
ATOM     30  C   UNL     1      -6.448 -11.092   0.689  1.00  0.00     0.010 A 
ATOM     31  C   UNL     1      -7.569 -11.464  -0.069  1.00  0.00    -0.014 A 
BRANCH  31  32
ATOM     32  C   UNL     1      -7.881 -12.905  -0.234  1.00  0.00     0.031 A 
ATOM     33  C   UNL     1      -8.179 -13.745   0.979  1.00  0.00     0.074 A 
ATOM     34  C   UNL     1      -7.813 -13.472  -1.455  1.00  0.00     0.049 A 
ATOM     35  N   UNL     1      -8.367 -15.036   1.065  1.00  0.00    -0.248 NA
ATOM     36  C   UNL     1      -8.232 -13.044   2.273  1.00  0.00     0.031 C 
ATOM     37  C   UNL     1      -7.472 -12.775  -2.697  1.00  0.00     0.029 A 
ATOM     38  N   UNL     1      -8.012 -14.771  -1.850  1.00  0.00    -0.354 N 
ATOM     39  C   UNL     1      -8.532 -15.303   2.418  1.00  0.00     0.074 A 
ATOM     40  C   UNL     1      -8.366 -14.051   3.122  1.00  0.00     0.031 C 
ATOM     41  C   UNL     1      -7.510 -13.648  -3.718  1.00  0.00     0.029 A 
ATOM     42  C   UNL     1      -7.843 -14.971  -3.200  1.00  0.00     0.049 A 
ATOM     43  H   UNL     1      -8.254 -15.492  -1.225  1.00  0.00     0.167 HD
ATOM     44  C   UNL     1      -8.823 -16.481   3.019  1.00  0.00     0.037 A 
ATOM     45  C   UNL     1      -7.943 -16.095  -3.935  1.00  0.00     0.037 A 
ATOM     46  C   UNL     1      -9.035 -17.713   2.308  1.00  0.00     0.049 A 
ATOM     47  C   UNL     1      -8.304 -17.385  -3.251  1.00  0.00     0.074 A 
ATOM     48  C   UNL     1      -9.407 -18.946   2.813  1.00  0.00     0.029 A 
ATOM     49  N   UNL     1      -8.900 -17.865   0.936  1.00  0.00    -0.354 N 
ATOM     50  N   UNL     1      -8.518 -17.609  -1.976  1.00  0.00    -0.248 NA
ATOM     51  C   UNL     1      -8.443 -18.574  -4.103  1.00  0.00     0.031 C 
ATOM     52  C   UNL     1      -9.469 -19.852   1.748  1.00  0.00     0.029 A 
ATOM     53  C   UNL     1      -9.171 -19.174   0.576  1.00  0.00     0.049 A 
ATOM     54  H   UNL     1      -8.649 -17.148   0.310  1.00  0.00     0.167 HD
ATOM     55  C   UNL     1      -8.839 -18.958  -1.876  1.00  0.00     0.074 A 
ATOM     56  C   UNL     1      -8.803 -19.496  -3.220  1.00  0.00     0.031 C 
ATOM     57  C   UNL     1      -9.135 -19.686  -0.771  1.00  0.00     0.037 A 
BRANCH  44  58
ATOM     58  C   UNL     1      -8.943 -16.482   4.518  1.00  0.00     0.058 A 
ATOM     59  C   UNL     1     -10.019 -15.857   5.170  1.00  0.00     0.135 A 
ATOM     60  C   UNL     1      -7.978 -17.121   5.313  1.00  0.00     0.135 A 
ATOM     61  F   UNL     1     -10.960 -15.216   4.459  1.00  0.00    -0.206 F 
ATOM     62  C   UNL     1     -10.114 -15.832   6.557  1.00  0.00     0.059 A 
ATOM     63  C   UNL     1      -8.069 -17.132   6.702  1.00  0.00     0.059 A 
ATOM     64  F   UNL     1      -6.929 -17.732   4.742  1.00  0.00    -0.206 F 
ATOM     65  C   UNL     1      -9.131 -16.469   7.315  1.00  0.00     0.060 A 
BRANCH  65  66
ATOM     66  S   UNL     1      -9.262 -16.420   9.115  1.00  0.00     0.124 S 
ATOM     67  O   UNL     1      -8.846 -15.050   9.398  1.00  0.00    -0.237 OA
ATOM     68  O   UNL     1     -10.676 -16.710   9.335  1.00  0.00    -0.237 OA
ATOM     69  O   UNL     1      -8.337 -17.461   9.551  1.00  0.00    -0.744 OA
ENDBRANCH  65  66
ENDBRANCH  44  58
BRANCH  45  70
ATOM     70  C   UNL     1      -7.731 -16.043  -5.406  1.00  0.00     0.058 A 
ATOM     71  C   UNL     1      -8.813 -16.166  -6.291  1.00  0.00     0.135 A 
ATOM     72  C   UNL     1      -6.455 -15.848  -5.956  1.00  0.00     0.135 A 
ATOM     73  F   UNL     1     -10.051 -16.358  -5.812  1.00  0.00    -0.206 F 
ATOM     74  C   UNL     1      -8.637 -16.112  -7.669  1.00  0.00     0.059 A 
ATOM     75  C   UNL     1      -6.256 -15.769  -7.331  1.00  0.00     0.059 A 
ATOM     76  F   UNL     1      -5.391 -15.707  -5.151  1.00  0.00    -0.206 F 
ATOM     77  C   UNL     1      -7.354 -15.911  -8.181  1.00  0.00     0.060 A 
BRANCH  77  78
ATOM     78  S   UNL     1      -7.143 -15.788  -9.970  1.00  0.00     0.124 S 
ATOM     79  O   UNL     1      -7.281 -17.181 -10.379  1.00  0.00    -0.237 OA
ATOM     80  O   UNL     1      -8.239 -14.900 -10.348  1.00  0.00    -0.237 OA
ATOM     81  O   UNL     1      -5.808 -15.216 -10.111  1.00  0.00    -0.744 OA
ENDBRANCH  77  78
ENDBRANCH  45  70
BRANCH  57  82
ATOM     82  C   UNL     1      -9.470 -21.137  -0.971  1.00  0.00     0.058 A 
ATOM     83  C   UNL     1      -8.477 -22.086  -1.257  1.00  0.00     0.135 A 
ATOM     84  C   UNL     1     -10.790 -21.589  -0.820  1.00  0.00     0.135 A 
ATOM     85  F   UNL     1      -7.201 -21.702  -1.417  1.00  0.00    -0.206 F 
ATOM     86  C   UNL     1      -8.785 -23.434  -1.404  1.00  0.00     0.059 A 
ATOM     87  C   UNL     1     -11.117 -22.936  -0.939  1.00  0.00     0.059 A 
ATOM     88  F   UNL     1     -11.774 -20.721  -0.536  1.00  0.00    -0.206 F 
ATOM     89  C   UNL     1     -10.108 -23.849  -1.242  1.00  0.00     0.060 A 
BRANCH  89  90
ATOM     90  S   UNL     1     -10.490 -25.607  -1.396  1.00  0.00     0.124 S 
ATOM     91  O   UNL     1     -10.445 -25.791  -2.843  1.00  0.00    -0.237 OA
ATOM     92  O   UNL     1      -9.406 -26.232  -0.644  1.00  0.00    -0.237 OA
ATOM     93  O   UNL     1     -11.812 -25.721  -0.788  1.00  0.00    -0.744 OA
ENDBRANCH  89  90
ENDBRANCH  57  82
ENDBRANCH  31  32
ENDBRANCH  23  26
ENDBRANCH  21  22
ENDBRANCH   1  21
TORSDOF 16
