REMARK SMILES CC(C)N(CC1CC1)C(=O)N1CC[C@H](C(=O)NCCCCNC(=O)c2ccc(-c3c4nc(c(-c5c(F)cc(S(=O)(=O)[O-])cc5F)c5ccc([nH]5)c(-c5c(F)cc(S(=O)(=O)[O-])cc5F)c5nc(c(-c6c(F)cc(S(=O)(=O)[O-])cc6F)c6ccc3[nH]6)C=C5)C=C4)cc2)[C@H]1C
REMARK SMILES IDX 19 1 18 2 17 3 15 4 16 5 14 7 11 8 12 9 91 10 13 11 92 12
REMARK SMILES IDX 9 13 10 14 4 15 2 16 1 17 3 18 5 19 6 20 7 21 8 22 20 23
REMARK SMILES IDX 21 24 22 25 23 26 24 28 25 29 26 30 90 31 27 32 89 33 28 34
REMARK SMILES IDX 29 35 30 36 83 37 31 38 88 39 82 40 84 41 32 42 87 43 81 44
REMARK SMILES IDX 80 45 33 47 67 48 46 49 66 50 47 51 50 52 65 53 85 54 48 55
REMARK SMILES IDX 49 56 64 58 86 59 51 60 34 61 35 62 44 63 36 64 37 65 43 66
REMARK SMILES IDX 45 67 38 68 39 69 40 70 41 71 42 72 68 73 69 74 78 75 70 76
REMARK SMILES IDX 71 77 77 78 79 79 72 80 73 81 74 82 75 83 76 84 52 85 53 86
REMARK SMILES IDX 62 87 54 88 55 89 61 90 63 91 56 92 57 93 58 94 59 95 60 96
REMARK H PARENT 17 6 22 27 84 46 50 57
REMARK Flexibility Score: inf
ROOT
ATOM      1  C   UNL     1      -9.134   1.720   3.177  1.00  0.00     0.023 C 
ENDROOT
BRANCH   1   2
ATOM      2  C   UNL     1      -7.877   1.990   2.361  1.00  0.00     0.116 C 
BRANCH   2   3
ATOM      3  N   UNL     1      -6.670   1.815   3.149  1.00  0.00    -0.356 N 
ATOM      4  C   UNL     1      -5.547   1.101   2.826  1.00  0.00     0.225 C 
ATOM      5  O   UNL     1      -4.639   1.014   3.646  1.00  0.00    -0.275 OA
ATOM      6  H   UNL     1      -6.658   2.265   4.024  1.00  0.00     0.163 HD
BRANCH   4   7
ATOM      7  C   UNL     1      -5.518   0.445   1.457  1.00  0.00     0.102 C 
ATOM      8  N   UNL     1      -3.256   0.254   0.742  1.00  0.00    -0.321 N 
ATOM      9  C   UNL     1      -3.769   1.550   0.294  1.00  0.00     0.122 C 
ATOM     10  C   UNL     1      -4.367  -0.556   1.252  1.00  0.00     0.096 C 
ATOM     11  C   UNL     1      -5.283   1.459   0.344  1.00  0.00     0.037 C 
ATOM     12  C   UNL     1      -4.896  -1.604   0.249  1.00  0.00     0.032 C 
BRANCH   8  13
ATOM     13  C   UNL     1      -1.903   0.211   1.014  1.00  0.00     0.320 C 
ATOM     14  O   UNL     1      -1.268   1.270   0.914  1.00  0.00    -0.248 OA
BRANCH  13  15
ATOM     15  N   UNL     1      -1.230  -0.963   1.317  1.00  0.00    -0.322 N 
BRANCH  15  16
ATOM     16  C   UNL     1       0.256  -0.890   1.416  1.00  0.00     0.080 C 
ATOM     17  C   UNL     1       0.921  -0.297   0.160  1.00  0.00     0.031 C 
ATOM     18  C   UNL     1       0.749  -0.208   2.691  1.00  0.00     0.031 C 
ENDBRANCH  15  16
BRANCH  15  19
ATOM     19  C   UNL     1      -1.768  -2.320   1.347  1.00  0.00     0.125 C 
BRANCH  19  20
ATOM     20  C   UNL     1      -2.123  -2.819   2.722  1.00  0.00     0.009 C 
ATOM     21  C   UNL     1      -3.525  -3.115   3.233  1.00  0.00     0.006 C 
ATOM     22  C   UNL     1      -2.633  -4.244   2.838  1.00  0.00     0.006 C 
ENDBRANCH  19  20
ENDBRANCH  15  19
ENDBRANCH  13  15
ENDBRANCH   8  13
ENDBRANCH   4   7
ENDBRANCH   2   3
ENDBRANCH   1   2
BRANCH   1  23
ATOM     23  C   UNL     1      -9.419   2.763   4.254  1.00  0.00     0.023 C 
BRANCH  23  24
ATOM     24  C   UNL     1      -9.432   4.206   3.762  1.00  0.00     0.116 C 
BRANCH  24  25
ATOM     25  N   UNL     1     -10.386   4.428   2.685  1.00  0.00    -0.352 N 
ATOM     26  C   UNL     1     -11.357   5.397   2.572  1.00  0.00     0.251 C 
ATOM     27  H   UNL     1     -10.329   3.796   1.933  1.00  0.00     0.163 HD
ATOM     28  O   UNL     1     -12.170   5.346   1.663  1.00  0.00    -0.269 OA
BRANCH  26  29
ATOM     29  C   UNL     1     -11.422   6.474   3.584  1.00  0.00     0.039 A 
ATOM     30  C   UNL     1     -12.655   6.785   4.159  1.00  0.00     0.014 A 
ATOM     31  C   UNL     1     -10.265   7.145   3.988  1.00  0.00     0.014 A 
ATOM     32  C   UNL     1     -12.715   7.719   5.195  1.00  0.00     0.010 A 
ATOM     33  C   UNL     1     -10.314   8.011   5.075  1.00  0.00     0.010 A 
ATOM     34  C   UNL     1     -11.539   8.308   5.691  1.00  0.00    -0.014 A 
BRANCH  34  35
ATOM     35  C   UNL     1     -11.570   9.235   6.852  1.00  0.00     0.031 A 
ATOM     36  C   UNL     1     -11.125  10.664   6.686  1.00  0.00     0.074 A 
ATOM     37  C   UNL     1     -11.943   8.778   8.065  1.00  0.00     0.049 A 
ATOM     38  N   UNL     1     -11.003  11.601   7.590  1.00  0.00    -0.248 NA
ATOM     39  C   UNL     1     -10.743  11.089   5.329  1.00  0.00     0.031 C 
ATOM     40  C   UNL     1     -12.357   7.404   8.364  1.00  0.00     0.029 A 
ATOM     41  N   UNL     1     -12.028   9.416   9.277  1.00  0.00    -0.354 N 
ATOM     42  C   UNL     1     -10.531  12.720   6.915  1.00  0.00     0.074 A 
ATOM     43  C   UNL     1     -10.327  12.329   5.538  1.00  0.00     0.031 C 
ATOM     44  C   UNL     1     -12.674   7.311   9.665  1.00  0.00     0.029 A 
ATOM     45  C   UNL     1     -12.446   8.602  10.305  1.00  0.00     0.049 A 
ATOM     46  H   UNL     1     -11.809  10.368   9.400  1.00  0.00     0.167 HD
ATOM     47  C   UNL     1     -10.317  13.969   7.392  1.00  0.00     0.037 A 
ATOM     48  C   UNL     1     -12.615   8.865  11.616  1.00  0.00     0.037 A 
ATOM     49  C   UNL     1     -10.541  14.360   8.760  1.00  0.00     0.049 A 
ATOM     50  C   UNL     1     -12.337  10.256  12.126  1.00  0.00     0.074 A 
ATOM     51  C   UNL     1     -10.383  15.609   9.334  1.00  0.00     0.029 A 
ATOM     52  N   UNL     1     -10.975  13.510   9.766  1.00  0.00    -0.354 N 
ATOM     53  N   UNL     1     -11.940  11.315  11.461  1.00  0.00    -0.248 NA
ATOM     54  C   UNL     1     -12.536  10.489  13.563  1.00  0.00     0.031 C 
ATOM     55  C   UNL     1     -10.681  15.506  10.696  1.00  0.00     0.029 A 
ATOM     56  C   UNL     1     -11.077  14.205  10.960  1.00  0.00     0.049 A 
ATOM     57  H   UNL     1     -11.180  12.554   9.649  1.00  0.00     0.167 HD
ATOM     58  C   UNL     1     -11.879  12.347  12.392  1.00  0.00     0.074 A 
ATOM     59  C   UNL     1     -12.291  11.788  13.662  1.00  0.00     0.031 C 
ATOM     60  C   UNL     1     -11.513  13.640  12.212  1.00  0.00     0.037 A 
BRANCH  47  61
ATOM     61  C   UNL     1      -9.837  15.017   6.426  1.00  0.00     0.058 A 
ATOM     62  C   UNL     1     -10.679  15.530   5.426  1.00  0.00     0.135 A 
ATOM     63  C   UNL     1      -8.547  15.561   6.538  1.00  0.00     0.135 A 
ATOM     64  F   UNL     1     -11.915  15.033   5.261  1.00  0.00    -0.206 F 
ATOM     65  C   UNL     1     -10.255  16.534   4.562  1.00  0.00     0.059 A 
ATOM     66  C   UNL     1      -8.112  16.587   5.703  1.00  0.00     0.059 A 
ATOM     67  F   UNL     1      -7.700  15.105   7.474  1.00  0.00    -0.206 F 
ATOM     68  C   UNL     1      -8.972  17.061   4.713  1.00  0.00     0.060 A 
BRANCH  68  69
ATOM     69  S   UNL     1      -8.454  18.389   3.605  1.00  0.00     0.124 S 
ATOM     70  O   UNL     1      -8.306  17.673   2.341  1.00  0.00    -0.237 OA
ATOM     71  O   UNL     1      -9.581  19.313   3.681  1.00  0.00    -0.237 OA
ATOM     72  O   UNL     1      -7.212  18.867   4.203  1.00  0.00    -0.744 OA
ENDBRANCH  68  69
ENDBRANCH  47  61
BRANCH  48  73
ATOM     73  C   UNL     1     -13.077   7.799  12.548  1.00  0.00     0.058 A 
ATOM     74  C   UNL     1     -14.334   7.878  13.168  1.00  0.00     0.135 A 
ATOM     75  C   UNL     1     -12.261   6.703  12.868  1.00  0.00     0.135 A 
ATOM     76  F   UNL     1     -15.150   8.908  12.899  1.00  0.00    -0.206 F 
ATOM     77  C   UNL     1     -14.750   6.932  14.100  1.00  0.00     0.059 A 
ATOM     78  C   UNL     1     -12.667   5.727  13.773  1.00  0.00     0.059 A 
ATOM     79  F   UNL     1     -11.057   6.568  12.290  1.00  0.00    -0.206 F 
ATOM     80  C   UNL     1     -13.905   5.862  14.400  1.00  0.00     0.060 A 
BRANCH  80  81
ATOM     81  S   UNL     1     -14.454   4.638  15.610  1.00  0.00     0.124 S 
ATOM     82  O   UNL     1     -14.320   5.381  16.858  1.00  0.00    -0.237 OA
ATOM     83  O   UNL     1     -15.819   4.364  15.171  1.00  0.00    -0.237 OA
ATOM     84  O   UNL     1     -13.511   3.539  15.424  1.00  0.00    -0.744 OA
ENDBRANCH  80  81
ENDBRANCH  48  73
BRANCH  60  85
ATOM     85  C   UNL     1     -11.595  14.557  13.402  1.00  0.00     0.058 A 
ATOM     86  C   UNL     1     -10.689  14.469  14.470  1.00  0.00     0.135 A 
ATOM     87  C   UNL     1     -12.563  15.574  13.446  1.00  0.00     0.135 A 
ATOM     88  F   UNL     1      -9.747  13.511  14.480  1.00  0.00    -0.206 F 
ATOM     89  C   UNL     1     -10.756  15.339  15.553  1.00  0.00     0.059 A 
ATOM     90  C   UNL     1     -12.629  16.475  14.504  1.00  0.00     0.059 A 
ATOM     91  F   UNL     1     -13.447  15.710  12.445  1.00  0.00    -0.206 F 
ATOM     92  C   UNL     1     -11.728  16.341  15.559  1.00  0.00     0.060 A 
BRANCH  92  93
ATOM     93  S   UNL     1     -11.781  17.486  16.954  1.00  0.00     0.124 S 
ATOM     94  O   UNL     1     -12.326  16.639  18.009  1.00  0.00    -0.237 OA
ATOM     95  O   UNL     1     -10.378  17.860  17.103  1.00  0.00    -0.237 OA
ATOM     96  O   UNL     1     -12.662  18.552  16.486  1.00  0.00    -0.744 OA
ENDBRANCH  92  93
ENDBRANCH  60  85
ENDBRANCH  34  35
ENDBRANCH  26  29
ENDBRANCH  24  25
ENDBRANCH  23  24
ENDBRANCH   1  23
TORSDOF 19
