REMARK SMILES COc1ccc([C@H](NC(=O)[C@H]2CC(C)=C(C)C[C@@H]2C(=O)NCCCCNC(=O)c2ccc(-c3c4nc(c(-c5c(F)cc(S(=O)(=O)[O-])cc5F)c5ccc([nH]5)c(-c5c(F)cc(S(=O)(=O)[O-])cc5F)c5nc(c(-c6c(F)cc(S(=O)(=O)[O-])cc6F)c6ccc3[nH]6)C=C5)C=C4)cc2)c2ccccc2)cc1
REMARK SMILES IDX 23 1 22 2 21 3 19 4 20 5 18 7 11 8 12 9 13 10 17 11 14 12
REMARK SMILES IDX 15 13 16 14 9 15 8 16 10 18 7 19 6 20 3 21 4 22 102 23 5 24
REMARK SMILES IDX 101 25 2 26 1 27 95 28 96 29 100 30 97 31 99 32 98 33 24 34
REMARK SMILES IDX 25 35 26 36 27 37 28 39 29 40 30 41 94 42 31 43 93 44 32 45
REMARK SMILES IDX 33 46 34 47 87 48 35 49 92 50 86 51 88 52 36 53 91 54 85 55
REMARK SMILES IDX 84 56 37 58 71 59 50 60 70 61 51 62 54 63 69 64 89 65 52 66
REMARK SMILES IDX 53 67 68 69 90 70 55 71 38 72 39 73 48 74 40 75 41 76 47 77
REMARK SMILES IDX 49 78 42 79 43 80 44 81 45 82 46 83 72 84 73 85 82 86 74 87
REMARK SMILES IDX 75 88 81 89 83 90 76 91 77 92 78 93 79 94 80 95 56 96 57 97
REMARK SMILES IDX 66 98 58 99 59 100 65 101 67 102 60 103 61 104 62 105 63 106
REMARK SMILES IDX 64 107
REMARK H PARENT 21 6 8 17 26 38 88 57 54 68
REMARK Flexibility Score: inf
ROOT
ATOM      1  C   UNL     1      -0.437   1.575  -2.809  1.00  0.00     0.023 C 
ENDROOT
BRANCH   1   2
ATOM      2  C   UNL     1      -1.314   0.446  -2.252  1.00  0.00     0.116 C 
BRANCH   2   3
ATOM      3  N   UNL     1      -2.493   0.288  -3.072  1.00  0.00    -0.356 N 
ATOM      4  C   UNL     1      -2.745  -0.470  -4.168  1.00  0.00     0.224 C 
ATOM      5  O   UNL     1      -3.844  -0.258  -4.692  1.00  0.00    -0.275 OA
ATOM      6  H   UNL     1      -3.258   0.834  -2.779  1.00  0.00     0.163 HD
BRANCH   4   7
ATOM      7  C   UNL     1      -1.818  -1.609  -4.656  1.00  0.00     0.095 C 
ATOM      8  C   UNL     1      -0.329  -1.332  -4.774  1.00  0.00     0.095 C 
ATOM      9  C   UNL     1      -0.176  -0.506  -6.039  1.00  0.00     0.045 C 
ATOM     10  C   UNL     1      -0.138  -1.334  -7.501  1.00  0.00    -0.074 C 
ATOM     11  C   UNL     1      -2.288  -2.120  -6.033  1.00  0.00     0.045 C 
ATOM     12  C   UNL     1       1.504  -1.345  -8.901  1.00  0.00     0.039 C 
ATOM     13  C   UNL     1      -1.488  -1.909  -7.380  1.00  0.00    -0.074 C 
ATOM     14  C   UNL     1      -2.456  -2.550  -8.412  1.00  0.00     0.039 C 
BRANCH   8  15
ATOM     15  C   UNL     1       0.497  -2.554  -4.322  1.00  0.00     0.224 C 
ATOM     16  N   UNL     1       1.782  -2.800  -4.679  1.00  0.00    -0.345 N 
ATOM     17  H   UNL     1       2.429  -2.769  -3.938  1.00  0.00     0.164 HD
ATOM     18  O   UNL     1       0.115  -3.202  -3.334  1.00  0.00    -0.275 OA
BRANCH  16  19
ATOM     19  C   UNL     1       2.362  -3.103  -5.982  1.00  0.00     0.143 C 
BRANCH  19  20
ATOM     20  C   UNL     1       2.552  -4.592  -6.278  1.00  0.00    -0.021 A 
ATOM     21  C   UNL     1       2.966  -7.315  -6.960  1.00  0.00     0.118 A 
ATOM     22  C   UNL     1       3.386  -6.304  -7.818  1.00  0.00     0.047 A 
ATOM     23  C   UNL     1       2.373  -6.973  -5.746  1.00  0.00     0.047 A 
ATOM     24  C   UNL     1       3.199  -4.964  -7.475  1.00  0.00     0.010 A 
ATOM     25  C   UNL     1       2.158  -5.624  -5.412  1.00  0.00     0.010 A 
BRANCH  21  26
ATOM     26  O   UNL     1       3.219  -8.584  -7.403  1.00  0.00    -0.497 OA
ATOM     27  C   UNL     1       2.416  -9.614  -6.841  1.00  0.00     0.278 C 
ENDBRANCH  21  26
ENDBRANCH  19  20
BRANCH  19  28
ATOM     28  C   UNL     1       1.700  -2.342  -7.083  1.00  0.00    -0.021 A 
ATOM     29  C   UNL     1       0.656  -3.147  -8.340  1.00  0.00     0.006 A 
ATOM     30  C   UNL     1       1.891  -0.542  -7.077  1.00  0.00     0.006 A 
ATOM     31  C   UNL     1      -0.250  -2.132  -9.545  1.00  0.00     0.000 A 
ATOM     32  C   UNL     1       0.859   0.481  -8.193  1.00  0.00     0.000 A 
ATOM     33  C   UNL     1      -0.208  -0.313  -9.414  1.00  0.00     0.000 A 
ENDBRANCH  19  28
ENDBRANCH  16  19
ENDBRANCH   8  15
ENDBRANCH   4   7
ENDBRANCH   2   3
ENDBRANCH   1   2
BRANCH   1  34
ATOM     34  C   UNL     1      -0.947   2.987  -2.513  1.00  0.00     0.023 C 
BRANCH  34  35
ATOM     35  C   UNL     1      -1.126   3.293  -1.034  1.00  0.00     0.116 C 
BRANCH  35  36
ATOM     36  N   UNL     1       0.068   3.025  -0.245  1.00  0.00    -0.352 N 
ATOM     37  C   UNL     1       0.397   3.558   0.977  1.00  0.00     0.251 C 
ATOM     38  H   UNL     1       0.712   2.389  -0.631  1.00  0.00     0.163 HD
ATOM     39  O   UNL     1       1.487   3.334   1.489  1.00  0.00    -0.269 OA
BRANCH  37  40
ATOM     40  C   UNL     1      -0.579   4.451   1.629  1.00  0.00     0.039 A 
ATOM     41  C   UNL     1      -0.185   5.746   1.967  1.00  0.00     0.014 A 
ATOM     42  C   UNL     1      -1.900   4.032   1.807  1.00  0.00     0.014 A 
ATOM     43  C   UNL     1      -1.141   6.649   2.430  1.00  0.00     0.010 A 
ATOM     44  C   UNL     1      -2.863   4.956   2.193  1.00  0.00     0.010 A 
ATOM     45  C   UNL     1      -2.492   6.271   2.510  1.00  0.00    -0.014 A 
BRANCH  45  46
ATOM     46  C   UNL     1      -3.535   7.241   2.925  1.00  0.00     0.031 A 
ATOM     47  C   UNL     1      -4.324   6.997   4.182  1.00  0.00     0.074 A 
ATOM     48  C   UNL     1      -3.819   8.293   2.131  1.00  0.00     0.049 A 
ATOM     49  N   UNL     1      -5.318   7.687   4.677  1.00  0.00    -0.248 NA
ATOM     50  C   UNL     1      -3.972   5.804   4.971  1.00  0.00     0.031 C 
ATOM     51  C   UNL     1      -3.169   8.589   0.851  1.00  0.00     0.029 A 
ATOM     52  N   UNL     1      -4.739   9.301   2.273  1.00  0.00    -0.354 N 
ATOM     53  C   UNL     1      -5.725   7.001   5.814  1.00  0.00     0.074 A 
ATOM     54  C   UNL     1      -4.902   5.817   5.915  1.00  0.00     0.031 C 
ATOM     55  C   UNL     1      -3.702   9.708   0.333  1.00  0.00     0.029 A 
ATOM     56  C   UNL     1      -4.752  10.191   1.224  1.00  0.00     0.049 A 
ATOM     57  H   UNL     1      -5.334   9.380   3.053  1.00  0.00     0.167 HD
ATOM     58  C   UNL     1      -6.686   7.341   6.705  1.00  0.00     0.037 A 
ATOM     59  C   UNL     1      -5.531  11.268   1.001  1.00  0.00     0.037 A 
ATOM     60  C   UNL     1      -7.464   8.549   6.622  1.00  0.00     0.049 A 
ATOM     61  C   UNL     1      -6.561  11.646   2.032  1.00  0.00     0.074 A 
ATOM     62  C   UNL     1      -8.389   9.036   7.527  1.00  0.00     0.029 A 
ATOM     63  N   UNL     1      -7.410   9.456   5.574  1.00  0.00    -0.354 N 
ATOM     64  N   UNL     1      -6.863  11.040   3.156  1.00  0.00    -0.248 NA
ATOM     65  C   UNL     1      -7.349  12.859   1.774  1.00  0.00     0.031 C 
ATOM     66  C   UNL     1      -8.931  10.214   7.005  1.00  0.00     0.029 A 
ATOM     67  C   UNL     1      -8.305  10.488   5.799  1.00  0.00     0.049 A 
ATOM     68  H   UNL     1      -6.823   9.377   4.788  1.00  0.00     0.167 HD
ATOM     69  C   UNL     1      -7.855  11.812   3.750  1.00  0.00     0.074 A 
ATOM     70  C   UNL     1      -8.091  12.938   2.870  1.00  0.00     0.031 C 
ATOM     71  C   UNL     1      -8.514  11.608   4.917  1.00  0.00     0.037 A 
BRANCH  58  72
ATOM     72  C   UNL     1      -6.947   6.410   7.855  1.00  0.00     0.058 A 
ATOM     73  C   UNL     1      -6.038   6.271   8.915  1.00  0.00     0.135 A 
ATOM     74  C   UNL     1      -8.160   5.705   7.934  1.00  0.00     0.135 A 
ATOM     75  F   UNL     1      -4.856   6.907   8.881  1.00  0.00    -0.206 F 
ATOM     76  C   UNL     1      -6.317   5.460  10.010  1.00  0.00     0.059 A 
ATOM     77  C   UNL     1      -8.471   4.909   9.032  1.00  0.00     0.059 A 
ATOM     78  F   UNL     1      -9.061   5.798   6.944  1.00  0.00    -0.206 F 
ATOM     79  C   UNL     1      -7.540   4.789  10.063  1.00  0.00     0.060 A 
BRANCH  79  80
ATOM     80  S   UNL     1      -7.906   3.781  11.515  1.00  0.00     0.124 S 
ATOM     81  O   UNL     1      -7.018   2.641  11.310  1.00  0.00    -0.237 OA
ATOM     82  O   UNL     1      -7.548   4.674  12.612  1.00  0.00    -0.237 OA
ATOM     83  O   UNL     1      -9.332   3.497  11.382  1.00  0.00    -0.744 OA
ENDBRANCH  79  80
ENDBRANCH  58  72
BRANCH  59  84
ATOM     84  C   UNL     1      -5.370  12.068  -0.244  1.00  0.00     0.058 A 
ATOM     85  C   UNL     1      -4.863  13.376  -0.207  1.00  0.00     0.135 A 
ATOM     86  C   UNL     1      -5.737  11.546  -1.494  1.00  0.00     0.135 A 
ATOM     87  F   UNL     1      -4.500  13.921   0.964  1.00  0.00    -0.206 F 
ATOM     88  C   UNL     1      -4.759  14.151  -1.357  1.00  0.00     0.059 A 
ATOM     89  C   UNL     1      -5.615  12.292  -2.663  1.00  0.00     0.059 A 
ATOM     90  F   UNL     1      -6.207  10.293  -1.589  1.00  0.00    -0.206 F 
ATOM     91  C   UNL     1      -5.141  13.600  -2.582  1.00  0.00     0.060 A 
BRANCH  91  92
ATOM     92  S   UNL     1      -4.988  14.607  -4.073  1.00  0.00     0.124 S 
ATOM     93  O   UNL     1      -6.106  15.531  -3.918  1.00  0.00    -0.237 OA
ATOM     94  O   UNL     1      -3.656  15.184  -3.919  1.00  0.00    -0.237 OA
ATOM     95  O   UNL     1      -5.119  13.631  -5.151  1.00  0.00    -0.744 OA
ENDBRANCH  91  92
ENDBRANCH  59  84
BRANCH  71  96
ATOM     96  C   UNL     1      -9.524  12.640   5.334  1.00  0.00     0.058 A 
ATOM     97  C   UNL     1     -10.765  12.760   4.691  1.00  0.00     0.135 A 
ATOM     98  C   UNL     1      -9.268  13.479   6.431  1.00  0.00     0.135 A 
ATOM     99  F   UNL     1     -11.056  11.984   3.634  1.00  0.00    -0.206 F 
ATOM    100  C   UNL     1     -11.710  13.692   5.106  1.00  0.00     0.059 A 
ATOM    101  C   UNL     1     -10.209  14.399   6.881  1.00  0.00     0.059 A 
ATOM    102  F   UNL     1      -8.100  13.396   7.088  1.00  0.00    -0.206 F 
ATOM    103  C   UNL     1     -11.423  14.506   6.204  1.00  0.00     0.060 A 
BRANCH 103 104
ATOM    104  S   UNL     1     -12.671  15.688   6.755  1.00  0.00     0.124 S 
ATOM    105  O   UNL     1     -12.580  16.713   5.721  1.00  0.00    -0.237 OA
ATOM    106  O   UNL     1     -13.889  14.884   6.745  1.00  0.00    -0.237 OA
ATOM    107  O   UNL     1     -12.201  16.086   8.078  1.00  0.00    -0.744 OA
ENDBRANCH 103 104
ENDBRANCH  71  96
ENDBRANCH  45  46
ENDBRANCH  37  40
ENDBRANCH  35  36
ENDBRANCH  34  35
ENDBRANCH   1  34
TORSDOF 19
