REMARK SMILES C[C@H](C(=O)NCCCCNC(=O)c1ccc(-c2c3nc(c(-c4c(F)cc(S(=O)(=O)[O-])cc4F)c4ccc([nH]4)c(-c4c(F)cc(S(=O)(=O)[O-])cc4F)c4nc(c(-c5c(F)cc(S(=O)(=O)[O-])cc5F)c5ccc2[nH]5)C=C4)C=C3)cc1)n1c(=O)ssc1=O
REMARK SMILES IDX 8 1 7 2 6 3 5 4 3 5 4 6 2 8 1 9 79 10 80 11 84 12 81 13
REMARK SMILES IDX 82 14 83 15 85 16 9 17 10 18 11 19 12 21 13 22 14 23 78 24
REMARK SMILES IDX 15 25 77 26 16 27 17 28 18 29 71 30 19 31 76 32 70 33 72 34
REMARK SMILES IDX 20 35 75 36 69 37 68 38 21 40 55 41 34 42 54 43 35 44 38 45
REMARK SMILES IDX 53 46 73 47 36 48 37 49 52 51 74 52 39 53 22 54 23 55 32 56
REMARK SMILES IDX 24 57 25 58 31 59 33 60 26 61 27 62 28 63 29 64 30 65 56 66
REMARK SMILES IDX 57 67 66 68 58 69 59 70 65 71 67 72 60 73 61 74 62 75 63 76
REMARK SMILES IDX 64 77 40 78 41 79 50 80 42 81 43 82 49 83 51 84 44 85 45 86
REMARK SMILES IDX 46 87 47 88 48 89
REMARK H PARENT 5 7 10 20 72 39 38 50
REMARK Flexibility Score: inf
ROOT
ATOM      1  C   UNL     1      -2.143  -2.611  -1.613  1.00  0.00     0.023 C 
ENDROOT
BRANCH   1   2
ATOM      2  C   UNL     1      -2.015  -1.455  -0.620  1.00  0.00     0.023 C 
BRANCH   2   3
ATOM      3  C   UNL     1      -0.824  -1.583   0.324  1.00  0.00     0.116 C 
BRANCH   3   4
ATOM      4  N   UNL     1       0.325  -0.860  -0.161  1.00  0.00    -0.354 N 
ATOM      5  C   UNL     1       0.802   0.394  -0.031  1.00  0.00     0.243 C 
ATOM      6  O   UNL     1       1.975   0.482  -0.433  1.00  0.00    -0.273 OA
ATOM      7  H   UNL     1       0.904  -1.420  -0.727  1.00  0.00     0.163 HD
BRANCH   5   8
ATOM      8  C   UNL     1       0.138   1.624   0.698  1.00  0.00     0.181 C 
ATOM      9  C   UNL     1       0.945   2.831   0.155  1.00  0.00     0.042 C 
BRANCH   8  10
ATOM     10  N   UNL     1      -1.336   1.804   0.621  1.00  0.00    -0.244 N 
ATOM     11  C   UNL     1      -2.135   1.093   1.493  1.00  0.00     0.321 A 
ATOM     12  C   UNL     1      -1.930   2.980   0.227  1.00  0.00     0.321 A 
ATOM     13  O   UNL     1      -1.758   0.486   2.473  1.00  0.00    -0.256 OA
ATOM     14  S   UNL     1      -3.860   1.249   1.146  1.00  0.00    -0.014 S 
ATOM     15  S   UNL     1      -3.626   2.762  -0.174  1.00  0.00    -0.014 S 
ATOM     16  O   UNL     1      -1.460   4.109   0.255  1.00  0.00    -0.256 OA
ENDBRANCH   8  10
ENDBRANCH   5   8
ENDBRANCH   3   4
ENDBRANCH   2   3
ENDBRANCH   1   2
BRANCH   1  17
ATOM     17  C   UNL     1      -2.438  -3.961  -0.967  1.00  0.00     0.116 C 
BRANCH  17  18
ATOM     18  N   UNL     1      -3.681  -3.994  -0.205  1.00  0.00    -0.352 N 
ATOM     19  C   UNL     1      -4.468  -5.097   0.045  1.00  0.00     0.251 C 
ATOM     20  H   UNL     1      -3.991  -3.137   0.169  1.00  0.00     0.163 HD
ATOM     21  O   UNL     1      -5.537  -4.997   0.633  1.00  0.00    -0.269 OA
BRANCH  19  22
ATOM     22  C   UNL     1      -3.997  -6.398  -0.465  1.00  0.00     0.039 A 
ATOM     23  C   UNL     1      -4.772  -7.082  -1.403  1.00  0.00     0.014 A 
ATOM     24  C   UNL     1      -2.717  -6.842  -0.126  1.00  0.00     0.014 A 
ATOM     25  C   UNL     1      -4.224  -8.180  -2.067  1.00  0.00     0.010 A 
ATOM     26  C   UNL     1      -2.147  -7.879  -0.850  1.00  0.00     0.010 A 
ATOM     27  C   UNL     1      -2.893  -8.557  -1.829  1.00  0.00    -0.014 A 
BRANCH  27  28
ATOM     28  C   UNL     1      -2.242  -9.665  -2.571  1.00  0.00     0.031 A 
ATOM     29  C   UNL     1      -1.732 -10.856  -1.810  1.00  0.00     0.074 A 
ATOM     30  C   UNL     1      -2.008  -9.552  -3.893  1.00  0.00     0.049 A 
ATOM     31  N   UNL     1      -0.985 -11.845  -2.222  1.00  0.00    -0.248 NA
ATOM     32  C   UNL     1      -2.074 -10.914  -0.379  1.00  0.00     0.031 C 
ATOM     33  C   UNL     1      -2.414  -8.425  -4.735  1.00  0.00     0.029 A 
ATOM     34  N   UNL     1      -1.344 -10.387  -4.758  1.00  0.00    -0.354 N 
ATOM     35  C   UNL     1      -0.738 -12.622  -1.097  1.00  0.00     0.074 A 
ATOM     36  C   UNL     1      -1.367 -11.958   0.024  1.00  0.00     0.031 C 
ATOM     37  C   UNL     1      -1.998  -8.642  -5.993  1.00  0.00     0.029 A 
ATOM     38  C   UNL     1      -1.257  -9.900  -6.040  1.00  0.00     0.049 A 
ATOM     39  H   UNL     1      -0.965 -11.254  -4.484  1.00  0.00     0.167 HD
ATOM     40  C   UNL     1      -0.064 -13.793  -1.008  1.00  0.00     0.037 A 
ATOM     41  C   UNL     1      -0.634 -10.399  -7.127  1.00  0.00     0.037 A 
ATOM     42  C   UNL     1       0.530 -14.460  -2.136  1.00  0.00     0.049 A 
ATOM     43  C   UNL     1       0.097 -11.709  -7.015  1.00  0.00     0.074 A 
ATOM     44  C   UNL     1       1.178 -15.681  -2.169  1.00  0.00     0.029 A 
ATOM     45  N   UNL     1       0.550 -13.959  -3.430  1.00  0.00    -0.354 N 
ATOM     46  N   UNL     1       0.276 -12.463  -5.956  1.00  0.00    -0.248 NA
ATOM     47  C   UNL     1       0.704 -12.243  -8.242  1.00  0.00     0.031 C 
ATOM     48  C   UNL     1       1.630 -15.898  -3.475  1.00  0.00     0.029 A 
ATOM     49  C   UNL     1       1.214 -14.839  -4.268  1.00  0.00     0.049 A 
ATOM     50  H   UNL     1       0.150 -13.104  -3.711  1.00  0.00     0.167 HD
ATOM     51  C   UNL     1       0.986 -13.575  -6.395  1.00  0.00     0.074 A 
ATOM     52  C   UNL     1       1.206 -13.395  -7.815  1.00  0.00     0.031 C 
ATOM     53  C   UNL     1       1.409 -14.651  -5.685  1.00  0.00     0.037 A 
BRANCH  40  54
ATOM     54  C   UNL     1       0.071 -14.409   0.357  1.00  0.00     0.058 A 
ATOM     55  C   UNL     1      -1.038 -14.919   1.054  1.00  0.00     0.135 A 
ATOM     56  C   UNL     1       1.324 -14.476   0.987  1.00  0.00     0.135 A 
ATOM     57  F   UNL     1      -2.263 -14.869   0.506  1.00  0.00    -0.206 F 
ATOM     58  C   UNL     1      -0.918 -15.420   2.346  1.00  0.00     0.059 A 
ATOM     59  C   UNL     1       1.472 -15.005   2.266  1.00  0.00     0.059 A 
ATOM     60  F   UNL     1       2.419 -14.007   0.368  1.00  0.00    -0.206 F 
ATOM     61  C   UNL     1       0.341 -15.451   2.946  1.00  0.00     0.060 A 
BRANCH  61  62
ATOM     62  S   UNL     1       0.474 -16.068   4.637  1.00  0.00     0.124 S 
ATOM     63  O   UNL     1      -0.089 -14.955   5.396  1.00  0.00    -0.237 OA
ATOM     64  O   UNL     1      -0.337 -17.280   4.593  1.00  0.00    -0.237 OA
ATOM     65  O   UNL     1       1.908 -16.282   4.808  1.00  0.00    -0.744 OA
ENDBRANCH  61  62
ENDBRANCH  40  54
BRANCH  41  66
ATOM     66  C   UNL     1      -0.703  -9.659  -8.415  1.00  0.00     0.058 A 
ATOM     67  C   UNL     1      -1.502 -10.123  -9.471  1.00  0.00     0.135 A 
ATOM     68  C   UNL     1      -0.022  -8.445  -8.597  1.00  0.00     0.135 A 
ATOM     69  F   UNL     1      -2.166 -11.283  -9.348  1.00  0.00    -0.206 F 
ATOM     70  C   UNL     1      -1.627  -9.411 -10.659  1.00  0.00     0.059 A 
ATOM     71  C   UNL     1      -0.149  -7.703  -9.768  1.00  0.00     0.059 A 
ATOM     72  F   UNL     1       0.742  -7.949  -7.612  1.00  0.00    -0.206 F 
ATOM     73  C   UNL     1      -0.954  -8.195 -10.794  1.00  0.00     0.060 A 
BRANCH  73  74
ATOM     74  S   UNL     1      -1.199  -7.234 -12.304  1.00  0.00     0.124 S 
ATOM     75  O   UNL     1      -0.458  -8.025 -13.280  1.00  0.00    -0.237 OA
ATOM     76  O   UNL     1      -2.652  -7.247 -12.442  1.00  0.00    -0.237 OA
ATOM     77  O   UNL     1      -0.621  -5.936 -11.973  1.00  0.00    -0.744 OA
ENDBRANCH  73  74
ENDBRANCH  41  66
BRANCH  53  78
ATOM     78  C   UNL     1       2.108 -15.753  -6.431  1.00  0.00     0.058 A 
ATOM     79  C   UNL     1       3.430 -15.624  -6.880  1.00  0.00     0.135 A 
ATOM     80  C   UNL     1       1.472 -16.994  -6.609  1.00  0.00     0.135 A 
ATOM     81  F   UNL     1       4.081 -14.457  -6.741  1.00  0.00    -0.206 F 
ATOM     82  C   UNL     1       4.098 -16.685  -7.484  1.00  0.00     0.059 A 
ATOM     83  C   UNL     1       2.129 -18.075  -7.186  1.00  0.00     0.059 A 
ATOM     84  F   UNL     1       0.209 -17.172  -6.189  1.00  0.00    -0.206 F 
ATOM     85  C   UNL     1       3.442 -17.910  -7.624  1.00  0.00     0.060 A 
BRANCH  85  86
ATOM     86  S   UNL     1       4.343 -19.298  -8.345  1.00  0.00     0.124 S 
ATOM     87  O   UNL     1       4.392 -18.918  -9.752  1.00  0.00    -0.237 OA
ATOM     88  O   UNL     1       5.614 -19.250  -7.629  1.00  0.00    -0.237 OA
ATOM     89  O   UNL     1       3.499 -20.449  -8.035  1.00  0.00    -0.744 OA
ENDBRANCH  85  86
ENDBRANCH  53  78
ENDBRANCH  27  28
ENDBRANCH  19  22
ENDBRANCH  17  18
ENDBRANCH   1  17
TORSDOF 15
