REMARK SMILES O=C(CCc1nc(-c2ccccc2)c(-c2ccccc2)o1)NCCCCNC(=O)c1ccc(-c2c3nc(c(-c4c(F)cc(S(=O)(=O)[O-])cc4F)c4ccc([nH]4)c(-c4c(F)cc(S(=O)(=O)[O-])cc4F)c4nc(c(-c5c(F)cc(S(=O)(=O)[O-])cc5F)c5ccc2[nH]5)C=C4)C=C3)cc1
REMARK SMILES IDX 24 1 23 2 22 3 1 4 2 5 3 7 4 8 5 9 6 10 21 11 7 12 14 13
REMARK SMILES IDX 8 14 9 15 13 16 10 17 12 18 11 19 15 20 16 21 20 22 17 23
REMARK SMILES IDX 19 24 18 25 25 26 26 27 27 28 28 29 29 31 30 32 31 33 95 34
REMARK SMILES IDX 32 35 94 36 33 37 34 38 35 39 88 40 36 41 93 42 87 43 89 44
REMARK SMILES IDX 37 45 92 46 86 47 85 48 38 50 72 51 51 52 71 53 52 54 55 55
REMARK SMILES IDX 70 56 90 57 53 58 54 59 69 61 91 62 56 63 39 64 40 65 49 66
REMARK SMILES IDX 41 67 42 68 48 69 50 70 43 71 44 72 45 73 46 74 47 75 73 76
REMARK SMILES IDX 74 77 83 78 75 79 76 80 82 81 84 82 77 83 78 84 79 85 80 86
REMARK SMILES IDX 81 87 57 88 58 89 67 90 59 91 60 92 66 93 68 94 61 95 62 96
REMARK SMILES IDX 63 97 64 98 65 99
REMARK H PARENT 22 6 27 30 89 49 55 60
REMARK Flexibility Score: inf
ROOT
ATOM      1  C   UNL     1       2.288   2.784   2.497  1.00  0.00     0.023 C 
ENDROOT
BRANCH   1   2
ATOM      2  C   UNL     1       2.117   2.296   1.058  1.00  0.00     0.116 C 
BRANCH   2   3
ATOM      3  N   UNL     1       2.847   1.074   0.784  1.00  0.00    -0.356 N 
ATOM      4  O   UNL     1       1.120  -0.024  -0.267  1.00  0.00    -0.275 OA
ATOM      5  C   UNL     1       2.285   0.008   0.117  1.00  0.00     0.220 C 
ATOM      6  H   UNL     1       3.782   1.003   1.086  1.00  0.00     0.163 HD
BRANCH   5   7
ATOM      7  C   UNL     1       3.236  -1.142  -0.138  1.00  0.00     0.110 C 
BRANCH   7   8
ATOM      8  C   UNL     1       3.979  -0.958  -1.456  1.00  0.00     0.107 C 
BRANCH   8   9
ATOM      9  C   UNL     1       5.072   0.040  -1.331  1.00  0.00     0.196 A 
ATOM     10  N   UNL     1       6.267  -0.116  -0.804  1.00  0.00    -0.213 NA
ATOM     11  O   UNL     1       4.793   1.310  -1.746  1.00  0.00    -0.440 OA
ATOM     12  C   UNL     1       6.829   1.137  -0.898  1.00  0.00     0.117 A 
ATOM     13  C   UNL     1       5.938   2.021  -1.478  1.00  0.00     0.162 A 
BRANCH  12  14
ATOM     14  C   UNL     1       8.152   1.450  -0.408  1.00  0.00     0.004 A 
ATOM     15  C   UNL     1       8.317   2.240   0.737  1.00  0.00     0.010 A 
ATOM     16  C   UNL     1       9.278   0.986  -1.096  1.00  0.00     0.010 A 
ATOM     17  C   UNL     1       9.599   2.586   1.171  1.00  0.00     0.001 A 
ATOM     18  C   UNL     1      10.557   1.343  -0.665  1.00  0.00     0.001 A 
ATOM     19  C   UNL     1      10.716   2.146   0.464  1.00  0.00     0.000 A 
ENDBRANCH  12  14
BRANCH  13  20
ATOM     20  C   UNL     1       5.914   3.434  -1.831  1.00  0.00     0.020 A 
ATOM     21  C   UNL     1       4.711   4.157  -1.786  1.00  0.00     0.012 A 
ATOM     22  C   UNL     1       7.086   4.116  -2.186  1.00  0.00     0.012 A 
ATOM     23  C   UNL     1       4.689   5.532  -2.034  1.00  0.00     0.001 A 
ATOM     24  C   UNL     1       7.062   5.488  -2.454  1.00  0.00     0.001 A 
ATOM     25  C   UNL     1       5.867   6.198  -2.363  1.00  0.00     0.000 A 
ENDBRANCH  13  20
ENDBRANCH   8   9
ENDBRANCH   7   8
ENDBRANCH   5   7
ENDBRANCH   2   3
ENDBRANCH   1   2
BRANCH   1  26
ATOM     26  C   UNL     1       3.728   3.064   2.945  1.00  0.00     0.023 C 
BRANCH  26  27
ATOM     27  C   UNL     1       4.487   4.125   2.152  1.00  0.00     0.116 C 
BRANCH  27  28
ATOM     28  N   UNL     1       3.961   5.467   2.323  1.00  0.00    -0.352 N 
ATOM     29  C   UNL     1       4.612   6.681   2.358  1.00  0.00     0.251 C 
ATOM     30  H   UNL     1       2.983   5.519   2.431  1.00  0.00     0.163 HD
ATOM     31  O   UNL     1       3.956   7.691   2.607  1.00  0.00    -0.269 OA
BRANCH  29  32
ATOM     32  C   UNL     1       6.081   6.799   2.144  1.00  0.00     0.039 A 
ATOM     33  C   UNL     1       6.789   7.764   2.874  1.00  0.00     0.014 A 
ATOM     34  C   UNL     1       6.773   6.013   1.221  1.00  0.00     0.014 A 
ATOM     35  C   UNL     1       8.178   7.880   2.738  1.00  0.00     0.010 A 
ATOM     36  C   UNL     1       8.162   6.104   1.107  1.00  0.00     0.010 A 
ATOM     37  C   UNL     1       8.881   7.023   1.879  1.00  0.00    -0.014 A 
BRANCH  37  38
ATOM     38  C   UNL     1      10.366   7.000   1.854  1.00  0.00     0.031 A 
ATOM     39  C   UNL     1      11.138   7.509   0.670  1.00  0.00     0.074 A 
ATOM     40  C   UNL     1      11.017   6.425   2.884  1.00  0.00     0.049 A 
ATOM     41  N   UNL     1      12.434   7.552   0.491  1.00  0.00    -0.248 NA
ATOM     42  C   UNL     1      10.356   8.023  -0.464  1.00  0.00     0.031 C 
ATOM     43  C   UNL     1      10.374   5.832   4.060  1.00  0.00     0.029 A 
ATOM     44  N   UNL     1      12.357   6.226   3.102  1.00  0.00    -0.354 N 
ATOM     45  C   UNL     1      12.628   8.102  -0.770  1.00  0.00     0.074 A 
ATOM     46  C   UNL     1      11.312   8.338  -1.330  1.00  0.00     0.031 C 
ATOM     47  C   UNL     1      11.320   5.340   4.876  1.00  0.00     0.029 A 
ATOM     48  C   UNL     1      12.632   5.568   4.278  1.00  0.00     0.049 A 
ATOM     49  H   UNL     1      13.055   6.525   2.477  1.00  0.00     0.167 HD
ATOM     50  C   UNL     1      13.795   8.399  -1.393  1.00  0.00     0.037 A 
ATOM     51  C   UNL     1      13.807   5.192   4.818  1.00  0.00     0.037 A 
ATOM     52  C   UNL     1      15.101   8.164  -0.828  1.00  0.00     0.049 A 
ATOM     53  C   UNL     1      15.087   5.535   4.110  1.00  0.00     0.074 A 
ATOM     54  C   UNL     1      16.339   8.502  -1.350  1.00  0.00     0.029 A 
ATOM     55  N   UNL     1      15.341   7.519   0.376  1.00  0.00    -0.354 N 
ATOM     56  N   UNL     1      15.253   6.151   2.964  1.00  0.00    -0.248 NA
ATOM     57  C   UNL     1      16.339   5.146   4.773  1.00  0.00     0.031 C 
ATOM     58  C   UNL     1      17.328   8.024  -0.482  1.00  0.00     0.029 A 
ATOM     59  C   UNL     1      16.706   7.424   0.601  1.00  0.00     0.049 A 
ATOM     60  H   UNL     1      14.645   7.178   0.983  1.00  0.00     0.167 HD
ATOM     61  C   UNL     1      16.627   6.251   2.783  1.00  0.00     0.074 A 
ATOM     62  C   UNL     1      17.247   5.635   3.939  1.00  0.00     0.031 C 
ATOM     63  C   UNL     1      17.312   6.808   1.755  1.00  0.00     0.037 A 
BRANCH  50  64
ATOM     64  C   UNL     1      13.722   9.025  -2.759  1.00  0.00     0.058 A 
ATOM     65  C   UNL     1      13.317  10.358  -2.932  1.00  0.00     0.135 A 
ATOM     66  C   UNL     1      14.120   8.309  -3.899  1.00  0.00     0.135 A 
ATOM     67  F   UNL     1      12.919  11.087  -1.877  1.00  0.00    -0.206 F 
ATOM     68  C   UNL     1      13.288  10.953  -4.190  1.00  0.00     0.059 A 
ATOM     69  C   UNL     1      14.120   8.890  -5.164  1.00  0.00     0.059 A 
ATOM     70  F   UNL     1      14.518   7.032  -3.789  1.00  0.00    -0.206 F 
ATOM     71  C   UNL     1      13.690  10.209  -5.301  1.00  0.00     0.060 A 
BRANCH  71  72
ATOM     72  S   UNL     1      13.655  10.997  -6.926  1.00  0.00     0.124 S 
ATOM     73  O   UNL     1      12.223  11.009  -7.210  1.00  0.00    -0.237 OA
ATOM     74  O   UNL     1      14.258  12.298  -6.657  1.00  0.00    -0.237 OA
ATOM     75  O   UNL     1      14.453  10.099  -7.755  1.00  0.00    -0.744 OA
ENDBRANCH  71  72
ENDBRANCH  50  64
BRANCH  51  76
ATOM     76  C   UNL     1      13.823   4.483   6.122  1.00  0.00     0.058 A 
ATOM     77  C   UNL     1      14.233   5.139   7.291  1.00  0.00     0.135 A 
ATOM     78  C   UNL     1      13.400   3.150   6.230  1.00  0.00     0.135 A 
ATOM     79  F   UNL     1      14.649   6.414   7.234  1.00  0.00    -0.206 F 
ATOM     80  C   UNL     1      14.237   4.495   8.524  1.00  0.00     0.059 A 
ATOM     81  C   UNL     1      13.374   2.491   7.455  1.00  0.00     0.059 A 
ATOM     82  F   UNL     1      12.979   2.488   5.141  1.00  0.00    -0.206 F 
ATOM     83  C   UNL     1      13.803   3.170   8.595  1.00  0.00     0.060 A 
BRANCH  83  84
ATOM     84  S   UNL     1      13.755   2.361  10.209  1.00  0.00     0.124 S 
ATOM     85  O   UNL     1      15.165   2.078  10.437  1.00  0.00    -0.237 OA
ATOM     86  O   UNL     1      13.164   3.395  11.054  1.00  0.00    -0.237 OA
ATOM     87  O   UNL     1      12.903   1.197   9.973  1.00  0.00    -0.744 OA
ENDBRANCH  83  84
ENDBRANCH  51  76
BRANCH  63  88
ATOM     88  C   UNL     1      18.813   6.800   1.843  1.00  0.00     0.058 A 
ATOM     89  C   UNL     1      19.556   5.629   1.633  1.00  0.00     0.135 A 
ATOM     90  C   UNL     1      19.517   7.987   2.107  1.00  0.00     0.135 A 
ATOM     91  F   UNL     1      18.930   4.467   1.387  1.00  0.00    -0.206 F 
ATOM     92  C   UNL     1      20.945   5.628   1.704  1.00  0.00     0.059 A 
ATOM     93  C   UNL     1      20.907   8.014   2.159  1.00  0.00     0.059 A 
ATOM     94  F   UNL     1      18.853   9.136   2.307  1.00  0.00    -0.206 F 
ATOM     95  C   UNL     1      21.612   6.826   1.968  1.00  0.00     0.060 A 
BRANCH  95  96
ATOM     96  S   UNL     1      23.417   6.820   2.030  1.00  0.00     0.124 S 
ATOM     97  O   UNL     1      23.664   6.232   3.342  1.00  0.00    -0.237 OA
ATOM     98  O   UNL     1      23.769   5.986   0.885  1.00  0.00    -0.237 OA
ATOM     99  O   UNL     1      23.764   8.232   1.898  1.00  0.00    -0.744 OA
ENDBRANCH  95  96
ENDBRANCH  63  88
ENDBRANCH  37  38
ENDBRANCH  29  32
ENDBRANCH  27  28
ENDBRANCH  26  27
ENDBRANCH   1  26
TORSDOF 18
