REMARK SMILES O=C(NCCCCNC(=O)[C@@H](NC(=O)c1ccc(C[NH+]2CCCCC2)cc1)c1ccccc1F)c1ccc(-c2c3nc(c(-c4c(F)cc(S(=O)(=O)[O-])cc4F)c4ccc([nH]4)c(-c4c(F)cc(S(=O)(=O)[O-])cc4F)c4nc(c(-c5c(F)cc(S(=O)(=O)[O-])cc5F)c5ccc2[nH]5)C=C4)C=C3)cc1
REMARK SMILES IDX 6 1 5 2 4 3 3 4 1 5 2 6 35 8 36 9 100 10 37 11 99 12 38 13
REMARK SMILES IDX 39 14 40 15 93 16 41 17 98 18 92 19 94 20 42 21 97 22 91 23
REMARK SMILES IDX 90 24 43 26 77 27 56 28 76 29 57 30 60 31 75 32 95 33 58 34
REMARK SMILES IDX 59 35 74 37 96 38 61 39 44 40 45 41 54 42 46 43 47 44 53 45
REMARK SMILES IDX 55 46 48 47 49 48 50 49 51 50 52 51 78 52 79 53 88 54 80 55
REMARK SMILES IDX 81 56 87 57 89 58 82 59 83 60 84 61 85 62 86 63 62 64 63 65
REMARK SMILES IDX 72 66 64 67 65 68 71 69 73 70 66 71 67 72 68 73 69 74 70 75
REMARK SMILES IDX 7 76 8 77 9 78 10 80 11 81 12 82 13 83 14 85 15 86 16 87
REMARK SMILES IDX 27 88 17 89 26 90 18 91 19 92 20 93 21 94 25 95 22 97 24 98
REMARK SMILES IDX 23 99 28 100 29 101 33 102 30 103 32 104 34 105 31 106
REMARK H PARENT 3 7 94 25 60 36 8 79 12 84 20 96
REMARK Flexibility Score: inf
ROOT
ATOM      1  C   UNL     1       4.764   0.711   3.554  1.00  0.00     0.023 C 
ENDROOT
BRANCH   1   2
ATOM      2  C   UNL     1       5.184   1.106   2.141  1.00  0.00     0.023 C 
BRANCH   2   3
ATOM      3  C   UNL     1       4.798   0.118   1.044  1.00  0.00     0.116 C 
BRANCH   3   4
ATOM      4  N   UNL     1       3.364  -0.138   0.977  1.00  0.00    -0.352 N 
ATOM      5  O   UNL     1       1.299  -0.110   0.059  1.00  0.00    -0.269 OA
ATOM      6  C   UNL     1       2.508   0.040  -0.084  1.00  0.00     0.251 C 
ATOM      7  H   UNL     1       2.954  -0.484   1.802  1.00  0.00     0.163 HD
BRANCH   6   8
ATOM      8  C   UNL     1       3.068   0.445  -1.388  1.00  0.00     0.039 A 
ATOM      9  C   UNL     1       4.146  -0.258  -1.930  1.00  0.00     0.014 A 
ATOM     10  C   UNL     1       2.556   1.573  -2.032  1.00  0.00     0.014 A 
ATOM     11  C   UNL     1       4.815   0.259  -3.031  1.00  0.00     0.010 A 
ATOM     12  C   UNL     1       3.177   2.040  -3.192  1.00  0.00     0.010 A 
ATOM     13  C   UNL     1       4.332   1.407  -3.679  1.00  0.00    -0.014 A 
BRANCH  13  14
ATOM     14  C   UNL     1       5.013   1.895  -4.904  1.00  0.00     0.031 A 
ATOM     15  C   UNL     1       5.675   3.243  -4.945  1.00  0.00     0.074 A 
ATOM     16  C   UNL     1       5.019   1.100  -5.991  1.00  0.00     0.049 A 
ATOM     17  N   UNL     1       6.270   3.836  -5.948  1.00  0.00    -0.248 NA
ATOM     18  C   UNL     1       5.658   4.034  -3.705  1.00  0.00     0.031 C 
ATOM     19  C   UNL     1       4.392  -0.223  -6.066  1.00  0.00     0.029 A 
ATOM     20  N   UNL     1       5.560   1.283  -7.236  1.00  0.00    -0.354 N 
ATOM     21  C   UNL     1       6.675   5.078  -5.473  1.00  0.00     0.074 A 
ATOM     22  C   UNL     1       6.242   5.160  -4.093  1.00  0.00     0.031 C 
ATOM     23  C   UNL     1       4.599  -0.738  -7.285  1.00  0.00     0.029 A 
ATOM     24  C   UNL     1       5.312   0.241  -8.097  1.00  0.00     0.049 A 
ATOM     25  H   UNL     1       6.076   2.082  -7.489  1.00  0.00     0.167 HD
ATOM     26  C   UNL     1       7.346   6.055  -6.130  1.00  0.00     0.037 A 
ATOM     27  C   UNL     1       5.590   0.100  -9.405  1.00  0.00     0.037 A 
ATOM     28  C   UNL     1       7.781   5.951  -7.500  1.00  0.00     0.049 A 
ATOM     29  C   UNL     1       6.323   1.197 -10.116  1.00  0.00     0.074 A 
ATOM     30  C   UNL     1       8.514   6.862  -8.243  1.00  0.00     0.029 A 
ATOM     31  N   UNL     1       7.513   4.878  -8.339  1.00  0.00    -0.354 N 
ATOM     32  N   UNL     1       6.738   2.346  -9.639  1.00  0.00    -0.248 NA
ATOM     33  C   UNL     1       6.626   0.984 -11.536  1.00  0.00     0.031 C 
ATOM     34  C   UNL     1       8.647   6.360  -9.543  1.00  0.00     0.029 A 
ATOM     35  C   UNL     1       8.041   5.115  -9.599  1.00  0.00     0.049 A 
ATOM     36  H   UNL     1       7.020   4.067  -8.078  1.00  0.00     0.167 HD
ATOM     37  C   UNL     1       7.361   2.993 -10.699  1.00  0.00     0.074 A 
ATOM     38  C   UNL     1       7.280   2.099 -11.838  1.00  0.00     0.031 C 
ATOM     39  C   UNL     1       7.947   4.215 -10.723  1.00  0.00     0.037 A 
BRANCH  26  40
ATOM     40  C   UNL     1       7.622   7.334  -5.386  1.00  0.00     0.058 A 
ATOM     41  C   UNL     1       8.560   7.402  -4.343  1.00  0.00     0.135 A 
ATOM     42  C   UNL     1       6.944   8.516  -5.731  1.00  0.00     0.135 A 
ATOM     43  F   UNL     1       9.230   6.302  -3.964  1.00  0.00    -0.206 F 
ATOM     44  C   UNL     1       8.786   8.583  -3.643  1.00  0.00     0.059 A 
ATOM     45  C   UNL     1       7.173   9.714  -5.061  1.00  0.00     0.059 A 
ATOM     46  F   UNL     1       6.041   8.511  -6.724  1.00  0.00    -0.206 F 
ATOM     47  C   UNL     1       8.080   9.733  -4.003  1.00  0.00     0.060 A 
BRANCH  47  48
ATOM     48  S   UNL     1       8.354  11.249  -3.061  1.00  0.00     0.124 S 
ATOM     49  O   UNL     1       7.631  10.956  -1.827  1.00  0.00    -0.237 OA
ATOM     50  O   UNL     1       9.809  11.290  -2.947  1.00  0.00    -0.237 OA
ATOM     51  O   UNL     1       7.765  12.284  -3.903  1.00  0.00    -0.744 OA
ENDBRANCH  47  48
ENDBRANCH  26  40
BRANCH  27  52
ATOM     52  C   UNL     1       5.141  -1.130 -10.104  1.00  0.00     0.058 A 
ATOM     53  C   UNL     1       6.050  -2.133 -10.464  1.00  0.00     0.135 A 
ATOM     54  C   UNL     1       3.775  -1.366 -10.334  1.00  0.00     0.135 A 
ATOM     55  F   UNL     1       7.364  -1.952 -10.264  1.00  0.00    -0.206 F 
ATOM     56  C   UNL     1       5.621  -3.334 -11.019  1.00  0.00     0.059 A 
ATOM     57  C   UNL     1       3.321  -2.568 -10.864  1.00  0.00     0.059 A 
ATOM     58  F   UNL     1       2.865  -0.443  -9.984  1.00  0.00    -0.206 F 
ATOM     59  C   UNL     1       4.253  -3.547 -11.204  1.00  0.00     0.060 A 
BRANCH  59  60
ATOM     60  S   UNL     1       3.699  -5.148 -11.828  1.00  0.00     0.124 S 
ATOM     61  O   UNL     1       4.051  -5.050 -13.240  1.00  0.00    -0.237 OA
ATOM     62  O   UNL     1       4.496  -6.079 -11.034  1.00  0.00    -0.237 OA
ATOM     63  O   UNL     1       2.270  -5.149 -11.530  1.00  0.00    -0.744 OA
ENDBRANCH  59  60
ENDBRANCH  27  52
BRANCH  39  64
ATOM     64  C   UNL     1       8.564   4.657 -12.020  1.00  0.00     0.058 A 
ATOM     65  C   UNL     1       7.777   5.090 -13.097  1.00  0.00     0.135 A 
ATOM     66  C   UNL     1       9.960   4.711 -12.159  1.00  0.00     0.135 A 
ATOM     67  F   UNL     1       6.438   5.045 -13.018  1.00  0.00    -0.206 F 
ATOM     68  C   UNL     1       8.354   5.557 -14.274  1.00  0.00     0.059 A 
ATOM     69  C   UNL     1      10.558   5.196 -13.317  1.00  0.00     0.059 A 
ATOM     70  F   UNL     1      10.756   4.311 -11.154  1.00  0.00    -0.206 F 
ATOM     71  C   UNL     1       9.746   5.612 -14.371  1.00  0.00     0.060 A 
BRANCH  71  72
ATOM     72  S   UNL     1      10.482   6.277 -15.880  1.00  0.00     0.124 S 
ATOM     73  O   UNL     1      10.275   5.178 -16.817  1.00  0.00    -0.237 OA
ATOM     74  O   UNL     1       9.681   7.474 -16.118  1.00  0.00    -0.237 OA
ATOM     75  O   UNL     1      11.870   6.525 -15.499  1.00  0.00    -0.744 OA
ENDBRANCH  71  72
ENDBRANCH  39  64
ENDBRANCH  13  14
ENDBRANCH   6   8
ENDBRANCH   3   4
ENDBRANCH   2   3
ENDBRANCH   1   2
BRANCH   1  76
ATOM     76  C   UNL     1       5.178  -0.694   3.958  1.00  0.00     0.116 C 
BRANCH  76  77
ATOM     77  N   UNL     1       6.601  -0.857   4.170  1.00  0.00    -0.354 N 
ATOM     78  C   UNL     1       7.256  -1.742   4.987  1.00  0.00     0.247 C 
ATOM     79  H   UNL     1       7.179  -0.247   3.655  1.00  0.00     0.163 HD
ATOM     80  O   UNL     1       8.457  -1.929   4.768  1.00  0.00    -0.272 OA
BRANCH  78  81
ATOM     81  C   UNL     1       6.507  -2.558   6.083  1.00  0.00     0.205 C 
BRANCH  81  82
ATOM     82  N   UNL     1       5.621  -1.661   6.856  1.00  0.00    -0.336 N 
ATOM     83  C   UNL     1       4.359  -1.698   7.367  1.00  0.00     0.252 C 
ATOM     84  H   UNL     1       6.064  -0.804   7.055  1.00  0.00     0.165 HD
ATOM     85  O   UNL     1       3.903  -0.728   7.965  1.00  0.00    -0.269 OA
BRANCH  83  86
ATOM     86  C   UNL     1       3.499  -2.851   7.120  1.00  0.00     0.039 A 
ATOM     87  C   UNL     1       2.492  -2.723   6.161  1.00  0.00     0.014 A 
ATOM     88  C   UNL     1       3.746  -4.060   7.765  1.00  0.00     0.014 A 
ATOM     89  C   UNL     1       1.819  -3.863   5.735  1.00  0.00     0.010 A 
ATOM     90  C   UNL     1       3.051  -5.192   7.350  1.00  0.00     0.010 A 
ATOM     91  C   UNL     1       2.116  -5.114   6.300  1.00  0.00     0.006 A 
BRANCH  91  92
ATOM     92  C   UNL     1       1.484  -6.379   5.757  1.00  0.00     0.299 C 
BRANCH  92  93
ATOM     93  N   UNL     1       0.127  -6.686   6.226  1.00  0.00    -0.331 N 
ATOM     94  C   UNL     1       0.042  -6.756   7.688  1.00  0.00     0.262 C 
ATOM     95  C   UNL     1      -0.885  -5.800   5.641  1.00  0.00     0.262 C 
ATOM     96  H   UNL     1      -0.089  -7.622   5.884  1.00  0.00     0.348 HD
ATOM     97  C   UNL     1      -1.351  -7.183   8.148  1.00  0.00     0.062 C 
ATOM     98  C   UNL     1      -2.296  -6.217   6.050  1.00  0.00     0.062 C 
ATOM     99  C   UNL     1      -2.421  -6.266   7.567  1.00  0.00     0.012 C 
ENDBRANCH  92  93
ENDBRANCH  91  92
ENDBRANCH  83  86
ENDBRANCH  81  82
BRANCH  81 100
ATOM    100  C   UNL     1       6.041  -3.900   5.547  1.00  0.00     0.020 A 
ATOM    101  C   UNL     1       5.098  -4.053   4.520  1.00  0.00     0.009 A 
ATOM    102  C   UNL     1       6.642  -5.074   6.024  1.00  0.00     0.129 A 
ATOM    103  C   UNL     1       4.764  -5.312   4.004  1.00  0.00     0.001 A 
ATOM    104  C   UNL     1       6.317  -6.335   5.519  1.00  0.00     0.039 A 
ATOM    105  F   UNL     1       7.560  -5.008   6.999  1.00  0.00    -0.207 F 
ATOM    106  C   UNL     1       5.373  -6.456   4.505  1.00  0.00     0.003 A 
ENDBRANCH  81 100
ENDBRANCH  78  81
ENDBRANCH  76  77
ENDBRANCH   1  76
TORSDOF 19
