REMARK SMILES O=C(NCCCCNC(=O)[C@@H]1[C@@H](C(=O)Nc2nc(-c3ccc(F)cc3)cs2)[C@H]2C=C[C@@H]1O2)c1ccc(-c2c3nc(c(-c4c(F)cc(S(=O)(=O)[O-])cc4F)c4ccc([nH]4)c(-c4c(F)cc(S(=O)(=O)[O-])cc4F)c4nc(c(-c5c(F)cc(S(=O)(=O)[O-])cc5F)c5ccc2[nH]5)C=C4)C=C3)cc1
REMARK SMILES IDX 5 1 4 2 3 3 1 4 2 5 33 7 34 8 98 9 35 10 97 11 36 12 37 13
REMARK SMILES IDX 38 14 91 15 39 16 96 17 90 18 92 19 40 20 95 21 89 22 88 23
REMARK SMILES IDX 41 25 75 26 54 27 74 28 55 29 58 30 73 31 93 32 56 33 57 34
REMARK SMILES IDX 72 36 94 37 59 38 42 39 43 40 52 41 44 42 45 43 51 44 53 45
REMARK SMILES IDX 46 46 47 47 48 48 49 49 50 50 76 51 77 52 86 53 78 54 79 55
REMARK SMILES IDX 85 56 87 57 80 58 81 59 82 60 83 61 84 62 60 63 61 64 70 65
REMARK SMILES IDX 62 66 63 67 69 68 71 69 64 70 65 71 66 72 67 73 68 74 6 75
REMARK SMILES IDX 7 76 8 77 9 78 10 80 11 81 12 82 31 83 28 84 30 85 32 86
REMARK SMILES IDX 29 87 13 88 14 89 15 90 16 92 17 93 27 94 18 95 26 96 19 97
REMARK SMILES IDX 20 98 25 99 21 100 24 101 22 102 23 103
REMARK H PARENT 3 6 92 24 58 35 8 79 15 91
REMARK Flexibility Score: inf
ROOT
ATOM      1  C   UNL     1       3.808  -0.680   2.756  1.00  0.00     0.023 C 
ENDROOT
BRANCH   1   2
ATOM      2  C   UNL     1       3.897  -0.792   1.234  1.00  0.00     0.116 C 
BRANCH   2   3
ATOM      3  N   UNL     1       2.587  -0.914   0.630  1.00  0.00    -0.352 N 
ATOM      4  O   UNL     1       0.808  -0.221  -0.548  1.00  0.00    -0.269 OA
ATOM      5  C   UNL     1       2.018  -0.142  -0.354  1.00  0.00     0.251 C 
ATOM      6  H   UNL     1       2.029  -1.650   0.970  1.00  0.00     0.163 HD
BRANCH   5   7
ATOM      7  C   UNL     1       2.838   0.780  -1.181  1.00  0.00     0.039 A 
ATOM      8  C   UNL     1       4.044   0.370  -1.761  1.00  0.00     0.014 A 
ATOM      9  C   UNL     1       2.322   2.046  -1.479  1.00  0.00     0.014 A 
ATOM     10  C   UNL     1       4.744   1.234  -2.611  1.00  0.00     0.010 A 
ATOM     11  C   UNL     1       3.007   2.896  -2.354  1.00  0.00     0.010 A 
ATOM     12  C   UNL     1       4.220   2.496  -2.935  1.00  0.00    -0.014 A 
BRANCH  12  13
ATOM     13  C   UNL     1       4.867   3.363  -3.958  1.00  0.00     0.031 A 
ATOM     14  C   UNL     1       5.493   4.674  -3.578  1.00  0.00     0.074 A 
ATOM     15  C   UNL     1       4.815   2.999  -5.255  1.00  0.00     0.049 A 
ATOM     16  N   UNL     1       5.985   5.608  -4.351  1.00  0.00    -0.248 NA
ATOM     17  C   UNL     1       5.568   4.978  -2.142  1.00  0.00     0.031 C 
ATOM     18  C   UNL     1       4.228   1.755  -5.755  1.00  0.00     0.029 A 
ATOM     19  N   UNL     1       5.240   3.646  -6.390  1.00  0.00    -0.354 N 
ATOM     20  C   UNL     1       6.410   6.622  -3.502  1.00  0.00     0.074 A 
ATOM     21  C   UNL     1       6.104   6.192  -2.153  1.00  0.00     0.031 C 
ATOM     22  C   UNL     1       4.332   1.727  -7.092  1.00  0.00     0.029 A 
ATOM     23  C   UNL     1       4.941   2.973  -7.551  1.00  0.00     0.049 A 
ATOM     24  H   UNL     1       5.714   4.509  -6.374  1.00  0.00     0.167 HD
ATOM     25  C   UNL     1       7.000   7.800  -3.820  1.00  0.00     0.037 A 
ATOM     26  C   UNL     1       5.103   3.324  -8.843  1.00  0.00     0.037 A 
ATOM     27  C   UNL     1       7.309   8.215  -5.165  1.00  0.00     0.049 A 
ATOM     28  C   UNL     1       5.719   4.651  -9.178  1.00  0.00     0.074 A 
ATOM     29  C   UNL     1       7.958   9.366  -5.580  1.00  0.00     0.029 A 
ATOM     30  N   UNL     1       6.980   7.508  -6.313  1.00  0.00    -0.354 N 
ATOM     31  N   UNL     1       6.151   5.582  -8.362  1.00  0.00    -0.248 NA
ATOM     32  C   UNL     1       5.863   4.985 -10.602  1.00  0.00     0.031 C 
ATOM     33  C   UNL     1       7.976   9.378  -6.978  1.00  0.00     0.029 A 
ATOM     34  C   UNL     1       7.383   8.212  -7.436  1.00  0.00     0.049 A 
ATOM     35  H   UNL     1       6.526   6.634  -6.327  1.00  0.00     0.167 HD
ATOM     36  C   UNL     1       6.633   6.605  -9.171  1.00  0.00     0.074 A 
ATOM     37  C   UNL     1       6.440   6.180 -10.542  1.00  0.00     0.031 C 
ATOM     38  C   UNL     1       7.188   7.784  -8.801  1.00  0.00     0.037 A 
BRANCH  25  39
ATOM     39  C   UNL     1       7.332   8.742  -2.696  1.00  0.00     0.058 A 
ATOM     40  C   UNL     1       6.606   9.933  -2.530  1.00  0.00     0.135 A 
ATOM     41  C   UNL     1       8.385   8.488  -1.803  1.00  0.00     0.135 A 
ATOM     42  F   UNL     1       5.590  10.226  -3.356  1.00  0.00    -0.206 F 
ATOM     43  C   UNL     1       6.907  10.835  -1.515  1.00  0.00     0.059 A 
ATOM     44  C   UNL     1       8.690   9.366  -0.766  1.00  0.00     0.059 A 
ATOM     45  F   UNL     1       9.102   7.358  -1.908  1.00  0.00    -0.206 F 
ATOM     46  C   UNL     1       7.948  10.540  -0.633  1.00  0.00     0.060 A 
BRANCH  46  47
ATOM     47  S   UNL     1       8.269  11.672   0.737  1.00  0.00     0.124 S 
ATOM     48  O   UNL     1       8.925  12.785   0.061  1.00  0.00    -0.237 OA
ATOM     49  O   UNL     1       6.924  11.935   1.242  1.00  0.00    -0.237 OA
ATOM     50  O   UNL     1       9.116  10.886   1.630  1.00  0.00    -0.744 OA
ENDBRANCH  46  47
ENDBRANCH  25  39
BRANCH  26  51
ATOM     51  C   UNL     1       4.667   2.375  -9.899  1.00  0.00     0.058 A 
ATOM     52  C   UNL     1       3.305   2.132 -10.138  1.00  0.00     0.135 A 
ATOM     53  C   UNL     1       5.604   1.605 -10.602  1.00  0.00     0.135 A 
ATOM     54  F   UNL     1       2.371   2.840  -9.484  1.00  0.00    -0.206 F 
ATOM     55  C   UNL     1       2.886   1.119 -10.992  1.00  0.00     0.059 A 
ATOM     56  C   UNL     1       5.210   0.599 -11.479  1.00  0.00     0.059 A 
ATOM     57  F   UNL     1       6.916   1.814 -10.417  1.00  0.00    -0.206 F 
ATOM     58  C   UNL     1       3.848   0.344 -11.643  1.00  0.00     0.060 A 
BRANCH  58  59
ATOM     59  S   UNL     1       3.287  -1.029 -12.674  1.00  0.00     0.124 S 
ATOM     60  O   UNL     1       2.753  -1.946 -11.671  1.00  0.00    -0.237 OA
ATOM     61  O   UNL     1       2.301  -0.384 -13.534  1.00  0.00    -0.237 OA
ATOM     62  O   UNL     1       4.507  -1.471 -13.342  1.00  0.00    -0.744 OA
ENDBRANCH  58  59
ENDBRANCH  26  51
BRANCH  38  63
ATOM     63  C   UNL     1       7.653   8.720  -9.881  1.00  0.00     0.058 A 
ATOM     64  C   UNL     1       9.025   8.911 -10.110  1.00  0.00     0.135 A 
ATOM     65  C   UNL     1       6.749   9.529 -10.586  1.00  0.00     0.135 A 
ATOM     66  F   UNL     1       9.930   8.162  -9.461  1.00  0.00    -0.206 F 
ATOM     67  C   UNL     1       9.487   9.903 -10.968  1.00  0.00     0.059 A 
ATOM     68  C   UNL     1       7.189  10.515 -11.466  1.00  0.00     0.059 A 
ATOM     69  F   UNL     1       5.427   9.373 -10.413  1.00  0.00    -0.206 F 
ATOM     70  C   UNL     1       8.561  10.713 -11.628  1.00  0.00     0.060 A 
BRANCH  70  71
ATOM     71  S   UNL     1       9.180  12.036 -12.689  1.00  0.00     0.124 S 
ATOM     72  O   UNL     1       9.742  12.963 -11.713  1.00  0.00    -0.237 OA
ATOM     73  O   UNL     1      10.146  11.333 -13.528  1.00  0.00    -0.237 OA
ATOM     74  O   UNL     1       7.983  12.504 -13.382  1.00  0.00    -0.744 OA
ENDBRANCH  70  71
ENDBRANCH  38  63
ENDBRANCH  12  13
ENDBRANCH   5   7
ENDBRANCH   2   3
ENDBRANCH   1   2
BRANCH   1  75
ATOM     75  C   UNL     1       3.533  -1.968   3.545  1.00  0.00     0.023 C 
BRANCH  75  76
ATOM     76  C   UNL     1       4.272  -3.250   3.148  1.00  0.00     0.116 C 
BRANCH  76  77
ATOM     77  N   UNL     1       5.723  -3.180   3.166  1.00  0.00    -0.356 N 
ATOM     78  C   UNL     1       6.656  -3.717   4.008  1.00  0.00     0.227 C 
ATOM     79  H   UNL     1       6.106  -2.644   2.435  1.00  0.00     0.163 HD
ATOM     80  O   UNL     1       7.833  -3.674   3.651  1.00  0.00    -0.275 OA
BRANCH  78  81
ATOM     81  C   UNL     1       6.232  -4.354   5.311  1.00  0.00     0.127 C 
ATOM     82  C   UNL     1       6.614  -3.509   6.550  1.00  0.00     0.127 C 
ATOM     83  C   UNL     1       7.063  -5.639   5.568  1.00  0.00     0.155 C 
ATOM     84  C   UNL     1       7.255  -4.580   7.452  1.00  0.00     0.155 C 
ATOM     85  C   UNL     1       6.317  -6.467   6.571  1.00  0.00     0.004 C 
ATOM     86  O   UNL     1       8.126  -5.170   6.448  1.00  0.00    -0.365 OA
ATOM     87  C   UNL     1       6.406  -5.794   7.727  1.00  0.00     0.004 C 
BRANCH  82  88
ATOM     88  C   UNL     1       5.446  -2.811   7.208  1.00  0.00     0.233 C 
ATOM     89  O   UNL     1       4.646  -3.421   7.925  1.00  0.00    -0.274 OA
ATOM     90  N   UNL     1       5.245  -1.472   7.056  1.00  0.00    -0.302 N 
ATOM     91  H   UNL     1       4.549  -1.070   7.625  1.00  0.00     0.172 HD
BRANCH  90  92
ATOM     92  C   UNL     1       5.894  -0.620   6.209  1.00  0.00     0.189 A 
ATOM     93  N   UNL     1       6.733  -0.890   5.246  1.00  0.00    -0.220 NA
ATOM     94  S   UNL     1       5.479   1.023   6.413  1.00  0.00    -0.105 S 
ATOM     95  C   UNL     1       7.119   0.284   4.620  1.00  0.00     0.084 A 
ATOM     96  C   UNL     1       6.546   1.433   5.129  1.00  0.00     0.097 A 
BRANCH  95  97
ATOM     97  C   UNL     1       7.977   0.278   3.446  1.00  0.00     0.001 A 
ATOM     98  C   UNL     1       7.518  -0.312   2.260  1.00  0.00     0.013 A 
ATOM     99  C   UNL     1       9.247   0.861   3.462  1.00  0.00     0.013 A 
ATOM    100  C   UNL     1       8.296  -0.323   1.105  1.00  0.00     0.040 A 
ATOM    101  C   UNL     1      10.035   0.846   2.305  1.00  0.00     0.040 A 
ATOM    102  C   UNL     1       9.553   0.257   1.140  1.00  0.00     0.123 A 
ATOM    103  F   UNL     1      10.310   0.245   0.036  1.00  0.00    -0.207 F 
ENDBRANCH  95  97
ENDBRANCH  90  92
ENDBRANCH  82  88
ENDBRANCH  78  81
ENDBRANCH  76  77
ENDBRANCH  75  76
ENDBRANCH   1  75
TORSDOF 17
