REMARK SMILES CC[NH2+][C@@](C)(C[C@@H](C)Sc1ccncc1)C(=O)NCCCCNC(=O)c1ccc(-c2c3nc(c(-c4c(F)cc(S(=O)(=O)[O-])cc4F)c4ccc([nH]4)c(-c4c(F)cc(S(=O)(=O)[O-])cc4F)c4nc(c(-c5c(F)cc(S(=O)(=O)[O-])cc5F)c5ccc2[nH]5)C=C4)C=C3)cc1
REMARK SMILES IDX 20 1 19 2 18 3 16 4 17 5 4 7 5 8 3 9 2 12 1 13 6 14 7 15
REMARK SMILES IDX 8 16 9 17 10 18 11 19 15 20 12 21 14 22 13 23 21 24 22 25
REMARK SMILES IDX 23 26 24 27 25 29 26 30 27 31 91 32 28 33 90 34 29 35 30 36
REMARK SMILES IDX 31 37 84 38 32 39 89 40 83 41 85 42 33 43 88 44 82 45 81 46
REMARK SMILES IDX 34 48 68 49 47 50 67 51 48 52 51 53 66 54 86 55 49 56 50 57
REMARK SMILES IDX 65 59 87 60 52 61 35 62 36 63 45 64 37 65 38 66 44 67 46 68
REMARK SMILES IDX 39 69 40 70 41 71 42 72 43 73 69 74 70 75 79 76 71 77 72 78
REMARK SMILES IDX 78 79 80 80 73 81 74 82 75 83 76 84 77 85 53 86 54 87 63 88
REMARK SMILES IDX 55 89 56 90 62 91 64 92 57 93 58 94 59 95 60 96 61 97
REMARK H PARENT 18 6 3 10 3 11 23 28 85 47 51 58
REMARK Flexibility Score: inf
ROOT
ATOM      1  C   UNL     1      -1.498   0.602   7.145  1.00  0.00     0.023 C 
ENDROOT
BRANCH   1   2
ATOM      2  C   UNL     1      -1.184  -0.523   6.165  1.00  0.00     0.116 C 
BRANCH   2   3
ATOM      3  N   UNL     1      -1.685  -0.242   4.835  1.00  0.00    -0.351 N 
ATOM      4  C   UNL     1      -1.091   0.159   3.677  1.00  0.00     0.281 C 
ATOM      5  O   UNL     1      -1.878   0.364   2.746  1.00  0.00    -0.268 OA
ATOM      6  H   UNL     1      -2.658  -0.368   4.751  1.00  0.00     0.163 HD
BRANCH   4   7
ATOM      7  C   UNL     1       0.466   0.344   3.531  1.00  0.00     0.173 C 
ATOM      8  C   UNL     1       1.193  -0.986   3.848  1.00  0.00     0.090 C 
BRANCH   7   9
ATOM      9  N   UNL     1       0.841   0.751   2.138  1.00  0.00    -0.334 N 
ATOM     10  H   UNL     1       0.342   1.613   1.918  1.00  0.00     0.347 HD
ATOM     11  H   UNL     1       1.857   0.850   2.141  1.00  0.00     0.347 HD
BRANCH   9  12
ATOM     12  C   UNL     1       0.538  -0.226   1.086  1.00  0.00     0.257 C 
ATOM     13  C   UNL     1       1.064   0.282  -0.251  1.00  0.00     0.071 C 
ENDBRANCH   9  12
ENDBRANCH   7   9
BRANCH   7  14
ATOM     14  C   UNL     1       1.008   1.450   4.487  1.00  0.00     0.093 C 
BRANCH  14  15
ATOM     15  C   UNL     1       0.640   2.923   4.201  1.00  0.00     0.055 C 
ATOM     16  C   UNL     1      -0.840   3.284   4.228  1.00  0.00     0.020 C 
BRANCH  15  17
ATOM     17  S   UNL     1       1.613   4.060   5.318  1.00  0.00    -0.123 SA
BRANCH  17  18
ATOM     18  C   UNL     1       0.934   3.757   6.942  1.00  0.00     0.011 A 
ATOM     19  C   UNL     1       0.024   4.656   7.497  1.00  0.00     0.035 A 
ATOM     20  C   UNL     1       1.389   2.695   7.722  1.00  0.00     0.035 A 
ATOM     21  C   UNL     1      -0.421   4.430   8.790  1.00  0.00     0.112 A 
ATOM     22  C   UNL     1       0.880   2.549   9.002  1.00  0.00     0.112 A 
ATOM     23  N   UNL     1      -0.021   3.389   9.550  1.00  0.00    -0.265 NA
ENDBRANCH  17  18
ENDBRANCH  15  17
ENDBRANCH  14  15
ENDBRANCH   7  14
ENDBRANCH   4   7
ENDBRANCH   2   3
ENDBRANCH   1   2
BRANCH   1  24
ATOM     24  C   UNL     1      -2.973   0.776   7.489  1.00  0.00     0.023 C 
BRANCH  24  25
ATOM     25  C   UNL     1      -3.635  -0.460   8.080  1.00  0.00     0.116 C 
BRANCH  25  26
ATOM     26  N   UNL     1      -2.928  -0.993   9.237  1.00  0.00    -0.352 N 
ATOM     27  C   UNL     1      -3.449  -1.503  10.400  1.00  0.00     0.251 C 
ATOM     28  H   UNL     1      -1.945  -0.986   9.176  1.00  0.00     0.163 HD
ATOM     29  O   UNL     1      -2.708  -1.820  11.325  1.00  0.00    -0.269 OA
BRANCH  27  30
ATOM     30  C   UNL     1      -4.913  -1.630  10.530  1.00  0.00     0.039 A 
ATOM     31  C   UNL     1      -5.541  -1.097  11.657  1.00  0.00     0.014 A 
ATOM     32  C   UNL     1      -5.662  -2.215   9.505  1.00  0.00     0.014 A 
ATOM     33  C   UNL     1      -6.934  -1.086  11.722  1.00  0.00     0.010 A 
ATOM     34  C   UNL     1      -7.048  -2.131   9.537  1.00  0.00     0.010 A 
ATOM     35  C   UNL     1      -7.697  -1.566  10.645  1.00  0.00    -0.014 A 
BRANCH  35  36
ATOM     36  C   UNL     1      -9.178  -1.493  10.651  1.00  0.00     0.031 A 
ATOM     37  C   UNL     1      -9.986  -2.759  10.613  1.00  0.00     0.074 A 
ATOM     38  C   UNL     1      -9.788  -0.292  10.613  1.00  0.00     0.049 A 
ATOM     39  N   UNL     1     -11.280  -2.909  10.499  1.00  0.00    -0.248 NA
ATOM     40  C   UNL     1      -9.238  -4.025  10.677  1.00  0.00     0.031 C 
ATOM     41  C   UNL     1      -9.106   1.005  10.589  1.00  0.00     0.029 A 
ATOM     42  N   UNL     1     -11.120   0.034  10.575  1.00  0.00    -0.354 N 
ATOM     43  C   UNL     1     -11.498  -4.281  10.463  1.00  0.00     0.074 A 
ATOM     44  C   UNL     1     -10.201  -4.919  10.508  1.00  0.00     0.031 C 
ATOM     45  C   UNL     1     -10.025   1.984  10.560  1.00  0.00     0.029 A 
ATOM     46  C   UNL     1     -11.356   1.387  10.530  1.00  0.00     0.049 A 
ATOM     47  H   UNL     1     -11.838  -0.639  10.579  1.00  0.00     0.167 HD
ATOM     48  C   UNL     1     -12.675  -4.948  10.424  1.00  0.00     0.037 A 
ATOM     49  C   UNL     1     -12.516   2.069  10.467  1.00  0.00     0.037 A 
ATOM     50  C   UNL     1     -13.963  -4.307  10.412  1.00  0.00     0.049 A 
ATOM     51  C   UNL     1     -13.812   1.307  10.459  1.00  0.00     0.074 A 
ATOM     52  C   UNL     1     -15.216  -4.892  10.406  1.00  0.00     0.029 A 
ATOM     53  N   UNL     1     -14.162  -2.934  10.420  1.00  0.00    -0.354 N 
ATOM     54  N   UNL     1     -14.002   0.009  10.453  1.00  0.00    -0.248 NA
ATOM     55  C   UNL     1     -15.050   2.098  10.460  1.00  0.00     0.031 C 
ATOM     56  C   UNL     1     -16.174  -3.872  10.388  1.00  0.00     0.029 A 
ATOM     57  C   UNL     1     -15.517  -2.652  10.421  1.00  0.00     0.049 A 
ATOM     58  H   UNL     1     -13.444  -2.259  10.424  1.00  0.00     0.167 HD
ATOM     59  C   UNL     1     -15.380  -0.173  10.468  1.00  0.00     0.074 A 
ATOM     60  C   UNL     1     -15.975   1.148  10.497  1.00  0.00     0.031 C 
ATOM     61  C   UNL     1     -16.088  -1.329  10.457  1.00  0.00     0.037 A 
BRANCH  48  62
ATOM     62  C   UNL     1     -12.619  -6.450  10.416  1.00  0.00     0.058 A 
ATOM     63  C   UNL     1     -12.235  -7.171  11.559  1.00  0.00     0.135 A 
ATOM     64  C   UNL     1     -12.974  -7.178   9.270  1.00  0.00     0.135 A 
ATOM     65  F   UNL     1     -11.866  -6.523  12.675  1.00  0.00    -0.206 F 
ATOM     66  C   UNL     1     -12.181  -8.560  11.558  1.00  0.00     0.059 A 
ATOM     67  C   UNL     1     -12.952  -8.570   9.255  1.00  0.00     0.059 A 
ATOM     68  F   UNL     1     -13.343  -6.538   8.150  1.00  0.00    -0.206 F 
ATOM     69  C   UNL     1     -12.541  -9.252  10.400  1.00  0.00     0.060 A 
BRANCH  69  70
ATOM     70  S   UNL     1     -12.475 -11.055  10.418  1.00  0.00     0.124 S 
ATOM     71  O   UNL     1     -11.036 -11.294  10.347  1.00  0.00    -0.237 OA
ATOM     72  O   UNL     1     -13.108 -11.379  11.693  1.00  0.00    -0.237 OA
ATOM     73  O   UNL     1     -13.233 -11.435   9.231  1.00  0.00    -0.744 OA
ENDBRANCH  69  70
ENDBRANCH  48  62
BRANCH  49  74
ATOM     74  C   UNL     1     -12.496   3.555  10.443  1.00  0.00     0.058 A 
ATOM     75  C   UNL     1     -12.865   4.298  11.573  1.00  0.00     0.135 A 
ATOM     76  C   UNL     1     -12.069   4.260   9.307  1.00  0.00     0.135 A 
ATOM     77  F   UNL     1     -13.285   3.668  12.681  1.00  0.00    -0.206 F 
ATOM     78  C   UNL     1     -12.817   5.688  11.579  1.00  0.00     0.059 A 
ATOM     79  C   UNL     1     -11.992   5.649   9.295  1.00  0.00     0.059 A 
ATOM     80  F   UNL     1     -11.688   3.593   8.206  1.00  0.00    -0.206 F 
ATOM     81  C   UNL     1     -12.374   6.355  10.436  1.00  0.00     0.060 A 
BRANCH  81  82
ATOM     82  S   UNL     1     -12.246   8.156  10.478  1.00  0.00     0.124 S 
ATOM     83  O   UNL     1     -13.646   8.552  10.379  1.00  0.00    -0.237 OA
ATOM     84  O   UNL     1     -11.607   8.389  11.770  1.00  0.00    -0.237 OA
ATOM     85  O   UNL     1     -11.418   8.460   9.315  1.00  0.00    -0.744 OA
ENDBRANCH  81  82
ENDBRANCH  49  74
BRANCH  61  86
ATOM     86  C   UNL     1     -17.585  -1.222  10.503  1.00  0.00     0.058 A 
ATOM     87  C   UNL     1     -18.328  -0.836   9.377  1.00  0.00     0.135 A 
ATOM     88  C   UNL     1     -18.286  -1.569  11.668  1.00  0.00     0.135 A 
ATOM     89  F   UNL     1     -17.703  -0.490   8.241  1.00  0.00    -0.206 F 
ATOM     90  C   UNL     1     -19.717  -0.781   9.411  1.00  0.00     0.059 A 
ATOM     91  C   UNL     1     -19.676  -1.543  11.717  1.00  0.00     0.059 A 
ATOM     92  F   UNL     1     -17.620  -1.955  12.768  1.00  0.00    -0.206 F 
ATOM     93  C   UNL     1     -20.382  -1.138  10.585  1.00  0.00     0.060 A 
BRANCH  93  94
ATOM     94  S   UNL     1     -22.187  -1.100  10.605  1.00  0.00     0.124 S 
ATOM     95  O   UNL     1     -22.449   0.332  10.701  1.00  0.00    -0.237 OA
ATOM     96  O   UNL     1     -22.528  -1.722   9.329  1.00  0.00    -0.237 OA
ATOM     97  O   UNL     1     -22.530  -1.883  11.789  1.00  0.00    -0.744 OA
ENDBRANCH  93  94
ENDBRANCH  61  86
ENDBRANCH  35  36
ENDBRANCH  27  30
ENDBRANCH  25  26
ENDBRANCH  24  25
ENDBRANCH   1  24
TORSDOF 20
