REMARK SMILES CC(C)c1cc(C(=O)NCCCCNC(=O)c2ccc(-c3c4nc(c(-c5c(F)cc(S(=O)(=O)[O-])cc5F)c5ccc([nH]5)c(-c5c(F)cc(S(=O)(=O)[O-])cc5F)c5nc(c(-c6c(F)cc(S(=O)(=O)[O-])cc6F)c6ccc3[nH]6)C=C5)C=C4)cc2)ccc1[N+](=O)[O-]
REMARK SMILES IDX 12 1 11 2 10 3 9 4 7 5 8 6 6 8 4 9 5 10 85 11 84 12 83 13
REMARK SMILES IDX 2 14 1 15 3 16 86 17 87 18 88 19 13 20 14 21 15 22 16 24
REMARK SMILES IDX 17 25 18 26 82 27 19 28 81 29 20 30 21 31 22 32 75 33 23 34
REMARK SMILES IDX 80 35 74 36 76 37 24 38 79 39 73 40 72 41 25 43 59 44 38 45
REMARK SMILES IDX 58 46 39 47 42 48 57 49 77 50 40 51 41 52 56 54 78 55 43 56
REMARK SMILES IDX 26 57 27 58 36 59 28 60 29 61 35 62 37 63 30 64 31 65 32 66
REMARK SMILES IDX 33 67 34 68 60 69 61 70 70 71 62 72 63 73 69 74 71 75 64 76
REMARK SMILES IDX 65 77 66 78 67 79 68 80 44 81 45 82 54 83 46 84 47 85 53 86
REMARK SMILES IDX 55 87 48 88 49 89 50 90 51 91 52 92
REMARK H PARENT 9 7 14 23 76 42 42 53
REMARK Flexibility Score: inf
ROOT
ATOM      1  C   UNL     1      -7.430   0.521   3.114  1.00  0.00     0.023 C 
ENDROOT
BRANCH   1   2
ATOM      2  C   UNL     1      -6.427  -0.598   2.852  1.00  0.00     0.023 C 
BRANCH   2   3
ATOM      3  C   UNL     1      -5.834  -0.667   1.449  1.00  0.00     0.116 C 
BRANCH   3   4
ATOM      4  N   UNL     1      -5.081   0.513   1.063  1.00  0.00    -0.352 N 
ATOM      5  C   UNL     1      -3.838   0.640   0.489  1.00  0.00     0.251 C 
ATOM      6  O   UNL     1      -3.383   1.763   0.284  1.00  0.00    -0.269 OA
ATOM      7  H   UNL     1      -5.537   1.367   1.244  1.00  0.00     0.163 HD
BRANCH   5   8
ATOM      8  C   UNL     1      -3.003  -0.543   0.154  1.00  0.00     0.040 A 
ATOM      9  C   UNL     1      -0.742  -1.532   0.124  1.00  0.00     0.033 A 
ATOM     10  C   UNL     1      -1.613  -0.448   0.367  1.00  0.00     0.025 A 
ATOM     11  C   UNL     1      -1.348  -2.745  -0.270  1.00  0.00     0.272 A 
ATOM     12  C   UNL     1      -2.723  -2.832  -0.551  1.00  0.00     0.087 A 
ATOM     13  C   UNL     1      -3.535  -1.712  -0.390  1.00  0.00     0.021 A 
BRANCH   9  14
ATOM     14  C   UNL     1       0.765  -1.368   0.301  1.00  0.00     0.020 C 
ATOM     15  C   UNL     1       1.286   0.051   0.018  1.00  0.00     0.013 C 
ATOM     16  C   UNL     1       1.218  -1.823   1.687  1.00  0.00     0.013 C 
ENDBRANCH   9  14
BRANCH  11  17
ATOM     17  N   UNL     1      -0.603  -3.997  -0.349  1.00  0.00     0.063 N 
ATOM     18  O   UNL     1      -1.025  -4.939   0.337  1.00  0.00    -0.258 OA
ATOM     19  O   UNL     1       0.367  -4.051  -1.115  1.00  0.00    -0.258 OA
ENDBRANCH  11  17
ENDBRANCH   5   8
ENDBRANCH   3   4
ENDBRANCH   2   3
ENDBRANCH   1   2
BRANCH   1  20
ATOM     20  C   UNL     1      -8.556   0.674   2.096  1.00  0.00     0.116 C 
BRANCH  20  21
ATOM     21  N   UNL     1      -9.334  -0.538   1.896  1.00  0.00    -0.352 N 
ATOM     22  C   UNL     1     -10.694  -0.743   1.967  1.00  0.00     0.251 C 
ATOM     23  H   UNL     1      -8.806  -1.339   1.674  1.00  0.00     0.163 HD
ATOM     24  O   UNL     1     -11.140  -1.877   1.837  1.00  0.00    -0.269 OA
BRANCH  22  25
ATOM     25  C   UNL     1     -11.610   0.388   2.244  1.00  0.00     0.039 A 
ATOM     26  C   UNL     1     -12.619   0.212   3.196  1.00  0.00     0.014 A 
ATOM     27  C   UNL     1     -11.472   1.616   1.594  1.00  0.00     0.014 A 
ATOM     28  C   UNL     1     -13.423   1.295   3.562  1.00  0.00     0.010 A 
ATOM     29  C   UNL     1     -12.219   2.714   2.018  1.00  0.00     0.010 A 
ATOM     30  C   UNL     1     -13.195   2.568   3.015  1.00  0.00    -0.014 A 
BRANCH  30  31
ATOM     31  C   UNL     1     -13.942   3.759   3.502  1.00  0.00     0.031 A 
ATOM     32  C   UNL     1     -14.835   4.536   2.573  1.00  0.00     0.074 A 
ATOM     33  C   UNL     1     -13.760   4.180   4.771  1.00  0.00     0.049 A 
ATOM     34  N   UNL     1     -15.521   5.625   2.808  1.00  0.00    -0.248 NA
ATOM     35  C   UNL     1     -14.952   4.040   1.193  1.00  0.00     0.031 C 
ATOM     36  C   UNL     1     -12.870   3.553   5.752  1.00  0.00     0.029 A 
ATOM     37  N   UNL     1     -14.305   5.240   5.452  1.00  0.00    -0.354 N 
ATOM     38  C   UNL     1     -16.140   5.951   1.607  1.00  0.00     0.074 A 
ATOM     39  C   UNL     1     -15.705   4.975   0.631  1.00  0.00     0.031 C 
ATOM     40  C   UNL     1     -12.951   4.223   6.913  1.00  0.00     0.029 A 
ATOM     41  C   UNL     1     -13.868   5.346   6.752  1.00  0.00     0.049 A 
ATOM     42  H   UNL     1     -14.948   5.867   5.048  1.00  0.00     0.167 HD
ATOM     43  C   UNL     1     -17.010   6.957   1.346  1.00  0.00     0.037 A 
ATOM     44  C   UNL     1     -14.168   6.248   7.707  1.00  0.00     0.037 A 
ATOM     45  C   UNL     1     -17.460   7.911   2.327  1.00  0.00     0.049 A 
ATOM     46  C   UNL     1     -15.148   7.346   7.397  1.00  0.00     0.074 A 
ATOM     47  C   UNL     1     -18.390   8.926   2.177  1.00  0.00     0.029 A 
ATOM     48  N   UNL     1     -17.014   7.971   3.639  1.00  0.00    -0.354 N 
ATOM     49  N   UNL     1     -15.778   7.596   6.274  1.00  0.00    -0.248 NA
ATOM     50  C   UNL     1     -15.463   8.282   8.486  1.00  0.00     0.031 C 
ATOM     51  C   UNL     1     -18.476   9.624   3.386  1.00  0.00     0.029 A 
ATOM     52  C   UNL     1     -17.634   9.016   4.304  1.00  0.00     0.049 A 
ATOM     53  H   UNL     1     -16.354   7.360   4.039  1.00  0.00     0.167 HD
ATOM     54  C   UNL     1     -16.579   8.704   6.526  1.00  0.00     0.074 A 
ATOM     55  C   UNL     1     -16.368   9.064   7.913  1.00  0.00     0.031 C 
ATOM     56  C   UNL     1     -17.412   9.365   5.685  1.00  0.00     0.037 A 
BRANCH  43  57
ATOM     57  C   UNL     1     -17.543   7.071  -0.056  1.00  0.00     0.058 A 
ATOM     58  C   UNL     1     -18.451   6.134  -0.575  1.00  0.00     0.135 A 
ATOM     59  C   UNL     1     -17.172   8.147  -0.879  1.00  0.00     0.135 A 
ATOM     60  F   UNL     1     -18.828   5.077   0.162  1.00  0.00    -0.206 F 
ATOM     61  C   UNL     1     -18.951   6.244  -1.869  1.00  0.00     0.059 A 
ATOM     62  C   UNL     1     -17.681   8.292  -2.167  1.00  0.00     0.059 A 
ATOM     63  F   UNL     1     -16.307   9.072  -0.434  1.00  0.00    -0.206 F 
ATOM     64  C   UNL     1     -18.559   7.326  -2.657  1.00  0.00     0.060 A 
BRANCH  64  65
ATOM     65  S   UNL     1     -19.223   7.457  -4.331  1.00  0.00     0.124 S 
ATOM     66  O   UNL     1     -18.479   6.407  -5.021  1.00  0.00    -0.237 OA
ATOM     67  O   UNL     1     -20.644   7.196  -4.126  1.00  0.00    -0.237 OA
ATOM     68  O   UNL     1     -18.889   8.823  -4.724  1.00  0.00    -0.744 OA
ENDBRANCH  64  65
ENDBRANCH  43  57
BRANCH  44  69
ATOM     69  C   UNL     1     -13.553   6.135   9.057  1.00  0.00     0.058 A 
ATOM     70  C   UNL     1     -14.318   5.747  10.167  1.00  0.00     0.135 A 
ATOM     71  C   UNL     1     -12.191   6.402   9.263  1.00  0.00     0.135 A 
ATOM     72  F   UNL     1     -15.627   5.487  10.021  1.00  0.00    -0.206 F 
ATOM     73  C   UNL     1     -13.761   5.646  11.438  1.00  0.00     0.059 A 
ATOM     74  C   UNL     1     -11.605   6.284  10.520  1.00  0.00     0.059 A 
ATOM     75  F   UNL     1     -11.412   6.759   8.231  1.00  0.00    -0.206 F 
ATOM     76  C   UNL     1     -12.402   5.915  11.604  1.00  0.00     0.060 A 
BRANCH  76  77
ATOM     77  S   UNL     1     -11.676   5.735  13.248  1.00  0.00     0.124 S 
ATOM     78  O   UNL     1     -12.183   6.923  13.924  1.00  0.00    -0.237 OA
ATOM     79  O   UNL     1     -12.232   4.460  13.691  1.00  0.00    -0.237 OA
ATOM     80  O   UNL     1     -10.241   5.723  12.980  1.00  0.00    -0.744 OA
ENDBRANCH  76  77
ENDBRANCH  44  69
BRANCH  56  81
ATOM     81  C   UNL     1     -18.174  10.532   6.249  1.00  0.00     0.058 A 
ATOM     82  C   UNL     1     -17.541  11.748   6.548  1.00  0.00     0.135 A 
ATOM     83  C   UNL     1     -19.558  10.442   6.467  1.00  0.00     0.135 A 
ATOM     84  F   UNL     1     -16.218  11.885   6.364  1.00  0.00    -0.206 F 
ATOM     85  C   UNL     1     -18.248  12.825   7.072  1.00  0.00     0.059 A 
ATOM     86  C   UNL     1     -20.290  11.515   6.965  1.00  0.00     0.059 A 
ATOM     87  F   UNL     1     -20.214   9.304   6.187  1.00  0.00    -0.206 F 
ATOM     88  C   UNL     1     -19.623  12.698   7.279  1.00  0.00     0.060 A 
BRANCH  88  89
ATOM     89  S   UNL     1     -20.533  14.107   7.946  1.00  0.00     0.124 S 
ATOM     90  O   UNL     1     -20.144  14.070   9.352  1.00  0.00    -0.237 OA
ATOM     91  O   UNL     1     -19.999  15.222   7.170  1.00  0.00    -0.237 OA
ATOM     92  O   UNL     1     -21.927  13.771   7.671  1.00  0.00    -0.744 OA
ENDBRANCH  88  89
ENDBRANCH  56  81
ENDBRANCH  30  31
ENDBRANCH  22  25
ENDBRANCH  20  21
ENDBRANCH   1  20
TORSDOF 16
