REMARK SMILES C[C@@H]1CN(S(=O)(=O)c2cccc(C(=O)N3CCC[C@@H]3C(=O)NCCCCNC(=O)c3ccc(-c4c5nc(c(-c6c(F)cc(S(=O)(=O)[O-])cc6F)c6ccc([nH]6)c(-c6c(F)cc(S(=O)(=O)[O-])cc6F)c6nc(c(-c7c(F)cc(S(=O)(=O)[O-])cc7F)c7ccc4[nH]7)C=C6)C=C5)cc3)c2)C[C@H](C)O1
REMARK SMILES IDX 24 1 23 2 22 3 20 4 21 5 19 7 15 8 16 9 17 10 18 11 13 12
REMARK SMILES IDX 14 13 12 14 8 15 9 16 96 17 10 18 11 19 5 20 6 21 7 22 4 23
REMARK SMILES IDX 1 24 2 25 3 26 100 27 98 28 97 29 99 30 25 31 26 32 27 33
REMARK SMILES IDX 28 34 29 36 30 37 31 38 95 39 32 40 94 41 33 42 34 43 35 44
REMARK SMILES IDX 88 45 36 46 93 47 87 48 89 49 37 50 92 51 86 52 85 53 38 55
REMARK SMILES IDX 72 56 51 57 71 58 52 59 55 60 70 61 90 62 53 63 54 64 69 66
REMARK SMILES IDX 91 67 56 68 39 69 40 70 49 71 41 72 42 73 48 74 50 75 43 76
REMARK SMILES IDX 44 77 45 78 46 79 47 80 73 81 74 82 83 83 75 84 76 85 82 86
REMARK SMILES IDX 84 87 77 88 78 89 79 90 80 91 81 92 57 93 58 94 67 95 59 96
REMARK SMILES IDX 60 97 66 98 68 99 61 100 62 101 63 102 64 103 65 104
REMARK H PARENT 22 6 27 35 89 54 55 65
REMARK Flexibility Score: inf
ROOT
ATOM      1  C   UNL     1       1.825  -2.065   0.469  1.00  0.00     0.023 C 
ENDROOT
BRANCH   1   2
ATOM      2  C   UNL     1       1.101  -3.388   0.616  1.00  0.00     0.116 C 
BRANCH   2   3
ATOM      3  N   UNL     1       1.999  -4.512   0.612  1.00  0.00    -0.354 N 
ATOM      4  C   UNL     1       2.175  -5.481   1.556  1.00  0.00     0.242 C 
ATOM      5  O   UNL     1       3.146  -6.233   1.407  1.00  0.00    -0.273 OA
ATOM      6  H   UNL     1       2.570  -4.593  -0.186  1.00  0.00     0.163 HD
BRANCH   4   7
ATOM      7  C   UNL     1       1.354  -5.535   2.867  1.00  0.00     0.174 C 
ATOM      8  N   UNL     1      -0.056  -5.146   2.859  1.00  0.00    -0.327 N 
ATOM      9  C   UNL     1      -0.414  -4.731   4.201  1.00  0.00     0.121 C 
ATOM     10  C   UNL     1       0.771  -3.869   4.580  1.00  0.00     0.024 C 
ATOM     11  C   UNL     1       1.962  -4.585   3.924  1.00  0.00     0.037 C 
BRANCH   8  12
ATOM     12  C   UNL     1      -0.944  -5.724   1.974  1.00  0.00     0.254 C 
ATOM     13  O   UNL     1      -0.798  -6.865   1.550  1.00  0.00    -0.269 OA
BRANCH  12  14
ATOM     14  C   UNL     1      -1.938  -4.795   1.327  1.00  0.00     0.041 A 
ATOM     15  C   UNL     1      -2.972  -2.602   1.046  1.00  0.00     0.083 A 
ATOM     16  C   UNL     1      -3.573  -3.029  -0.140  1.00  0.00     0.022 A 
ATOM     17  C   UNL     1      -2.160  -3.481   1.768  1.00  0.00     0.035 A 
ATOM     18  C   UNL     1      -3.364  -4.337  -0.589  1.00  0.00     0.002 A 
ATOM     19  C   UNL     1      -2.559  -5.216   0.143  1.00  0.00     0.014 A 
BRANCH  15  20
ATOM     20  S   UNL     1      -3.494  -1.084   1.826  1.00  0.00     0.243 S 
ATOM     21  O   UNL     1      -3.660  -1.397   3.236  1.00  0.00    -0.207 OA
ATOM     22  O   UNL     1      -4.616  -0.584   1.067  1.00  0.00    -0.207 OA
BRANCH  20  23
ATOM     23  N   UNL     1      -2.184   0.061   1.717  1.00  0.00    -0.193 NA
ATOM     24  C   UNL     1       1.004   1.142   1.665  1.00  0.00     0.040 C 
ATOM     25  C   UNL     1      -0.042   0.994   2.765  1.00  0.00     0.130 C 
ATOM     26  C   UNL     1      -1.032  -0.190   2.641  1.00  0.00     0.134 C 
ATOM     27  O   UNL     1      -0.699   2.238   3.019  1.00  0.00    -0.373 OA
ATOM     28  C   UNL     1      -1.737   2.564   2.092  1.00  0.00     0.130 C 
ATOM     29  C   UNL     1      -2.767   1.441   1.943  1.00  0.00     0.134 C 
ATOM     30  C   UNL     1      -1.212   3.115   0.773  1.00  0.00     0.040 C 
ENDBRANCH  20  23
ENDBRANCH  15  20
ENDBRANCH  12  14
ENDBRANCH   8  12
ENDBRANCH   4   7
ENDBRANCH   2   3
ENDBRANCH   1   2
BRANCH   1  31
ATOM     31  C   UNL     1       1.959  -1.510  -0.941  1.00  0.00     0.023 C 
BRANCH  31  32
ATOM     32  C   UNL     1       0.694  -1.466  -1.794  1.00  0.00     0.116 C 
BRANCH  32  33
ATOM     33  N   UNL     1      -0.467  -0.821  -1.190  1.00  0.00    -0.352 N 
ATOM     34  C   UNL     1      -1.299   0.148  -1.711  1.00  0.00     0.251 C 
ATOM     35  H   UNL     1      -0.688  -1.120  -0.279  1.00  0.00     0.163 HD
ATOM     36  O   UNL     1      -2.322   0.490  -1.129  1.00  0.00    -0.269 OA
BRANCH  34  37
ATOM     37  C   UNL     1      -0.936   0.834  -2.955  1.00  0.00     0.039 A 
ATOM     38  C   UNL     1      -0.856   2.233  -2.959  1.00  0.00     0.014 A 
ATOM     39  C   UNL     1      -0.648   0.095  -4.098  1.00  0.00     0.014 A 
ATOM     40  C   UNL     1      -0.376   2.892  -4.085  1.00  0.00     0.010 A 
ATOM     41  C   UNL     1      -0.101   0.742  -5.190  1.00  0.00     0.010 A 
ATOM     42  C   UNL     1       0.041   2.141  -5.187  1.00  0.00    -0.014 A 
BRANCH  42  43
ATOM     43  C   UNL     1       0.562   2.760  -6.418  1.00  0.00     0.031 A 
ATOM     44  C   UNL     1      -0.253   2.595  -7.662  1.00  0.00     0.074 A 
ATOM     45  C   UNL     1       1.800   3.283  -6.433  1.00  0.00     0.049 A 
ATOM     46  N   UNL     1       0.115   2.681  -8.908  1.00  0.00    -0.248 NA
ATOM     47  C   UNL     1      -1.662   2.210  -7.466  1.00  0.00     0.031 C 
ATOM     48  C   UNL     1       2.657   3.478  -5.260  1.00  0.00     0.029 A 
ATOM     49  N   UNL     1       2.573   3.698  -7.484  1.00  0.00    -0.354 N 
ATOM     50  C   UNL     1      -0.999   2.303  -9.647  1.00  0.00     0.074 A 
ATOM     51  C   UNL     1      -2.047   1.966  -8.709  1.00  0.00     0.031 C 
ATOM     52  C   UNL     1       3.848   3.953  -5.662  1.00  0.00     0.029 A 
ATOM     53  C   UNL     1       3.854   4.039  -7.118  1.00  0.00     0.049 A 
ATOM     54  H   UNL     1       2.244   3.747  -8.411  1.00  0.00     0.167 HD
ATOM     55  C   UNL     1      -1.122   2.243 -10.992  1.00  0.00     0.037 A 
ATOM     56  C   UNL     1       4.918   4.340  -7.886  1.00  0.00     0.037 A 
ATOM     57  C   UNL     1      -0.065   2.625 -11.888  1.00  0.00     0.049 A 
ATOM     58  C   UNL     1       4.747   4.305  -9.381  1.00  0.00     0.074 A 
ATOM     59  C   UNL     1      -0.070   2.656 -13.269  1.00  0.00     0.029 A 
ATOM     60  N   UNL     1       1.190   3.059 -11.478  1.00  0.00    -0.354 N 
ATOM     61  N   UNL     1       3.692   3.949 -10.079  1.00  0.00    -0.248 NA
ATOM     62  C   UNL     1       5.901   4.707 -10.194  1.00  0.00     0.031 C 
ATOM     63  C   UNL     1       1.191   3.091 -13.695  1.00  0.00     0.029 A 
ATOM     64  C   UNL     1       1.968   3.365 -12.578  1.00  0.00     0.049 A 
ATOM     65  H   UNL     1       1.482   3.137 -10.541  1.00  0.00     0.167 HD
ATOM     66  C   UNL     1       4.046   4.108 -11.413  1.00  0.00     0.074 A 
ATOM     67  C   UNL     1       5.412   4.598 -11.422  1.00  0.00     0.031 C 
ATOM     68  C   UNL     1       3.317   3.871 -12.532  1.00  0.00     0.037 A 
BRANCH  55  69
ATOM     69  C   UNL     1      -2.424   1.743 -11.549  1.00  0.00     0.058 A 
ATOM     70  C   UNL     1      -3.609   2.488 -11.442  1.00  0.00     0.135 A 
ATOM     71  C   UNL     1      -2.493   0.495 -12.189  1.00  0.00     0.135 A 
ATOM     72  F   UNL     1      -3.606   3.676 -10.816  1.00  0.00    -0.206 F 
ATOM     73  C   UNL     1      -4.822   2.001 -11.918  1.00  0.00     0.059 A 
ATOM     74  C   UNL     1      -3.690   0.000 -12.699  1.00  0.00     0.059 A 
ATOM     75  F   UNL     1      -1.393  -0.265 -12.311  1.00  0.00    -0.206 F 
ATOM     76  C   UNL     1      -4.853   0.754 -12.543  1.00  0.00     0.060 A 
BRANCH  76  77
ATOM     77  S   UNL     1      -6.434   0.134 -13.155  1.00  0.00     0.124 S 
ATOM     78  O   UNL     1      -7.088  -0.269 -11.914  1.00  0.00    -0.237 OA
ATOM     79  O   UNL     1      -6.996   1.308 -13.815  1.00  0.00    -0.237 OA
ATOM     80  O   UNL     1      -6.049  -0.956 -14.046  1.00  0.00    -0.744 OA
ENDBRANCH  76  77
ENDBRANCH  55  69
BRANCH  56  81
ATOM     81  C   UNL     1       6.219   4.695  -7.260  1.00  0.00     0.058 A 
ATOM     82  C   UNL     1       6.687   6.017  -7.286  1.00  0.00     0.135 A 
ATOM     83  C   UNL     1       7.006   3.738  -6.599  1.00  0.00     0.135 A 
ATOM     84  F   UNL     1       5.973   6.968  -7.907  1.00  0.00    -0.206 F 
ATOM     85  C   UNL     1       7.893   6.378  -6.692  1.00  0.00     0.059 A 
ATOM     86  C   UNL     1       8.206   4.078  -5.979  1.00  0.00     0.059 A 
ATOM     87  F   UNL     1       6.595   2.463  -6.527  1.00  0.00    -0.206 F 
ATOM     88  C   UNL     1       8.645   5.401  -6.038  1.00  0.00     0.060 A 
BRANCH  88  89
ATOM     89  S   UNL     1      10.180   5.891  -5.221  1.00  0.00     0.124 S 
ATOM     90  O   UNL     1      11.070   6.084  -6.361  1.00  0.00    -0.237 OA
ATOM     91  O   UNL     1       9.778   7.103  -4.513  1.00  0.00    -0.237 OA
ATOM     92  O   UNL     1      10.485   4.748  -4.366  1.00  0.00    -0.744 OA
ENDBRANCH  88  89
ENDBRANCH  56  81
BRANCH  68  93
ATOM     93  C   UNL     1       3.966   4.186 -13.847  1.00  0.00     0.058 A 
ATOM     94  C   UNL     1       4.927   3.337 -14.413  1.00  0.00     0.135 A 
ATOM     95  C   UNL     1       3.559   5.312 -14.580  1.00  0.00     0.135 A 
ATOM     96  F   UNL     1       5.350   2.253 -13.744  1.00  0.00    -0.206 F 
ATOM     97  C   UNL     1       5.473   3.599 -15.664  1.00  0.00     0.059 A 
ATOM     98  C   UNL     1       4.075   5.581 -15.842  1.00  0.00     0.059 A 
ATOM     99  F   UNL     1       2.634   6.146 -14.080  1.00  0.00    -0.206 F 
ATOM    100  C   UNL     1       5.037   4.722 -16.372  1.00  0.00     0.060 A 
BRANCH 100 101
ATOM    101  S   UNL     1       5.713   5.023 -18.017  1.00  0.00     0.124 S 
ATOM    102  O   UNL     1       7.037   5.547 -17.698  1.00  0.00    -0.237 OA
ATOM    103  O   UNL     1       5.685   3.692 -18.616  1.00  0.00    -0.237 OA
ATOM    104  O   UNL     1       4.779   5.984 -18.596  1.00  0.00    -0.744 OA
ENDBRANCH 100 101
ENDBRANCH  68  93
ENDBRANCH  42  43
ENDBRANCH  34  37
ENDBRANCH  32  33
ENDBRANCH  31  32
ENDBRANCH   1  31
TORSDOF 18
