REMARK SMILES Cc1c(C(=O)NCCCCNC(=O)c2ccc(-c3c4nc(c(-c5c(F)cc(S(=O)(=O)[O-])cc5F)c5ccc([nH]5)c(-c5c(F)cc(S(=O)(=O)[O-])cc5F)c5nc(c(-c6c(F)cc(S(=O)(=O)[O-])cc6F)c6ccc3[nH]6)C=C5)C=C4)cc2)cccc1-n1c(C)cc(/C=C2/C(=O)NC(=S)N=C2O)c1C
REMARK SMILES IDX 8 1 7 2 6 3 4 4 5 5 3 7 1 8 2 9 83 10 80 11 82 12 81 13
REMARK SMILES IDX 84 14 85 15 99 16 86 17 87 18 88 19 100 20 89 21 90 22 91 23
REMARK SMILES IDX 97 24 92 25 93 26 96 27 94 28 95 30 98 31 9 33 10 34 11 35
REMARK SMILES IDX 12 36 13 38 14 39 15 40 79 41 16 42 78 43 17 44 18 45 19 46
REMARK SMILES IDX 72 47 20 48 77 49 71 50 73 51 21 52 76 53 70 54 69 55 22 57
REMARK SMILES IDX 56 58 35 59 55 60 36 61 39 62 54 63 74 64 37 65 38 66 53 68
REMARK SMILES IDX 75 69 40 70 23 71 24 72 33 73 25 74 26 75 32 76 34 77 27 78
REMARK SMILES IDX 28 79 29 80 30 81 31 82 57 83 58 84 67 85 59 86 60 87 66 88
REMARK SMILES IDX 68 89 61 90 62 91 63 92 64 93 65 94 41 95 42 96 51 97 43 98
REMARK SMILES IDX 44 99 50 100 52 101 45 102 46 103 47 104 48 105 49 106
REMARK H PARENT 6 6 93 29 98 32 11 37 73 56 39 67
REMARK Flexibility Score: inf
ROOT
ATOM      1  C   UNL     1       4.196  -1.796   1.416  1.00  0.00     0.023 C 
ENDROOT
BRANCH   1   2
ATOM      2  C   UNL     1       3.497  -2.303   0.137  1.00  0.00     0.116 C 
BRANCH   2   3
ATOM      3  N   UNL     1       2.181  -2.833   0.437  1.00  0.00    -0.352 N 
ATOM      4  C   UNL     1       0.889  -2.392   0.388  1.00  0.00     0.251 C 
ATOM      5  O   UNL     1       0.066  -3.247   0.747  1.00  0.00    -0.269 OA
ATOM      6  H   UNL     1       2.233  -3.760   0.764  1.00  0.00     0.163 HD
BRANCH   4   7
ATOM      7  C   UNL     1       0.343  -1.054  -0.057  1.00  0.00     0.044 A 
ATOM      8  C   UNL     1       2.316   0.522   0.442  1.00  0.00     0.047 C 
ATOM      9  C   UNL     1       0.919   0.237  -0.013  1.00  0.00    -0.014 A 
ATOM     10  C   UNL     1       0.102   1.350  -0.364  1.00  0.00     0.049 A 
ATOM     11  C   UNL     1      -1.027  -1.141  -0.436  1.00  0.00     0.014 A 
ATOM     12  C   UNL     1      -1.245   1.231  -0.712  1.00  0.00     0.027 A 
ATOM     13  C   UNL     1      -1.812  -0.027  -0.748  1.00  0.00     0.003 A 
BRANCH  10  14
ATOM     14  N   UNL     1       0.599   2.670  -0.240  1.00  0.00    -0.318 N 
ATOM     15  C   UNL     1       1.322   3.342  -1.206  1.00  0.00     0.020 A 
ATOM     16  C   UNL     1       0.626   3.397   0.950  1.00  0.00     0.027 A 
ATOM     17  C   UNL     1       1.698   2.743  -2.518  1.00  0.00     0.065 C 
ATOM     18  C   UNL     1       1.649   4.576  -0.684  1.00  0.00     0.031 A 
ATOM     19  C   UNL     1       1.203   4.625   0.664  1.00  0.00    -0.003 A 
ATOM     20  C   UNL     1       0.168   2.779   2.233  1.00  0.00     0.065 C 
BRANCH  19  21
ATOM     21  C   UNL     1       1.532   5.699   1.548  1.00  0.00     0.029 C 
ATOM     22  C   UNL     1       0.892   6.227   2.607  1.00  0.00     0.102 C 
ATOM     23  C   UNL     1       1.642   7.250   3.377  1.00  0.00     0.262 C 
ATOM     24  C   UNL     1      -0.410   5.900   3.189  1.00  0.00     0.226 C 
ATOM     25  O   UNL     1       2.603   7.880   2.953  1.00  0.00    -0.269 OA
ATOM     26  N   UNL     1       1.169   7.439   4.649  1.00  0.00    -0.297 N 
ATOM     27  N   UNL     1      -0.818   6.189   4.371  1.00  0.00    -0.184 NA
ATOM     28  C   UNL     1       0.027   6.898   5.184  1.00  0.00     0.203 C 
ATOM     29  H   UNL     1       1.702   8.021   5.238  1.00  0.00     0.172 HD
ATOM     30  S   UNL     1      -0.297   7.207   6.800  1.00  0.00    -0.038 S 
BRANCH  24  31
ATOM     31  O   UNL     1      -1.292   5.305   2.383  1.00  0.00    -0.493 OA
ATOM     32  H   UNL     1      -1.046   5.073   1.509  1.00  0.00     0.295 HD
ENDBRANCH  24  31
ENDBRANCH  19  21
ENDBRANCH  10  14
ENDBRANCH   4   7
ENDBRANCH   2   3
ENDBRANCH   1   2
BRANCH   1  33
ATOM     33  C   UNL     1       5.058  -2.828   2.137  1.00  0.00     0.023 C 
BRANCH  33  34
ATOM     34  C   UNL     1       6.304  -3.175   1.346  1.00  0.00     0.116 C 
BRANCH  34  35
ATOM     35  N   UNL     1       7.513  -2.481   1.741  1.00  0.00    -0.352 N 
ATOM     36  C   UNL     1       8.785  -2.740   1.235  1.00  0.00     0.251 C 
ATOM     37  H   UNL     1       7.430  -1.772   2.419  1.00  0.00     0.163 HD
ATOM     38  O   UNL     1       9.802  -2.562   1.872  1.00  0.00    -0.269 OA
BRANCH  36  39
ATOM     39  C   UNL     1       8.841  -3.083  -0.209  1.00  0.00     0.039 A 
ATOM     40  C   UNL     1       9.382  -2.127  -1.077  1.00  0.00     0.014 A 
ATOM     41  C   UNL     1       8.113  -4.161  -0.702  1.00  0.00     0.014 A 
ATOM     42  C   UNL     1       9.046  -2.161  -2.430  1.00  0.00     0.010 A 
ATOM     43  C   UNL     1       7.681  -4.119  -2.013  1.00  0.00     0.010 A 
ATOM     44  C   UNL     1       8.121  -3.104  -2.874  1.00  0.00    -0.014 A 
BRANCH  44  45
ATOM     45  C   UNL     1       7.536  -3.126  -4.214  1.00  0.00     0.031 A 
ATOM     46  C   UNL     1       7.924  -4.210  -5.150  1.00  0.00     0.074 A 
ATOM     47  C   UNL     1       6.569  -2.247  -4.552  1.00  0.00     0.049 A 
ATOM     48  N   UNL     1       7.632  -4.252  -6.405  1.00  0.00    -0.248 NA
ATOM     49  C   UNL     1       8.727  -5.347  -4.715  1.00  0.00     0.031 C 
ATOM     50  C   UNL     1       5.662  -2.320  -5.694  1.00  0.00     0.029 A 
ATOM     51  N   UNL     1       6.368  -0.965  -4.033  1.00  0.00    -0.354 N 
ATOM     52  C   UNL     1       8.008  -5.484  -6.896  1.00  0.00     0.074 A 
ATOM     53  C   UNL     1       8.689  -6.127  -5.798  1.00  0.00     0.031 C 
ATOM     54  C   UNL     1       5.217  -1.085  -5.972  1.00  0.00     0.029 A 
ATOM     55  C   UNL     1       5.935  -0.161  -5.112  1.00  0.00     0.049 A 
ATOM     56  H   UNL     1       6.503  -0.678  -3.101  1.00  0.00     0.167 HD
ATOM     57  C   UNL     1       7.628  -5.848  -8.156  1.00  0.00     0.037 A 
ATOM     58  C   UNL     1       6.726   0.863  -5.555  1.00  0.00     0.037 A 
ATOM     59  C   UNL     1       7.043  -4.713  -8.870  1.00  0.00     0.049 A 
ATOM     60  C   UNL     1       7.300   0.654  -6.944  1.00  0.00     0.074 A 
ATOM     61  C   UNL     1       5.754  -4.251  -9.080  1.00  0.00     0.029 A 
ATOM     62  N   UNL     1       7.884  -3.675  -9.235  1.00  0.00    -0.354 N 
ATOM     63  N   UNL     1       7.075  -0.393  -7.692  1.00  0.00    -0.248 NA
ATOM     64  C   UNL     1       8.232   1.593  -7.575  1.00  0.00     0.031 C 
ATOM     65  C   UNL     1       5.837  -2.883  -9.480  1.00  0.00     0.029 A 
ATOM     66  C   UNL     1       7.173  -2.527  -9.530  1.00  0.00     0.049 A 
ATOM     67  H   UNL     1       8.865  -3.746  -9.278  1.00  0.00     0.167 HD
ATOM     68  C   UNL     1       7.838  -0.314  -8.825  1.00  0.00     0.074 A 
ATOM     69  C   UNL     1       8.528   0.959  -8.722  1.00  0.00     0.031 C 
ATOM     70  C   UNL     1       7.904  -1.297  -9.766  1.00  0.00     0.037 A 
BRANCH  57  71
ATOM     71  C   UNL     1       7.618  -7.271  -8.677  1.00  0.00     0.058 A 
ATOM     72  C   UNL     1       6.684  -7.663  -9.663  1.00  0.00     0.135 A 
ATOM     73  C   UNL     1       8.446  -8.314  -8.214  1.00  0.00     0.135 A 
ATOM     74  F   UNL     1       5.882  -6.769 -10.258  1.00  0.00    -0.206 F 
ATOM     75  C   UNL     1       6.518  -8.990 -10.072  1.00  0.00     0.059 A 
ATOM     76  C   UNL     1       8.256  -9.656  -8.557  1.00  0.00     0.059 A 
ATOM     77  F   UNL     1       9.521  -8.072  -7.456  1.00  0.00    -0.206 F 
ATOM     78  C   UNL     1       7.282  -9.988  -9.485  1.00  0.00     0.060 A 
BRANCH  78  79
ATOM     79  S   UNL     1       6.997 -11.706  -9.952  1.00  0.00     0.124 S 
ATOM     80  O   UNL     1       5.565 -11.856  -9.712  1.00  0.00    -0.237 OA
ATOM     81  O   UNL     1       7.412 -11.713 -11.350  1.00  0.00    -0.237 OA
ATOM     82  O   UNL     1       7.858 -12.454  -9.039  1.00  0.00    -0.744 OA
ENDBRANCH  78  79
ENDBRANCH  57  71
BRANCH  58  83
ATOM     83  C   UNL     1       7.386   1.580  -4.425  1.00  0.00     0.058 A 
ATOM     84  C   UNL     1       6.545   2.221  -3.491  1.00  0.00     0.135 A 
ATOM     85  C   UNL     1       8.684   1.256  -4.011  1.00  0.00     0.135 A 
ATOM     86  F   UNL     1       5.299   2.580  -3.845  1.00  0.00    -0.206 F 
ATOM     87  C   UNL     1       6.898   2.342  -2.153  1.00  0.00     0.059 A 
ATOM     88  C   UNL     1       9.068   1.390  -2.675  1.00  0.00     0.059 A 
ATOM     89  F   UNL     1       9.536   0.659  -4.858  1.00  0.00    -0.206 F 
ATOM     90  C   UNL     1       8.133   1.846  -1.744  1.00  0.00     0.060 A 
BRANCH  90  91
ATOM     91  S   UNL     1       8.417   1.641   0.032  1.00  0.00     0.124 S 
ATOM     92  O   UNL     1       8.135   2.977   0.544  1.00  0.00    -0.237 OA
ATOM     93  O   UNL     1       7.434   0.613   0.377  1.00  0.00    -0.237 OA
ATOM     94  O   UNL     1       9.812   1.222   0.098  1.00  0.00    -0.744 OA
ENDBRANCH  90  91
ENDBRANCH  58  83
BRANCH  70  95
ATOM     95  C   UNL     1       8.704  -1.128 -11.015  1.00  0.00     0.058 A 
ATOM     96  C   UNL     1       8.441  -0.072 -11.902  1.00  0.00     0.135 A 
ATOM     97  C   UNL     1       9.665  -2.075 -11.412  1.00  0.00     0.135 A 
ATOM     98  F   UNL     1       7.519   0.857 -11.600  1.00  0.00    -0.206 F 
ATOM     99  C   UNL     1       9.114   0.053 -13.114  1.00  0.00     0.059 A 
ATOM    100  C   UNL     1      10.325  -1.990 -12.634  1.00  0.00     0.059 A 
ATOM    101  F   UNL     1       9.997  -3.096 -10.607  1.00  0.00    -0.206 F 
ATOM    102  C   UNL     1      10.055  -0.911 -13.472  1.00  0.00     0.060 A 
BRANCH 102 103
ATOM    103  S   UNL     1      10.912  -0.770 -15.052  1.00  0.00     0.124 S 
ATOM    104  O   UNL     1       9.921  -0.118 -15.903  1.00  0.00    -0.237 OA
ATOM    105  O   UNL     1      12.063   0.049 -14.684  1.00  0.00    -0.237 OA
ATOM    106  O   UNL     1      11.207  -2.157 -15.396  1.00  0.00    -0.744 OA
ENDBRANCH 102 103
ENDBRANCH  70  95
ENDBRANCH  44  45
ENDBRANCH  36  39
ENDBRANCH  34  35
ENDBRANCH  33  34
ENDBRANCH   1  33
TORSDOF 17
