REMARK SMILES C[C@H]1[C@@H](C(=O)NCCCCNC(=O)c2ccc(-c3c4nc(c(-c5c(F)cc(S(=O)(=O)[O-])cc5F)c5ccc([nH]5)c(-c5c(F)cc(S(=O)(=O)[O-])cc5F)c5nc(c(-c6c(F)cc(S(=O)(=O)[O-])cc6F)c6ccc3[nH]6)C=C5)C=C4)cc2)CCN1S(=O)(=O)Cc1cccc(C#N)c1
REMARK SMILES IDX 8 1 7 2 6 3 4 4 5 5 3 7 1 8 2 9 82 10 80 11 81 12 83 13
REMARK SMILES IDX 84 14 85 15 86 16 87 17 88 18 94 19 89 20 91 21 90 22 92 23
REMARK SMILES IDX 93 24 9 25 10 26 11 27 12 28 13 30 14 31 15 32 79 33 16 34
REMARK SMILES IDX 78 35 17 36 18 37 19 38 72 39 20 40 77 41 71 42 73 43 21 44
REMARK SMILES IDX 76 45 70 46 69 47 22 49 56 50 35 51 55 52 36 53 39 54 54 55
REMARK SMILES IDX 74 56 37 57 38 58 53 60 75 61 40 62 23 63 24 64 33 65 25 66
REMARK SMILES IDX 26 67 32 68 34 69 27 70 28 71 29 72 30 73 31 74 57 75 58 76
REMARK SMILES IDX 67 77 59 78 60 79 66 80 68 81 61 82 62 83 63 84 64 85 65 86
REMARK SMILES IDX 41 87 42 88 51 89 43 90 44 91 50 92 52 93 45 94 46 95 47 96
REMARK SMILES IDX 48 97 49 98
REMARK H PARENT 6 6 11 29 73 48 39 59
REMARK Flexibility Score: inf
ROOT
ATOM      1  C   UNL     1       3.471   0.467  -1.877  1.00  0.00     0.023 C 
ENDROOT
BRANCH   1   2
ATOM      2  C   UNL     1       2.820   1.645  -1.133  1.00  0.00     0.116 C 
BRANCH   2   3
ATOM      3  N   UNL     1       1.518   1.953  -1.696  1.00  0.00    -0.356 N 
ATOM      4  C   UNL     1       0.245   1.636  -1.333  1.00  0.00     0.224 C 
ATOM      5  O   UNL     1      -0.627   1.970  -2.141  1.00  0.00    -0.275 OA
ATOM      6  H   UNL     1       1.566   2.505  -2.510  1.00  0.00     0.163 HD
BRANCH   4   7
ATOM      7  C   UNL     1      -0.138   1.048   0.041  1.00  0.00     0.098 C 
ATOM      8  C   UNL     1       1.387  -1.016  -0.365  1.00  0.00     0.026 C 
ATOM      9  C   UNL     1       0.504  -0.248   0.581  1.00  0.00     0.082 C 
ATOM     10  N   UNL     1      -0.569  -1.227   0.828  1.00  0.00    -0.198 NA
ATOM     11  C   UNL     1      -1.650   0.747   0.132  1.00  0.00     0.032 C 
ATOM     12  C   UNL     1      -1.755  -0.769   0.089  1.00  0.00     0.103 C 
BRANCH  10  13
ATOM     13  S   UNL     1      -0.728  -2.007   2.294  1.00  0.00     0.218 S 
ATOM     14  O   UNL     1      -1.194  -0.998   3.227  1.00  0.00    -0.212 OA
ATOM     15  O   UNL     1      -1.532  -3.191   2.067  1.00  0.00    -0.212 OA
BRANCH  13  16
ATOM     16  C   UNL     1       0.939  -2.497   2.851  1.00  0.00     0.189 C 
BRANCH  16  17
ATOM     17  C   UNL     1       1.649  -3.525   1.996  1.00  0.00    -0.030 A 
ATOM     18  C   UNL     1       1.171  -4.835   1.867  1.00  0.00     0.005 A 
ATOM     19  C   UNL     1       2.872  -3.211   1.371  1.00  0.00     0.024 A 
ATOM     20  C   UNL     1       1.852  -5.776   1.085  1.00  0.00     0.002 A 
ATOM     21  C   UNL     1       3.518  -4.128   0.526  1.00  0.00     0.052 A 
ATOM     22  C   UNL     1       3.010  -5.419   0.395  1.00  0.00     0.019 A 
BRANCH  21  23
ATOM     23  C   UNL     1       4.653  -3.716  -0.246  1.00  0.00     0.099 C 
ATOM     24  N   UNL     1       5.543  -3.349  -0.895  1.00  0.00    -0.192 NA
ENDBRANCH  21  23
ENDBRANCH  16  17
ENDBRANCH  13  16
ENDBRANCH  10  13
ENDBRANCH   4   7
ENDBRANCH   2   3
ENDBRANCH   1   2
BRANCH   1  25
ATOM     25  C   UNL     1       4.266   0.788  -3.120  1.00  0.00     0.023 C 
BRANCH  25  26
ATOM     26  C   UNL     1       5.536   1.545  -2.832  1.00  0.00     0.116 C 
BRANCH  26  27
ATOM     27  N   UNL     1       6.442   0.854  -1.919  1.00  0.00    -0.352 N 
ATOM     28  C   UNL     1       7.809   0.733  -2.022  1.00  0.00     0.251 C 
ATOM     29  H   UNL     1       6.026   0.423  -1.138  1.00  0.00     0.163 HD
ATOM     30  O   UNL     1       8.452   0.069  -1.219  1.00  0.00    -0.269 OA
BRANCH  28  31
ATOM     31  C   UNL     1       8.465   1.397  -3.160  1.00  0.00     0.039 A 
ATOM     32  C   UNL     1       9.256   0.643  -4.024  1.00  0.00     0.014 A 
ATOM     33  C   UNL     1       8.137   2.723  -3.452  1.00  0.00     0.014 A 
ATOM     34  C   UNL     1       9.662   1.208  -5.231  1.00  0.00     0.010 A 
ATOM     35  C   UNL     1       8.415   3.223  -4.712  1.00  0.00     0.010 A 
ATOM     36  C   UNL     1       9.203   2.483  -5.605  1.00  0.00    -0.014 A 
BRANCH  36  37
ATOM     37  C   UNL     1       9.567   3.087  -6.908  1.00  0.00     0.031 A 
ATOM     38  C   UNL     1      10.308   4.398  -6.929  1.00  0.00     0.074 A 
ATOM     39  C   UNL     1       9.187   2.494  -8.057  1.00  0.00     0.049 A 
ATOM     40  N   UNL     1      10.672   5.123  -7.953  1.00  0.00    -0.248 NA
ATOM     41  C   UNL     1      10.650   4.994  -5.625  1.00  0.00     0.031 C 
ATOM     42  C   UNL     1       8.411   1.255  -8.158  1.00  0.00     0.029 A 
ATOM     43  N   UNL     1       9.399   2.856  -9.363  1.00  0.00    -0.354 N 
ATOM     44  C   UNL     1      11.270   6.257  -7.416  1.00  0.00     0.074 A 
ATOM     45  C   UNL     1      11.146   6.168  -5.981  1.00  0.00     0.031 C 
ATOM     46  C   UNL     1       8.251   0.939  -9.454  1.00  0.00     0.029 A 
ATOM     47  C   UNL     1       8.868   1.975 -10.276  1.00  0.00     0.049 A 
ATOM     48  H   UNL     1       9.887   3.671  -9.623  1.00  0.00     0.167 HD
ATOM     49  C   UNL     1      11.902   7.264  -8.060  1.00  0.00     0.037 A 
ATOM     50  C   UNL     1       8.874   2.005 -11.623  1.00  0.00     0.037 A 
ATOM     51  C   UNL     1      12.045   7.327  -9.489  1.00  0.00     0.049 A 
ATOM     52  C   UNL     1       9.573   3.143 -12.319  1.00  0.00     0.074 A 
ATOM     53  C   UNL     1      12.715   8.271 -10.244  1.00  0.00     0.029 A 
ATOM     54  N   UNL     1      11.503   6.410 -10.380  1.00  0.00    -0.354 N 
ATOM     55  N   UNL     1      10.201   4.169 -11.794  1.00  0.00    -0.248 NA
ATOM     56  C   UNL     1       9.571   3.125 -13.787  1.00  0.00     0.031 C 
ATOM     57  C   UNL     1      12.525   7.961 -11.594  1.00  0.00     0.029 A 
ATOM     58  C   UNL     1      11.799   6.784 -11.679  1.00  0.00     0.049 A 
ATOM     59  H   UNL     1      10.986   5.612 -10.125  1.00  0.00     0.167 HD
ATOM     60  C   UNL     1      10.695   4.902 -12.868  1.00  0.00     0.074 A 
ATOM     61  C   UNL     1      10.306   4.192 -14.069  1.00  0.00     0.031 C 
ATOM     62  C   UNL     1      11.407   6.057 -12.862  1.00  0.00     0.037 A 
BRANCH  49  63
ATOM     63  C   UNL     1      12.486   8.371  -7.225  1.00  0.00     0.058 A 
ATOM     64  C   UNL     1      13.577   8.155  -6.365  1.00  0.00     0.135 A 
ATOM     65  C   UNL     1      11.966   9.672  -7.304  1.00  0.00     0.135 A 
ATOM     66  F   UNL     1      14.101   6.926  -6.231  1.00  0.00    -0.206 F 
ATOM     67  C   UNL     1      14.111   9.182  -5.594  1.00  0.00     0.059 A 
ATOM     68  C   UNL     1      12.508  10.723  -6.569  1.00  0.00     0.059 A 
ATOM     69  F   UNL     1      10.919   9.935  -8.102  1.00  0.00    -0.206 F 
ATOM     70  C   UNL     1      13.571  10.464  -5.707  1.00  0.00     0.060 A 
BRANCH  70  71
ATOM     71  S   UNL     1      14.289  11.787  -4.711  1.00  0.00     0.124 S 
ATOM     72  O   UNL     1      13.858  11.409  -3.369  1.00  0.00    -0.237 OA
ATOM     73  O   UNL     1      15.715  11.641  -4.984  1.00  0.00    -0.237 OA
ATOM     74  O   UNL     1      13.670  12.994  -5.251  1.00  0.00    -0.744 OA
ENDBRANCH  70  71
ENDBRANCH  49  63
BRANCH  50  75
ATOM     75  C   UNL     1       8.216   0.917 -12.399  1.00  0.00     0.058 A 
ATOM     76  C   UNL     1       8.969   0.020 -13.172  1.00  0.00     0.135 A 
ATOM     77  C   UNL     1       6.823   0.747 -12.378  1.00  0.00     0.135 A 
ATOM     78  F   UNL     1      10.304   0.141 -13.230  1.00  0.00    -0.206 F 
ATOM     79  C   UNL     1       8.365  -0.991 -13.913  1.00  0.00     0.059 A 
ATOM     80  C   UNL     1       6.198  -0.276 -13.085  1.00  0.00     0.059 A 
ATOM     81  F   UNL     1       6.056   1.566 -11.642  1.00  0.00    -0.206 F 
ATOM     82  C   UNL     1       6.977  -1.133 -13.860  1.00  0.00     0.060 A 
BRANCH  82  83
ATOM     83  S   UNL     1       6.209  -2.474 -14.794  1.00  0.00     0.124 S 
ATOM     84  O   UNL     1       6.391  -2.019 -16.167  1.00  0.00    -0.237 OA
ATOM     85  O   UNL     1       7.010  -3.625 -14.389  1.00  0.00    -0.237 OA
ATOM     86  O   UNL     1       4.832  -2.476 -14.307  1.00  0.00    -0.744 OA
ENDBRANCH  82  83
ENDBRANCH  50  75
BRANCH  62  87
ATOM     87  C   UNL     1      11.848   6.608 -14.191  1.00  0.00     0.058 A 
ATOM     88  C   UNL     1      10.938   7.165 -15.102  1.00  0.00     0.135 A 
ATOM     89  C   UNL     1      13.211   6.632 -14.529  1.00  0.00     0.135 A 
ATOM     90  F   UNL     1       9.623   7.164 -14.832  1.00  0.00    -0.206 F 
ATOM     91  C   UNL     1      11.360   7.700 -16.314  1.00  0.00     0.059 A 
ATOM     92  C   UNL     1      13.660   7.195 -15.718  1.00  0.00     0.059 A 
ATOM     93  F   UNL     1      14.126   6.124 -13.687  1.00  0.00    -0.206 F 
ATOM     94  C   UNL     1      12.725   7.715 -16.611  1.00  0.00     0.060 A 
BRANCH  94  95
ATOM     95  S   UNL     1      13.261   8.445 -18.172  1.00  0.00     0.124 S 
ATOM     96  O   UNL     1      12.789   7.457 -19.136  1.00  0.00    -0.237 OA
ATOM     97  O   UNL     1      12.555   9.722 -18.175  1.00  0.00    -0.237 OA
ATOM     98  O   UNL     1      14.710   8.537 -18.025  1.00  0.00    -0.744 OA
ENDBRANCH  94  95
ENDBRANCH  62  87
ENDBRANCH  36  37
ENDBRANCH  28  31
ENDBRANCH  26  27
ENDBRANCH  25  26
ENDBRANCH   1  25
TORSDOF 18
