REMARK SMILES Cc1ccc(-c2c(C(=O)NCCCCNC(=O)c3ccc(-c4c5nc(c(-c6c(F)cc(S(=O)(=O)[O-])cc6F)c6ccc([nH]6)c(-c6c(F)cc(S(=O)(=O)[O-])cc6F)c6nc(c(-c7c(F)cc(S(=O)(=O)[O-])cc7F)c7ccc4[nH]7)C=C6)C=C5)cc3)nnn2Cc2c(F)cccc2Cl)cc1
REMARK SMILES IDX 13 1 12 2 11 3 10 4 8 5 9 6 7 8 6 9 86 10 84 11 85 12 5 13
REMARK SMILES IDX 1 14 2 15 3 16 97 17 4 18 96 19 87 20 88 21 89 22 94 23
REMARK SMILES IDX 90 24 91 25 93 26 95 27 92 28 14 29 15 30 16 31 17 33 18 34
REMARK SMILES IDX 19 35 83 36 20 37 82 38 21 39 22 40 23 41 76 42 24 43 81 44
REMARK SMILES IDX 75 45 77 46 25 47 80 48 74 49 73 50 26 52 60 53 39 54 59 55
REMARK SMILES IDX 40 56 43 57 58 58 78 59 41 60 42 61 57 63 79 64 44 65 27 66
REMARK SMILES IDX 28 67 37 68 29 69 30 70 36 71 38 72 31 73 32 74 33 75 34 76
REMARK SMILES IDX 35 77 61 78 62 79 71 80 63 81 64 82 70 83 72 84 65 85 66 86
REMARK SMILES IDX 67 87 68 88 69 89 45 90 46 91 55 92 47 93 48 94 54 95 56 96
REMARK SMILES IDX 49 97 50 98 51 99 52 100 53 101
REMARK H PARENT 10 7 15 32 77 51 43 62
REMARK Flexibility Score: inf
ROOT
ATOM      1  C   UNL     1      -0.526   0.003   4.606  1.00  0.00     0.023 C 
ENDROOT
BRANCH   1   2
ATOM      2  C   UNL     1      -0.919   0.074   3.125  1.00  0.00     0.023 C 
BRANCH   2   3
ATOM      3  C   UNL     1      -1.726  -1.139   2.647  1.00  0.00     0.116 C 
BRANCH   3   4
ATOM      4  N   UNL     1      -3.119  -1.037   3.004  1.00  0.00    -0.351 N 
ATOM      5  C   UNL     1      -4.261  -0.705   2.325  1.00  0.00     0.274 C 
ATOM      6  O   UNL     1      -5.286  -0.833   3.009  1.00  0.00    -0.267 OA
ATOM      7  H   UNL     1      -3.288  -1.256   3.949  1.00  0.00     0.163 HD
BRANCH   5   8
ATOM      8  C   UNL     1      -4.364  -0.256   0.928  1.00  0.00     0.178 A 
ATOM      9  C   UNL     1      -3.502   0.185  -0.081  1.00  0.00     0.102 A 
ATOM     10  N   UNL     1      -4.353   0.406  -1.154  1.00  0.00    -0.239 N 
ATOM     11  N   UNL     1      -5.663  -0.172   0.433  1.00  0.00    -0.124 NA
ATOM     12  N   UNL     1      -5.639   0.266  -0.807  1.00  0.00    -0.066 NA
BRANCH   9  13
ATOM     13  C   UNL     1      -2.077   0.456  -0.199  1.00  0.00     0.002 A 
ATOM     14  C   UNL     1       2.123   1.317  -0.679  1.00  0.00     0.044 C 
ATOM     15  C   UNL     1       0.655   1.030  -0.555  1.00  0.00    -0.051 A 
ATOM     16  C   UNL     1       0.165  -0.254  -0.810  1.00  0.00     0.004 A 
ATOM     17  C   UNL     1      -0.229   2.023  -0.118  1.00  0.00     0.004 A 
ATOM     18  C   UNL     1      -1.193  -0.533  -0.650  1.00  0.00     0.011 A 
ATOM     19  C   UNL     1      -1.586   1.741   0.054  1.00  0.00     0.011 A 
ENDBRANCH   9  13
BRANCH  10  20
ATOM     20  C   UNL     1      -4.067   0.879  -2.505  1.00  0.00     0.187 C 
BRANCH  20  21
ATOM     21  C   UNL     1      -3.117   0.039  -3.320  1.00  0.00     0.028 A 
ATOM     22  C   UNL     1      -2.201   0.722  -4.135  1.00  0.00     0.129 A 
ATOM     23  C   UNL     1      -3.103  -1.363  -3.380  1.00  0.00     0.049 A 
ATOM     24  F   UNL     1      -2.235   2.062  -4.190  1.00  0.00    -0.207 F 
ATOM     25  C   UNL     1      -1.256   0.059  -4.913  1.00  0.00     0.040 A 
ATOM     26  C   UNL     1      -2.133  -2.037  -4.136  1.00  0.00     0.021 A 
ATOM     27  Cl  UNL     1      -4.257  -2.352  -2.564  1.00  0.00    -0.084 Cl
ATOM     28  C   UNL     1      -1.204  -1.328  -4.896  1.00  0.00     0.005 A 
ENDBRANCH  20  21
ENDBRANCH  10  20
ENDBRANCH   5   8
ENDBRANCH   3   4
ENDBRANCH   2   3
ENDBRANCH   1   2
BRANCH   1  29
ATOM     29  C   UNL     1       0.470  -1.116   4.899  1.00  0.00     0.116 C 
BRANCH  29  30
ATOM     30  N   UNL     1       1.837  -0.691   5.128  1.00  0.00    -0.352 N 
ATOM     31  C   UNL     1       2.917  -1.485   5.490  1.00  0.00     0.251 C 
ATOM     32  H   UNL     1       2.020   0.270   5.013  1.00  0.00     0.163 HD
ATOM     33  O   UNL     1       3.918  -1.006   5.992  1.00  0.00    -0.269 OA
BRANCH  31  34
ATOM     34  C   UNL     1       2.866  -2.924   5.125  1.00  0.00     0.039 A 
ATOM     35  C   UNL     1       3.841  -3.398   4.237  1.00  0.00     0.014 A 
ATOM     36  C   UNL     1       1.762  -3.708   5.442  1.00  0.00     0.014 A 
ATOM     37  C   UNL     1       3.618  -4.580   3.529  1.00  0.00     0.010 A 
ATOM     38  C   UNL     1       1.496  -4.824   4.672  1.00  0.00     0.010 A 
ATOM     39  C   UNL     1       2.405  -5.247   3.692  1.00  0.00    -0.014 A 
BRANCH  39  40
ATOM     40  C   UNL     1       1.942  -6.342   2.845  1.00  0.00     0.031 A 
ATOM     41  C   UNL     1       1.828  -7.720   3.385  1.00  0.00     0.074 A 
ATOM     42  C   UNL     1       1.452  -6.076   1.614  1.00  0.00     0.049 A 
ATOM     43  N   UNL     1       1.747  -8.783   2.654  1.00  0.00    -0.248 NA
ATOM     44  C   UNL     1       1.817  -8.009   4.816  1.00  0.00     0.031 C 
ATOM     45  C   UNL     1       0.568  -6.925   0.820  1.00  0.00     0.029 A 
ATOM     46  N   UNL     1       1.791  -5.034   0.752  1.00  0.00    -0.354 N 
ATOM     47  C   UNL     1       1.393  -9.828   3.476  1.00  0.00     0.074 A 
ATOM     48  C   UNL     1       1.502  -9.308   4.820  1.00  0.00     0.031 C 
ATOM     49  C   UNL     1       0.596  -6.517  -0.457  1.00  0.00     0.029 A 
ATOM     50  C   UNL     1       1.633  -5.507  -0.563  1.00  0.00     0.049 A 
ATOM     51  H   UNL     1       2.086  -4.133   1.016  1.00  0.00     0.167 HD
ATOM     52  C   UNL     1       0.909 -10.986   2.942  1.00  0.00     0.037 A 
ATOM     53  C   UNL     1       2.692  -5.583  -1.425  1.00  0.00     0.037 A 
ATOM     54  C   UNL     1       0.873 -10.934   1.485  1.00  0.00     0.049 A 
ATOM     55  C   UNL     1       2.997  -6.976  -1.919  1.00  0.00     0.074 A 
ATOM     56  C   UNL     1      -0.138 -10.619   0.592  1.00  0.00     0.029 A 
ATOM     57  N   UNL     1       2.058 -10.925   0.759  1.00  0.00    -0.354 N 
ATOM     58  N   UNL     1       2.563  -8.063  -1.349  1.00  0.00    -0.248 NA
ATOM     59  C   UNL     1       3.842  -7.253  -3.078  1.00  0.00     0.031 C 
ATOM     60  C   UNL     1       0.448 -10.377  -0.671  1.00  0.00     0.029 A 
ATOM     61  C   UNL     1       1.815 -10.549  -0.549  1.00  0.00     0.049 A 
ATOM     62  H   UNL     1       2.943 -11.154   1.123  1.00  0.00     0.167 HD
ATOM     63  C   UNL     1       3.103  -9.156  -1.977  1.00  0.00     0.074 A 
ATOM     64  C   UNL     1       3.859  -8.597  -3.080  1.00  0.00     0.031 C 
ATOM     65  C   UNL     1       2.898 -10.424  -1.513  1.00  0.00     0.037 A 
BRANCH  52  66
ATOM     66  C   UNL     1       0.184 -12.024   3.770  1.00  0.00     0.058 A 
ATOM     67  C   UNL     1      -0.962 -12.682   3.274  1.00  0.00     0.135 A 
ATOM     68  C   UNL     1       0.549 -12.375   5.085  1.00  0.00     0.135 A 
ATOM     69  F   UNL     1      -1.384 -12.508   2.015  1.00  0.00    -0.206 F 
ATOM     70  C   UNL     1      -1.746 -13.532   4.053  1.00  0.00     0.059 A 
ATOM     71  C   UNL     1      -0.248 -13.185   5.903  1.00  0.00     0.059 A 
ATOM     72  F   UNL     1       1.707 -11.952   5.614  1.00  0.00    -0.206 F 
ATOM     73  C   UNL     1      -1.403 -13.751   5.379  1.00  0.00     0.060 A 
BRANCH  73  74
ATOM     74  S   UNL     1      -2.496 -14.764   6.393  1.00  0.00     0.124 S 
ATOM     75  O   UNL     1      -3.798 -14.147   6.156  1.00  0.00    -0.237 OA
ATOM     76  O   UNL     1      -2.307 -16.089   5.813  1.00  0.00    -0.237 OA
ATOM     77  O   UNL     1      -1.966 -14.587   7.743  1.00  0.00    -0.744 OA
ENDBRANCH  73  74
ENDBRANCH  52  66
BRANCH  53  78
ATOM     78  C   UNL     1       3.715  -4.531  -1.191  1.00  0.00     0.058 A 
ATOM     79  C   UNL     1       3.348  -3.202  -1.461  1.00  0.00     0.135 A 
ATOM     80  C   UNL     1       4.799  -4.750  -0.328  1.00  0.00     0.135 A 
ATOM     81  F   UNL     1       2.322  -2.938  -2.287  1.00  0.00    -0.206 F 
ATOM     82  C   UNL     1       3.917  -2.143  -0.769  1.00  0.00     0.059 A 
ATOM     83  C   UNL     1       5.387  -3.696   0.374  1.00  0.00     0.059 A 
ATOM     84  F   UNL     1       5.199  -5.998  -0.049  1.00  0.00    -0.206 F 
ATOM     85  C   UNL     1       4.881  -2.409   0.199  1.00  0.00     0.060 A 
BRANCH  85  86
ATOM     86  S   UNL     1       5.294  -1.071   1.342  1.00  0.00     0.124 S 
ATOM     87  O   UNL     1       5.746  -0.024   0.431  1.00  0.00    -0.237 OA
ATOM     88  O   UNL     1       4.002  -0.832   1.980  1.00  0.00    -0.237 OA
ATOM     89  O   UNL     1       6.321  -1.661   2.192  1.00  0.00    -0.744 OA
ENDBRANCH  85  86
ENDBRANCH  53  78
BRANCH  65  90
ATOM     90  C   UNL     1       3.618 -11.665  -1.985  1.00  0.00     0.058 A 
ATOM     91  C   UNL     1       4.926 -11.667  -2.498  1.00  0.00     0.135 A 
ATOM     92  C   UNL     1       3.034 -12.943  -1.804  1.00  0.00     0.135 A 
ATOM     93  F   UNL     1       5.637 -10.535  -2.604  1.00  0.00    -0.206 F 
ATOM     94  C   UNL     1       5.579 -12.839  -2.883  1.00  0.00     0.059 A 
ATOM     95  C   UNL     1       3.689 -14.129  -2.128  1.00  0.00     0.059 A 
ATOM     96  F   UNL     1       1.802 -13.082  -1.291  1.00  0.00    -0.206 F 
ATOM     97  C   UNL     1       4.952 -14.066  -2.697  1.00  0.00     0.060 A 
BRANCH  97  98
ATOM     98  S   UNL     1       5.806 -15.589  -3.143  1.00  0.00     0.124 S 
ATOM     99  O   UNL     1       5.341 -15.793  -4.511  1.00  0.00    -0.237 OA
ATOM    100  O   UNL     1       7.214 -15.227  -3.004  1.00  0.00    -0.237 OA
ATOM    101  O   UNL     1       5.314 -16.545  -2.156  1.00  0.00    -0.744 OA
ENDBRANCH  97  98
ENDBRANCH  65  90
ENDBRANCH  39  40
ENDBRANCH  31  34
ENDBRANCH  29  30
ENDBRANCH   1  29
TORSDOF 17
