REMARK SMILES C[C@@H]1C[C@@H]1C(=O)NCCC(=O)N[C@@](C)(C(=O)NCCCCNC(=O)c1ccc(-c2c3nc(c(-c4c(F)cc(S(=O)(=O)[O-])cc4F)c4ccc([nH]4)c(-c4c(F)cc(S(=O)(=O)[O-])cc4F)c4nc(c(-c5c(F)cc(S(=O)(=O)[O-])cc5F)c5ccc2[nH]5)C=C4)C=C3)cc1)C(F)(F)F
REMARK SMILES IDX 18 1 17 2 15 3 16 4 13 6 14 7 12 8 10 9 11 10 9 12 8 13 7 14
REMARK SMILES IDX 5 15 6 16 4 18 1 19 2 20 3 21 91 22 92 23 93 24 94 25 19 26
REMARK SMILES IDX 20 27 21 28 22 29 23 30 24 32 25 33 26 34 90 35 27 36 89 37
REMARK SMILES IDX 28 38 29 39 30 40 83 41 31 42 88 43 82 44 84 45 32 46 87 47
REMARK SMILES IDX 81 48 80 49 33 51 67 52 46 53 66 54 47 55 50 56 65 57 85 58
REMARK SMILES IDX 48 59 49 60 64 62 86 63 51 64 34 65 35 66 44 67 36 68 37 69
REMARK SMILES IDX 43 70 45 71 38 72 39 73 40 74 41 75 42 76 68 77 69 78 78 79
REMARK SMILES IDX 70 80 71 81 77 82 79 83 72 84 73 85 74 86 75 87 76 88 52 89
REMARK SMILES IDX 53 90 62 91 54 92 55 93 61 94 63 95 56 96 57 97 58 98 59 99
REMARK SMILES IDX 60 100
REMARK H PARENT 17 5 12 11 7 17 22 31 84 50 50 61
REMARK Flexibility Score: inf
ROOT
ATOM      1  C   UNL     1      -6.167   1.861  -2.784  1.00  0.00     0.116 C 
ENDROOT
BRANCH   1   2
ATOM      2  N   UNL     1      -4.994   2.683  -2.546  1.00  0.00    -0.354 N 
ATOM      3  C   UNL     1      -3.998   2.683  -1.623  1.00  0.00     0.254 C 
ATOM      4  O   UNL     1      -3.169   3.583  -1.782  1.00  0.00    -0.272 OA
ATOM      5  H   UNL     1      -4.899   3.407  -3.207  1.00  0.00     0.163 HD
BRANCH   3   6
ATOM      6  C   UNL     1      -3.844   1.574  -0.559  1.00  0.00     0.212 C 
ATOM      7  C   UNL     1      -3.612   0.255  -1.323  1.00  0.00     0.056 C 
BRANCH   6   8
ATOM      8  N   UNL     1      -5.128   1.485   0.229  1.00  0.00    -0.335 N 
ATOM      9  C   UNL     1      -5.494   0.851   1.375  1.00  0.00     0.222 C 
ATOM     10  O   UNL     1      -6.698   0.618   1.522  1.00  0.00    -0.275 OA
ATOM     11  H   UNL     1      -5.863   1.999  -0.176  1.00  0.00     0.164 HD
BRANCH   9  12
ATOM     12  C   UNL     1      -4.526   0.520   2.488  1.00  0.00     0.121 C 
BRANCH  12  13
ATOM     13  C   UNL     1      -4.103  -0.941   2.599  1.00  0.00     0.125 C 
BRANCH  13  14
ATOM     14  N   UNL     1      -3.463  -1.513   1.429  1.00  0.00    -0.355 N 
ATOM     15  C   UNL     1      -2.146  -1.687   1.090  1.00  0.00     0.223 C 
ATOM     16  O   UNL     1      -1.893  -2.220   0.009  1.00  0.00    -0.275 OA
ATOM     17  H   UNL     1      -4.095  -1.837   0.748  1.00  0.00     0.163 HD
BRANCH  15  18
ATOM     18  C   UNL     1      -1.059  -1.267   2.016  1.00  0.00     0.081 C 
ATOM     19  C   UNL     1       0.631  -0.308   0.172  1.00  0.00     0.008 C 
ATOM     20  C   UNL     1       0.259  -0.637   1.578  1.00  0.00    -0.001 C 
ATOM     21  C   UNL     1       0.228  -2.071   2.023  1.00  0.00     0.018 C 
ENDBRANCH  15  18
ENDBRANCH  13  14
ENDBRANCH  12  13
ENDBRANCH   9  12
ENDBRANCH   6   8
BRANCH   6  22
ATOM     22  C   UNL     1      -2.582   1.993   0.227  1.00  0.00     0.420 C 
ATOM     23  F   UNL     1      -2.783   3.123   0.944  1.00  0.00    -0.168 F 
ATOM     24  F   UNL     1      -2.217   1.045   1.118  1.00  0.00    -0.168 F 
ATOM     25  F   UNL     1      -1.495   2.168  -0.556  1.00  0.00    -0.168 F 
ENDBRANCH   6  22
ENDBRANCH   3   6
ENDBRANCH   1   2
BRANCH   1  26
ATOM     26  C   UNL     1      -7.426   2.727  -2.753  1.00  0.00     0.023 C 
BRANCH  26  27
ATOM     27  C   UNL     1      -7.388   3.927  -3.710  1.00  0.00     0.023 C 
BRANCH  27  28
ATOM     28  C   UNL     1      -7.008   3.594  -5.149  1.00  0.00     0.116 C 
BRANCH  28  29
ATOM     29  N   UNL     1      -7.942   2.664  -5.762  1.00  0.00    -0.352 N 
ATOM     30  C   UNL     1      -8.655   2.804  -6.928  1.00  0.00     0.251 C 
ATOM     31  H   UNL     1      -8.083   1.820  -5.276  1.00  0.00     0.163 HD
ATOM     32  O   UNL     1      -9.540   2.003  -7.206  1.00  0.00    -0.269 OA
BRANCH  30  33
ATOM     33  C   UNL     1      -8.365   3.945  -7.822  1.00  0.00     0.039 A 
ATOM     34  C   UNL     1      -9.426   4.729  -8.277  1.00  0.00     0.014 A 
ATOM     35  C   UNL     1      -7.049   4.258  -8.176  1.00  0.00     0.014 A 
ATOM     36  C   UNL     1      -9.160   5.875  -9.028  1.00  0.00     0.010 A 
ATOM     37  C   UNL     1      -6.783   5.439  -8.863  1.00  0.00     0.010 A 
ATOM     38  C   UNL     1      -7.835   6.264  -9.289  1.00  0.00    -0.014 A 
BRANCH  38  39
ATOM     39  C   UNL     1      -7.536   7.551  -9.970  1.00  0.00     0.031 A 
ATOM     40  C   UNL     1      -6.838   7.564 -11.302  1.00  0.00     0.074 A 
ATOM     41  C   UNL     1      -7.839   8.711  -9.352  1.00  0.00     0.049 A 
ATOM     42  N   UNL     1      -6.449   8.588 -12.018  1.00  0.00    -0.248 NA
ATOM     43  C   UNL     1      -6.513   6.258 -11.897  1.00  0.00     0.031 C 
ATOM     44  C   UNL     1      -8.470   8.827  -8.035  1.00  0.00     0.029 A 
ATOM     45  N   UNL     1      -7.650  10.013  -9.742  1.00  0.00    -0.354 N 
ATOM     46  C   UNL     1      -5.830   8.053 -13.141  1.00  0.00     0.074 A 
ATOM     47  C   UNL     1      -5.847   6.614 -12.987  1.00  0.00     0.031 C 
ATOM     48  C   UNL     1      -8.635  10.125  -7.737  1.00  0.00     0.029 A 
ATOM     49  C   UNL     1      -8.084  10.935  -8.818  1.00  0.00     0.049 A 
ATOM     50  H   UNL     1      -7.242  10.264 -10.602  1.00  0.00     0.167 HD
ATOM     51  C   UNL     1      -5.313   8.701 -14.213  1.00  0.00     0.037 A 
ATOM     52  C   UNL     1      -8.032  12.282  -8.832  1.00  0.00     0.037 A 
ATOM     53  C   UNL     1      -5.313  10.134 -14.364  1.00  0.00     0.049 A 
ATOM     54  C   UNL     1      -7.436  12.978 -10.025  1.00  0.00     0.074 A 
ATOM     55  C   UNL     1      -4.871  10.884 -15.440  1.00  0.00     0.029 A 
ATOM     56  N   UNL     1      -5.766  11.034 -13.410  1.00  0.00    -0.354 N 
ATOM     57  N   UNL     1      -6.925  12.455 -11.115  1.00  0.00    -0.248 NA
ATOM     58  C   UNL     1      -7.411  14.447  -9.995  1.00  0.00     0.031 C 
ATOM     59  C   UNL     1      -5.003  12.238 -15.114  1.00  0.00     0.029 A 
ATOM     60  C   UNL     1      -5.583  12.333 -13.859  1.00  0.00     0.049 A 
ATOM     61  H   UNL     1      -6.160  10.787 -12.542  1.00  0.00     0.167 HD
ATOM     62  C   UNL     1      -6.537  13.530 -11.907  1.00  0.00     0.074 A 
ATOM     63  C   UNL     1      -6.892  14.732 -11.181  1.00  0.00     0.031 C 
ATOM     64  C   UNL     1      -5.939  13.522 -13.124  1.00  0.00     0.037 A 
BRANCH  51  65
ATOM     65  C   UNL     1      -4.704   7.870 -15.309  1.00  0.00     0.058 A 
ATOM     66  C   UNL     1      -5.490   7.063 -16.148  1.00  0.00     0.135 A 
ATOM     67  C   UNL     1      -3.322   7.918 -15.558  1.00  0.00     0.135 A 
ATOM     68  F   UNL     1      -6.814   6.967 -15.948  1.00  0.00    -0.206 F 
ATOM     69  C   UNL     1      -4.926   6.314 -17.177  1.00  0.00     0.059 A 
ATOM     70  C   UNL     1      -2.740   7.201 -16.600  1.00  0.00     0.059 A 
ATOM     71  F   UNL     1      -2.522   8.672 -14.788  1.00  0.00    -0.206 F 
ATOM     72  C   UNL     1      -3.550   6.392 -17.396  1.00  0.00     0.060 A 
BRANCH  72  73
ATOM     73  S   UNL     1      -2.838   5.425 -18.744  1.00  0.00     0.124 S 
ATOM     74  O   UNL     1      -2.950   4.068 -18.219  1.00  0.00    -0.237 OA
ATOM     75  O   UNL     1      -3.723   5.748 -19.859  1.00  0.00    -0.237 OA
ATOM     76  O   UNL     1      -1.478   5.944 -18.856  1.00  0.00    -0.744 OA
ENDBRANCH  72  73
ENDBRANCH  51  65
BRANCH  52  77
ATOM     77  C   UNL     1      -8.565  13.059  -7.680  1.00  0.00     0.058 A 
ATOM     78  C   UNL     1      -9.721  13.843  -7.808  1.00  0.00     0.135 A 
ATOM     79  C   UNL     1      -7.934  13.027  -6.426  1.00  0.00     0.135 A 
ATOM     80  F   UNL     1     -10.356  13.913  -8.988  1.00  0.00    -0.206 F 
ATOM     81  C   UNL     1     -10.223  14.582  -6.742  1.00  0.00     0.059 A 
ATOM     82  C   UNL     1      -8.434  13.734  -5.337  1.00  0.00     0.059 A 
ATOM     83  F   UNL     1      -6.834  12.280  -6.245  1.00  0.00    -0.206 F 
ATOM     84  C   UNL     1      -9.574  14.518  -5.508  1.00  0.00     0.060 A 
BRANCH  84  85
ATOM     85  S   UNL     1     -10.262  15.443  -4.118  1.00  0.00     0.124 S 
ATOM     86  O   UNL     1      -9.939  16.816  -4.491  1.00  0.00    -0.237 OA
ATOM     87  O   UNL     1     -11.674  15.080  -4.179  1.00  0.00    -0.237 OA
ATOM     88  O   UNL     1      -9.535  14.912  -2.969  1.00  0.00    -0.744 OA
ENDBRANCH  84  85
ENDBRANCH  52  77
BRANCH  64  89
ATOM     89  C   UNL     1      -5.646  14.854 -13.760  1.00  0.00     0.058 A 
ATOM     90  C   UNL     1      -4.637  15.699 -13.271  1.00  0.00     0.135 A 
ATOM     91  C   UNL     1      -6.352  15.270 -14.902  1.00  0.00     0.135 A 
ATOM     92  F   UNL     1      -3.938  15.355 -12.178  1.00  0.00    -0.206 F 
ATOM     93  C   UNL     1      -4.355  16.920 -13.876  1.00  0.00     0.059 A 
ATOM     94  C   UNL     1      -6.065  16.471 -15.541  1.00  0.00     0.059 A 
ATOM     95  F   UNL     1      -7.320  14.496 -15.417  1.00  0.00    -0.206 F 
ATOM     96  C   UNL     1      -5.072  17.296 -15.013  1.00  0.00     0.060 A 
BRANCH  96  97
ATOM     97  S   UNL     1      -4.672  18.867 -15.807  1.00  0.00     0.124 S 
ATOM     98  O   UNL     1      -5.217  19.826 -14.852  1.00  0.00    -0.237 OA
ATOM     99  O   UNL     1      -3.216  18.812 -15.889  1.00  0.00    -0.237 OA
ATOM    100  O   UNL     1      -5.370  18.790 -17.087  1.00  0.00    -0.744 OA
ENDBRANCH  96  97
ENDBRANCH  64  89
ENDBRANCH  38  39
ENDBRANCH  30  33
ENDBRANCH  28  29
ENDBRANCH  27  28
ENDBRANCH  26  27
ENDBRANCH   1  26
TORSDOF 20
