REMARK SMILES CC(C)CN(C)c1cc2c(cc1Cl)C=C(C(=O)NCCCCNC(=O)c1ccc(-c3c4nc(c(-c5c(F)cc(S(=O)(=O)[O-])cc5F)c5ccc([nH]5)c(-c5c(F)cc(S(=O)(=O)[O-])cc5F)c5nc(c(-c6c(F)cc(S(=O)(=O)[O-])cc6F)c6ccc3[nH]6)C=C5)C=C4)cc1)[C@@H](C(F)(F)F)O2
REMARK SMILES IDX 20 1 19 2 18 3 16 4 17 5 15 7 7 8 8 9 12 10 9 11 11 12 13 13
REMARK SMILES IDX 10 14 97 15 14 16 92 17 5 18 6 19 4 20 2 21 1 22 3 23 93 24
REMARK SMILES IDX 94 25 95 26 96 27 21 28 22 29 23 30 24 31 25 33 26 34 27 35
REMARK SMILES IDX 91 36 28 37 90 38 29 39 30 40 31 41 84 42 32 43 89 44 83 45
REMARK SMILES IDX 85 46 33 47 88 48 82 49 81 50 34 52 68 53 47 54 67 55 48 56
REMARK SMILES IDX 51 57 66 58 86 59 49 60 50 61 65 63 87 64 52 65 35 66 36 67
REMARK SMILES IDX 45 68 37 69 38 70 44 71 46 72 39 73 40 74 41 75 42 76 43 77
REMARK SMILES IDX 69 78 70 79 79 80 71 81 72 82 78 83 80 84 73 85 74 86 75 87
REMARK SMILES IDX 76 88 77 89 53 90 54 91 63 92 55 93 56 94 62 95 64 96 57 97
REMARK SMILES IDX 58 98 59 99 60 100 61 101
REMARK H PARENT 18 6 23 32 85 51 51 62
REMARK Flexibility Score: inf
ROOT
ATOM      1  C   UNL     1      -3.811  -4.495   7.356  1.00  0.00     0.023 C 
ENDROOT
BRANCH   1   2
ATOM      2  C   UNL     1      -2.949  -3.305   7.766  1.00  0.00     0.116 C 
BRANCH   2   3
ATOM      3  N   UNL     1      -1.548  -3.519   7.452  1.00  0.00    -0.352 N 
ATOM      4  C   UNL     1      -0.647  -3.003   6.585  1.00  0.00     0.251 C 
ATOM      5  O   UNL     1       0.498  -3.456   6.674  1.00  0.00    -0.270 OA
ATOM      6  H   UNL     1      -1.151  -4.223   8.015  1.00  0.00     0.163 HD
BRANCH   4   7
ATOM      7  C   UNL     1      -0.946  -1.972   5.553  1.00  0.00     0.067 C 
ATOM      8  C   UNL     1      -0.666   1.051   1.518  1.00  0.00     0.059 A 
ATOM      9  C   UNL     1      -1.678   0.274   2.102  1.00  0.00     0.074 A 
ATOM     10  C   UNL     1       0.589   1.091   2.168  1.00  0.00     0.065 A 
ATOM     11  C   UNL     1      -1.425  -0.475   3.247  1.00  0.00     0.130 A 
ATOM     12  C   UNL     1       0.861   0.272   3.271  1.00  0.00     0.034 A 
ATOM     13  Cl  UNL     1       1.857   2.143   1.637  1.00  0.00    -0.082 Cl
ATOM     14  C   UNL     1      -0.144  -0.535   3.797  1.00  0.00     0.019 A 
ATOM     15  O   UNL     1      -2.476  -1.167   3.788  1.00  0.00    -0.475 OA
ATOM     16  C   UNL     1       0.111  -1.486   4.874  1.00  0.00     0.025 C 
ATOM     17  C   UNL     1      -2.318  -1.466   5.208  1.00  0.00     0.314 C 
BRANCH   8  18
ATOM     18  N   UNL     1      -0.898   1.710   0.298  1.00  0.00    -0.373 N 
ATOM     19  C   UNL     1      -1.970   2.702   0.329  1.00  0.00     0.143 C 
BRANCH  18  20
ATOM     20  C   UNL     1      -0.820   0.860  -0.909  1.00  0.00     0.119 C 
BRANCH  20  21
ATOM     21  C   UNL     1       0.634   0.565  -1.336  1.00  0.00     0.002 C 
ATOM     22  C   UNL     1       1.153  -0.758  -0.766  1.00  0.00     0.009 C 
ATOM     23  C   UNL     1       0.753   0.518  -2.862  1.00  0.00     0.009 C 
ENDBRANCH  20  21
ENDBRANCH  18  20
ENDBRANCH   8  18
BRANCH  17  24
ATOM     24  C   UNL     1      -2.716  -0.247   6.074  1.00  0.00     0.429 C 
ATOM     25  F   UNL     1      -4.054  -0.036   6.012  1.00  0.00    -0.167 F 
ATOM     26  F   UNL     1      -2.412  -0.426   7.382  1.00  0.00    -0.167 F 
ATOM     27  F   UNL     1      -2.110   0.899   5.690  1.00  0.00    -0.167 F 
ENDBRANCH  17  24
ENDBRANCH   4   7
ENDBRANCH   2   3
ENDBRANCH   1   2
BRANCH   1  28
ATOM     28  C   UNL     1      -3.851  -5.623   8.387  1.00  0.00     0.023 C 
BRANCH  28  29
ATOM     29  C   UNL     1      -4.308  -5.213   9.784  1.00  0.00     0.116 C 
BRANCH  29  30
ATOM     30  N   UNL     1      -5.575  -4.492   9.812  1.00  0.00    -0.352 N 
ATOM     31  C   UNL     1      -6.527  -4.484  10.807  1.00  0.00     0.251 C 
ATOM     32  H   UNL     1      -5.775  -3.942   9.020  1.00  0.00     0.163 HD
ATOM     33  O   UNL     1      -7.587  -3.885  10.649  1.00  0.00    -0.269 OA
BRANCH  31  34
ATOM     34  C   UNL     1      -6.271  -5.251  12.043  1.00  0.00     0.039 A 
ATOM     35  C   UNL     1      -5.046  -5.127  12.700  1.00  0.00     0.014 A 
ATOM     36  C   UNL     1      -7.228  -6.163  12.494  1.00  0.00     0.014 A 
ATOM     37  C   UNL     1      -4.706  -6.046  13.682  1.00  0.00     0.010 A 
ATOM     38  C   UNL     1      -6.916  -7.024  13.550  1.00  0.00     0.010 A 
ATOM     39  C   UNL     1      -5.631  -7.012  14.114  1.00  0.00    -0.014 A 
BRANCH  39  40
ATOM     40  C   UNL     1      -5.207  -7.994  15.146  1.00  0.00     0.031 A 
ATOM     41  C   UNL     1      -5.096  -9.460  14.825  1.00  0.00     0.074 A 
ATOM     42  C   UNL     1      -4.819  -7.535  16.352  1.00  0.00     0.049 A 
ATOM     43  N   UNL     1      -4.623 -10.429  15.567  1.00  0.00    -0.248 NA
ATOM     44  C   UNL     1      -5.580  -9.900  13.507  1.00  0.00     0.031 C 
ATOM     45  C   UNL     1      -4.880  -6.133  16.772  1.00  0.00     0.029 A 
ATOM     46  N   UNL     1      -4.250  -8.178  17.421  1.00  0.00    -0.354 N 
ATOM     47  C   UNL     1      -4.763 -11.590  14.815  1.00  0.00     0.074 A 
ATOM     48  C   UNL     1      -5.399 -11.212  13.572  1.00  0.00     0.031 C 
ATOM     49  C   UNL     1      -4.284  -6.007  17.965  1.00  0.00     0.029 A 
ATOM     50  C   UNL     1      -3.857  -7.325  18.425  1.00  0.00     0.049 A 
ATOM     51  H   UNL     1      -4.134  -9.155  17.465  1.00  0.00     0.167 HD
ATOM     52  C   UNL     1      -4.381 -12.853  15.126  1.00  0.00     0.037 A 
ATOM     53  C   UNL     1      -3.214  -7.569  19.583  1.00  0.00     0.037 A 
ATOM     54  C   UNL     1      -3.734 -13.219  16.359  1.00  0.00     0.049 A 
ATOM     55  C   UNL     1      -2.825  -8.978  19.920  1.00  0.00     0.074 A 
ATOM     56  C   UNL     1      -3.301 -14.470  16.765  1.00  0.00     0.029 A 
ATOM     57  N   UNL     1      -3.425 -12.337  17.385  1.00  0.00    -0.354 N 
ATOM     58  N   UNL     1      -2.963 -10.062  19.195  1.00  0.00    -0.248 NA
ATOM     59  C   UNL     1      -2.212  -9.203  21.235  1.00  0.00     0.031 C 
ATOM     60  C   UNL     1      -2.765 -14.350  18.052  1.00  0.00     0.029 A 
ATOM     61  C   UNL     1      -2.825 -13.018  18.431  1.00  0.00     0.049 A 
ATOM     62  H   UNL     1      -3.606 -11.369  17.371  1.00  0.00     0.167 HD
ATOM     63  C   UNL     1      -2.449 -11.099  19.962  1.00  0.00     0.074 A 
ATOM     64  C   UNL     1      -1.986 -10.511  21.203  1.00  0.00     0.031 C 
ATOM     65  C   UNL     1      -2.372 -12.418  19.662  1.00  0.00     0.037 A 
BRANCH  52  66
ATOM     66  C   UNL     1      -4.667 -13.934  14.119  1.00  0.00     0.058 A 
ATOM     67  C   UNL     1      -3.948 -14.029  12.917  1.00  0.00     0.135 A 
ATOM     68  C   UNL     1      -5.660 -14.896  14.365  1.00  0.00     0.135 A 
ATOM     69  F   UNL     1      -2.997 -13.128  12.625  1.00  0.00    -0.206 F 
ATOM     70  C   UNL     1      -4.229 -15.016  11.978  1.00  0.00     0.059 A 
ATOM     71  C   UNL     1      -5.942 -15.907  13.450  1.00  0.00     0.059 A 
ATOM     72  F   UNL     1      -6.375 -14.855  15.500  1.00  0.00    -0.206 F 
ATOM     73  C   UNL     1      -5.234 -15.947  12.250  1.00  0.00     0.060 A 
BRANCH  73  74
ATOM     74  S   UNL     1      -5.608 -17.200  11.006  1.00  0.00     0.124 S 
ATOM     75  O   UNL     1      -6.303 -16.406   9.996  1.00  0.00    -0.237 OA
ATOM     76  O   UNL     1      -4.281 -17.677  10.632  1.00  0.00    -0.237 OA
ATOM     77  O   UNL     1      -6.437 -18.160  11.728  1.00  0.00    -0.744 OA
ENDBRANCH  73  74
ENDBRANCH  52  66
BRANCH  53  78
ATOM     78  C   UNL     1      -2.874  -6.429  20.472  1.00  0.00     0.058 A 
ATOM     79  C   UNL     1      -1.555  -5.967  20.570  1.00  0.00     0.135 A 
ATOM     80  C   UNL     1      -3.873  -5.717  21.155  1.00  0.00     0.135 A 
ATOM     81  F   UNL     1      -0.566  -6.618  19.939  1.00  0.00    -0.206 F 
ATOM     82  C   UNL     1      -1.238  -4.824  21.297  1.00  0.00     0.059 A 
ATOM     83  C   UNL     1      -3.584  -4.559  21.869  1.00  0.00     0.059 A 
ATOM     84  F   UNL     1      -5.153  -6.112  21.076  1.00  0.00    -0.206 F 
ATOM     85  C   UNL     1      -2.263  -4.118  21.930  1.00  0.00     0.060 A 
BRANCH  85  86
ATOM     86  S   UNL     1      -1.857  -2.572  22.771  1.00  0.00     0.124 S 
ATOM     87  O   UNL     1      -1.152  -3.056  23.952  1.00  0.00    -0.237 OA
ATOM     88  O   UNL     1      -1.038  -1.889  21.774  1.00  0.00    -0.237 OA
ATOM     89  O   UNL     1      -3.163  -1.970  23.017  1.00  0.00    -0.744 OA
ENDBRANCH  85  86
ENDBRANCH  53  78
BRANCH  65  90
ATOM     90  C   UNL     1      -1.765 -13.333  20.686  1.00  0.00     0.058 A 
ATOM     91  C   UNL     1      -2.494 -13.753  21.808  1.00  0.00     0.135 A 
ATOM     92  C   UNL     1      -0.492 -13.887  20.481  1.00  0.00     0.135 A 
ATOM     93  F   UNL     1      -3.712 -13.244  22.052  1.00  0.00    -0.206 F 
ATOM     94  C   UNL     1      -1.985 -14.702  22.688  1.00  0.00     0.059 A 
ATOM     95  C   UNL     1       0.029 -14.851  21.338  1.00  0.00     0.059 A 
ATOM     96  F   UNL     1       0.241 -13.519  19.418  1.00  0.00    -0.206 F 
ATOM     97  C   UNL     1      -0.727 -15.255  22.437  1.00  0.00     0.060 A 
BRANCH  97  98
ATOM     98  S   UNL     1      -0.122 -16.553  23.537  1.00  0.00     0.124 S 
ATOM     99  O   UNL     1       0.191 -15.795  24.744  1.00  0.00    -0.237 OA
ATOM    100  O   UNL     1      -1.274 -17.445  23.628  1.00  0.00    -0.237 OA
ATOM    101  O   UNL     1       1.029 -17.096  22.820  1.00  0.00    -0.744 OA
ENDBRANCH  97  98
ENDBRANCH  65  90
ENDBRANCH  39  40
ENDBRANCH  31  34
ENDBRANCH  29  30
ENDBRANCH  28  29
ENDBRANCH   1  28
TORSDOF 18
