REMARK SMILES Cc1ccccc1NC(=O)c1ccccc1NC(=O)CCC(=O)NCCCCNC(=O)c1ccc(-c2c3nc(c(-c4c(F)cc(S(=O)(=O)[O-])cc4F)c4ccc([nH]4)c(-c4c(F)cc(S(=O)(=O)[O-])cc4F)c4nc(c(-c5c(F)cc(S(=O)(=O)[O-])cc5F)c5ccc2[nH]5)C=C4)C=C3)cc1
REMARK SMILES IDX 25 1 24 2 22 3 23 4 21 6 20 7 18 8 17 9 19 11 16 12 11 13
REMARK SMILES IDX 12 14 13 15 15 16 14 17 9 18 8 19 10 21 7 22 1 23 2 24 3 25
REMARK SMILES IDX 4 26 6 27 5 28 26 29 27 30 28 31 29 32 30 33 31 35 32 36
REMARK SMILES IDX 33 37 97 38 34 39 96 40 35 41 36 42 37 43 90 44 38 45 95 46
REMARK SMILES IDX 89 47 91 48 39 49 94 50 88 51 87 52 40 54 74 55 53 56 73 57
REMARK SMILES IDX 54 58 57 59 72 60 92 61 55 62 56 63 71 65 93 66 58 67 41 68
REMARK SMILES IDX 42 69 51 70 43 71 44 72 50 73 52 74 45 75 46 76 47 77 48 78
REMARK SMILES IDX 49 79 75 80 76 81 85 82 77 83 78 84 84 85 86 86 79 87 80 88
REMARK SMILES IDX 81 89 82 90 83 91 59 92 60 93 69 94 61 95 62 96 68 97 70 98
REMARK SMILES IDX 63 99 64 100 65 101 66 102 67 103
REMARK H PARENT 24 5 17 10 8 20 29 34 91 53 57 64
REMARK Flexibility Score: inf
ROOT
ATOM      1  C   UNL     1       1.195   2.486   4.491  1.00  0.00     0.116 C 
ENDROOT
BRANCH   1   2
ATOM      2  N   UNL     1      -0.021   3.287   4.574  1.00  0.00    -0.356 N 
ATOM      3  C   UNL     1      -1.313   2.936   4.811  1.00  0.00     0.220 C 
ATOM      4  O   UNL     1      -2.180   3.812   4.829  1.00  0.00    -0.275 OA
ATOM      5  H   UNL     1       0.118   4.252   4.435  1.00  0.00     0.163 HD
BRANCH   3   6
ATOM      6  C   UNL     1      -1.675   1.496   5.070  1.00  0.00     0.110 C 
BRANCH   6   7
ATOM      7  C   UNL     1      -2.661   0.950   4.043  1.00  0.00     0.110 C 
BRANCH   7   8
ATOM      8  C   UNL     1      -1.976   0.653   2.732  1.00  0.00     0.224 C 
ATOM      9  N   UNL     1      -1.859   1.500   1.676  1.00  0.00    -0.325 N 
ATOM     10  H   UNL     1      -1.234   1.141   1.005  1.00  0.00     0.169 HD
ATOM     11  O   UNL     1      -1.389  -0.435   2.639  1.00  0.00    -0.275 OA
BRANCH   9  12
ATOM     12  C   UNL     1      -2.376   2.749   1.264  1.00  0.00     0.054 A 
ATOM     13  C   UNL     1      -1.851   3.445   0.135  1.00  0.00     0.063 A 
ATOM     14  C   UNL     1      -2.282   4.783  -0.082  1.00  0.00     0.016 A 
ATOM     15  C   UNL     1      -3.217   5.410   0.736  1.00  0.00     0.001 A 
ATOM     16  C   UNL     1      -3.401   3.372   1.991  1.00  0.00     0.027 A 
ATOM     17  C   UNL     1      -3.798   4.690   1.757  1.00  0.00     0.002 A 
BRANCH  13  18
ATOM     18  C   UNL     1      -0.719   3.064  -0.798  1.00  0.00     0.257 C 
ATOM     19  N   UNL     1      -0.305   1.793  -1.130  1.00  0.00    -0.322 N 
ATOM     20  H   UNL     1       0.612   1.768  -1.487  1.00  0.00     0.170 HD
ATOM     21  O   UNL     1      -0.024   3.993  -1.232  1.00  0.00    -0.269 OA
BRANCH  19  22
ATOM     22  C   UNL     1      -0.906   0.530  -1.071  1.00  0.00     0.044 A 
ATOM     23  C   UNL     1       1.401  -0.530  -0.658  1.00  0.00     0.046 C 
ATOM     24  C   UNL     1      -0.094  -0.596  -0.807  1.00  0.00    -0.027 A 
ATOM     25  C   UNL     1      -0.698  -1.843  -0.611  1.00  0.00     0.005 A 
ATOM     26  C   UNL     1      -2.080  -1.977  -0.684  1.00  0.00     0.000 A 
ATOM     27  C   UNL     1      -2.288   0.379  -1.192  1.00  0.00     0.026 A 
ATOM     28  C   UNL     1      -2.872  -0.873  -0.992  1.00  0.00     0.002 A 
ENDBRANCH  19  22
ENDBRANCH  13  18
ENDBRANCH   9  12
ENDBRANCH   7   8
ENDBRANCH   6   7
ENDBRANCH   3   6
ENDBRANCH   1   2
BRANCH   1  29
ATOM     29  C   UNL     1       1.408   1.814   3.135  1.00  0.00     0.023 C 
BRANCH  29  30
ATOM     30  C   UNL     1       1.111   2.704   1.931  1.00  0.00     0.023 C 
BRANCH  30  31
ATOM     31  C   UNL     1       2.296   3.437   1.322  1.00  0.00     0.116 C 
BRANCH  31  32
ATOM     32  N   UNL     1       3.036   2.546   0.419  1.00  0.00    -0.352 N 
ATOM     33  C   UNL     1       3.143   2.686  -0.964  1.00  0.00     0.251 C 
ATOM     34  H   UNL     1       3.499   1.779   0.828  1.00  0.00     0.163 HD
ATOM     35  O   UNL     1       2.872   1.763  -1.728  1.00  0.00    -0.269 OA
BRANCH  33  36
ATOM     36  C   UNL     1       3.843   3.884  -1.491  1.00  0.00     0.039 A 
ATOM     37  C   UNL     1       5.226   3.657  -1.546  1.00  0.00     0.014 A 
ATOM     38  C   UNL     1       3.335   5.103  -1.065  1.00  0.00     0.014 A 
ATOM     39  C   UNL     1       6.027   4.370  -0.676  1.00  0.00     0.010 A 
ATOM     40  C   UNL     1       4.114   5.801  -0.173  1.00  0.00     0.010 A 
ATOM     41  C   UNL     1       5.397   5.312   0.126  1.00  0.00    -0.014 A 
BRANCH  41  42
ATOM     42  C   UNL     1       5.871   5.621   1.463  1.00  0.00     0.031 A 
ATOM     43  C   UNL     1       6.451   6.938   1.722  1.00  0.00     0.074 A 
ATOM     44  C   UNL     1       5.658   4.726   2.454  1.00  0.00     0.049 A 
ATOM     45  N   UNL     1       6.997   7.277   2.834  1.00  0.00    -0.248 NA
ATOM     46  C   UNL     1       6.533   7.968   0.691  1.00  0.00     0.031 C 
ATOM     47  C   UNL     1       5.684   4.933   3.900  1.00  0.00     0.029 A 
ATOM     48  N   UNL     1       5.555   3.349   2.334  1.00  0.00    -0.354 N 
ATOM     49  C   UNL     1       7.204   8.631   2.780  1.00  0.00     0.074 A 
ATOM     50  C   UNL     1       7.050   8.978   1.394  1.00  0.00     0.031 C 
ATOM     51  C   UNL     1       5.837   3.742   4.510  1.00  0.00     0.029 A 
ATOM     52  C   UNL     1       6.097   2.756   3.470  1.00  0.00     0.049 A 
ATOM     53  H   UNL     1       5.162   2.869   1.569  1.00  0.00     0.167 HD
ATOM     54  C   UNL     1       7.297   9.297   3.962  1.00  0.00     0.037 A 
ATOM     55  C   UNL     1       7.266   2.054   3.372  1.00  0.00     0.037 A 
ATOM     56  C   UNL     1       7.697   8.359   5.022  1.00  0.00     0.049 A 
ATOM     57  C   UNL     1       8.428   2.720   4.104  1.00  0.00     0.074 A 
ATOM     58  C   UNL     1       7.056   7.782   6.104  1.00  0.00     0.029 A 
ATOM     59  N   UNL     1       8.869   7.615   4.832  1.00  0.00    -0.354 N 
ATOM     60  N   UNL     1       8.455   3.977   4.467  1.00  0.00    -0.248 NA
ATOM     61  C   UNL     1       9.636   2.006   4.506  1.00  0.00     0.031 C 
ATOM     62  C   UNL     1       7.770   6.593   6.451  1.00  0.00     0.029 A 
ATOM     63  C   UNL     1       8.875   6.479   5.621  1.00  0.00     0.049 A 
ATOM     64  H   UNL     1       9.594   7.868   4.217  1.00  0.00     0.167 HD
ATOM     65  C   UNL     1       9.643   4.259   5.094  1.00  0.00     0.074 A 
ATOM     66  C   UNL     1      10.331   2.979   5.122  1.00  0.00     0.031 C 
ATOM     67  C   UNL     1       9.975   5.516   5.526  1.00  0.00     0.037 A 
BRANCH  54  68
ATOM     68  C   UNL     1       6.776  10.714   4.158  1.00  0.00     0.058 A 
ATOM     69  C   UNL     1       6.751  11.299   5.443  1.00  0.00     0.135 A 
ATOM     70  C   UNL     1       6.148  11.502   3.160  1.00  0.00     0.135 A 
ATOM     71  F   UNL     1       7.274  10.663   6.501  1.00  0.00    -0.206 F 
ATOM     72  C   UNL     1       6.150  12.541   5.709  1.00  0.00     0.059 A 
ATOM     73  C   UNL     1       5.580  12.754   3.393  1.00  0.00     0.059 A 
ATOM     74  F   UNL     1       5.980  11.088   1.902  1.00  0.00    -0.206 F 
ATOM     75  C   UNL     1       5.566  13.263   4.674  1.00  0.00     0.060 A 
BRANCH  75  76
ATOM     76  S   UNL     1       4.765  14.843   5.003  1.00  0.00     0.124 S 
ATOM     77  O   UNL     1       3.620  14.439   5.812  1.00  0.00    -0.237 OA
ATOM     78  O   UNL     1       5.812  15.582   5.699  1.00  0.00    -0.237 OA
ATOM     79  O   UNL     1       4.436  15.343   3.669  1.00  0.00    -0.744 OA
ENDBRANCH  75  76
ENDBRANCH  54  68
BRANCH  55  80
ATOM     80  C   UNL     1       7.370   1.240   2.120  1.00  0.00     0.058 A 
ATOM     81  C   UNL     1       6.421   0.217   1.905  1.00  0.00     0.135 A 
ATOM     82  C   UNL     1       8.134   1.634   1.013  1.00  0.00     0.135 A 
ATOM     83  F   UNL     1       5.639  -0.194   2.918  1.00  0.00    -0.206 F 
ATOM     84  C   UNL     1       6.183  -0.333   0.646  1.00  0.00     0.059 A 
ATOM     85  C   UNL     1       7.918   1.090  -0.261  1.00  0.00     0.059 A 
ATOM     86  F   UNL     1       9.035   2.620   1.130  1.00  0.00    -0.206 F 
ATOM     87  C   UNL     1       6.928   0.120  -0.439  1.00  0.00     0.060 A 
BRANCH  87  88
ATOM     88  S   UNL     1       6.536  -0.477  -2.105  1.00  0.00     0.124 S 
ATOM     89  O   UNL     1       7.547  -1.512  -2.289  1.00  0.00    -0.237 OA
ATOM     90  O   UNL     1       5.165  -0.960  -1.964  1.00  0.00    -0.237 OA
ATOM     91  O   UNL     1       6.700   0.722  -2.920  1.00  0.00    -0.744 OA
ENDBRANCH  87  88
ENDBRANCH  55  80
BRANCH  67  92
ATOM     92  C   UNL     1      11.367   5.958   5.949  1.00  0.00     0.058 A 
ATOM     93  C   UNL     1      12.562   5.365   5.500  1.00  0.00     0.135 A 
ATOM     94  C   UNL     1      11.538   7.133   6.725  1.00  0.00     0.135 A 
ATOM     95  F   UNL     1      12.554   4.321   4.660  1.00  0.00    -0.206 F 
ATOM     96  C   UNL     1      13.825   5.853   5.846  1.00  0.00     0.059 A 
ATOM     97  C   UNL     1      12.787   7.676   7.025  1.00  0.00     0.059 A 
ATOM     98  F   UNL     1      10.487   7.815   7.204  1.00  0.00    -0.206 F 
ATOM     99  C   UNL     1      13.929   7.013   6.605  1.00  0.00     0.060 A 
BRANCH  99 100
ATOM    100  S   UNL     1      15.551   7.699   6.985  1.00  0.00     0.124 S 
ATOM    101  O   UNL     1      15.839   7.071   8.271  1.00  0.00    -0.237 OA
ATOM    102  O   UNL     1      16.369   7.244   5.865  1.00  0.00    -0.237 OA
ATOM    103  O   UNL     1      15.302   9.136   7.023  1.00  0.00    -0.744 OA
ENDBRANCH  99 100
ENDBRANCH  67  92
ENDBRANCH  41  42
ENDBRANCH  33  36
ENDBRANCH  31  32
ENDBRANCH  30  31
ENDBRANCH  29  30
ENDBRANCH   1  29
TORSDOF 19
