REMARK SMILES CC[C@H](C(=O)NCCCCNC(=O)c1ccc(-c2c3nc(c(-c4c(F)cc(S(=O)(=O)[O-])cc4F)c4ccc([nH]4)c(-c4c(F)cc(S(=O)(=O)[O-])cc4F)c4nc(c(-c5c(F)cc(S(=O)(=O)[O-])cc5F)c5ccc2[nH]5)C=C4)C=C3)cc1)C1=CCCc2c(C)ccc(C)c21
REMARK SMILES IDX 9 1 8 2 7 3 6 4 4 5 5 6 3 8 2 9 1 10 80 11 81 12 91 13 82 14
REMARK SMILES IDX 84 15 89 16 83 17 85 18 88 19 90 20 86 21 87 22 10 23 11 24
REMARK SMILES IDX 12 25 13 27 14 28 15 29 79 30 16 31 78 32 17 33 18 34 19 35
REMARK SMILES IDX 72 36 20 37 77 38 71 39 73 40 21 41 76 42 70 43 69 44 22 46
REMARK SMILES IDX 56 47 35 48 55 49 36 50 39 51 54 52 74 53 37 54 38 55 53 57
REMARK SMILES IDX 75 58 40 59 23 60 24 61 33 62 25 63 26 64 32 65 34 66 27 67
REMARK SMILES IDX 28 68 29 69 30 70 31 71 57 72 58 73 67 74 59 75 60 76 66 77
REMARK SMILES IDX 68 78 61 79 62 80 63 81 64 82 65 83 41 84 42 85 51 86 43 87
REMARK SMILES IDX 44 88 50 89 52 90 45 91 46 92 47 93 48 94 49 95
REMARK H PARENT 6 7 11 26 73 45 39 56
REMARK Flexibility Score: inf
ROOT
ATOM      1  C   UNL     1       0.697   0.375   2.533  1.00  0.00     0.023 C 
ENDROOT
BRANCH   1   2
ATOM      2  C   UNL     1       1.407  -0.595   1.588  1.00  0.00     0.023 C 
BRANCH   2   3
ATOM      3  C   UNL     1       0.616  -1.100   0.375  1.00  0.00     0.116 C 
BRANCH   3   4
ATOM      4  N   UNL     1       0.446  -0.125  -0.685  1.00  0.00    -0.356 N 
ATOM      5  C   UNL     1       0.114  -0.228  -2.006  1.00  0.00     0.227 C 
ATOM      6  O   UNL     1       0.146   0.849  -2.621  1.00  0.00    -0.274 OA
ATOM      7  H   UNL     1       0.601   0.802  -0.392  1.00  0.00     0.163 HD
BRANCH   5   8
ATOM      8  C   UNL     1      -0.295  -1.538  -2.772  1.00  0.00     0.108 C 
BRANCH   8   9
ATOM      9  C   UNL     1       0.480  -2.812  -2.361  1.00  0.00     0.015 C 
ATOM     10  C   UNL     1      -0.155  -3.703  -1.297  1.00  0.00     0.005 C 
ENDBRANCH   8   9
BRANCH   8  11
ATOM     11  C   UNL     1      -1.796  -1.761  -3.083  1.00  0.00    -0.032 C 
ATOM     12  C   UNL     1      -2.676  -2.128  -2.130  1.00  0.00    -0.022 C 
ATOM     13  C   UNL     1      -2.453  -0.809  -4.031  1.00  0.00    -0.016 A 
ATOM     14  C   UNL     1      -3.394  -0.994  -1.399  1.00  0.00     0.032 C 
ATOM     15  C   UNL     1      -2.909   0.399  -3.455  1.00  0.00    -0.037 A 
ATOM     16  C   UNL     1      -2.817  -1.097  -5.357  1.00  0.00    -0.043 A 
ATOM     17  C   UNL     1      -3.069   0.422  -1.943  1.00  0.00     0.040 C 
ATOM     18  C   UNL     1      -3.317   1.465  -4.268  1.00  0.00    -0.047 A 
ATOM     19  C   UNL     1      -3.407  -0.081  -6.131  1.00  0.00     0.004 A 
ATOM     20  C   UNL     1      -2.808  -2.492  -5.917  1.00  0.00     0.045 C 
ATOM     21  C   UNL     1      -3.512   2.850  -3.726  1.00  0.00     0.044 C 
ATOM     22  C   UNL     1      -3.587   1.203  -5.613  1.00  0.00     0.004 A 
ENDBRANCH   8  11
ENDBRANCH   5   8
ENDBRANCH   3   4
ENDBRANCH   2   3
ENDBRANCH   1   2
BRANCH   1  23
ATOM     23  C   UNL     1      -0.649  -0.071   3.099  1.00  0.00     0.116 C 
BRANCH  23  24
ATOM     24  N   UNL     1      -0.593  -1.292   3.888  1.00  0.00    -0.352 N 
ATOM     25  C   UNL     1      -1.103  -1.581   5.135  1.00  0.00     0.251 C 
ATOM     26  H   UNL     1      -0.111  -2.036   3.459  1.00  0.00     0.163 HD
ATOM     27  O   UNL     1      -0.879  -2.688   5.622  1.00  0.00    -0.269 OA
BRANCH  25  28
ATOM     28  C   UNL     1      -1.875  -0.581   5.919  1.00  0.00     0.039 A 
ATOM     29  C   UNL     1      -1.685  -0.525   7.306  1.00  0.00     0.014 A 
ATOM     30  C   UNL     1      -2.797   0.283   5.325  1.00  0.00     0.014 A 
ATOM     31  C   UNL     1      -2.353   0.438   8.073  1.00  0.00     0.010 A 
ATOM     32  C   UNL     1      -3.396   1.297   6.076  1.00  0.00     0.010 A 
ATOM     33  C   UNL     1      -3.187   1.387   7.460  1.00  0.00    -0.014 A 
BRANCH  33  34
ATOM     34  C   UNL     1      -3.853   2.463   8.249  1.00  0.00     0.031 A 
ATOM     35  C   UNL     1      -5.358   2.549   8.303  1.00  0.00     0.074 A 
ATOM     36  C   UNL     1      -3.112   3.403   8.870  1.00  0.00     0.049 A 
ATOM     37  N   UNL     1      -6.117   3.448   8.878  1.00  0.00    -0.248 NA
ATOM     38  C   UNL     1      -6.109   1.503   7.591  1.00  0.00     0.031 C 
ATOM     39  C   UNL     1      -1.649   3.478   8.854  1.00  0.00     0.029 A 
ATOM     40  N   UNL     1      -3.487   4.485   9.630  1.00  0.00    -0.354 N 
ATOM     41  C   UNL     1      -7.427   3.089   8.581  1.00  0.00     0.074 A 
ATOM     42  C   UNL     1      -7.358   1.922   7.729  1.00  0.00     0.031 C 
ATOM     43  C   UNL     1      -1.252   4.529   9.590  1.00  0.00     0.029 A 
ATOM     44  C   UNL     1      -2.429   5.224  10.105  1.00  0.00     0.049 A 
ATOM     45  H   UNL     1      -4.427   4.710   9.817  1.00  0.00     0.167 HD
ATOM     46  C   UNL     1      -8.584   3.658   9.000  1.00  0.00     0.037 A 
ATOM     47  C   UNL     1      -2.405   6.335  10.868  1.00  0.00     0.037 A 
ATOM     48  C   UNL     1      -8.657   4.796   9.880  1.00  0.00     0.049 A 
ATOM     49  C   UNL     1      -3.702   6.932  11.345  1.00  0.00     0.074 A 
ATOM     50  C   UNL     1      -9.782   5.406  10.408  1.00  0.00     0.029 A 
ATOM     51  N   UNL     1      -7.561   5.492  10.368  1.00  0.00    -0.354 N 
ATOM     52  N   UNL     1      -4.930   6.542  11.100  1.00  0.00    -0.248 NA
ATOM     53  C   UNL     1      -3.608   8.116  12.212  1.00  0.00     0.031 C 
ATOM     54  C   UNL     1      -9.368   6.491  11.190  1.00  0.00     0.029 A 
ATOM     55  C   UNL     1      -7.983   6.531  11.182  1.00  0.00     0.049 A 
ATOM     56  H   UNL     1      -6.621   5.280  10.165  1.00  0.00     0.167 HD
ATOM     57  C   UNL     1      -5.753   7.416  11.803  1.00  0.00     0.074 A 
ATOM     58  C   UNL     1      -4.883   8.344  12.495  1.00  0.00     0.031 C 
ATOM     59  C   UNL     1      -7.107   7.447  11.869  1.00  0.00     0.037 A 
BRANCH  46  60
ATOM     60  C   UNL     1      -9.872   3.045   8.520  1.00  0.00     0.058 A 
ATOM     61  C   UNL     1     -10.302   1.787   8.975  1.00  0.00     0.135 A 
ATOM     62  C   UNL     1     -10.698   3.728   7.613  1.00  0.00     0.135 A 
ATOM     63  F   UNL     1      -9.544   1.084   9.832  1.00  0.00    -0.206 F 
ATOM     64  C   UNL     1     -11.484   1.213   8.521  1.00  0.00     0.059 A 
ATOM     65  C   UNL     1     -11.900   3.185   7.166  1.00  0.00     0.059 A 
ATOM     66  F   UNL     1     -10.338   4.934   7.147  1.00  0.00    -0.206 F 
ATOM     67  C   UNL     1     -12.275   1.919   7.612  1.00  0.00     0.060 A 
BRANCH  67  68
ATOM     68  S   UNL     1     -13.803   1.156   7.027  1.00  0.00     0.124 S 
ATOM     69  O   UNL     1     -13.289   0.153   6.099  1.00  0.00    -0.237 OA
ATOM     70  O   UNL     1     -14.388   0.639   8.259  1.00  0.00    -0.237 OA
ATOM     71  O   UNL     1     -14.523   2.268   6.413  1.00  0.00    -0.744 OA
ENDBRANCH  67  68
ENDBRANCH  46  60
BRANCH  47  72
ATOM     72  C   UNL     1      -1.105   6.940  11.264  1.00  0.00     0.058 A 
ATOM     73  C   UNL     1      -0.646   6.856  12.587  1.00  0.00     0.135 A 
ATOM     74  C   UNL     1      -0.298   7.614  10.334  1.00  0.00     0.135 A 
ATOM     75  F   UNL     1      -1.386   6.229  13.514  1.00  0.00    -0.206 F 
ATOM     76  C   UNL     1       0.556   7.434  12.981  1.00  0.00     0.059 A 
ATOM     77  C   UNL     1       0.920   8.180  10.699  1.00  0.00     0.059 A 
ATOM     78  F   UNL     1      -0.685   7.709   9.053  1.00  0.00    -0.206 F 
ATOM     79  C   UNL     1       1.333   8.094  12.028  1.00  0.00     0.060 A 
BRANCH  79  80
ATOM     80  S   UNL     1       2.914   8.804  12.539  1.00  0.00     0.124 S 
ATOM     81  O   UNL     1       2.481   9.989  13.270  1.00  0.00    -0.237 OA
ATOM     82  O   UNL     1       3.487   7.730  13.345  1.00  0.00    -0.237 OA
ATOM     83  O   UNL     1       3.593   9.055  11.271  1.00  0.00    -0.744 OA
ENDBRANCH  79  80
ENDBRANCH  47  72
BRANCH  59  84
ATOM     84  C   UNL     1      -7.729   8.499  12.746  1.00  0.00     0.058 A 
ATOM     85  C   UNL     1      -7.732   9.855  12.383  1.00  0.00     0.135 A 
ATOM     86  C   UNL     1      -8.345   8.143  13.956  1.00  0.00     0.135 A 
ATOM     87  F   UNL     1      -7.153  10.250  11.238  1.00  0.00    -0.206 F 
ATOM     88  C   UNL     1      -8.290  10.827  13.208  1.00  0.00     0.059 A 
ATOM     89  C   UNL     1      -8.934   9.095  14.784  1.00  0.00     0.059 A 
ATOM     90  F   UNL     1      -8.382   6.859  14.345  1.00  0.00    -0.206 F 
ATOM     91  C   UNL     1      -8.885  10.437  14.409  1.00  0.00     0.060 A 
BRANCH  91  92
ATOM     92  S   UNL     1      -9.610  11.704  15.472  1.00  0.00     0.124 S 
ATOM     93  O   UNL     1      -8.421  12.292  16.080  1.00  0.00    -0.237 OA
ATOM     94  O   UNL     1     -10.316  12.551  14.515  1.00  0.00    -0.237 OA
ATOM     95  O   UNL     1     -10.466  10.941  16.374  1.00  0.00    -0.744 OA
ENDBRANCH  91  92
ENDBRANCH  59  84
ENDBRANCH  33  34
ENDBRANCH  25  28
ENDBRANCH  23  24
ENDBRANCH   1  23
TORSDOF 16
