REMARK SMILES COc1cc(C[N@@H+]2CCO[C@@H](CC(=O)NCCCCNC(=O)c3ccc(-c4c5nc(c(-c6c(F)cc(S(=O)(=O)[O-])cc6F)c6ccc([nH]6)c(-c6c(F)cc(S(=O)(=O)[O-])cc6F)c6nc(c(-c7c(F)cc(S(=O)(=O)[O-])cc7F)c7ccc4[nH]7)C=C6)C=C5)cc3)C2)ccc1O
REMARK SMILES IDX 17 1 16 2 15 3 13 4 14 5 12 7 11 8 7 9 8 10 89 11 9 13 10 14
REMARK SMILES IDX 6 15 5 16 3 17 4 18 92 19 91 20 90 21 2 22 1 23 93 24 18 26
REMARK SMILES IDX 19 27 20 28 21 29 22 31 23 32 24 33 88 34 25 35 87 36 26 37
REMARK SMILES IDX 27 38 28 39 81 40 29 41 86 42 80 43 82 44 30 45 85 46 79 47
REMARK SMILES IDX 78 48 31 50 65 51 44 52 64 53 45 54 48 55 63 56 83 57 46 58
REMARK SMILES IDX 47 59 62 61 84 62 49 63 32 64 33 65 42 66 34 67 35 68 41 69
REMARK SMILES IDX 43 70 36 71 37 72 38 73 39 74 40 75 66 76 67 77 76 78 68 79
REMARK SMILES IDX 69 80 75 81 77 82 70 83 71 84 72 85 73 86 74 87 50 88 51 89
REMARK SMILES IDX 60 90 52 91 53 92 59 93 61 94 54 95 55 96 56 97 57 98 58 99
REMARK H PARENT 15 6 7 12 93 25 20 30 82 49 48 60
REMARK Flexibility Score: inf
ROOT
ATOM      1  C   UNL     1      -5.266  -0.431  -6.706  1.00  0.00     0.023 C 
ENDROOT
BRANCH   1   2
ATOM      2  C   UNL     1      -6.065  -0.273  -5.408  1.00  0.00     0.116 C 
BRANCH   2   3
ATOM      3  N   UNL     1      -5.995  -1.489  -4.613  1.00  0.00    -0.356 N 
ATOM      4  C   UNL     1      -5.271  -1.750  -3.485  1.00  0.00     0.222 C 
ATOM      5  O   UNL     1      -5.204  -2.910  -3.078  1.00  0.00    -0.275 OA
ATOM      6  H   UNL     1      -6.550  -2.234  -4.937  1.00  0.00     0.163 HD
BRANCH   4   7
ATOM      7  C   UNL     1      -4.576  -0.625  -2.751  1.00  0.00     0.138 C 
BRANCH   7   8
ATOM      8  C   UNL     1      -3.091  -0.434  -3.087  1.00  0.00     0.182 C 
ATOM      9  N   UNL     1      -1.474  -0.108  -5.066  1.00  0.00    -0.327 N 
ATOM     10  C   UNL     1      -1.083   1.143  -4.422  1.00  0.00     0.291 C 
ATOM     11  C   UNL     1      -2.784  -0.557  -4.593  1.00  0.00     0.295 C 
ATOM     12  H   UNL     1      -1.583   0.130  -6.052  1.00  0.00     0.348 HD
ATOM     13  C   UNL     1      -1.397   1.220  -2.919  1.00  0.00     0.222 C 
ATOM     14  O   UNL     1      -2.760   0.898  -2.632  1.00  0.00    -0.366 OA
BRANCH   9  15
ATOM     15  C   UNL     1      -0.455  -1.139  -5.235  1.00  0.00     0.299 C 
BRANCH  15  16
ATOM     16  C   UNL     1       0.015  -1.813  -3.972  1.00  0.00     0.010 A 
ATOM     17  C   UNL     1       1.274  -1.740  -1.915  1.00  0.00     0.160 A 
ATOM     18  C   UNL     1       0.974  -1.194  -3.157  1.00  0.00     0.060 A 
ATOM     19  C   UNL     1       0.722  -2.960  -1.529  1.00  0.00     0.157 A 
ATOM     20  C   UNL     1      -0.183  -3.617  -2.348  1.00  0.00     0.051 A 
ATOM     21  C   UNL     1      -0.546  -3.038  -3.565  1.00  0.00     0.013 A 
BRANCH  17  22
ATOM     22  O   UNL     1       2.094  -1.071  -1.045  1.00  0.00    -0.493 OA
ATOM     23  C   UNL     1       1.312  -0.161  -0.260  1.00  0.00     0.278 C 
ENDBRANCH  17  22
BRANCH  19  24
ATOM     24  O   UNL     1       1.047  -3.512  -0.323  1.00  0.00    -0.504 OA
ATOM     25  H   UNL     1       1.657  -3.079   0.241  1.00  0.00     0.293 HD
ENDBRANCH  19  24
ENDBRANCH  15  16
ENDBRANCH   9  15
ENDBRANCH   7   8
ENDBRANCH   4   7
ENDBRANCH   2   3
ENDBRANCH   1   2
BRANCH   1  26
ATOM     26  C   UNL     1      -6.040  -1.026  -7.868  1.00  0.00     0.023 C 
BRANCH  26  27
ATOM     27  C   UNL     1      -7.128  -0.118  -8.405  1.00  0.00     0.116 C 
BRANCH  27  28
ATOM     28  N   UNL     1      -6.630   1.155  -8.915  1.00  0.00    -0.352 N 
ATOM     29  C   UNL     1      -7.069   1.839 -10.026  1.00  0.00     0.251 C 
ATOM     30  H   UNL     1      -5.896   1.571  -8.408  1.00  0.00     0.163 HD
ATOM     31  O   UNL     1      -6.513   2.863 -10.404  1.00  0.00    -0.269 OA
BRANCH  29  32
ATOM     32  C   UNL     1      -8.204   1.268 -10.774  1.00  0.00     0.039 A 
ATOM     33  C   UNL     1      -8.043   0.965 -12.127  1.00  0.00     0.014 A 
ATOM     34  C   UNL     1      -9.361   0.895 -10.085  1.00  0.00     0.014 A 
ATOM     35  C   UNL     1      -9.021   0.210 -12.775  1.00  0.00     0.010 A 
ATOM     36  C   UNL     1     -10.277   0.059 -10.703  1.00  0.00     0.010 A 
ATOM     37  C   UNL     1     -10.122  -0.285 -12.056  1.00  0.00    -0.014 A 
BRANCH  37  38
ATOM     38  C   UNL     1     -11.158  -1.132 -12.693  1.00  0.00     0.031 A 
ATOM     39  C   UNL     1     -12.579  -0.639 -12.727  1.00  0.00     0.074 A 
ATOM     40  C   UNL     1     -10.848  -2.363 -13.145  1.00  0.00     0.049 A 
ATOM     41  N   UNL     1     -13.665  -1.270 -13.084  1.00  0.00    -0.248 NA
ATOM     42  C   UNL     1     -12.811   0.735 -12.248  1.00  0.00     0.031 C 
ATOM     43  C   UNL     1      -9.516  -2.972 -13.116  1.00  0.00     0.029 A 
ATOM     44  N   UNL     1     -11.641  -3.331 -13.708  1.00  0.00    -0.354 N 
ATOM     45  C   UNL     1     -14.709  -0.387 -12.836  1.00  0.00     0.074 A 
ATOM     46  C   UNL     1     -14.133   0.800 -12.246  1.00  0.00     0.031 C 
ATOM     47  C   UNL     1      -9.580  -4.198 -13.662  1.00  0.00     0.029 A 
ATOM     48  C   UNL     1     -10.960  -4.478 -14.044  1.00  0.00     0.049 A 
ATOM     49  H   UNL     1     -12.607  -3.216 -13.857  1.00  0.00     0.167 HD
ATOM     50  C   UNL     1     -16.027  -0.539 -13.105  1.00  0.00     0.037 A 
ATOM     51  C   UNL     1     -11.405  -5.624 -14.595  1.00  0.00     0.037 A 
ATOM     52  C   UNL     1     -16.581  -1.696 -13.750  1.00  0.00     0.049 A 
ATOM     53  C   UNL     1     -12.866  -5.752 -14.931  1.00  0.00     0.074 A 
ATOM     54  C   UNL     1     -17.891  -1.929 -14.127  1.00  0.00     0.029 A 
ATOM     55  N   UNL     1     -15.848  -2.811 -14.132  1.00  0.00    -0.354 N 
ATOM     56  N   UNL     1     -13.836  -4.891 -14.728  1.00  0.00    -0.248 NA
ATOM     57  C   UNL     1     -13.295  -7.001 -15.575  1.00  0.00     0.031 C 
ATOM     58  C   UNL     1     -17.953  -3.194 -14.721  1.00  0.00     0.029 A 
ATOM     59  C   UNL     1     -16.677  -3.735 -14.742  1.00  0.00     0.049 A 
ATOM     60  H   UNL     1     -14.880  -2.927 -13.989  1.00  0.00     0.167 HD
ATOM     61  C   UNL     1     -14.983  -5.481 -15.246  1.00  0.00     0.074 A 
ATOM     62  C   UNL     1     -14.586  -6.771 -15.775  1.00  0.00     0.031 C 
ATOM     63  C   UNL     1     -16.250  -5.001 -15.282  1.00  0.00     0.037 A 
BRANCH  50  64
ATOM     64  C   UNL     1     -16.943   0.586 -12.714  1.00  0.00     0.058 A 
ATOM     65  C   UNL     1     -16.922   1.818 -13.387  1.00  0.00     0.135 A 
ATOM     66  C   UNL     1     -17.848   0.435 -11.652  1.00  0.00     0.135 A 
ATOM     67  F   UNL     1     -16.060   2.023 -14.396  1.00  0.00    -0.206 F 
ATOM     68  C   UNL     1     -17.736   2.875 -12.996  1.00  0.00     0.059 A 
ATOM     69  C   UNL     1     -18.693   1.469 -11.261  1.00  0.00     0.059 A 
ATOM     70  F   UNL     1     -17.907  -0.722 -10.973  1.00  0.00    -0.206 F 
ATOM     71  C   UNL     1     -18.615   2.692 -11.927  1.00  0.00     0.060 A 
BRANCH  71  72
ATOM     72  S   UNL     1     -19.657   4.076 -11.420  1.00  0.00     0.124 S 
ATOM     73  O   UNL     1     -18.703   4.904 -10.689  1.00  0.00    -0.237 OA
ATOM     74  O   UNL     1     -20.111   4.613 -12.699  1.00  0.00    -0.237 OA
ATOM     75  O   UNL     1     -20.690   3.441 -10.608  1.00  0.00    -0.744 OA
ENDBRANCH  71  72
ENDBRANCH  50  64
BRANCH  51  76
ATOM     76  C   UNL     1     -10.452  -6.723 -14.903  1.00  0.00     0.058 A 
ATOM     77  C   UNL     1     -10.086  -7.001 -16.229  1.00  0.00     0.135 A 
ATOM     78  C   UNL     1      -9.878  -7.504 -13.889  1.00  0.00     0.135 A 
ATOM     79  F   UNL     1     -10.612  -6.284 -17.234  1.00  0.00    -0.206 F 
ATOM     80  C   UNL     1      -9.198  -8.025 -16.542  1.00  0.00     0.059 A 
ATOM     81  C   UNL     1      -8.971  -8.521 -14.175  1.00  0.00     0.059 A 
ATOM     82  F   UNL     1     -10.181  -7.265 -12.604  1.00  0.00    -0.206 F 
ATOM     83  C   UNL     1      -8.645  -8.780 -15.506  1.00  0.00     0.060 A 
BRANCH  83  84
ATOM     84  S   UNL     1      -7.455 -10.075 -15.919  1.00  0.00     0.124 S 
ATOM     85  O   UNL     1      -8.328 -11.121 -16.438  1.00  0.00    -0.237 OA
ATOM     86  O   UNL     1      -6.602  -9.409 -16.899  1.00  0.00    -0.237 OA
ATOM     87  O   UNL     1      -6.816 -10.361 -14.637  1.00  0.00    -0.744 OA
ENDBRANCH  83  84
ENDBRANCH  51  76
BRANCH  63  88
ATOM     88  C   UNL     1     -17.292  -5.846 -15.954  1.00  0.00     0.058 A 
ATOM     89  C   UNL     1     -17.842  -6.972 -15.326  1.00  0.00     0.135 A 
ATOM     90  C   UNL     1     -17.799  -5.474 -17.210  1.00  0.00     0.135 A 
ATOM     91  F   UNL     1     -17.384  -7.369 -14.128  1.00  0.00    -0.206 F 
ATOM     92  C   UNL     1     -18.856  -7.711 -15.926  1.00  0.00     0.059 A 
ATOM     93  C   UNL     1     -18.827  -6.186 -17.818  1.00  0.00     0.059 A 
ATOM     94  F   UNL     1     -17.311  -4.397 -17.845  1.00  0.00    -0.206 F 
ATOM     95  C   UNL     1     -19.345  -7.307 -17.170  1.00  0.00     0.060 A 
BRANCH  95  96
ATOM     96  S   UNL     1     -20.700  -8.240 -17.914  1.00  0.00     0.124 S 
ATOM     97  O   UNL     1     -20.004  -9.422 -18.411  1.00  0.00    -0.237 OA
ATOM     98  O   UNL     1     -21.590  -8.459 -16.778  1.00  0.00    -0.237 OA
ATOM     99  O   UNL     1     -21.212  -7.334 -18.937  1.00  0.00    -0.744 OA
ENDBRANCH  95  96
ENDBRANCH  63  88
ENDBRANCH  37  38
ENDBRANCH  29  32
ENDBRANCH  27  28
ENDBRANCH  26  27
ENDBRANCH   1  26
TORSDOF 19
