REMARK SMILES C[NH2+][C@@H](C)c1ccc(SCc2ccc(C(=O)NCCCCNC(=O)c3ccc(-c4c5nc(c(-c6c(F)cc(S(=O)(=O)[O-])cc6F)c6ccc([nH]6)c(-c6c(F)cc(S(=O)(=O)[O-])cc6F)c6nc(c(-c7c(F)cc(S(=O)(=O)[O-])cc7F)c7ccc4[nH]7)C=C6)C=C5)cc3)cc2)cc1
REMARK SMILES IDX 18 1 17 2 15 3 16 4 14 6 11 7 12 8 92 9 13 10 91 11 10 12
REMARK SMILES IDX 9 13 8 14 5 15 6 16 94 17 7 18 93 19 3 20 4 21 2 22 1 23
REMARK SMILES IDX 19 26 20 27 21 28 22 29 23 30 24 32 25 33 26 34 90 35 27 36
REMARK SMILES IDX 89 37 28 38 29 39 30 40 83 41 31 42 88 43 82 44 84 45 32 46
REMARK SMILES IDX 87 47 81 48 80 49 33 51 67 52 46 53 66 54 47 55 50 56 65 57
REMARK SMILES IDX 85 58 48 59 49 60 64 62 86 63 51 64 34 65 35 66 44 67 36 68
REMARK SMILES IDX 37 69 43 70 45 71 38 72 39 73 40 74 41 75 42 76 68 77 69 78
REMARK SMILES IDX 78 79 70 80 71 81 77 82 79 83 72 84 73 85 74 86 75 87 76 88
REMARK SMILES IDX 52 89 53 90 62 91 54 92 55 93 61 94 63 95 56 96 57 97 58 98
REMARK SMILES IDX 59 99 60 100
REMARK H PARENT 17 5 2 24 2 25 22 31 84 50 50 61
REMARK Flexibility Score: inf
ROOT
ATOM      1  C   UNL     1       3.684  -2.173  -7.115  1.00  0.00     0.116 C 
ENDROOT
BRANCH   1   2
ATOM      2  N   UNL     1       3.458  -3.574  -6.821  1.00  0.00    -0.352 N 
ATOM      3  C   UNL     1       2.314  -4.328  -6.749  1.00  0.00     0.251 C 
ATOM      4  O   UNL     1       2.447  -5.532  -6.517  1.00  0.00    -0.269 OA
ATOM      5  H   UNL     1       4.281  -4.080  -6.637  1.00  0.00     0.163 HD
BRANCH   3   6
ATOM      6  C   UNL     1       0.938  -3.787  -6.958  1.00  0.00     0.039 A 
ATOM      7  C   UNL     1      -1.768  -2.955  -7.247  1.00  0.00    -0.038 A 
ATOM      8  C   UNL     1      -1.408  -4.305  -7.382  1.00  0.00     0.005 A 
ATOM      9  C   UNL     1      -0.744  -2.030  -7.039  1.00  0.00     0.005 A 
ATOM     10  C   UNL     1      -0.075  -4.712  -7.248  1.00  0.00     0.014 A 
ATOM     11  C   UNL     1       0.575  -2.447  -6.836  1.00  0.00     0.014 A 
BRANCH   7  12
ATOM     12  C   UNL     1      -3.235  -2.592  -7.305  1.00  0.00     0.110 C 
BRANCH  12  13
ATOM     13  S   UNL     1      -3.769  -0.943  -6.727  1.00  0.00    -0.121 SA
BRANCH  13  14
ATOM     14  C   UNL     1      -2.989  -0.738  -5.127  1.00  0.00     0.008 A 
ATOM     15  C   UNL     1      -1.692  -0.207  -2.657  1.00  0.00     0.009 A 
ATOM     16  C   UNL     1      -2.039   0.836  -3.525  1.00  0.00     0.011 A 
ATOM     17  C   UNL     1      -1.975  -1.521  -3.063  1.00  0.00     0.011 A 
ATOM     18  C   UNL     1      -2.688   0.573  -4.737  1.00  0.00     0.015 A 
ATOM     19  C   UNL     1      -2.633  -1.783  -4.273  1.00  0.00     0.015 A 
BRANCH  15  20
ATOM     20  C   UNL     1      -1.018   0.031  -1.308  1.00  0.00     0.210 C 
ATOM     21  C   UNL     1      -1.511   1.315  -0.624  1.00  0.00     0.081 C 
BRANCH  20  22
ATOM     22  N   UNL     1       0.440   0.003  -1.474  1.00  0.00    -0.343 N 
ATOM     23  C   UNL     1       1.164  -0.009  -0.210  1.00  0.00     0.331 C 
ATOM     24  H   UNL     1       0.690  -0.836  -1.998  1.00  0.00     0.346 HD
ATOM     25  H   UNL     1       0.705   0.856  -1.965  1.00  0.00     0.346 HD
ENDBRANCH  20  22
ENDBRANCH  15  20
ENDBRANCH  13  14
ENDBRANCH  12  13
ENDBRANCH   7  12
ENDBRANCH   3   6
ENDBRANCH   1   2
BRANCH   1  26
ATOM     26  C   UNL     1       3.741  -1.345  -5.827  1.00  0.00     0.023 C 
BRANCH  26  27
ATOM     27  C   UNL     1       5.109  -1.345  -5.142  1.00  0.00     0.023 C 
BRANCH  27  28
ATOM     28  C   UNL     1       6.226  -0.696  -5.953  1.00  0.00     0.116 C 
BRANCH  28  29
ATOM     29  N   UNL     1       5.957   0.692  -6.295  1.00  0.00    -0.352 N 
ATOM     30  C   UNL     1       6.865   1.694  -6.550  1.00  0.00     0.251 C 
ATOM     31  H   UNL     1       5.007   0.946  -6.352  1.00  0.00     0.163 HD
ATOM     32  O   UNL     1       6.488   2.844  -6.723  1.00  0.00    -0.269 OA
BRANCH  30  33
ATOM     33  C   UNL     1       8.306   1.363  -6.560  1.00  0.00     0.039 A 
ATOM     34  C   UNL     1       9.172   2.115  -5.764  1.00  0.00     0.014 A 
ATOM     35  C   UNL     1       8.786   0.286  -7.310  1.00  0.00     0.014 A 
ATOM     36  C   UNL     1      10.514   1.742  -5.666  1.00  0.00     0.010 A 
ATOM     37  C   UNL     1      10.107  -0.122  -7.161  1.00  0.00     0.010 A 
ATOM     38  C   UNL     1      10.983   0.599  -6.335  1.00  0.00    -0.014 A 
BRANCH  38  39
ATOM     39  C   UNL     1      12.384   0.136  -6.175  1.00  0.00     0.031 A 
ATOM     40  C   UNL     1      13.316   0.138  -7.355  1.00  0.00     0.074 A 
ATOM     41  C   UNL     1      12.791  -0.351  -4.986  1.00  0.00     0.049 A 
ATOM     42  N   UNL     1      14.546  -0.298  -7.434  1.00  0.00    -0.248 NA
ATOM     43  C   UNL     1      12.787   0.675  -8.619  1.00  0.00     0.031 C 
ATOM     44  C   UNL     1      11.960  -0.456  -3.783  1.00  0.00     0.029 A 
ATOM     45  N   UNL     1      14.002  -0.863  -4.594  1.00  0.00    -0.354 N 
ATOM     46  C   UNL     1      14.932  -0.105  -8.754  1.00  0.00     0.074 A 
ATOM     47  C   UNL     1      13.792   0.446  -9.453  1.00  0.00     0.031 C 
ATOM     48  C   UNL     1      12.691  -0.982  -2.787  1.00  0.00     0.029 A 
ATOM     49  C   UNL     1      14.029  -1.282  -3.285  1.00  0.00     0.049 A 
ATOM     50  H   UNL     1      14.780  -0.924  -5.195  1.00  0.00     0.167 HD
ATOM     51  C   UNL     1      16.136  -0.345  -9.326  1.00  0.00     0.037 A 
ATOM     52  C   UNL     1      15.020  -1.850  -2.569  1.00  0.00     0.037 A 
ATOM     53  C   UNL     1      17.278  -0.858  -8.616  1.00  0.00     0.049 A 
ATOM     54  C   UNL     1      16.354  -2.085  -3.224  1.00  0.00     0.074 A 
ATOM     55  C   UNL     1      18.561  -1.071  -9.091  1.00  0.00     0.029 A 
ATOM     56  N   UNL     1      17.278  -1.233  -7.281  1.00  0.00    -0.354 N 
ATOM     57  N   UNL     1      16.721  -1.833  -4.458  1.00  0.00    -0.248 NA
ATOM     58  C   UNL     1      17.410  -2.675  -2.390  1.00  0.00     0.031 C 
ATOM     59  C   UNL     1      19.328  -1.607  -8.051  1.00  0.00     0.029 A 
ATOM     60  C   UNL     1      18.534  -1.690  -6.918  1.00  0.00     0.049 A 
ATOM     61  H   UNL     1      16.500  -1.183  -6.680  1.00  0.00     0.167 HD
ATOM     62  C   UNL     1      18.058  -2.207  -4.540  1.00  0.00     0.074 A 
ATOM     63  C   UNL     1      18.437  -2.692  -3.229  1.00  0.00     0.031 C 
ATOM     64  C   UNL     1      18.896  -2.154  -5.604  1.00  0.00     0.037 A 
BRANCH  51  65
ATOM     65  C   UNL     1      16.288  -0.042 -10.790  1.00  0.00     0.058 A 
ATOM     66  C   UNL     1      16.345   1.278 -11.264  1.00  0.00     0.135 A 
ATOM     67  C   UNL     1      16.433  -1.081 -11.724  1.00  0.00     0.135 A 
ATOM     68  F   UNL     1      16.194   2.308 -10.416  1.00  0.00    -0.206 F 
ATOM     69  C   UNL     1      16.522   1.559 -12.615  1.00  0.00     0.059 A 
ATOM     70  C   UNL     1      16.636  -0.823 -13.077  1.00  0.00     0.059 A 
ATOM     71  F   UNL     1      16.383  -2.361 -11.324  1.00  0.00    -0.206 F 
ATOM     72  C   UNL     1      16.669   0.501 -13.514  1.00  0.00     0.060 A 
BRANCH  72  73
ATOM     73  S   UNL     1      16.922   0.883 -15.260  1.00  0.00     0.124 S 
ATOM     74  O   UNL     1      15.585   1.308 -15.661  1.00  0.00    -0.237 OA
ATOM     75  O   UNL     1      17.932   1.935 -15.206  1.00  0.00    -0.237 OA
ATOM     76  O   UNL     1      17.373  -0.386 -15.823  1.00  0.00    -0.744 OA
ENDBRANCH  72  73
ENDBRANCH  51  65
BRANCH  52  77
ATOM     77  C   UNL     1      14.798  -2.219  -1.146  1.00  0.00     0.058 A 
ATOM     78  C   UNL     1      15.419  -1.503  -0.112  1.00  0.00     0.135 A 
ATOM     79  C   UNL     1      13.970  -3.294  -0.791  1.00  0.00     0.135 A 
ATOM     80  F   UNL     1      16.224  -0.469  -0.401  1.00  0.00    -0.206 F 
ATOM     81  C   UNL     1      15.250  -1.856   1.223  1.00  0.00     0.059 A 
ATOM     82  C   UNL     1      13.765  -3.652   0.538  1.00  0.00     0.059 A 
ATOM     83  F   UNL     1      13.337  -3.998  -1.743  1.00  0.00    -0.206 F 
ATOM     84  C   UNL     1      14.422  -2.935   1.538  1.00  0.00     0.060 A 
BRANCH  84  85
ATOM     85  S   UNL     1      14.184  -3.369   3.275  1.00  0.00     0.124 S 
ATOM     86  O   UNL     1      15.443  -4.036   3.584  1.00  0.00    -0.237 OA
ATOM     87  O   UNL     1      13.983  -2.063   3.895  1.00  0.00    -0.237 OA
ATOM     88  O   UNL     1      13.004  -4.228   3.245  1.00  0.00    -0.744 OA
ENDBRANCH  84  85
ENDBRANCH  52  77
BRANCH  64  89
ATOM     89  C   UNL     1      20.316  -2.595  -5.388  1.00  0.00     0.058 A 
ATOM     90  C   UNL     1      20.655  -3.950  -5.260  1.00  0.00     0.135 A 
ATOM     91  C   UNL     1      21.356  -1.651  -5.364  1.00  0.00     0.135 A 
ATOM     92  F   UNL     1      19.697  -4.891  -5.270  1.00  0.00    -0.206 F 
ATOM     93  C   UNL     1      21.976  -4.355  -5.094  1.00  0.00     0.059 A 
ATOM     94  C   UNL     1      22.685  -2.035  -5.225  1.00  0.00     0.059 A 
ATOM     95  F   UNL     1      21.084  -0.343  -5.493  1.00  0.00    -0.206 F 
ATOM     96  C   UNL     1      22.984  -3.389  -5.079  1.00  0.00     0.060 A 
BRANCH  96  97
ATOM     97  S   UNL     1      24.698  -3.928  -4.902  1.00  0.00     0.124 S 
ATOM     98  O   UNL     1      24.760  -4.244  -3.479  1.00  0.00    -0.237 OA
ATOM     99  O   UNL     1      24.764  -5.070  -5.809  1.00  0.00    -0.237 OA
ATOM    100  O   UNL     1      25.466  -2.759  -5.321  1.00  0.00    -0.744 OA
ENDBRANCH  96  97
ENDBRANCH  64  89
ENDBRANCH  38  39
ENDBRANCH  30  33
ENDBRANCH  28  29
ENDBRANCH  27  28
ENDBRANCH  26  27
ENDBRANCH   1  26
TORSDOF 19
