REMARK SMILES Cc1ccc(NC(=O)NC2(C(=O)NCCCCNC(=O)c3ccc(-c4c5nc(c(-c6c(F)cc(S(=O)(=O)[O-])cc6F)c6ccc([nH]6)c(-c6c(F)cc(S(=O)(=O)[O-])cc6F)c6nc(c(-c7c(F)cc(S(=O)(=O)[O-])cc7F)c7ccc4[nH]7)C=C6)C=C5)cc3)CC2)c(C)n1
REMARK SMILES IDX 16 1 15 2 14 3 13 4 11 5 12 6 10 8 87 9 88 10 9 11 6 12 7 13
REMARK SMILES IDX 8 15 5 17 1 18 2 19 3 20 91 21 4 22 89 23 90 24 17 25 18 26
REMARK SMILES IDX 19 27 20 29 21 30 22 31 86 32 23 33 85 34 24 35 25 36 26 37
REMARK SMILES IDX 79 38 27 39 84 40 78 41 80 42 28 43 83 44 77 45 76 46 29 48
REMARK SMILES IDX 63 49 42 50 62 51 43 52 46 53 61 54 81 55 44 56 45 57 60 59
REMARK SMILES IDX 82 60 47 61 30 62 31 63 40 64 32 65 33 66 39 67 41 68 34 69
REMARK SMILES IDX 35 70 36 71 37 72 38 73 64 74 65 75 74 76 66 77 67 78 73 79
REMARK SMILES IDX 75 80 68 81 69 82 70 83 71 84 72 85 48 86 49 87 58 88 50 89
REMARK SMILES IDX 51 90 57 91 59 92 52 93 53 94 54 95 55 96 56 97
REMARK H PARENT 13 7 6 14 9 16 18 28 80 47 46 58
REMARK Flexibility Score: inf
ROOT
ATOM      1  C   UNL     1      -1.046   0.884   3.906  1.00  0.00     0.023 C 
ENDROOT
BRANCH   1   2
ATOM      2  C   UNL     1      -0.169   0.885   2.660  1.00  0.00     0.023 C 
BRANCH   2   3
ATOM      3  C   UNL     1       1.242   1.489   2.807  1.00  0.00     0.116 C 
BRANCH   3   4
ATOM      4  N   UNL     1       2.153   0.916   1.817  1.00  0.00    -0.354 N 
ATOM      5  C   UNL     1       3.103   1.630   1.101  1.00  0.00     0.245 C 
ATOM      6  O   UNL     1       3.489   2.748   1.421  1.00  0.00    -0.272 OA
ATOM      7  H   UNL     1       2.088  -0.051   1.645  1.00  0.00     0.163 HD
BRANCH   5   8
ATOM      8  C   UNL     1       3.607   0.951  -0.203  1.00  0.00     0.120 C 
ATOM      9  C   UNL     1       4.471   1.877  -1.073  1.00  0.00     0.041 C 
ATOM     10  C   UNL     1       3.281   1.259  -1.685  1.00  0.00     0.041 C 
BRANCH   8  11
ATOM     11  N   UNL     1       3.839  -0.433  -0.067  1.00  0.00    -0.323 N 
ATOM     12  N   UNL     1       1.622  -1.321  -0.289  1.00  0.00    -0.306 N 
ATOM     13  C   UNL     1       2.950  -1.417  -0.155  1.00  0.00     0.320 C 
ATOM     14  H   UNL     1       1.317  -2.256  -0.238  1.00  0.00     0.171 HD
ATOM     15  O   UNL     1       3.393  -2.570  -0.057  1.00  0.00    -0.248 OA
ATOM     16  H   UNL     1       4.769  -0.702   0.114  1.00  0.00     0.166 HD
BRANCH  12  17
ATOM     17  C   UNL     1       0.404  -0.580  -0.468  1.00  0.00     0.064 A 
ATOM     18  C   UNL     1      -3.706   0.713  -0.779  1.00  0.00     0.067 C 
ATOM     19  C   UNL     1      -2.325   0.160  -0.721  1.00  0.00     0.038 A 
ATOM     20  C   UNL     1      -2.030  -1.154  -0.509  1.00  0.00     0.025 A 
ATOM     21  N   UNL     1      -1.351   1.064  -0.814  1.00  0.00    -0.256 NA
ATOM     22  C   UNL     1      -0.683  -1.505  -0.412  1.00  0.00     0.030 A 
ATOM     23  C   UNL     1      -0.025   0.754  -0.642  1.00  0.00     0.061 A 
ATOM     24  C   UNL     1       0.589   2.108  -0.613  1.00  0.00     0.069 C 
ENDBRANCH  12  17
ENDBRANCH   8  11
ENDBRANCH   5   8
ENDBRANCH   3   4
ENDBRANCH   2   3
ENDBRANCH   1   2
BRANCH   1  25
ATOM     25  C   UNL     1      -1.409   2.252   4.459  1.00  0.00     0.116 C 
BRANCH  25  26
ATOM     26  N   UNL     1      -2.481   2.937   3.743  1.00  0.00    -0.352 N 
ATOM     27  C   UNL     1      -3.594   3.578   4.258  1.00  0.00     0.251 C 
ATOM     28  H   UNL     1      -2.402   2.942   2.762  1.00  0.00     0.163 HD
ATOM     29  O   UNL     1      -4.432   4.068   3.504  1.00  0.00    -0.269 OA
BRANCH  27  30
ATOM     30  C   UNL     1      -3.809   3.616   5.727  1.00  0.00     0.039 A 
ATOM     31  C   UNL     1      -5.062   3.274   6.246  1.00  0.00     0.014 A 
ATOM     32  C   UNL     1      -2.756   3.901   6.597  1.00  0.00     0.014 A 
ATOM     33  C   UNL     1      -5.217   3.094   7.625  1.00  0.00     0.010 A 
ATOM     34  C   UNL     1      -2.882   3.611   7.952  1.00  0.00     0.010 A 
ATOM     35  C   UNL     1      -4.111   3.193   8.486  1.00  0.00    -0.014 A 
BRANCH  35  36
ATOM     36  C   UNL     1      -4.205   2.847   9.933  1.00  0.00     0.031 A 
ATOM     37  C   UNL     1      -3.843   3.868  10.982  1.00  0.00     0.074 A 
ATOM     38  C   UNL     1      -4.521   1.589  10.306  1.00  0.00     0.049 A 
ATOM     39  N   UNL     1      -3.774   3.731  12.281  1.00  0.00    -0.248 NA
ATOM     40  C   UNL     1      -3.469   5.208  10.503  1.00  0.00     0.031 C 
ATOM     41  C   UNL     1      -4.811   0.480   9.394  1.00  0.00     0.029 A 
ATOM     42  N   UNL     1      -4.636   1.023  11.554  1.00  0.00    -0.354 N 
ATOM     43  C   UNL     1      -3.323   4.953  12.769  1.00  0.00     0.074 A 
ATOM     44  C   UNL     1      -3.074   5.797  11.621  1.00  0.00     0.031 C 
ATOM     45  C   UNL     1      -5.097  -0.620  10.110  1.00  0.00     0.029 A 
ATOM     46  C   UNL     1      -4.975  -0.311  11.530  1.00  0.00     0.049 A 
ATOM     47  H   UNL     1      -4.490   1.526  12.387  1.00  0.00     0.167 HD
ATOM     48  C   UNL     1      -3.161   5.350  14.054  1.00  0.00     0.037 A 
ATOM     49  C   UNL     1      -5.162  -1.189  12.537  1.00  0.00     0.037 A 
ATOM     50  C   UNL     1      -3.451   4.521  15.194  1.00  0.00     0.049 A 
ATOM     51  C   UNL     1      -5.020  -0.715  13.958  1.00  0.00     0.074 A 
ATOM     52  C   UNL     1      -3.401   4.856  16.536  1.00  0.00     0.029 A 
ATOM     53  N   UNL     1      -3.845   3.192  15.129  1.00  0.00    -0.354 N 
ATOM     54  N   UNL     1      -4.677   0.471  14.401  1.00  0.00    -0.248 NA
ATOM     55  C   UNL     1      -5.300  -1.694  15.018  1.00  0.00     0.031 C 
ATOM     56  C   UNL     1      -3.723   3.717  17.283  1.00  0.00     0.029 A 
ATOM     57  C   UNL     1      -4.023   2.687  16.406  1.00  0.00     0.049 A 
ATOM     58  H   UNL     1      -3.978   2.683  14.296  1.00  0.00     0.167 HD
ATOM     59  C   UNL     1      -4.724   0.388  15.789  1.00  0.00     0.074 A 
ATOM     60  C   UNL     1      -5.144  -0.960  16.111  1.00  0.00     0.031 C 
ATOM     61  C   UNL     1      -4.444   1.342  16.712  1.00  0.00     0.037 A 
BRANCH  48  62
ATOM     62  C   UNL     1      -2.656   6.749  14.290  1.00  0.00     0.058 A 
ATOM     63  C   UNL     1      -3.437   7.877  13.988  1.00  0.00     0.135 A 
ATOM     64  C   UNL     1      -1.382   6.966  14.839  1.00  0.00     0.135 A 
ATOM     65  F   UNL     1      -4.658   7.730  13.448  1.00  0.00    -0.206 F 
ATOM     66  C   UNL     1      -2.957   9.168  14.179  1.00  0.00     0.059 A 
ATOM     67  C   UNL     1      -0.894   8.250  15.070  1.00  0.00     0.059 A 
ATOM     68  F   UNL     1      -0.593   5.926  15.151  1.00  0.00    -0.206 F 
ATOM     69  C   UNL     1      -1.682   9.344  14.718  1.00  0.00     0.060 A 
BRANCH  69  70
ATOM     70  S   UNL     1      -1.072  11.027  14.952  1.00  0.00     0.124 S 
ATOM     71  O   UNL     1      -0.786  11.426  13.577  1.00  0.00    -0.237 OA
ATOM     72  O   UNL     1      -2.211  11.689  15.579  1.00  0.00    -0.237 OA
ATOM     73  O   UNL     1       0.096  10.849  15.809  1.00  0.00    -0.744 OA
ENDBRANCH  69  70
ENDBRANCH  48  62
BRANCH  49  74
ATOM     74  C   UNL     1      -5.536  -2.598  12.235  1.00  0.00     0.058 A 
ATOM     75  C   UNL     1      -6.827  -3.079  12.506  1.00  0.00     0.135 A 
ATOM     76  C   UNL     1      -4.620  -3.488  11.652  1.00  0.00     0.135 A 
ATOM     77  F   UNL     1      -7.738  -2.271  13.070  1.00  0.00    -0.206 F 
ATOM     78  C   UNL     1      -7.193  -4.391  12.223  1.00  0.00     0.059 A 
ATOM     79  C   UNL     1      -4.970  -4.798  11.337  1.00  0.00     0.059 A 
ATOM     80  F   UNL     1      -3.377  -3.075  11.358  1.00  0.00    -0.206 F 
ATOM     81  C   UNL     1      -6.257  -5.243  11.634  1.00  0.00     0.060 A 
BRANCH  81  82
ATOM     82  S   UNL     1      -6.761  -6.926  11.214  1.00  0.00     0.124 S 
ATOM     83  O   UNL     1      -6.820  -7.553  12.529  1.00  0.00    -0.237 OA
ATOM     84  O   UNL     1      -8.043  -6.706  10.552  1.00  0.00    -0.237 OA
ATOM     85  O   UNL     1      -5.686  -7.389  10.341  1.00  0.00    -0.744 OA
ENDBRANCH  81  82
ENDBRANCH  49  74
BRANCH  61  86
ATOM     86  C   UNL     1      -4.611   0.972  18.160  1.00  0.00     0.058 A 
ATOM     87  C   UNL     1      -3.720   0.104  18.809  1.00  0.00     0.135 A 
ATOM     88  C   UNL     1      -5.653   1.530  18.919  1.00  0.00     0.135 A 
ATOM     89  F   UNL     1      -2.709  -0.460  18.129  1.00  0.00    -0.206 F 
ATOM     90  C   UNL     1      -3.873  -0.223  20.153  1.00  0.00     0.059 A 
ATOM     91  C   UNL     1      -5.808   1.240  20.271  1.00  0.00     0.059 A 
ATOM     92  F   UNL     1      -6.526   2.376  18.351  1.00  0.00    -0.206 F 
ATOM     93  C   UNL     1      -4.921   0.350  20.876  1.00  0.00     0.060 A 
BRANCH  93  94
ATOM     94  S   UNL     1      -5.098  -0.067  22.623  1.00  0.00     0.124 S 
ATOM     95  O   UNL     1      -5.630  -1.423  22.549  1.00  0.00    -0.237 OA
ATOM     96  O   UNL     1      -3.728   0.051  23.113  1.00  0.00    -0.237 OA
ATOM     97  O   UNL     1      -6.025   0.946  23.122  1.00  0.00    -0.744 OA
ENDBRANCH  93  94
ENDBRANCH  61  86
ENDBRANCH  35  36
ENDBRANCH  27  30
ENDBRANCH  25  26
ENDBRANCH   1  25
TORSDOF 16
