REMARK SMILES Cc1c(Cl)cc2c(c1C)O[C@@H](C(F)(F)F)C(C(=O)NCCCCNC(=O)c1ccc(-c3c4nc(c(-c5c(F)cc(S(=O)(=O)[O-])cc5F)c5ccc([nH]5)c(-c5c(F)cc(S(=O)(=O)[O-])cc5F)c5nc(c(-c6c(F)cc(S(=O)(=O)[O-])cc6F)c6ccc3[nH]6)C=C5)C=C4)cc1)=C2
REMARK SMILES IDX 22 1 21 2 20 3 19 4 17 5 18 6 16 8 1 9 2 10 3 11 8 12 4 13
REMARK SMILES IDX 5 14 7 15 9 16 6 17 10 18 93 19 11 20 12 21 13 22 14 23
REMARK SMILES IDX 15 24 23 25 24 26 25 27 26 29 27 30 28 31 92 32 29 33 91 34
REMARK SMILES IDX 30 35 31 36 32 37 85 38 33 39 90 40 84 41 86 42 34 43 89 44
REMARK SMILES IDX 83 45 82 46 35 48 69 49 48 50 68 51 49 52 52 53 67 54 87 55
REMARK SMILES IDX 50 56 51 57 66 59 88 60 53 61 36 62 37 63 46 64 38 65 39 66
REMARK SMILES IDX 45 67 47 68 40 69 41 70 42 71 43 72 44 73 70 74 71 75 80 76
REMARK SMILES IDX 72 77 73 78 79 79 81 80 74 81 75 82 76 83 77 84 78 85 54 86
REMARK SMILES IDX 55 87 64 88 56 89 57 90 63 91 65 92 58 93 59 94 60 95 61 96
REMARK SMILES IDX 62 97
REMARK H PARENT 19 7 24 28 86 47 52 58
REMARK Flexibility Score: inf
ROOT
ATOM      1  C   UNL     1      -6.859   7.598   0.780  1.00  0.00     0.023 C 
ENDROOT
BRANCH   1   2
ATOM      2  C   UNL     1      -6.003   6.375   0.439  1.00  0.00     0.023 C 
BRANCH   2   3
ATOM      3  C   UNL     1      -5.134   6.539  -0.807  1.00  0.00     0.116 C 
BRANCH   3   4
ATOM      4  N   UNL     1      -3.862   7.160  -0.490  1.00  0.00    -0.352 N 
ATOM      5  C   UNL     1      -2.590   6.743  -0.294  1.00  0.00     0.251 C 
ATOM      6  O   UNL     1      -1.763   7.644  -0.117  1.00  0.00    -0.270 OA
ATOM      7  H   UNL     1      -3.946   8.136  -0.392  1.00  0.00     0.163 HD
BRANCH   5   8
ATOM      8  C   UNL     1      -2.138   5.320  -0.275  1.00  0.00     0.067 C 
ATOM      9  C   UNL     1       1.310  -0.233   0.007  1.00  0.00     0.046 C 
ATOM     10  C   UNL     1       0.771   1.173  -0.081  1.00  0.00    -0.026 A 
ATOM     11  C   UNL     1       1.617   2.297   0.014  1.00  0.00     0.045 A 
ATOM     12  C   UNL     1      -0.622   1.385  -0.247  1.00  0.00    -0.004 A 
ATOM     13  Cl  UNL     1       3.327   2.157   0.245  1.00  0.00    -0.084 Cl
ATOM     14  C   UNL     1       1.106   3.596  -0.075  1.00  0.00     0.032 A 
ATOM     15  C   UNL     1      -1.114   2.703  -0.322  1.00  0.00     0.131 A 
ATOM     16  C   UNL     1      -1.615   0.252  -0.340  1.00  0.00     0.049 C 
ATOM     17  C   UNL     1      -0.260   3.803  -0.246  1.00  0.00     0.019 A 
ATOM     18  O   UNL     1      -2.462   2.865  -0.515  1.00  0.00    -0.475 OA
ATOM     19  C   UNL     1      -0.805   5.148  -0.363  1.00  0.00     0.025 C 
ATOM     20  C   UNL     1      -3.028   4.128  -0.058  1.00  0.00     0.314 C 
BRANCH  20  21
ATOM     21  C   UNL     1      -3.537   3.984   1.387  1.00  0.00     0.429 C 
ATOM     22  F   UNL     1      -2.811   3.105   2.114  1.00  0.00    -0.167 F 
ATOM     23  F   UNL     1      -3.529   5.153   2.064  1.00  0.00    -0.167 F 
ATOM     24  F   UNL     1      -4.819   3.537   1.385  1.00  0.00    -0.167 F 
ENDBRANCH  20  21
ENDBRANCH   5   8
ENDBRANCH   3   4
ENDBRANCH   2   3
ENDBRANCH   1   2
BRANCH   1  25
ATOM     25  C   UNL     1      -7.879   7.992  -0.281  1.00  0.00     0.116 C 
BRANCH  25  26
ATOM     26  N   UNL     1      -8.761   6.903  -0.675  1.00  0.00    -0.352 N 
ATOM     27  C   UNL     1     -10.071   6.983  -1.084  1.00  0.00     0.251 C 
ATOM     28  H   UNL     1      -8.372   5.999  -0.646  1.00  0.00     0.163 HD
ATOM     29  O   UNL     1     -10.717   5.966  -1.313  1.00  0.00    -0.269 OA
BRANCH  27  30
ATOM     30  C   UNL     1     -10.696   8.315  -1.193  1.00  0.00     0.039 A 
ATOM     31  C   UNL     1     -11.866   8.569  -0.475  1.00  0.00     0.014 A 
ATOM     32  C   UNL     1     -10.077   9.324  -1.935  1.00  0.00     0.014 A 
ATOM     33  C   UNL     1     -12.380   9.865  -0.444  1.00  0.00     0.010 A 
ATOM     34  C   UNL     1     -10.555  10.626  -1.851  1.00  0.00     0.010 A 
ATOM     35  C   UNL     1     -11.707  10.908  -1.100  1.00  0.00    -0.014 A 
BRANCH  35  36
ATOM     36  C   UNL     1     -12.196  12.305  -1.021  1.00  0.00     0.031 A 
ATOM     37  C   UNL     1     -12.711  12.984  -2.257  1.00  0.00     0.074 A 
ATOM     38  C   UNL     1     -12.120  12.974   0.146  1.00  0.00     0.049 A 
ATOM     39  N   UNL     1     -13.109  14.219  -2.415  1.00  0.00    -0.248 NA
ATOM     40  C   UNL     1     -12.759  12.174  -3.486  1.00  0.00     0.031 C 
ATOM     41  C   UNL     1     -11.599  12.431   1.403  1.00  0.00     0.029 A 
ATOM     42  N   UNL     1     -12.481  14.258   0.464  1.00  0.00    -0.354 N 
ATOM     43  C   UNL     1     -13.441  14.338  -3.758  1.00  0.00     0.074 A 
ATOM     44  C   UNL     1     -13.152  13.066  -4.382  1.00  0.00     0.031 C 
ATOM     45  C   UNL     1     -11.703  13.365   2.362  1.00  0.00     0.029 A 
ATOM     46  C   UNL     1     -12.269  14.580   1.784  1.00  0.00     0.049 A 
ATOM     47  H   UNL     1     -12.856  14.890  -0.191  1.00  0.00     0.167 HD
ATOM     48  C   UNL     1     -13.966  15.404  -4.406  1.00  0.00     0.037 A 
ATOM     49  C   UNL     1     -12.510  15.725   2.451  1.00  0.00     0.037 A 
ATOM     50  C   UNL     1     -14.285  16.654  -3.773  1.00  0.00     0.049 A 
ATOM     51  C   UNL     1     -13.106  16.891   1.712  1.00  0.00     0.074 A 
ATOM     52  C   UNL     1     -14.857  17.783  -4.333  1.00  0.00     0.029 A 
ATOM     53  N   UNL     1     -14.070  16.936  -2.432  1.00  0.00    -0.354 N 
ATOM     54  N   UNL     1     -13.440  16.979   0.447  1.00  0.00    -0.248 NA
ATOM     55  C   UNL     1     -13.357  18.113   2.489  1.00  0.00     0.031 C 
ATOM     56  C   UNL     1     -14.971  18.755  -3.333  1.00  0.00     0.029 A 
ATOM     57  C   UNL     1     -14.494  18.222  -2.146  1.00  0.00     0.049 A 
ATOM     58  H   UNL     1     -13.675  16.314  -1.780  1.00  0.00     0.167 HD
ATOM     59  C   UNL     1     -13.955  18.258   0.278  1.00  0.00     0.074 A 
ATOM     60  C   UNL     1     -13.898  18.906   1.573  1.00  0.00     0.031 C 
ATOM     61  C   UNL     1     -14.431  18.844  -0.847  1.00  0.00     0.037 A 
BRANCH  48  62
ATOM     62  C   UNL     1     -14.242  15.247  -5.873  1.00  0.00     0.058 A 
ATOM     63  C   UNL     1     -15.313  14.463  -6.333  1.00  0.00     0.135 A 
ATOM     64  C   UNL     1     -13.438  15.886  -6.829  1.00  0.00     0.135 A 
ATOM     65  F   UNL     1     -16.099  13.814  -5.459  1.00  0.00    -0.206 F 
ATOM     66  C   UNL     1     -15.558  14.294  -7.690  1.00  0.00     0.059 A 
ATOM     67  C   UNL     1     -13.679  15.749  -8.193  1.00  0.00     0.059 A 
ATOM     68  F   UNL     1     -12.399  16.642  -6.441  1.00  0.00    -0.206 F 
ATOM     69  C   UNL     1     -14.732  14.937  -8.613  1.00  0.00     0.060 A 
BRANCH  69  70
ATOM     70  S   UNL     1     -15.056  14.699 -10.373  1.00  0.00     0.124 S 
ATOM     71  O   UNL     1     -14.540  13.349 -10.582  1.00  0.00    -0.237 OA
ATOM     72  O   UNL     1     -16.507  14.840 -10.447  1.00  0.00    -0.237 OA
ATOM     73  O   UNL     1     -14.292  15.769 -11.006  1.00  0.00    -0.744 OA
ENDBRANCH  69  70
ENDBRANCH  48  62
BRANCH  49  74
ATOM     74  C   UNL     1     -12.229  15.806   3.907  1.00  0.00     0.058 A 
ATOM     75  C   UNL     1     -13.276  15.768   4.838  1.00  0.00     0.135 A 
ATOM     76  C   UNL     1     -10.917  15.889   4.397  1.00  0.00     0.135 A 
ATOM     77  F   UNL     1     -14.547  15.694   4.414  1.00  0.00    -0.206 F 
ATOM     78  C   UNL     1     -13.036  15.814   6.207  1.00  0.00     0.059 A 
ATOM     79  C   UNL     1     -10.650  15.920   5.762  1.00  0.00     0.059 A 
ATOM     80  F   UNL     1      -9.881  15.913   3.544  1.00  0.00    -0.206 F 
ATOM     81  C   UNL     1     -11.717  15.886   6.660  1.00  0.00     0.060 A 
BRANCH  81  82
ATOM     82  S   UNL     1     -11.413  15.880   8.440  1.00  0.00     0.124 S 
ATOM     83  O   UNL     1     -11.812  17.232   8.811  1.00  0.00    -0.237 OA
ATOM     84  O   UNL     1     -12.291  14.807   8.898  1.00  0.00    -0.237 OA
ATOM     85  O   UNL     1      -9.985  15.592   8.534  1.00  0.00    -0.744 OA
ENDBRANCH  81  82
ENDBRANCH  49  74
BRANCH  61  86
ATOM     86  C   UNL     1     -14.940  20.251  -0.731  1.00  0.00     0.058 A 
ATOM     87  C   UNL     1     -14.059  21.341  -0.675  1.00  0.00     0.135 A 
ATOM     88  C   UNL     1     -16.318  20.514  -0.754  1.00  0.00     0.135 A 
ATOM     89  F   UNL     1     -12.733  21.137  -0.644  1.00  0.00    -0.206 F 
ATOM     90  C   UNL     1     -14.529  22.649  -0.640  1.00  0.00     0.059 A 
ATOM     91  C   UNL     1     -16.810  21.814  -0.738  1.00  0.00     0.059 A 
ATOM     92  F   UNL     1     -17.198  19.502  -0.815  1.00  0.00    -0.206 F 
ATOM     93  C   UNL     1     -15.907  22.876  -0.676  1.00  0.00     0.060 A 
BRANCH  93  94
ATOM     94  S   UNL     1     -16.503  24.580  -0.688  1.00  0.00     0.124 S 
ATOM     95  O   UNL     1     -16.318  24.966   0.707  1.00  0.00    -0.237 OA
ATOM     96  O   UNL     1     -15.607  25.219  -1.647  1.00  0.00    -0.237 OA
ATOM     97  O   UNL     1     -17.890  24.450  -1.126  1.00  0.00    -0.744 OA
ENDBRANCH  93  94
ENDBRANCH  61  86
ENDBRANCH  35  36
ENDBRANCH  27  30
ENDBRANCH  25  26
ENDBRANCH   1  25
TORSDOF 15
