REMARK SMILES COc1ccc([C@@H]2C(C#N)=C(N)N3C(=O)[C@H](CC(=O)NCCCCNC(=O)c4ccc(-c5c6nc(c(-c7c(F)cc(S(=O)(=O)[O-])cc7F)c7ccc([nH]7)c(-c7c(F)cc(S(=O)(=O)[O-])cc7F)c7nc(c(-c8c(F)cc(S(=O)(=O)[O-])cc8F)c8ccc5[nH]8)C=C7)C=C6)cc4)SC3=C2C#N)cc1
REMARK SMILES IDX 22 1 21 2 20 3 18 4 19 5 17 7 16 8 7 9 8 10 96 11 11 12
REMARK SMILES IDX 95 13 13 14 94 15 14 16 15 17 6 18 3 19 4 20 100 21 5 22
REMARK SMILES IDX 99 23 2 24 1 25 9 26 10 27 97 28 98 29 12 30 23 33 24 34
REMARK SMILES IDX 25 35 26 36 27 38 28 39 29 40 93 41 30 42 92 43 31 44 32 45
REMARK SMILES IDX 33 46 86 47 34 48 91 49 85 50 87 51 35 52 90 53 84 54 83 55
REMARK SMILES IDX 36 57 70 58 49 59 69 60 50 61 53 62 68 63 88 64 51 65 52 66
REMARK SMILES IDX 67 68 89 69 54 70 37 71 38 72 47 73 39 74 40 75 46 76 48 77
REMARK SMILES IDX 41 78 42 79 43 80 44 81 45 82 71 83 72 84 81 85 73 86 74 87
REMARK SMILES IDX 80 88 82 89 75 90 76 91 77 92 78 93 79 94 55 95 56 96 65 97
REMARK SMILES IDX 57 98 58 99 64 100 66 101 59 102 60 103 61 104 62 105 63 106
REMARK H PARENT 20 6 12 31 12 32 25 37 87 56 53 67
REMARK Flexibility Score: inf
ROOT
ATOM      1  C   UNL     1       6.575  -8.063   7.482  1.00  0.00     0.023 C 
ENDROOT
BRANCH   1   2
ATOM      2  C   UNL     1       7.296  -8.286   6.154  1.00  0.00     0.116 C 
BRANCH   2   3
ATOM      3  N   UNL     1       7.174  -9.668   5.742  1.00  0.00    -0.356 N 
ATOM      4  C   UNL     1       6.444 -10.198   4.722  1.00  0.00     0.221 C 
ATOM      5  O   UNL     1       6.304 -11.418   4.658  1.00  0.00    -0.275 OA
ATOM      6  H   UNL     1       7.692 -10.315   6.272  1.00  0.00     0.163 HD
BRANCH   4   7
ATOM      7  C   UNL     1       5.847  -9.291   3.668  1.00  0.00     0.125 C 
BRANCH   7   8
ATOM      8  C   UNL     1       4.405  -8.928   3.988  1.00  0.00     0.152 C 
ATOM      9  C   UNL     1       2.058  -4.681   4.220  1.00  0.00     0.107 C 
ATOM     10  C   UNL     1       3.209  -4.488   5.237  1.00  0.00     0.083 C 
ATOM     11  C   UNL     1       2.331  -5.782   3.209  1.00  0.00     0.073 C 
ATOM     12  C   UNL     1       4.157  -5.433   5.374  1.00  0.00     0.126 C 
ATOM     13  C   UNL     1       3.324  -6.643   3.453  1.00  0.00     0.099 C 
ATOM     14  N   UNL     1       4.052  -6.611   4.617  1.00  0.00    -0.258 N 
ATOM     15  S   UNL     1       3.642  -8.087   2.545  1.00  0.00    -0.093 SA
ATOM     16  C   UNL     1       4.260  -7.899   5.104  1.00  0.00     0.247 C 
ATOM     17  O   UNL     1       4.144  -8.211   6.280  1.00  0.00    -0.273 OA
BRANCH   9  18
ATOM     18  C   UNL     1       1.666  -3.413   3.463  1.00  0.00    -0.034 A 
ATOM     19  C   UNL     1       0.826  -1.273   1.847  1.00  0.00     0.118 A 
ATOM     20  C   UNL     1      -0.064  -1.875   2.737  1.00  0.00     0.047 A 
ATOM     21  C   UNL     1       2.147  -1.717   1.790  1.00  0.00     0.047 A 
ATOM     22  C   UNL     1       0.346  -2.943   3.536  1.00  0.00     0.008 A 
ATOM     23  C   UNL     1       2.567  -2.777   2.594  1.00  0.00     0.008 A 
BRANCH  19  24
ATOM     24  O   UNL     1       0.306  -0.243   1.113  1.00  0.00    -0.497 OA
ATOM     25  C   UNL     1       0.927  -0.007  -0.145  1.00  0.00     0.278 C 
ENDBRANCH  19  24
ENDBRANCH   9  18
BRANCH  10  26
ATOM     26  C   UNL     1       3.194  -3.124   5.908  1.00  0.00     0.100 C 
ATOM     27  N   UNL     1       3.182  -1.993   6.465  1.00  0.00    -0.193 NA
ENDBRANCH  10  26
BRANCH  11  28
ATOM     28  C   UNL     1       1.442  -5.971   2.107  1.00  0.00     0.098 C 
ATOM     29  N   UNL     1       0.707  -6.136   1.222  1.00  0.00    -0.193 NA
ENDBRANCH  11  28
BRANCH  12  30
ATOM     30  N   UNL     1       5.247  -5.202   6.167  1.00  0.00    -0.384 N 
ATOM     31  H   UNL     1       5.307  -4.372   6.692  1.00  0.00     0.158 HD
ATOM     32  H   UNL     1       5.972  -5.867   6.211  1.00  0.00     0.158 HD
ENDBRANCH  12  30
ENDBRANCH   7   8
ENDBRANCH   4   7
ENDBRANCH   2   3
ENDBRANCH   1   2
BRANCH   1  33
ATOM     33  C   UNL     1       7.363  -8.338   8.735  1.00  0.00     0.023 C 
BRANCH  33  34
ATOM     34  C   UNL     1       8.670  -7.591   8.808  1.00  0.00     0.116 C 
BRANCH  34  35
ATOM     35  N   UNL     1       8.526  -6.146   8.671  1.00  0.00    -0.352 N 
ATOM     36  C   UNL     1       8.992  -5.156   9.505  1.00  0.00     0.251 C 
ATOM     37  H   UNL     1       8.031  -5.839   7.878  1.00  0.00     0.163 HD
ATOM     38  O   UNL     1       8.670  -3.988   9.316  1.00  0.00    -0.269 OA
BRANCH  36  39
ATOM     39  C   UNL     1       9.846  -5.540  10.647  1.00  0.00     0.039 A 
ATOM     40  C   UNL     1       9.584  -5.007  11.907  1.00  0.00     0.014 A 
ATOM     41  C   UNL     1      10.831  -6.517  10.482  1.00  0.00     0.014 A 
ATOM     42  C   UNL     1      10.262  -5.518  13.012  1.00  0.00     0.010 A 
ATOM     43  C   UNL     1      11.375  -7.134  11.596  1.00  0.00     0.010 A 
ATOM     44  C   UNL     1      11.124  -6.621  12.873  1.00  0.00    -0.014 A 
BRANCH  44  45
ATOM     45  C   UNL     1      11.794  -7.229  14.049  1.00  0.00     0.031 A 
ATOM     46  C   UNL     1      13.298  -7.298  14.105  1.00  0.00     0.074 A 
ATOM     47  C   UNL     1      11.048  -7.744  15.047  1.00  0.00     0.049 A 
ATOM     48  N   UNL     1      14.066  -7.771  15.052  1.00  0.00    -0.248 NA
ATOM     49  C   UNL     1      14.041  -6.801  12.933  1.00  0.00     0.031 C 
ATOM     50  C   UNL     1       9.583  -7.805  15.067  1.00  0.00     0.029 A 
ATOM     51  N   UNL     1      11.416  -8.306  16.243  1.00  0.00    -0.354 N 
ATOM     52  C   UNL     1      15.368  -7.631  14.588  1.00  0.00     0.074 A 
ATOM     53  C   UNL     1      15.289  -7.111  13.244  1.00  0.00     0.031 C 
ATOM     54  C   UNL     1       9.179  -8.316  16.240  1.00  0.00     0.029 A 
ATOM     55  C   UNL     1      10.350  -8.667  17.035  1.00  0.00     0.049 A 
ATOM     56  H   UNL     1      12.354  -8.437  16.510  1.00  0.00     0.167 HD
ATOM     57  C   UNL     1      16.530  -7.877  15.238  1.00  0.00     0.037 A 
ATOM     58  C   UNL     1      10.322  -9.219  18.263  1.00  0.00     0.037 A 
ATOM     59  C   UNL     1      16.596  -8.379  16.584  1.00  0.00     0.049 A 
ATOM     60  C   UNL     1      11.627  -9.491  18.962  1.00  0.00     0.074 A 
ATOM     61  C   UNL     1      17.718  -8.612  17.358  1.00  0.00     0.029 A 
ATOM     62  N   UNL     1      15.497  -8.733  17.354  1.00  0.00    -0.354 N 
ATOM     63  N   UNL     1      12.851  -9.272  18.541  1.00  0.00    -0.248 NA
ATOM     64  C   UNL     1      11.549 -10.073  20.307  1.00  0.00     0.031 C 
ATOM     65  C   UNL     1      17.301  -9.174  18.569  1.00  0.00     0.029 A 
ATOM     66  C   UNL     1      15.916  -9.216  18.582  1.00  0.00     0.049 A 
ATOM     67  H   UNL     1      14.558  -8.653  17.068  1.00  0.00     0.167 HD
ATOM     68  C   UNL     1      13.687  -9.663  19.581  1.00  0.00     0.074 A 
ATOM     69  C   UNL     1      12.826 -10.108  20.658  1.00  0.00     0.031 C 
ATOM     70  C   UNL     1      15.043  -9.657  19.642  1.00  0.00     0.037 A 
BRANCH  57  71
ATOM     71  C   UNL     1      17.816  -7.606  14.503  1.00  0.00     0.058 A 
ATOM     72  C   UNL     1      18.214  -6.303  14.155  1.00  0.00     0.135 A 
ATOM     73  C   UNL     1      18.683  -8.660  14.174  1.00  0.00     0.135 A 
ATOM     74  F   UNL     1      17.416  -5.256  14.423  1.00  0.00    -0.206 F 
ATOM     75  C   UNL     1      19.409  -6.059  13.487  1.00  0.00     0.059 A 
ATOM     76  C   UNL     1      19.901  -8.436  13.539  1.00  0.00     0.059 A 
ATOM     77  F   UNL     1      18.353  -9.926  14.474  1.00  0.00    -0.206 F 
ATOM     78  C   UNL     1      20.249  -7.133  13.188  1.00  0.00     0.060 A 
BRANCH  78  79
ATOM     79  S   UNL     1      21.806  -6.794  12.341  1.00  0.00     0.124 S 
ATOM     80  O   UNL     1      21.338  -6.393  11.018  1.00  0.00    -0.237 OA
ATOM     81  O   UNL     1      22.379  -5.731  13.160  1.00  0.00    -0.237 OA
ATOM     82  O   UNL     1      22.509  -8.072  12.395  1.00  0.00    -0.744 OA
ENDBRANCH  78  79
ENDBRANCH  57  71
BRANCH  58  83
ATOM     83  C   UNL     1       9.020  -9.530  18.915  1.00  0.00     0.058 A 
ATOM     84  C   UNL     1       8.596  -8.844  20.063  1.00  0.00     0.135 A 
ATOM     85  C   UNL     1       8.169 -10.521  18.399  1.00  0.00     0.135 A 
ATOM     86  F   UNL     1       9.373  -7.890  20.599  1.00  0.00    -0.206 F 
ATOM     87  C   UNL     1       7.391  -9.143  20.690  1.00  0.00     0.059 A 
ATOM     88  C   UNL     1       6.944 -10.815  18.987  1.00  0.00     0.059 A 
ATOM     89  F   UNL     1       8.517 -11.197  17.292  1.00  0.00    -0.206 F 
ATOM     90  C   UNL     1       6.569 -10.129  20.141  1.00  0.00     0.060 A 
BRANCH  90  91
ATOM     91  S   UNL     1       4.989 -10.482  20.939  1.00  0.00     0.124 S 
ATOM     92  O   UNL     1       5.420 -11.120  22.177  1.00  0.00    -0.237 OA
ATOM     93  O   UNL     1       4.412  -9.148  21.075  1.00  0.00    -0.237 OA
ATOM     94  O   UNL     1       4.315 -11.353  19.981  1.00  0.00    -0.744 OA
ENDBRANCH  90  91
ENDBRANCH  58  83
BRANCH  70  95
ATOM     95  C   UNL     1      15.677 -10.110  20.930  1.00  0.00     0.058 A 
ATOM     96  C   UNL     1      15.614 -11.444  21.362  1.00  0.00     0.135 A 
ATOM     97  C   UNL     1      16.381  -9.196  21.732  1.00  0.00     0.135 A 
ATOM     98  F   UNL     1      14.953 -12.360  20.637  1.00  0.00    -0.206 F 
ATOM     99  C   UNL     1      16.183 -11.846  22.566  1.00  0.00     0.059 A 
ATOM    100  C   UNL     1      16.995  -9.585  22.918  1.00  0.00     0.059 A 
ATOM    101  F   UNL     1      16.489  -7.910  21.360  1.00  0.00    -0.206 F 
ATOM    102  C   UNL     1      16.872 -10.908  23.337  1.00  0.00     0.060 A 
BRANCH 102 103
ATOM    103  S   UNL     1      17.611 -11.445  24.892  1.00  0.00     0.124 S 
ATOM    104  O   UNL     1      16.428 -11.663  25.719  1.00  0.00    -0.237 OA
ATOM    105  O   UNL     1      18.336 -12.647  24.493  1.00  0.00    -0.237 OA
ATOM    106  O   UNL     1      18.448 -10.314  25.281  1.00  0.00    -0.744 OA
ENDBRANCH 102 103
ENDBRANCH  70  95
ENDBRANCH  44  45
ENDBRANCH  36  39
ENDBRANCH  34  35
ENDBRANCH  33  34
ENDBRANCH   1  33
TORSDOF 20
