REMARK SMILES Cc1nc2cc(S(=O)(=O)N3CCC(C(=O)NCCCCNC(=O)c4ccc(-c5c6nc(c(-c7c(F)cc(S(=O)(=O)[O-])cc7F)c7ccc([nH]7)c(-c7c(F)cc(S(=O)(=O)[O-])cc7F)c7nc(c(-c8c(F)cc(S(=O)(=O)[O-])cc8F)c8ccc5[nH]8)C=C7)C=C6)cc4)CC3)ccc2n1C1CCCC1
REMARK SMILES IDX 18 1 17 2 16 3 14 4 15 5 13 7 10 8 11 9 91 10 12 11 90 12
REMARK SMILES IDX 7 13 8 14 9 15 6 16 1 17 2 18 3 19 95 20 4 21 94 22 5 23
REMARK SMILES IDX 93 24 92 25 96 26 97 27 100 28 98 29 99 30 19 31 20 32 21 33
REMARK SMILES IDX 22 34 23 36 24 37 25 38 89 39 26 40 88 41 27 42 28 43 29 44
REMARK SMILES IDX 82 45 30 46 87 47 81 48 83 49 31 50 86 51 80 52 79 53 32 55
REMARK SMILES IDX 66 56 45 57 65 58 46 59 49 60 64 61 84 62 47 63 48 64 63 66
REMARK SMILES IDX 85 67 50 68 33 69 34 70 43 71 35 72 36 73 42 74 44 75 37 76
REMARK SMILES IDX 38 77 39 78 40 79 41 80 67 81 68 82 77 83 69 84 70 85 76 86
REMARK SMILES IDX 78 87 71 88 72 89 73 90 74 91 75 92 51 93 52 94 61 95 53 96
REMARK SMILES IDX 54 97 60 98 62 99 55 100 56 101 57 102 58 103 59 104
REMARK H PARENT 16 6 21 35 83 54 49 65
REMARK Flexibility Score: inf
ROOT
ATOM      1  C   UNL     1      -4.111 -12.655  -0.440  1.00  0.00     0.023 C 
ENDROOT
BRANCH   1   2
ATOM      2  C   UNL     1      -3.814 -11.739  -1.619  1.00  0.00     0.116 C 
BRANCH   2   3
ATOM      3  N   UNL     1      -4.989 -10.985  -2.038  1.00  0.00    -0.356 N 
ATOM      4  C   UNL     1      -5.181  -9.638  -2.126  1.00  0.00     0.223 C 
ATOM      5  O   UNL     1      -6.256  -9.215  -2.553  1.00  0.00    -0.275 OA
ATOM      6  H   UNL     1      -5.764 -11.534  -2.297  1.00  0.00     0.163 HD
BRANCH   4   7
ATOM      7  C   UNL     1      -4.071  -8.676  -1.738  1.00  0.00     0.081 C 
ATOM      8  N   UNL     1      -1.344  -8.269  -0.823  1.00  0.00    -0.198 NA
ATOM      9  C   UNL     1      -2.442  -8.164   0.170  1.00  0.00     0.103 C 
ATOM     10  C   UNL     1      -1.631  -8.152  -2.271  1.00  0.00     0.103 C 
ATOM     11  C   UNL     1      -3.735  -8.818  -0.257  1.00  0.00     0.030 C 
ATOM     12  C   UNL     1      -2.904  -8.835  -2.706  1.00  0.00     0.030 C 
BRANCH   8  13
ATOM     13  S   UNL     1       0.113  -7.480  -0.334  1.00  0.00     0.243 S 
ATOM     14  O   UNL     1       1.119  -7.762  -1.343  1.00  0.00    -0.207 OA
ATOM     15  O   UNL     1       0.330  -7.772   1.061  1.00  0.00    -0.207 OA
BRANCH  13  16
ATOM     16  C   UNL     1      -0.225  -5.730  -0.443  1.00  0.00     0.085 A 
ATOM     17  C   UNL     1       1.166   0.061   0.034  1.00  0.00     0.088 C 
ATOM     18  C   UNL     1       0.670  -1.325  -0.149  1.00  0.00     0.106 A 
ATOM     19  N   UNL     1       1.388  -2.411   0.066  1.00  0.00    -0.233 NA
ATOM     20  N   UNL     1      -0.609  -1.647  -0.551  1.00  0.00    -0.325 N 
ATOM     21  C   UNL     1       0.561  -3.471  -0.193  1.00  0.00     0.090 A 
ATOM     22  C   UNL     1      -0.695  -3.021  -0.585  1.00  0.00     0.068 A 
ATOM     23  C   UNL     1       0.815  -4.849  -0.112  1.00  0.00     0.052 A 
ATOM     24  C   UNL     1      -1.736  -3.884  -0.909  1.00  0.00     0.030 A 
ATOM     25  C   UNL     1      -1.473  -5.242  -0.838  1.00  0.00     0.024 A 
BRANCH  20  26
ATOM     26  C   UNL     1      -1.685  -0.728  -0.872  1.00  0.00     0.089 C 
ATOM     27  C   UNL     1      -2.241  -0.870  -2.293  1.00  0.00     0.025 C 
ATOM     28  C   UNL     1      -2.916  -0.860   0.032  1.00  0.00     0.025 C 
ATOM     29  C   UNL     1      -3.606  -0.201  -2.231  1.00  0.00     0.002 C 
ATOM     30  C   UNL     1      -4.088  -0.331  -0.788  1.00  0.00     0.002 C 
ENDBRANCH  20  26
ENDBRANCH  13  16
ENDBRANCH   8  13
ENDBRANCH   4   7
ENDBRANCH   2   3
ENDBRANCH   1   2
BRANCH   1  31
ATOM     31  C   UNL     1      -5.044 -13.819  -0.776  1.00  0.00     0.023 C 
BRANCH  31  32
ATOM     32  C   UNL     1      -4.644 -14.595  -2.032  1.00  0.00     0.116 C 
BRANCH  32  33
ATOM     33  N   UNL     1      -3.290 -15.105  -2.002  1.00  0.00    -0.352 N 
ATOM     34  C   UNL     1      -2.723 -16.269  -1.564  1.00  0.00     0.251 C 
ATOM     35  H   UNL     1      -2.633 -14.476  -2.379  1.00  0.00     0.163 HD
ATOM     36  O   UNL     1      -1.541 -16.444  -1.870  1.00  0.00    -0.269 OA
BRANCH  34  37
ATOM     37  C   UNL     1      -3.400 -17.260  -0.688  1.00  0.00     0.039 A 
ATOM     38  C   UNL     1      -4.749 -17.240  -0.333  1.00  0.00     0.014 A 
ATOM     39  C   UNL     1      -2.564 -18.236  -0.115  1.00  0.00     0.014 A 
ATOM     40  C   UNL     1      -5.219 -18.064   0.677  1.00  0.00     0.010 A 
ATOM     41  C   UNL     1      -3.037 -19.087   0.873  1.00  0.00     0.010 A 
ATOM     42  C   UNL     1      -4.348 -18.949   1.312  1.00  0.00    -0.014 A 
BRANCH  42  43
ATOM     43  C   UNL     1      -4.901 -19.833   2.332  1.00  0.00     0.031 A 
ATOM     44  C   UNL     1      -5.976 -20.726   1.804  1.00  0.00     0.074 A 
ATOM     45  C   UNL     1      -4.395 -19.899   3.582  1.00  0.00     0.049 A 
ATOM     46  N   UNL     1      -7.219 -20.779   2.159  1.00  0.00    -0.248 NA
ATOM     47  C   UNL     1      -5.673 -21.528   0.602  1.00  0.00     0.031 C 
ATOM     48  C   UNL     1      -3.198 -19.230   4.103  1.00  0.00     0.029 A 
ATOM     49  N   UNL     1      -4.785 -20.663   4.641  1.00  0.00    -0.354 N 
ATOM     50  C   UNL     1      -7.790 -21.793   1.391  1.00  0.00     0.074 A 
ATOM     51  C   UNL     1      -6.856 -22.083   0.337  1.00  0.00     0.031 C 
ATOM     52  C   UNL     1      -2.825 -19.809   5.267  1.00  0.00     0.029 A 
ATOM     53  C   UNL     1      -3.826 -20.788   5.649  1.00  0.00     0.049 A 
ATOM     54  H   UNL     1      -5.669 -21.092   4.691  1.00  0.00     0.167 HD
ATOM     55  C   UNL     1      -8.873 -22.490   1.829  1.00  0.00     0.037 A 
ATOM     56  C   UNL     1      -3.837 -21.686   6.672  1.00  0.00     0.037 A 
ATOM     57  C   UNL     1      -9.568 -21.775   2.864  1.00  0.00     0.049 A 
ATOM     58  C   UNL     1      -5.245 -22.148   6.811  1.00  0.00     0.074 A 
ATOM     59  C   UNL     1     -10.245 -20.575   2.929  1.00  0.00     0.029 A 
ATOM     60  N   UNL     1      -9.303 -22.137   4.160  1.00  0.00    -0.354 N 
ATOM     61  N   UNL     1      -6.232 -21.372   7.173  1.00  0.00    -0.248 NA
ATOM     62  C   UNL     1      -5.623 -23.345   6.076  1.00  0.00     0.031 C 
ATOM     63  C   UNL     1      -9.935 -20.049   4.216  1.00  0.00     0.029 A 
ATOM     64  C   UNL     1      -9.155 -20.989   4.893  1.00  0.00     0.049 A 
ATOM     65  H   UNL     1      -9.231 -23.057   4.503  1.00  0.00     0.167 HD
ATOM     66  C   UNL     1      -7.292 -21.749   6.361  1.00  0.00     0.074 A 
ATOM     67  C   UNL     1      -6.868 -23.003   5.739  1.00  0.00     0.031 C 
ATOM     68  C   UNL     1      -8.290 -20.874   6.047  1.00  0.00     0.037 A 
BRANCH  55  69
ATOM     69  C   UNL     1      -9.064 -23.972   1.609  1.00  0.00     0.058 A 
ATOM     70  C   UNL     1     -10.284 -24.578   1.973  1.00  0.00     0.135 A 
ATOM     71  C   UNL     1      -8.001 -24.862   1.333  1.00  0.00     0.135 A 
ATOM     72  F   UNL     1     -11.355 -23.828   2.278  1.00  0.00    -0.206 F 
ATOM     73  C   UNL     1     -10.420 -25.960   2.110  1.00  0.00     0.059 A 
ATOM     74  C   UNL     1      -8.129 -26.244   1.413  1.00  0.00     0.059 A 
ATOM     75  F   UNL     1      -6.761 -24.435   1.068  1.00  0.00    -0.206 F 
ATOM     76  C   UNL     1      -9.332 -26.784   1.835  1.00  0.00     0.060 A 
BRANCH  76  77
ATOM     77  S   UNL     1      -9.485 -28.561   2.078  1.00  0.00     0.124 S 
ATOM     78  O   UNL     1      -9.659 -28.647   3.523  1.00  0.00    -0.237 OA
ATOM     79  O   UNL     1     -10.661 -28.872   1.272  1.00  0.00    -0.237 OA
ATOM     80  O   UNL     1      -8.223 -29.081   1.561  1.00  0.00    -0.744 OA
ENDBRANCH  76  77
ENDBRANCH  55  69
BRANCH  56  81
ATOM     81  C   UNL     1      -2.689 -22.488   7.199  1.00  0.00     0.058 A 
ATOM     82  C   UNL     1      -2.824 -23.288   8.352  1.00  0.00     0.135 A 
ATOM     83  C   UNL     1      -1.535 -22.726   6.424  1.00  0.00     0.135 A 
ATOM     84  F   UNL     1      -3.898 -23.151   9.145  1.00  0.00    -0.206 F 
ATOM     85  C   UNL     1      -1.906 -24.297   8.682  1.00  0.00     0.059 A 
ATOM     86  C   UNL     1      -0.604 -23.719   6.737  1.00  0.00     0.059 A 
ATOM     87  F   UNL     1      -1.321 -22.061   5.280  1.00  0.00    -0.206 F 
ATOM     88  C   UNL     1      -0.809 -24.521   7.852  1.00  0.00     0.060 A 
BRANCH  88  89
ATOM     89  S   UNL     1       0.283 -25.930   8.170  1.00  0.00     0.124 S 
ATOM     90  O   UNL     1       0.907 -25.553   9.433  1.00  0.00    -0.237 OA
ATOM     91  O   UNL     1      -0.660 -27.042   8.231  1.00  0.00    -0.237 OA
ATOM     92  O   UNL     1       1.175 -25.937   7.013  1.00  0.00    -0.744 OA
ENDBRANCH  88  89
ENDBRANCH  56  81
BRANCH  68  93
ATOM     93  C   UNL     1      -8.407 -19.586   6.821  1.00  0.00     0.058 A 
ATOM     94  C   UNL     1      -7.506 -18.510   6.727  1.00  0.00     0.135 A 
ATOM     95  C   UNL     1      -9.617 -19.358   7.494  1.00  0.00     0.135 A 
ATOM     96  F   UNL     1      -6.364 -18.626   6.035  1.00  0.00    -0.206 F 
ATOM     97  C   UNL     1      -7.806 -17.258   7.273  1.00  0.00     0.059 A 
ATOM     98  C   UNL     1      -9.948 -18.113   8.017  1.00  0.00     0.059 A 
ATOM     99  F   UNL     1     -10.536 -20.335   7.570  1.00  0.00    -0.206 F 
ATOM    100  C   UNL     1      -9.040 -17.064   7.899  1.00  0.00     0.060 A 
BRANCH 100 101
ATOM    101  S   UNL     1      -9.494 -15.414   8.478  1.00  0.00     0.124 S 
ATOM    102  O   UNL     1      -8.568 -15.209   9.587  1.00  0.00    -0.237 OA
ATOM    103  O   UNL     1      -9.260 -14.589   7.296  1.00  0.00    -0.237 OA
ATOM    104  O   UNL     1     -10.898 -15.557   8.857  1.00  0.00    -0.744 OA
ENDBRANCH 100 101
ENDBRANCH  68  93
ENDBRANCH  42  43
ENDBRANCH  34  37
ENDBRANCH  32  33
ENDBRANCH  31  32
ENDBRANCH   1  31
TORSDOF 17
