REMARK SMILES CC(=O)N1CCC(C(=O)Nc2sccc2C(=O)NCCCCNC(=O)c2ccc(-c3c4nc(c(-c5c(F)cc(S(=O)(=O)[O-])cc5F)c5ccc([nH]5)c(-c5c(F)cc(S(=O)(=O)[O-])cc5F)c5nc(c(-c6c(F)cc(S(=O)(=O)[O-])cc6F)c6ccc3[nH]6)C=C5)C=C4)cc2)CC1
REMARK SMILES IDX 21 1 20 2 19 3 18 4 16 5 17 6 15 8 11 9 12 10 13 11 14 12
REMARK SMILES IDX 10 13 8 14 9 15 7 17 1 18 2 19 3 20 4 21 5 22 93 23 6 24
REMARK SMILES IDX 92 25 22 26 23 27 24 28 25 30 26 31 27 32 91 33 28 34 90 35
REMARK SMILES IDX 29 36 30 37 31 38 84 39 32 40 89 41 83 42 85 43 33 44 88 45
REMARK SMILES IDX 82 46 81 47 34 49 68 50 47 51 67 52 48 53 51 54 66 55 86 56
REMARK SMILES IDX 49 57 50 58 65 60 87 61 52 62 35 63 36 64 45 65 37 66 38 67
REMARK SMILES IDX 44 68 46 69 39 70 40 71 41 72 42 73 43 74 69 75 70 76 79 77
REMARK SMILES IDX 71 78 72 79 78 80 80 81 73 82 74 83 75 84 76 85 77 86 53 87
REMARK SMILES IDX 54 88 63 89 55 90 56 91 62 92 64 93 57 94 58 95 59 96 60 97
REMARK SMILES IDX 61 98
REMARK H PARENT 18 7 10 16 23 29 85 48 51 59
REMARK Flexibility Score: inf
ROOT
ATOM      1  C   UNL     1      -0.403   4.676  -8.164  1.00  0.00     0.023 C 
ENDROOT
BRANCH   1   2
ATOM      2  C   UNL     1       0.013   3.277  -8.634  1.00  0.00     0.023 C 
BRANCH   2   3
ATOM      3  C   UNL     1       0.391   2.307  -7.521  1.00  0.00     0.116 C 
BRANCH   3   4
ATOM      4  N   UNL     1      -0.721   1.778  -6.773  1.00  0.00    -0.352 N 
ATOM      5  C   UNL     1      -0.788   0.699  -5.924  1.00  0.00     0.254 C 
ATOM      6  O   UNL     1      -1.907   0.439  -5.476  1.00  0.00    -0.269 OA
ATOM      7  H   UNL     1      -1.567   2.267  -6.887  1.00  0.00     0.163 HD
BRANCH   5   8
ATOM      8  C   UNL     1       0.367  -0.156  -5.577  1.00  0.00     0.074 A 
ATOM      9  C   UNL     1       1.740   0.050  -5.623  1.00  0.00     0.108 A 
ATOM     10  S   UNL     1       2.627  -1.409  -5.475  1.00  0.00    -0.126 S 
ATOM     11  C   UNL     1       1.264  -2.247  -4.902  1.00  0.00     0.068 A 
ATOM     12  C   UNL     1       0.131  -1.479  -5.019  1.00  0.00     0.028 A 
BRANCH   9  13
ATOM     13  N   UNL     1       2.597   1.093  -5.869  1.00  0.00    -0.317 N 
ATOM     14  C   UNL     1       2.729   2.313  -5.278  1.00  0.00     0.228 C 
ATOM     15  O   UNL     1       3.448   3.132  -5.868  1.00  0.00    -0.274 OA
ATOM     16  H   UNL     1       3.231   0.930  -6.605  1.00  0.00     0.170 HD
BRANCH  14  17
ATOM     17  C   UNL     1       2.197   2.672  -3.890  1.00  0.00     0.082 C 
ATOM     18  C   UNL     1       1.209  -0.108   0.090  1.00  0.00     0.114 C 
ATOM     19  C   UNL     1       0.464   0.636  -0.989  1.00  0.00     0.219 C 
ATOM     20  O   UNL     1      -0.612   0.207  -1.403  1.00  0.00    -0.275 OA
ATOM     21  N   UNL     1       1.020   1.832  -1.422  1.00  0.00    -0.343 N 
ATOM     22  C   UNL     1       0.234   2.729  -2.258  1.00  0.00     0.120 C 
ATOM     23  C   UNL     1       2.447   2.119  -1.425  1.00  0.00     0.120 C 
ATOM     24  C   UNL     1       0.683   2.612  -3.706  1.00  0.00     0.035 C 
ATOM     25  C   UNL     1       2.985   1.874  -2.833  1.00  0.00     0.035 C 
ENDBRANCH  14  17
ENDBRANCH   9  13
ENDBRANCH   5   8
ENDBRANCH   3   4
ENDBRANCH   2   3
ENDBRANCH   1   2
BRANCH   1  26
ATOM     26  C   UNL     1       0.615   5.438  -7.310  1.00  0.00     0.116 C 
BRANCH  26  27
ATOM     27  N   UNL     1       1.882   5.683  -7.986  1.00  0.00    -0.352 N 
ATOM     28  C   UNL     1       2.401   6.845  -8.516  1.00  0.00     0.251 C 
ATOM     29  H   UNL     1       2.460   4.891  -8.080  1.00  0.00     0.163 HD
ATOM     30  O   UNL     1       3.421   6.809  -9.193  1.00  0.00    -0.269 OA
BRANCH  28  31
ATOM     31  C   UNL     1       1.714   8.137  -8.289  1.00  0.00     0.039 A 
ATOM     32  C   UNL     1       1.502   8.995  -9.371  1.00  0.00     0.014 A 
ATOM     33  C   UNL     1       1.286   8.508  -7.012  1.00  0.00     0.014 A 
ATOM     34  C   UNL     1       0.772  10.175  -9.188  1.00  0.00     0.010 A 
ATOM     35  C   UNL     1       0.488   9.638  -6.848  1.00  0.00     0.010 A 
ATOM     36  C   UNL     1       0.212  10.480  -7.936  1.00  0.00    -0.014 A 
BRANCH  36  37
ATOM     37  C   UNL     1      -0.692  11.650  -7.758  1.00  0.00     0.031 A 
ATOM     38  C   UNL     1      -0.336  12.761  -6.807  1.00  0.00     0.074 A 
ATOM     39  C   UNL     1      -1.879  11.674  -8.400  1.00  0.00     0.049 A 
ATOM     40  N   UNL     1      -1.025  13.826  -6.486  1.00  0.00    -0.248 NA
ATOM     41  C   UNL     1       0.951  12.646  -6.103  1.00  0.00     0.031 C 
ATOM     42  C   UNL     1      -2.373  10.629  -9.299  1.00  0.00     0.029 A 
ATOM     43  N   UNL     1      -2.891  12.602  -8.386  1.00  0.00    -0.354 N 
ATOM     44  C   UNL     1      -0.267  14.499  -5.534  1.00  0.00     0.074 A 
ATOM     45  C   UNL     1       0.910  13.692  -5.290  1.00  0.00     0.031 C 
ATOM     46  C   UNL     1      -3.579  10.984  -9.768  1.00  0.00     0.029 A 
ATOM     47  C   UNL     1      -3.966  12.260  -9.173  1.00  0.00     0.049 A 
ATOM     48  H   UNL     1      -2.851  13.435  -7.862  1.00  0.00     0.167 HD
ATOM     49  C   UNL     1      -0.517  15.688  -4.934  1.00  0.00     0.037 A 
ATOM     50  C   UNL     1      -5.138  12.892  -9.386  1.00  0.00     0.037 A 
ATOM     51  C   UNL     1      -1.683  16.494  -5.194  1.00  0.00     0.049 A 
ATOM     52  C   UNL     1      -5.393  14.213  -8.715  1.00  0.00     0.074 A 
ATOM     53  C   UNL     1      -1.990  17.747  -4.694  1.00  0.00     0.029 A 
ATOM     54  N   UNL     1      -2.738  16.124  -6.016  1.00  0.00    -0.354 N 
ATOM     55  N   UNL     1      -4.624  14.876  -7.883  1.00  0.00    -0.248 NA
ATOM     56  C   UNL     1      -6.667  14.879  -9.017  1.00  0.00     0.031 C 
ATOM     57  C   UNL     1      -3.257  18.109  -5.165  1.00  0.00     0.029 A 
ATOM     58  C   UNL     1      -3.713  17.110  -6.010  1.00  0.00     0.049 A 
ATOM     59  H   UNL     1      -2.788  15.284  -6.527  1.00  0.00     0.167 HD
ATOM     60  C   UNL     1      -5.312  16.046  -7.580  1.00  0.00     0.074 A 
ATOM     61  C   UNL     1      -6.551  16.007  -8.330  1.00  0.00     0.031 C 
ATOM     62  C   UNL     1      -4.947  17.061  -6.758  1.00  0.00     0.037 A 
BRANCH  49  63
ATOM     63  C   UNL     1       0.488  16.188  -3.929  1.00  0.00     0.058 A 
ATOM     64  C   UNL     1       1.778  16.596  -4.308  1.00  0.00     0.135 A 
ATOM     65  C   UNL     1       0.149  16.283  -2.569  1.00  0.00     0.135 A 
ATOM     66  F   UNL     1       2.162  16.517  -5.592  1.00  0.00    -0.206 F 
ATOM     67  C   UNL     1       2.707  17.038  -3.372  1.00  0.00     0.059 A 
ATOM     68  C   UNL     1       1.052  16.755  -1.620  1.00  0.00     0.059 A 
ATOM     69  F   UNL     1      -1.070  15.912  -2.148  1.00  0.00    -0.206 F 
ATOM     70  C   UNL     1       2.336  17.111  -2.029  1.00  0.00     0.060 A 
BRANCH  70  71
ATOM     71  S   UNL     1       3.558  17.674  -0.826  1.00  0.00     0.124 S 
ATOM     72  O   UNL     1       4.463  16.529  -0.775  1.00  0.00    -0.237 OA
ATOM     73  O   UNL     1       4.091  18.875  -1.460  1.00  0.00    -0.237 OA
ATOM     74  O   UNL     1       2.769  17.903   0.381  1.00  0.00    -0.744 OA
ENDBRANCH  70  71
ENDBRANCH  49  63
BRANCH  50  75
ATOM     75  C   UNL     1      -6.147  12.284 -10.296  1.00  0.00     0.058 A 
ATOM     76  C   UNL     1      -6.418  12.843 -11.554  1.00  0.00     0.135 A 
ATOM     77  C   UNL     1      -6.832  11.111  -9.942  1.00  0.00     0.135 A 
ATOM     78  F   UNL     1      -5.796  13.969 -11.935  1.00  0.00    -0.206 F 
ATOM     79  C   UNL     1      -7.334  12.265 -12.427  1.00  0.00     0.059 A 
ATOM     80  C   UNL     1      -7.732  10.499 -10.809  1.00  0.00     0.059 A 
ATOM     81  F   UNL     1      -6.597  10.527  -8.757  1.00  0.00    -0.206 F 
ATOM     82  C   UNL     1      -7.980  11.087 -12.048  1.00  0.00     0.060 A 
BRANCH  82  83
ATOM     83  S   UNL     1      -9.110  10.304 -13.220  1.00  0.00     0.124 S 
ATOM     84  O   UNL     1     -10.241  11.224 -13.198  1.00  0.00    -0.237 OA
ATOM     85  O   UNL     1      -8.318  10.294 -14.446  1.00  0.00    -0.237 OA
ATOM     86  O   UNL     1      -9.352   8.992 -12.628  1.00  0.00    -0.744 OA
ENDBRANCH  82  83
ENDBRANCH  50  75
BRANCH  62  87
ATOM     87  C   UNL     1      -5.884  18.233  -6.641  1.00  0.00     0.058 A 
ATOM     88  C   UNL     1      -7.111  18.137  -5.965  1.00  0.00     0.135 A 
ATOM     89  C   UNL     1      -5.525  19.485  -7.167  1.00  0.00     0.135 A 
ATOM     90  F   UNL     1      -7.508  16.964  -5.448  1.00  0.00    -0.206 F 
ATOM     91  C   UNL     1      -7.958  19.233  -5.837  1.00  0.00     0.059 A 
ATOM     92  C   UNL     1      -6.342  20.602  -7.024  1.00  0.00     0.059 A 
ATOM     93  F   UNL     1      -4.358  19.637  -7.815  1.00  0.00    -0.206 F 
ATOM     94  C   UNL     1      -7.564  20.463  -6.367  1.00  0.00     0.060 A 
BRANCH  94  95
ATOM     95  S   UNL     1      -8.658  21.885  -6.164  1.00  0.00     0.124 S 
ATOM     96  O   UNL     1      -9.735  21.563  -7.094  1.00  0.00    -0.237 OA
ATOM     97  O   UNL     1      -9.001  21.814  -4.747  1.00  0.00    -0.237 OA
ATOM     98  O   UNL     1      -7.819  23.018  -6.543  1.00  0.00    -0.744 OA
ENDBRANCH  94  95
ENDBRANCH  62  87
ENDBRANCH  36  37
ENDBRANCH  28  31
ENDBRANCH  26  27
ENDBRANCH   1  26
TORSDOF 16
