REMARK SMILES O=C(C[C@@H]1COc2ccccc2N1Cc1ccccc1)NCCCCNC(=O)c1ccc(-c2c3nc(c(-c4c(F)cc(S(=O)(=O)[O-])cc4F)c4ccc([nH]4)c(-c4c(F)cc(S(=O)(=O)[O-])cc4F)c4nc(c(-c5c(F)cc(S(=O)(=O)[O-])cc5F)c5ccc2[nH]5)C=C4)C=C3)cc1
REMARK SMILES IDX 23 1 22 2 21 3 1 4 2 5 3 7 4 8 5 9 13 10 6 11 12 12 7 13
REMARK SMILES IDX 11 14 8 15 10 16 9 17 14 18 15 19 16 20 20 21 17 22 19 23
REMARK SMILES IDX 18 24 24 25 25 26 26 27 27 28 28 30 29 31 30 32 94 33 31 34
REMARK SMILES IDX 93 35 32 36 33 37 34 38 87 39 35 40 92 41 86 42 88 43 36 44
REMARK SMILES IDX 91 45 85 46 84 47 37 49 71 50 50 51 70 52 51 53 54 54 69 55
REMARK SMILES IDX 89 56 52 57 53 58 68 60 90 61 55 62 38 63 39 64 48 65 40 66
REMARK SMILES IDX 41 67 47 68 49 69 42 70 43 71 44 72 45 73 46 74 72 75 73 76
REMARK SMILES IDX 82 77 74 78 75 79 81 80 83 81 76 82 77 83 78 84 79 85 80 86
REMARK SMILES IDX 56 87 57 88 66 89 58 90 59 91 65 92 67 93 60 94 61 95 62 96
REMARK SMILES IDX 63 97 64 98
REMARK H PARENT 21 6 26 29 88 48 54 59
REMARK Flexibility Score: inf
ROOT
ATOM      1  C   UNL     1       2.573   2.878   2.052  1.00  0.00     0.023 C 
ENDROOT
BRANCH   1   2
ATOM      2  C   UNL     1       2.231   2.419   0.636  1.00  0.00     0.116 C 
BRANCH   2   3
ATOM      3  N   UNL     1       2.896   1.175   0.297  1.00  0.00    -0.356 N 
ATOM      4  O   UNL     1       0.956  -0.024   0.090  1.00  0.00    -0.275 OA
ATOM      5  C   UNL     1       2.181   0.027   0.042  1.00  0.00     0.222 C 
ATOM      6  H   UNL     1       3.879   1.152   0.248  1.00  0.00     0.163 HD
BRANCH   5   7
ATOM      7  C   UNL     1       3.016  -1.196  -0.244  1.00  0.00     0.128 C 
BRANCH   7   8
ATOM      8  C   UNL     1       3.885  -1.129  -1.515  1.00  0.00     0.129 C 
ATOM      9  C   UNL     1       3.322  -0.312  -2.692  1.00  0.00     0.255 C 
ATOM     10  N   UNL     1       4.118  -2.512  -1.982  1.00  0.00    -0.357 N 
ATOM     11  O   UNL     1       2.076  -0.806  -3.178  1.00  0.00    -0.489 OA
ATOM     12  C   UNL     1       3.010  -3.028  -2.684  1.00  0.00     0.080 A 
ATOM     13  C   UNL     1       2.042  -2.179  -3.264  1.00  0.00     0.142 A 
ATOM     14  C   UNL     1       2.756  -4.402  -2.753  1.00  0.00     0.030 A 
ATOM     15  C   UNL     1       0.926  -2.690  -3.937  1.00  0.00     0.048 A 
ATOM     16  C   UNL     1       1.651  -4.921  -3.436  1.00  0.00     0.002 A 
ATOM     17  C   UNL     1       0.740  -4.064  -4.039  1.00  0.00     0.004 A 
BRANCH  10  18
ATOM     18  C   UNL     1       5.483  -2.924  -2.353  1.00  0.00     0.152 C 
BRANCH  18  19
ATOM     19  C   UNL     1       5.911  -4.221  -1.699  1.00  0.00    -0.029 A 
ATOM     20  C   UNL     1       6.366  -4.246  -0.373  1.00  0.00     0.005 A 
ATOM     21  C   UNL     1       5.817  -5.435  -2.399  1.00  0.00     0.005 A 
ATOM     22  C   UNL     1       6.659  -5.462   0.252  1.00  0.00     0.000 A 
ATOM     23  C   UNL     1       6.062  -6.650  -1.759  1.00  0.00     0.000 A 
ATOM     24  C   UNL     1       6.478  -6.663  -0.431  1.00  0.00     0.000 A 
ENDBRANCH  18  19
ENDBRANCH  10  18
ENDBRANCH   7   8
ENDBRANCH   5   7
ENDBRANCH   2   3
ENDBRANCH   1   2
BRANCH   1  25
ATOM     25  C   UNL     1       4.054   3.191   2.280  1.00  0.00     0.023 C 
BRANCH  25  26
ATOM     26  C   UNL     1       4.652   4.232   1.339  1.00  0.00     0.116 C 
BRANCH  26  27
ATOM     27  N   UNL     1       4.029   5.539   1.474  1.00  0.00    -0.352 N 
ATOM     28  C   UNL     1       4.618   6.767   1.659  1.00  0.00     0.251 C 
ATOM     29  H   UNL     1       3.046   5.545   1.426  1.00  0.00     0.163 HD
ATOM     30  O   UNL     1       3.918   7.747   1.907  1.00  0.00    -0.269 OA
BRANCH  28  31
ATOM     31  C   UNL     1       6.090   6.905   1.593  1.00  0.00     0.039 A 
ATOM     32  C   UNL     1       6.742   7.658   2.572  1.00  0.00     0.014 A 
ATOM     33  C   UNL     1       6.828   6.291   0.577  1.00  0.00     0.014 A 
ATOM     34  C   UNL     1       8.138   7.736   2.572  1.00  0.00     0.010 A 
ATOM     35  C   UNL     1       8.221   6.306   0.624  1.00  0.00     0.010 A 
ATOM     36  C   UNL     1       8.892   7.027   1.623  1.00  0.00    -0.014 A 
BRANCH  36  37
ATOM     37  C   UNL     1      10.380   7.018   1.669  1.00  0.00     0.031 A 
ATOM     38  C   UNL     1      11.180   7.584   0.526  1.00  0.00     0.074 A 
ATOM     39  C   UNL     1      11.011   6.442   2.712  1.00  0.00     0.049 A 
ATOM     40  N   UNL     1      12.477   7.606   0.357  1.00  0.00    -0.248 NA
ATOM     41  C   UNL     1      10.422   8.181  -0.586  1.00  0.00     0.031 C 
ATOM     42  C   UNL     1      10.351   5.819   3.862  1.00  0.00     0.029 A 
ATOM     43  N   UNL     1      12.350   6.277   2.973  1.00  0.00    -0.354 N 
ATOM     44  C   UNL     1      12.691   8.204  -0.880  1.00  0.00     0.074 A 
ATOM     45  C   UNL     1      11.388   8.482  -1.443  1.00  0.00     0.031 C 
ATOM     46  C   UNL     1      11.284   5.366   4.715  1.00  0.00     0.029 A 
ATOM     47  C   UNL     1      12.607   5.623   4.156  1.00  0.00     0.049 A 
ATOM     48  H   UNL     1      13.059   6.598   2.370  1.00  0.00     0.167 HD
ATOM     49  C   UNL     1      13.865   8.511  -1.481  1.00  0.00     0.037 A 
ATOM     50  C   UNL     1      13.775   5.261   4.722  1.00  0.00     0.037 A 
ATOM     51  C   UNL     1      15.160   8.254  -0.904  1.00  0.00     0.049 A 
ATOM     52  C   UNL     1      15.066   5.601   4.026  1.00  0.00     0.074 A 
ATOM     53  C   UNL     1      16.406   8.586  -1.408  1.00  0.00     0.029 A 
ATOM     54  N   UNL     1      15.378   7.598   0.298  1.00  0.00    -0.354 N 
ATOM     55  N   UNL     1      15.249   6.228   2.888  1.00  0.00    -0.248 NA
ATOM     56  C   UNL     1      16.310   5.191   4.692  1.00  0.00     0.031 C 
ATOM     57  C   UNL     1      17.378   8.081  -0.539  1.00  0.00     0.029 A 
ATOM     58  C   UNL     1      16.739   7.489   0.538  1.00  0.00     0.049 A 
ATOM     59  H   UNL     1      14.671   7.259   0.893  1.00  0.00     0.167 HD
ATOM     60  C   UNL     1      16.627   6.316   2.719  1.00  0.00     0.074 A 
ATOM     61  C   UNL     1      17.230   5.688   3.877  1.00  0.00     0.031 C 
ATOM     62  C   UNL     1      17.329   6.869   1.699  1.00  0.00     0.037 A 
BRANCH  49  63
ATOM     63  C   UNL     1      13.810   9.162  -2.838  1.00  0.00     0.058 A 
ATOM     64  C   UNL     1      13.351  10.477  -3.012  1.00  0.00     0.135 A 
ATOM     65  C   UNL     1      14.271   8.476  -3.975  1.00  0.00     0.135 A 
ATOM     66  F   UNL     1      12.886  11.175  -1.963  1.00  0.00    -0.206 F 
ATOM     67  C   UNL     1      13.324  11.080  -4.265  1.00  0.00     0.059 A 
ATOM     68  C   UNL     1      14.282   9.070  -5.234  1.00  0.00     0.059 A 
ATOM     69  F   UNL     1      14.721   7.216  -3.869  1.00  0.00    -0.206 F 
ATOM     70  C   UNL     1      13.794  10.369  -5.371  1.00  0.00     0.060 A 
BRANCH  70  71
ATOM     71  S   UNL     1      13.761  11.170  -6.988  1.00  0.00     0.124 S 
ATOM     72  O   UNL     1      12.329  11.188  -7.274  1.00  0.00    -0.237 OA
ATOM     73  O   UNL     1      14.367  12.467  -6.704  1.00  0.00    -0.237 OA
ATOM     74  O   UNL     1      14.556  10.279  -7.826  1.00  0.00    -0.744 OA
ENDBRANCH  70  71
ENDBRANCH  49  63
BRANCH  50  75
ATOM     75  C   UNL     1      13.782   4.548   6.029  1.00  0.00     0.058 A 
ATOM     76  C   UNL     1      14.268   5.172   7.189  1.00  0.00     0.135 A 
ATOM     77  C   UNL     1      13.305   3.233   6.148  1.00  0.00     0.135 A 
ATOM     78  F   UNL     1      14.743   6.425   7.127  1.00  0.00    -0.206 F 
ATOM     79  C   UNL     1      14.302   4.512   8.413  1.00  0.00     0.059 A 
ATOM     80  C   UNL     1      13.301   2.563   7.367  1.00  0.00     0.059 A 
ATOM     81  F   UNL     1      12.814   2.596   5.073  1.00  0.00    -0.206 F 
ATOM     82  C   UNL     1      13.813   3.207   8.492  1.00  0.00     0.060 A 
BRANCH  82  83
ATOM     83  S   UNL     1      13.825   2.374  10.094  1.00  0.00     0.124 S 
ATOM     84  O   UNL     1      15.248   2.116  10.281  1.00  0.00    -0.237 OA
ATOM     85  O   UNL     1      13.238   3.385  10.968  1.00  0.00    -0.237 OA
ATOM     86  O   UNL     1      12.994   1.196   9.865  1.00  0.00    -0.744 OA
ENDBRANCH  82  83
ENDBRANCH  50  75
BRANCH  62  87
ATOM     87  C   UNL     1      18.830   6.861   1.802  1.00  0.00     0.058 A 
ATOM     88  C   UNL     1      19.578   5.681   1.663  1.00  0.00     0.135 A 
ATOM     89  C   UNL     1      19.534   8.063   1.989  1.00  0.00     0.135 A 
ATOM     90  F   UNL     1      18.956   4.504   1.489  1.00  0.00    -0.206 F 
ATOM     91  C   UNL     1      20.967   5.689   1.732  1.00  0.00     0.059 A 
ATOM     92  C   UNL     1      20.924   8.098   2.028  1.00  0.00     0.059 A 
ATOM     93  F   UNL     1      18.870   9.223   2.117  1.00  0.00    -0.206 F 
ATOM     94  C   UNL     1      21.632   6.904   1.911  1.00  0.00     0.060 A 
BRANCH  94  95
ATOM     95  S   UNL     1      23.436   6.903   1.961  1.00  0.00     0.124 S 
ATOM     96  O   UNL     1      23.694   6.299   3.264  1.00  0.00    -0.237 OA
ATOM     97  O   UNL     1      23.780   6.083   0.803  1.00  0.00    -0.237 OA
ATOM     98  O   UNL     1      23.781   8.317   1.845  1.00  0.00    -0.744 OA
ENDBRANCH  94  95
ENDBRANCH  62  87
ENDBRANCH  36  37
ENDBRANCH  28  31
ENDBRANCH  26  27
ENDBRANCH  25  26
ENDBRANCH   1  25
TORSDOF 17
