REMARK SMILES COC[C@@H](C)CC(=O)N1CC(CC(=O)NCCCCNC(=O)c2ccc(-c3c4nc(c(-c5c(F)cc(S(=O)(=O)[O-])cc5F)c5ccc([nH]5)c(-c5c(F)cc(S(=O)(=O)[O-])cc5F)c5nc(c(-c6c(F)cc(S(=O)(=O)[O-])cc6F)c6ccc3[nH]6)C=C5)C=C4)cc2)C1
REMARK SMILES IDX 16 1 15 2 13 3 14 4 12 6 11 7 7 8 8 9 9 10 10 11 89 12 6 13
REMARK SMILES IDX 4 14 5 15 3 16 2 17 1 18 17 19 18 20 19 21 20 22 21 23 22 25
REMARK SMILES IDX 23 26 24 27 88 28 25 29 87 30 26 31 27 32 28 33 81 34 29 35
REMARK SMILES IDX 86 36 80 37 82 38 30 39 85 40 79 41 78 42 31 44 65 45 44 46
REMARK SMILES IDX 64 47 45 48 48 49 63 50 83 51 46 52 47 53 62 55 84 56 49 57
REMARK SMILES IDX 32 58 33 59 42 60 34 61 35 62 41 63 43 64 36 65 37 66 38 67
REMARK SMILES IDX 39 68 40 69 66 70 67 71 76 72 68 73 69 74 75 75 77 76 70 77
REMARK SMILES IDX 71 78 72 79 73 80 74 81 50 82 51 83 60 84 52 85 53 86 59 87
REMARK SMILES IDX 61 88 54 89 55 90 56 91 57 92 58 93
REMARK H PARENT 15 5 20 24 82 43 48 54
REMARK Flexibility Score: inf
ROOT
ATOM      1  C   UNL     1       1.364  -3.768   2.329  1.00  0.00     0.116 C 
ENDROOT
BRANCH   1   2
ATOM      2  N   UNL     1       0.652  -5.013   2.543  1.00  0.00    -0.356 N 
ATOM      3  C   UNL     1       0.623  -6.157   1.804  1.00  0.00     0.220 C 
ATOM      4  O   UNL     1      -0.142  -7.057   2.155  1.00  0.00    -0.275 OA
ATOM      5  H   UNL     1       0.100  -5.035   3.358  1.00  0.00     0.163 HD
BRANCH   3   6
ATOM      6  C   UNL     1       1.484  -6.323   0.561  1.00  0.00     0.107 C 
BRANCH   6   7
ATOM      7  C   UNL     1       0.742  -5.971  -0.728  1.00  0.00     0.037 C 
ATOM      8  C   UNL     1       0.767  -4.077  -3.463  1.00  0.00     0.222 C 
ATOM      9  O   UNL     1       0.116  -4.646  -4.335  1.00  0.00    -0.275 OA
ATOM     10  N   UNL     1       1.233  -4.716  -2.335  1.00  0.00    -0.342 N 
ATOM     11  C   UNL     1       1.412  -6.150  -2.100  1.00  0.00     0.125 C 
ATOM     12  C   UNL     1       0.706  -4.478  -1.007  1.00  0.00     0.125 C 
BRANCH   8  13
ATOM     13  C   UNL     1       1.278  -2.642  -3.638  1.00  0.00     0.106 C 
BRANCH  13  14
ATOM     14  C   UNL     1       0.424  -1.461  -3.129  1.00  0.00     0.021 C 
ATOM     15  C   UNL     1       0.892  -0.171  -3.818  1.00  0.00     0.010 C 
BRANCH  14  16
ATOM     16  C   UNL     1       0.524  -1.278  -1.610  1.00  0.00     0.163 C 
BRANCH  16  17
ATOM     17  O   UNL     1      -0.195  -0.146  -1.132  1.00  0.00    -0.384 OA
ATOM     18  C   UNL     1       0.630   0.878  -0.591  1.00  0.00     0.194 C 
ENDBRANCH  16  17
ENDBRANCH  14  16
ENDBRANCH  13  14
ENDBRANCH   8  13
ENDBRANCH   6   7
ENDBRANCH   3   6
ENDBRANCH   1   2
BRANCH   1  19
ATOM     19  C   UNL     1       0.466  -2.724   1.664  1.00  0.00     0.023 C 
BRANCH  19  20
ATOM     20  C   UNL     1      -0.362  -1.850   2.591  1.00  0.00     0.023 C 
BRANCH  20  21
ATOM     21  C   UNL     1       0.449  -0.942   3.497  1.00  0.00     0.116 C 
BRANCH  21  22
ATOM     22  N   UNL     1       1.359  -0.060   2.775  1.00  0.00    -0.352 N 
ATOM     23  C   UNL     1       1.522   1.300   2.898  1.00  0.00     0.251 C 
ATOM     24  H   UNL     1       1.935  -0.498   2.107  1.00  0.00     0.163 HD
ATOM     25  O   UNL     1       2.233   1.913   2.107  1.00  0.00    -0.269 OA
BRANCH  23  26
ATOM     26  C   UNL     1       0.811   2.011   3.978  1.00  0.00     0.039 A 
ATOM     27  C   UNL     1       0.129   3.196   3.696  1.00  0.00     0.014 A 
ATOM     28  C   UNL     1       0.790   1.467   5.265  1.00  0.00     0.014 A 
ATOM     29  C   UNL     1      -0.624   3.806   4.700  1.00  0.00     0.010 A 
ATOM     30  C   UNL     1      -0.046   2.012   6.225  1.00  0.00     0.010 A 
ATOM     31  C   UNL     1      -0.740   3.202   5.963  1.00  0.00    -0.014 A 
BRANCH  31  32
ATOM     32  C   UNL     1      -1.532   3.814   7.056  1.00  0.00     0.031 A 
ATOM     33  C   UNL     1      -0.837   4.212   8.332  1.00  0.00     0.074 A 
ATOM     34  C   UNL     1      -2.868   3.931   6.936  1.00  0.00     0.049 A 
ATOM     35  N   UNL     1      -1.348   4.655   9.451  1.00  0.00    -0.248 NA
ATOM     36  C   UNL     1       0.627   4.046   8.369  1.00  0.00     0.031 C 
ATOM     37  C   UNL     1      -3.656   3.521   5.771  1.00  0.00     0.029 A 
ATOM     38  N   UNL     1      -3.804   4.419   7.812  1.00  0.00    -0.354 N 
ATOM     39  C   UNL     1      -0.276   4.792  10.326  1.00  0.00     0.074 A 
ATOM     40  C   UNL     1       0.901   4.321   9.634  1.00  0.00     0.031 C 
ATOM     41  C   UNL     1      -4.951   3.798   5.995  1.00  0.00     0.029 A 
ATOM     42  C   UNL     1      -5.090   4.370   7.330  1.00  0.00     0.049 A 
ATOM     43  H   UNL     1      -3.575   4.771   8.703  1.00  0.00     0.167 HD
ATOM     44  C   UNL     1      -0.269   5.297  11.582  1.00  0.00     0.037 A 
ATOM     45  C   UNL     1      -6.249   4.744   7.906  1.00  0.00     0.037 A 
ATOM     46  C   UNL     1      -1.443   5.804  12.242  1.00  0.00     0.049 A 
ATOM     47  C   UNL     1      -6.212   5.333   9.290  1.00  0.00     0.074 A 
ATOM     48  C   UNL     1      -1.543   6.399  13.486  1.00  0.00     0.029 A 
ATOM     49  N   UNL     1      -2.722   5.781  11.704  1.00  0.00    -0.354 N 
ATOM     50  N   UNL     1      -5.182   5.513  10.084  1.00  0.00    -0.248 NA
ATOM     51  C   UNL     1      -7.492   5.783   9.852  1.00  0.00     0.031 C 
ATOM     52  C   UNL     1      -2.890   6.699  13.718  1.00  0.00     0.029 A 
ATOM     53  C   UNL     1      -3.621   6.338  12.597  1.00  0.00     0.049 A 
ATOM     54  H   UNL     1      -2.956   5.421  10.818  1.00  0.00     0.167 HD
ATOM     55  C   UNL     1      -5.685   6.119  11.229  1.00  0.00     0.074 A 
ATOM     56  C   UNL     1      -7.108   6.293  11.014  1.00  0.00     0.031 C 
ATOM     57  C   UNL     1      -5.034   6.497  12.358  1.00  0.00     0.037 A 
BRANCH  44  58
ATOM     58  C   UNL     1       1.048   5.335  12.311  1.00  0.00     0.058 A 
ATOM     59  C   UNL     1       2.093   6.184  11.907  1.00  0.00     0.135 A 
ATOM     60  C   UNL     1       1.265   4.526  13.438  1.00  0.00     0.135 A 
ATOM     61  F   UNL     1       1.950   6.965  10.824  1.00  0.00    -0.206 F 
ATOM     62  C   UNL     1       3.314   6.204  12.571  1.00  0.00     0.059 A 
ATOM     63  C   UNL     1       2.468   4.553  14.138  1.00  0.00     0.059 A 
ATOM     64  F   UNL     1       0.304   3.692  13.867  1.00  0.00    -0.206 F 
ATOM     65  C   UNL     1       3.493   5.384  13.687  1.00  0.00     0.060 A 
BRANCH  65  66
ATOM     66  S   UNL     1       5.082   5.428  14.541  1.00  0.00     0.124 S 
ATOM     67  O   UNL     1       5.941   4.726  13.593  1.00  0.00    -0.237 OA
ATOM     68  O   UNL     1       5.324   6.861  14.675  1.00  0.00    -0.237 OA
ATOM     69  O   UNL     1       4.817   4.721  15.790  1.00  0.00    -0.744 OA
ENDBRANCH  65  66
ENDBRANCH  44  58
BRANCH  45  70
ATOM     70  C   UNL     1      -7.530   4.607   7.161  1.00  0.00     0.058 A 
ATOM     71  C   UNL     1      -8.215   5.739   6.694  1.00  0.00     0.135 A 
ATOM     72  C   UNL     1      -8.087   3.349   6.885  1.00  0.00     0.135 A 
ATOM     73  F   UNL     1      -7.726   6.965   6.936  1.00  0.00    -0.206 F 
ATOM     74  C   UNL     1      -9.415   5.632   5.999  1.00  0.00     0.059 A 
ATOM     75  C   UNL     1      -9.272   3.214   6.168  1.00  0.00     0.059 A 
ATOM     76  F   UNL     1      -7.462   2.233   7.292  1.00  0.00    -0.206 F 
ATOM     77  C   UNL     1      -9.934   4.363   5.738  1.00  0.00     0.060 A 
BRANCH  77  78
ATOM     78  S   UNL     1     -11.468   4.234   4.792  1.00  0.00     0.124 S 
ATOM     79  O   UNL     1     -12.453   4.686   5.767  1.00  0.00    -0.237 OA
ATOM     80  O   UNL     1     -11.214   5.138   3.674  1.00  0.00    -0.237 OA
ATOM     81  O   UNL     1     -11.527   2.818   4.442  1.00  0.00    -0.744 OA
ENDBRANCH  77  78
ENDBRANCH  45  70
BRANCH  57  82
ATOM     82  C   UNL     1      -5.854   7.164  13.428  1.00  0.00     0.058 A 
ATOM     83  C   UNL     1      -6.788   6.450  14.195  1.00  0.00     0.135 A 
ATOM     84  C   UNL     1      -5.688   8.532  13.700  1.00  0.00     0.135 A 
ATOM     85  F   UNL     1      -6.986   5.141  13.973  1.00  0.00    -0.206 F 
ATOM     86  C   UNL     1      -7.561   7.079  15.165  1.00  0.00     0.059 A 
ATOM     87  C   UNL     1      -6.428   9.173  14.688  1.00  0.00     0.059 A 
ATOM     88  F   UNL     1      -4.796   9.257  13.007  1.00  0.00    -0.206 F 
ATOM     89  C   UNL     1      -7.377   8.442  15.400  1.00  0.00     0.060 A 
BRANCH  89  90
ATOM     90  S   UNL     1      -8.390   9.248  16.658  1.00  0.00     0.124 S 
ATOM     91  O   UNL     1      -9.678   9.344  15.979  1.00  0.00    -0.237 OA
ATOM     92  O   UNL     1      -8.325   8.300  17.766  1.00  0.00    -0.237 OA
ATOM     93  O   UNL     1      -7.703  10.516  16.885  1.00  0.00    -0.744 OA
ENDBRANCH  89  90
ENDBRANCH  57  82
ENDBRANCH  31  32
ENDBRANCH  23  26
ENDBRANCH  21  22
ENDBRANCH  20  21
ENDBRANCH  19  20
ENDBRANCH   1  19
TORSDOF 19
