REMARK SMILES CN1C(=O)/C(=C/c2ccc(OCC(=O)NCCCCNC(=O)c3ccc(-c4c5nc(c(-c6c(F)cc(S(=O)(=O)[O-])cc6F)c6ccc([nH]6)c(-c6c(F)cc(S(=O)(=O)[O-])cc6F)c6nc(c(-c7c(F)cc(S(=O)(=O)[O-])cc7F)c7ccc4[nH]7)C=C6)C=C5)cc3)c(Br)c2)C(=O)NC1=S
REMARK SMILES IDX 17 1 16 2 15 3 13 4 14 5 12 7 11 8 10 9 7 10 8 11 91 12 9 13
REMARK SMILES IDX 89 14 90 15 6 16 1 17 2 18 3 19 95 20 4 21 5 22 94 23 96 24
REMARK SMILES IDX 92 25 93 27 18 28 19 29 20 30 21 31 22 33 23 34 24 35 88 36
REMARK SMILES IDX 25 37 87 38 26 39 27 40 28 41 81 42 29 43 86 44 80 45 82 46
REMARK SMILES IDX 30 47 85 48 79 49 78 50 31 52 65 53 44 54 64 55 45 56 48 57
REMARK SMILES IDX 63 58 83 59 46 60 47 61 62 63 84 64 49 65 32 66 33 67 42 68
REMARK SMILES IDX 34 69 35 70 41 71 43 72 36 73 37 74 38 75 39 76 40 77 66 78
REMARK SMILES IDX 67 79 76 80 68 81 69 82 75 83 77 84 70 85 71 86 72 87 73 88
REMARK SMILES IDX 74 89 50 90 51 91 60 92 52 93 53 94 59 95 61 96 54 97 55 98
REMARK SMILES IDX 56 99 57 100 58 101
REMARK H PARENT 15 6 94 26 20 32 82 51 48 62
REMARK Flexibility Score: inf
ROOT
ATOM      1  C   UNL     1       3.819   7.213  -8.121  1.00  0.00     0.023 C 
ENDROOT
BRANCH   1   2
ATOM      2  C   UNL     1       5.160   6.703  -8.641  1.00  0.00     0.116 C 
BRANCH   2   3
ATOM      3  N   UNL     1       6.118   6.485  -7.576  1.00  0.00    -0.353 N 
ATOM      4  C   UNL     1       6.705   5.319  -7.178  1.00  0.00     0.257 C 
ATOM      5  O   UNL     1       7.564   5.367  -6.296  1.00  0.00    -0.271 OA
ATOM      6  H   UNL     1       6.382   7.287  -7.070  1.00  0.00     0.163 HD
BRANCH   4   7
ATOM      7  C   UNL     1       6.339   4.008  -7.885  1.00  0.00     0.329 C 
BRANCH   7   8
ATOM      8  O   UNL     1       4.998   3.558  -7.877  1.00  0.00    -0.483 OA
BRANCH   8   9
ATOM      9  C   UNL     1       4.309   3.451  -6.702  1.00  0.00     0.134 A 
ATOM     10  C   UNL     1       2.482   3.209  -4.560  1.00  0.00    -0.023 A 
ATOM     11  C   UNL     1       2.027   3.607  -5.810  1.00  0.00     0.012 A 
ATOM     12  C   UNL     1       3.846   2.949  -4.379  1.00  0.00     0.027 A 
ATOM     13  C   UNL     1       2.937   3.717  -6.868  1.00  0.00     0.048 A 
ATOM     14  C   UNL     1       4.756   3.039  -5.443  1.00  0.00     0.060 A 
ATOM     15  Br  UNL     1       6.497   2.397  -5.036  1.00  0.00    -0.047 Br
BRANCH  10  16
ATOM     16  C   UNL     1       1.590   2.942  -3.429  1.00  0.00     0.027 C 
ATOM     17  C   UNL     1       0.486  -0.083   0.024  1.00  0.00     0.156 C 
ATOM     18  N   UNL     1       0.602   0.159  -1.414  1.00  0.00    -0.288 N 
ATOM     19  C   UNL     1       0.540   1.498  -1.815  1.00  0.00     0.265 C 
ATOM     20  C   UNL     1       0.768  -0.904  -2.295  1.00  0.00     0.182 C 
ATOM     21  O   UNL     1       0.203   2.421  -1.078  1.00  0.00    -0.268 OA
ATOM     22  C   UNL     1       0.995   1.753  -3.205  1.00  0.00     0.106 C 
ATOM     23  N   UNL     1       0.876  -0.591  -3.622  1.00  0.00    -0.298 N 
ATOM     24  S   UNL     1       0.833  -2.535  -1.904  1.00  0.00    -0.040 S 
ATOM     25  C   UNL     1       0.954   0.651  -4.182  1.00  0.00     0.263 C 
ATOM     26  H   UNL     1       0.901  -1.351  -4.247  1.00  0.00     0.172 HD
ATOM     27  O   UNL     1       0.960   0.789  -5.400  1.00  0.00    -0.269 OA
ENDBRANCH  10  16
ENDBRANCH   8   9
ENDBRANCH   7   8
ENDBRANCH   4   7
ENDBRANCH   2   3
ENDBRANCH   1   2
BRANCH   1  28
ATOM     28  C   UNL     1       3.879   8.504  -7.301  1.00  0.00     0.023 C 
BRANCH  28  29
ATOM     29  C   UNL     1       4.606   9.671  -7.956  1.00  0.00     0.116 C 
BRANCH  29  30
ATOM     30  N   UNL     1       4.004  10.085  -9.213  1.00  0.00    -0.352 N 
ATOM     31  C   UNL     1       3.713  11.355  -9.654  1.00  0.00     0.251 C 
ATOM     32  H   UNL     1       3.774   9.357  -9.834  1.00  0.00     0.163 HD
ATOM     33  O   UNL     1       3.096  11.513 -10.703  1.00  0.00    -0.269 OA
BRANCH  31  34
ATOM     34  C   UNL     1       4.111  12.525  -8.841  1.00  0.00     0.039 A 
ATOM     35  C   UNL     1       3.163  13.518  -8.576  1.00  0.00     0.014 A 
ATOM     36  C   UNL     1       5.404  12.632  -8.321  1.00  0.00     0.014 A 
ATOM     37  C   UNL     1       3.488  14.579  -7.726  1.00  0.00     0.010 A 
ATOM     38  C   UNL     1       5.706  13.654  -7.426  1.00  0.00     0.010 A 
ATOM     39  C   UNL     1       4.750  14.634  -7.114  1.00  0.00    -0.014 A 
BRANCH  39  40
ATOM     40  C   UNL     1       5.097  15.695  -6.135  1.00  0.00     0.031 A 
ATOM     41  C   UNL     1       6.197  16.671  -6.444  1.00  0.00     0.074 A 
ATOM     42  C   UNL     1       4.499  15.715  -4.928  1.00  0.00     0.049 A 
ATOM     43  N   UNL     1       6.748  17.570  -5.671  1.00  0.00    -0.248 NA
ATOM     44  C   UNL     1       6.774  16.603  -7.796  1.00  0.00     0.031 C 
ATOM     45  C   UNL     1       3.453  14.790  -4.487  1.00  0.00     0.029 A 
ATOM     46  N   UNL     1       4.708  16.524  -3.838  1.00  0.00    -0.354 N 
ATOM     47  C   UNL     1       7.753  18.156  -6.429  1.00  0.00     0.074 A 
ATOM     48  C   UNL     1       7.761  17.483  -7.711  1.00  0.00     0.031 C 
ATOM     49  C   UNL     1       3.116  15.081  -3.220  1.00  0.00     0.029 A 
ATOM     50  C   UNL     1       3.945  16.186  -2.746  1.00  0.00     0.049 A 
ATOM     51  H   UNL     1       5.345  17.275  -3.839  1.00  0.00     0.167 HD
ATOM     52  C   UNL     1       8.585  19.172  -6.094  1.00  0.00     0.037 A 
ATOM     53  C   UNL     1       3.926  16.692  -1.498  1.00  0.00     0.037 A 
ATOM     54  C   UNL     1       8.557  19.855  -4.828  1.00  0.00     0.049 A 
ATOM     55  C   UNL     1       4.838  17.835  -1.151  1.00  0.00     0.074 A 
ATOM     56  C   UNL     1       9.316  20.935  -4.415  1.00  0.00     0.029 A 
ATOM     57  N   UNL     1       7.725  19.522  -3.769  1.00  0.00    -0.354 N 
ATOM     58  N   UNL     1       5.743  18.419  -1.900  1.00  0.00    -0.248 NA
ATOM     59  C   UNL     1       4.724  18.395   0.203  1.00  0.00     0.031 C 
ATOM     60  C   UNL     1       8.964  21.236  -3.094  1.00  0.00     0.029 A 
ATOM     61  C   UNL     1       7.960  20.367  -2.697  1.00  0.00     0.049 A 
ATOM     62  H   UNL     1       7.064  18.792  -3.777  1.00  0.00     0.167 HD
ATOM     63  C   UNL     1       6.293  19.427  -1.116  1.00  0.00     0.074 A 
ATOM     64  C   UNL     1       5.616  19.378   0.164  1.00  0.00     0.031 C 
ATOM     65  C   UNL     1       7.270  20.313  -1.432  1.00  0.00     0.037 A 
BRANCH  52  66
ATOM     66  C   UNL     1       9.600  19.591  -7.121  1.00  0.00     0.058 A 
ATOM     67  C   UNL     1       9.223  20.264  -8.295  1.00  0.00     0.135 A 
ATOM     68  C   UNL     1      10.961  19.302  -6.939  1.00  0.00     0.135 A 
ATOM     69  F   UNL     1       7.932  20.553  -8.524  1.00  0.00    -0.206 F 
ATOM     70  C   UNL     1      10.153  20.588  -9.277  1.00  0.00     0.059 A 
ATOM     71  C   UNL     1      11.913  19.642  -7.897  1.00  0.00     0.059 A 
ATOM     72  F   UNL     1      11.377  18.666  -5.833  1.00  0.00    -0.206 F 
ATOM     73  C   UNL     1      11.495  20.260  -9.074  1.00  0.00     0.060 A 
BRANCH  73  74
ATOM     74  S   UNL     1      12.686  20.641 -10.376  1.00  0.00     0.124 S 
ATOM     75  O   UNL     1      12.435  19.558 -11.321  1.00  0.00    -0.237 OA
ATOM     76  O   UNL     1      12.267  21.970 -10.810  1.00  0.00    -0.237 OA
ATOM     77  O   UNL     1      13.970  20.588  -9.684  1.00  0.00    -0.744 OA
ENDBRANCH  73  74
ENDBRANCH  52  66
BRANCH  53  78
ATOM     78  C   UNL     1       2.994  16.117  -0.494  1.00  0.00     0.058 A 
ATOM     79  C   UNL     1       1.822  16.794  -0.129  1.00  0.00     0.135 A 
ATOM     80  C   UNL     1       3.222  14.851   0.067  1.00  0.00     0.135 A 
ATOM     81  F   UNL     1       1.565  18.010  -0.635  1.00  0.00    -0.206 F 
ATOM     82  C   UNL     1       0.904  16.235   0.754  1.00  0.00     0.059 A 
ATOM     83  C   UNL     1       2.310  14.263   0.937  1.00  0.00     0.059 A 
ATOM     84  F   UNL     1       4.322  14.158  -0.266  1.00  0.00    -0.206 F 
ATOM     85  C   UNL     1       1.153  14.964   1.275  1.00  0.00     0.060 A 
BRANCH  85  86
ATOM     86  S   UNL     1      -0.090  14.207   2.345  1.00  0.00     0.124 S 
ATOM     87  O   UNL     1       0.114  14.932   3.593  1.00  0.00    -0.237 OA
ATOM     88  O   UNL     1      -1.330  14.500   1.631  1.00  0.00    -0.237 OA
ATOM     89  O   UNL     1       0.295  12.799   2.360  1.00  0.00    -0.744 OA
ENDBRANCH  85  86
ENDBRANCH  53  78
BRANCH  65  90
ATOM     90  C   UNL     1       7.653  21.328  -0.393  1.00  0.00     0.058 A 
ATOM     91  C   UNL     1       8.467  20.990   0.698  1.00  0.00     0.135 A 
ATOM     92  C   UNL     1       7.276  22.672  -0.543  1.00  0.00     0.135 A 
ATOM     93  F   UNL     1       8.847  19.717   0.889  1.00  0.00    -0.206 F 
ATOM     94  C   UNL     1       8.894  21.951   1.609  1.00  0.00     0.059 A 
ATOM     95  C   UNL     1       7.708  23.653   0.344  1.00  0.00     0.059 A 
ATOM     96  F   UNL     1       6.503  23.046  -1.575  1.00  0.00    -0.206 F 
ATOM     97  C   UNL     1       8.515  23.282   1.419  1.00  0.00     0.060 A 
BRANCH  97  98
ATOM     98  S   UNL     1       9.133  24.533   2.566  1.00  0.00     0.124 S 
ATOM     99  O   UNL     1       8.293  24.301   3.736  1.00  0.00    -0.237 OA
ATOM    100  O   UNL     1      10.537  24.161   2.709  1.00  0.00    -0.237 OA
ATOM    101  O   UNL     1       8.894  25.788   1.859  1.00  0.00    -0.744 OA
ENDBRANCH  97  98
ENDBRANCH  65  90
ENDBRANCH  39  40
ENDBRANCH  31  34
ENDBRANCH  29  30
ENDBRANCH  28  29
ENDBRANCH   1  28
TORSDOF 17
