REMARK SMILES CC[NH2+][C@H](C)c1cccn1Cc1ccc(C(=O)NCCCCNC(=O)c2ccc(-c3c4nc(c(-c5c(F)cc(S(=O)(=O)[O-])cc5F)c5ccc([nH]5)c(-c5c(F)cc(S(=O)(=O)[O-])cc5F)c5nc(c(-c6c(F)cc(S(=O)(=O)[O-])cc6F)c6ccc3[nH]6)C=C5)C=C4)cc2)cc1
REMARK SMILES IDX 19 1 18 2 16 3 17 4 15 6 12 7 13 8 93 9 14 10 92 11 11 12
REMARK SMILES IDX 10 13 6 14 7 15 8 16 9 17 4 18 5 19 3 20 2 23 1 24 20 25
REMARK SMILES IDX 21 26 22 27 23 28 24 29 25 31 26 32 27 33 91 34 28 35 90 36
REMARK SMILES IDX 29 37 30 38 31 39 84 40 32 41 89 42 83 43 85 44 33 45 88 46
REMARK SMILES IDX 82 47 81 48 34 50 68 51 47 52 67 53 48 54 51 55 66 56 86 57
REMARK SMILES IDX 49 58 50 59 65 61 87 62 52 63 35 64 36 65 45 66 37 67 38 68
REMARK SMILES IDX 44 69 46 70 39 71 40 72 41 73 42 74 43 75 69 76 70 77 79 78
REMARK SMILES IDX 71 79 72 80 78 81 80 82 73 83 74 84 75 85 76 86 77 87 53 88
REMARK SMILES IDX 54 89 63 90 55 91 56 92 62 93 64 94 57 95 58 96 59 97 60 98
REMARK SMILES IDX 61 99
REMARK H PARENT 18 5 3 21 3 22 23 30 85 49 51 60
REMARK Flexibility Score: inf
ROOT
ATOM      1  C   UNL     1       8.107   4.088   7.823  1.00  0.00     0.116 C 
ENDROOT
BRANCH   1   2
ATOM      2  N   UNL     1       8.579   2.802   7.353  1.00  0.00    -0.352 N 
ATOM      3  C   UNL     1       7.917   1.640   7.056  1.00  0.00     0.251 C 
ATOM      4  O   UNL     1       8.599   0.659   6.753  1.00  0.00    -0.269 OA
ATOM      5  H   UNL     1       9.553   2.755   7.224  1.00  0.00     0.163 HD
BRANCH   3   6
ATOM      6  C   UNL     1       6.429   1.515   7.032  1.00  0.00     0.039 A 
ATOM      7  C   UNL     1       3.616   1.217   6.682  1.00  0.00    -0.028 A 
ATOM      8  C   UNL     1       4.524   0.358   6.061  1.00  0.00     0.006 A 
ATOM      9  C   UNL     1       4.141   2.149   7.582  1.00  0.00     0.006 A 
ATOM     10  C   UNL     1       5.906   0.509   6.215  1.00  0.00     0.014 A 
ATOM     11  C   UNL     1       5.524   2.290   7.758  1.00  0.00     0.014 A 
BRANCH   7  12
ATOM     12  C   UNL     1       2.126   1.140   6.391  1.00  0.00     0.157 C 
BRANCH  12  13
ATOM     13  N   UNL     1       1.647   2.222   5.518  1.00  0.00    -0.342 N 
ATOM     14  C   UNL     1       1.053   2.178   4.257  1.00  0.00     0.076 A 
ATOM     15  C   UNL     1       0.754   3.503   3.929  1.00  0.00     0.029 A 
ATOM     16  C   UNL     1       1.104   4.344   4.995  1.00  0.00     0.020 A 
ATOM     17  C   UNL     1       1.603   3.532   5.975  1.00  0.00     0.086 A 
BRANCH  14  18
ATOM     18  C   UNL     1       0.643   0.981   3.415  1.00  0.00     0.227 C 
ATOM     19  C   UNL     1       0.736   1.269   1.903  1.00  0.00     0.082 C 
BRANCH  18  20
ATOM     20  N   UNL     1       1.236  -0.313   3.760  1.00  0.00    -0.339 N 
ATOM     21  H   UNL     1       1.290  -0.375   4.777  1.00  0.00     0.346 HD
ATOM     22  H   UNL     1       0.636  -1.023   3.341  1.00  0.00     0.346 HD
BRANCH  20  23
ATOM     23  C   UNL     1       2.576  -0.541   3.221  1.00  0.00     0.257 C 
ATOM     24  C   UNL     1       3.046  -1.919   3.677  1.00  0.00     0.071 C 
ENDBRANCH  20  23
ENDBRANCH  18  20
ENDBRANCH  14  18
ENDBRANCH  12  13
ENDBRANCH   7  12
ENDBRANCH   3   6
ENDBRANCH   1   2
BRANCH   1  25
ATOM     25  C   UNL     1       8.025   4.091   9.352  1.00  0.00     0.023 C 
BRANCH  25  26
ATOM     26  C   UNL     1       9.377   4.268  10.051  1.00  0.00     0.023 C 
BRANCH  26  27
ATOM     27  C   UNL     1       9.967   5.665   9.891  1.00  0.00     0.116 C 
BRANCH  27  28
ATOM     28  N   UNL     1       9.080   6.673  10.452  1.00  0.00    -0.352 N 
ATOM     29  C   UNL     1       9.113   8.036  10.296  1.00  0.00     0.251 C 
ATOM     30  H   UNL     1       8.355   6.329  11.023  1.00  0.00     0.163 HD
ATOM     31  O   UNL     1       8.536   8.756  11.098  1.00  0.00    -0.269 OA
BRANCH  29  32
ATOM     32  C   UNL     1       9.851   8.628   9.166  1.00  0.00     0.039 A 
ATOM     33  C   UNL     1      10.681   9.726   9.416  1.00  0.00     0.014 A 
ATOM     34  C   UNL     1       9.674   8.139   7.867  1.00  0.00     0.014 A 
ATOM     35  C   UNL     1      11.386  10.298   8.365  1.00  0.00     0.010 A 
ATOM     36  C   UNL     1      10.399   8.688   6.822  1.00  0.00     0.010 A 
ATOM     37  C   UNL     1      11.257   9.763   7.076  1.00  0.00    -0.014 A 
BRANCH  37  38
ATOM     38  C   UNL     1      12.130  10.273   6.000  1.00  0.00     0.031 A 
ATOM     39  C   UNL     1      13.572   9.713   6.148  1.00  0.00     0.074 A 
ATOM     40  C   UNL     1      11.529  11.129   5.112  1.00  0.00     0.049 A 
ATOM     41  N   UNL     1      14.721  10.262   5.893  1.00  0.00    -0.248 NA
ATOM     42  C   UNL     1      13.768   8.368   6.768  1.00  0.00     0.031 C 
ATOM     43  C   UNL     1      10.098  11.523   5.149  1.00  0.00     0.029 A 
ATOM     44  N   UNL     1      11.958  11.836   4.008  1.00  0.00    -0.354 N 
ATOM     45  C   UNL     1      15.732   9.284   6.098  1.00  0.00     0.074 A 
ATOM     46  C   UNL     1      15.094   8.194   6.771  1.00  0.00     0.031 C 
ATOM     47  C   UNL     1       9.814  12.439   4.197  1.00  0.00     0.029 A 
ATOM     48  C   UNL     1      11.008  12.732   3.433  1.00  0.00     0.049 A 
ATOM     49  H   UNL     1      12.864  11.729   3.639  1.00  0.00     0.167 HD
ATOM     50  C   UNL     1      16.989   9.374   5.557  1.00  0.00     0.037 A 
ATOM     51  C   UNL     1      11.198  13.680   2.458  1.00  0.00     0.037 A 
ATOM     52  C   UNL     1      17.055  10.535   4.733  1.00  0.00     0.049 A 
ATOM     53  C   UNL     1      12.589  13.476   2.021  1.00  0.00     0.074 A 
ATOM     54  C   UNL     1      17.086  11.873   5.022  1.00  0.00     0.029 A 
ATOM     55  N   UNL     1      16.690  10.361   3.417  1.00  0.00    -0.354 N 
ATOM     56  N   UNL     1      13.019  12.459   1.335  1.00  0.00    -0.248 NA
ATOM     57  C   UNL     1      13.608  14.411   2.516  1.00  0.00     0.031 C 
ATOM     58  C   UNL     1      16.221  12.416   4.050  1.00  0.00     0.029 A 
ATOM     59  C   UNL     1      15.944  11.456   3.067  1.00  0.00     0.049 A 
ATOM     60  H   UNL     1      16.920   9.597   2.840  1.00  0.00     0.167 HD
ATOM     61  C   UNL     1      14.364  12.468   1.609  1.00  0.00     0.074 A 
ATOM     62  C   UNL     1      14.695  13.808   2.047  1.00  0.00     0.031 C 
ATOM     63  C   UNL     1      14.987  11.323   1.990  1.00  0.00     0.037 A 
BRANCH  50  64
ATOM     64  C   UNL     1      18.155   8.423   5.419  1.00  0.00     0.058 A 
ATOM     65  C   UNL     1      19.430   8.984   5.133  1.00  0.00     0.135 A 
ATOM     66  C   UNL     1      18.028   7.047   5.188  1.00  0.00     0.135 A 
ATOM     67  F   UNL     1      19.681  10.280   5.387  1.00  0.00    -0.206 F 
ATOM     68  C   UNL     1      20.449   8.270   4.511  1.00  0.00     0.059 A 
ATOM     69  C   UNL     1      19.059   6.297   4.603  1.00  0.00     0.059 A 
ATOM     70  F   UNL     1      16.878   6.412   5.449  1.00  0.00    -0.206 F 
ATOM     71  C   UNL     1      20.240   6.931   4.214  1.00  0.00     0.060 A 
BRANCH  71  72
ATOM     72  S   UNL     1      21.521   6.058   3.284  1.00  0.00     0.124 S 
ATOM     73  O   UNL     1      21.385   6.650   1.958  1.00  0.00    -0.237 OA
ATOM     74  O   UNL     1      22.734   6.421   4.013  1.00  0.00    -0.237 OA
ATOM     75  O   UNL     1      21.127   4.658   3.399  1.00  0.00    -0.744 OA
ENDBRANCH  71  72
ENDBRANCH  50  64
BRANCH  51  76
ATOM     76  C   UNL     1      10.485  14.905   1.899  1.00  0.00     0.058 A 
ATOM     77  C   UNL     1       9.177  15.318   2.185  1.00  0.00     0.135 A 
ATOM     78  C   UNL     1      11.220  15.844   1.114  1.00  0.00     0.135 A 
ATOM     79  F   UNL     1       8.300  14.486   2.758  1.00  0.00    -0.206 F 
ATOM     80  C   UNL     1       8.714  16.620   1.894  1.00  0.00     0.059 A 
ATOM     81  C   UNL     1      10.811  17.152   0.867  1.00  0.00     0.059 A 
ATOM     82  F   UNL     1      12.409  15.536   0.577  1.00  0.00    -0.206 F 
ATOM     83  C   UNL     1       9.564  17.551   1.299  1.00  0.00     0.060 A 
BRANCH  83  84
ATOM     84  S   UNL     1       9.114  19.300   1.202  1.00  0.00     0.124 S 
ATOM     85  O   UNL     1       8.288  19.338   0.002  1.00  0.00    -0.237 OA
ATOM     86  O   UNL     1       8.414  19.513   2.466  1.00  0.00    -0.237 OA
ATOM     87  O   UNL     1      10.407  19.973   1.099  1.00  0.00    -0.744 OA
ENDBRANCH  83  84
ENDBRANCH  51  76
BRANCH  63  88
ATOM     88  C   UNL     1      14.351  10.028   1.506  1.00  0.00     0.058 A 
ATOM     89  C   UNL     1      14.255   9.754   0.134  1.00  0.00     0.135 A 
ATOM     90  C   UNL     1      13.785   9.059   2.353  1.00  0.00     0.135 A 
ATOM     91  F   UNL     1      14.766  10.619  -0.756  1.00  0.00    -0.206 F 
ATOM     92  C   UNL     1      13.656   8.588  -0.360  1.00  0.00     0.059 A 
ATOM     93  C   UNL     1      13.186   7.882   1.894  1.00  0.00     0.059 A 
ATOM     94  F   UNL     1      13.795   9.232   3.671  1.00  0.00    -0.206 F 
ATOM     95  C   UNL     1      13.132   7.649   0.529  1.00  0.00     0.060 A 
BRANCH  95  96
ATOM     96  S   UNL     1      12.419   6.118  -0.117  1.00  0.00     0.124 S 
ATOM     97  O   UNL     1      11.351   6.610  -0.982  1.00  0.00    -0.237 OA
ATOM     98  O   UNL     1      13.559   5.517  -0.800  1.00  0.00    -0.237 OA
ATOM     99  O   UNL     1      11.969   5.414   1.081  1.00  0.00    -0.744 OA
ENDBRANCH  95  96
ENDBRANCH  63  88
ENDBRANCH  37  38
ENDBRANCH  29  32
ENDBRANCH  27  28
ENDBRANCH  26  27
ENDBRANCH  25  26
ENDBRANCH   1  25
TORSDOF 19
