REMARK SMILES C[C@H]([NH2+][C@@H](C)[C@@H](C)C(=O)NCCCCNC(=O)c1ccc(-c2c3nc(c(-c4c(F)cc(S(=O)(=O)[O-])cc4F)c4ccc([nH]4)c(-c4c(F)cc(S(=O)(=O)[O-])cc4F)c4nc(c(-c5c(F)cc(S(=O)(=O)[O-])cc5F)c5ccc2[nH]5)C=C4)C=C3)cc1)c1cccc(Br)c1
REMARK SMILES IDX 12 1 11 2 10 3 8 4 9 5 6 7 7 8 4 9 5 10 3 11 2 14 1 15 84 16
REMARK SMILES IDX 85 17 90 18 86 19 88 20 87 21 89 22 13 23 14 24 15 25 16 26
REMARK SMILES IDX 17 28 18 29 19 30 83 31 20 32 82 33 21 34 22 35 23 36 76 37
REMARK SMILES IDX 24 38 81 39 75 40 77 41 25 42 80 43 74 44 73 45 26 47 60 48
REMARK SMILES IDX 39 49 59 50 40 51 43 52 58 53 78 54 41 55 42 56 57 58 79 59
REMARK SMILES IDX 44 60 27 61 28 62 37 63 29 64 30 65 36 66 38 67 31 68 32 69
REMARK SMILES IDX 33 70 34 71 35 72 61 73 62 74 71 75 63 76 64 77 70 78 72 79
REMARK SMILES IDX 65 80 66 81 67 82 68 83 69 84 45 85 46 86 55 87 47 88 48 89
REMARK SMILES IDX 54 90 56 91 49 92 50 93 51 94 52 95 53 96
REMARK H PARENT 10 6 3 12 3 13 15 27 77 46 43 57
REMARK Flexibility Score: inf
ROOT
ATOM      1  C   UNL     1       0.172  -0.016  -4.913  1.00  0.00     0.023 C 
ENDROOT
BRANCH   1   2
ATOM      2  C   UNL     1      -0.931  -0.477  -3.969  1.00  0.00     0.116 C 
BRANCH   2   3
ATOM      3  N   UNL     1      -0.796  -1.890  -3.671  1.00  0.00    -0.356 N 
ATOM      4  C   UNL     1      -0.649  -2.521  -2.474  1.00  0.00     0.228 C 
ATOM      5  O   UNL     1      -0.527  -3.747  -2.470  1.00  0.00    -0.275 OA
ATOM      6  H   UNL     1      -0.813  -2.484  -4.455  1.00  0.00     0.163 HD
BRANCH   4   7
ATOM      7  C   UNL     1      -0.668  -1.735  -1.168  1.00  0.00     0.133 C 
ATOM      8  C   UNL     1      -2.041  -1.067  -1.058  1.00  0.00     0.024 C 
BRANCH   7   9
ATOM      9  C   UNL     1       0.589  -0.830  -0.998  1.00  0.00     0.192 C 
ATOM     10  C   UNL     1       1.866  -1.677  -1.178  1.00  0.00     0.076 C 
BRANCH   9  11
ATOM     11  N   UNL     1       0.747  -0.208   0.322  1.00  0.00    -0.337 N 
ATOM     12  H   UNL     1       0.181  -0.757   0.968  1.00  0.00     0.347 HD
ATOM     13  H   UNL     1       1.760  -0.202   0.440  1.00  0.00     0.347 HD
BRANCH  11  14
ATOM     14  C   UNL     1       0.395   1.200   0.555  1.00  0.00     0.210 C 
ATOM     15  C   UNL     1       0.987   2.122  -0.526  1.00  0.00     0.081 C 
BRANCH  14  16
ATOM     16  C   UNL     1      -1.082   1.433   0.873  1.00  0.00     0.010 A 
ATOM     17  C   UNL     1      -1.799   2.533   0.367  1.00  0.00     0.010 A 
ATOM     18  C   UNL     1      -1.776   0.542   1.715  1.00  0.00     0.025 A 
ATOM     19  C   UNL     1      -3.170   2.678   0.606  1.00  0.00     0.002 A 
ATOM     20  C   UNL     1      -3.152   0.671   1.921  1.00  0.00     0.018 A 
ATOM     21  C   UNL     1      -3.855   1.730   1.360  1.00  0.00     0.016 A 
ATOM     22  Br  UNL     1      -4.077  -0.655   2.903  1.00  0.00    -0.051 Br
ENDBRANCH  14  16
ENDBRANCH  11  14
ENDBRANCH   9  11
ENDBRANCH   7   9
ENDBRANCH   4   7
ENDBRANCH   2   3
ENDBRANCH   1   2
BRANCH   1  23
ATOM     23  C   UNL     1       0.002  -0.527  -6.343  1.00  0.00     0.023 C 
BRANCH  23  24
ATOM     24  C   UNL     1      -1.340  -0.184  -6.981  1.00  0.00     0.116 C 
BRANCH  24  25
ATOM     25  N   UNL     1      -1.616   1.245  -6.975  1.00  0.00    -0.352 N 
ATOM     26  C   UNL     1      -2.108   2.023  -7.997  1.00  0.00     0.251 C 
ATOM     27  H   UNL     1      -1.426   1.715  -6.131  1.00  0.00     0.163 HD
ATOM     28  O   UNL     1      -2.144   3.240  -7.890  1.00  0.00    -0.269 OA
BRANCH  26  29
ATOM     29  C   UNL     1      -2.560   1.356  -9.234  1.00  0.00     0.039 A 
ATOM     30  C   UNL     1      -2.048   1.786 -10.458  1.00  0.00     0.014 A 
ATOM     31  C   UNL     1      -3.433   0.266  -9.167  1.00  0.00     0.014 A 
ATOM     32  C   UNL     1      -2.360   1.074 -11.615  1.00  0.00     0.010 A 
ATOM     33  C   UNL     1      -3.681  -0.486 -10.310  1.00  0.00     0.010 A 
ATOM     34  C   UNL     1      -3.145  -0.090 -11.545  1.00  0.00    -0.014 A 
BRANCH  34  35
ATOM     35  C   UNL     1      -3.398  -0.913 -12.754  1.00  0.00     0.031 A 
ATOM     36  C   UNL     1      -4.798  -1.075 -13.279  1.00  0.00     0.074 A 
ATOM     37  C   UNL     1      -2.369  -1.552 -13.347  1.00  0.00     0.049 A 
ATOM     38  N   UNL     1      -5.218  -1.776 -14.301  1.00  0.00    -0.248 NA
ATOM     39  C   UNL     1      -5.871  -0.382 -12.546  1.00  0.00     0.031 C 
ATOM     40  C   UNL     1      -0.977  -1.522 -12.890  1.00  0.00     0.029 A 
ATOM     41  N   UNL     1      -2.333  -2.355 -14.458  1.00  0.00    -0.354 N 
ATOM     42  C   UNL     1      -6.598  -1.610 -14.332  1.00  0.00     0.074 A 
ATOM     43  C   UNL     1      -6.952  -0.794 -13.192  1.00  0.00     0.031 C 
ATOM     44  C   UNL     1      -0.222  -2.249 -13.729  1.00  0.00     0.029 A 
ATOM     45  C   UNL     1      -1.076  -2.824 -14.762  1.00  0.00     0.049 A 
ATOM     46  H   UNL     1      -3.133  -2.576 -14.989  1.00  0.00     0.167 HD
ATOM     47  C   UNL     1      -7.484  -2.073 -15.245  1.00  0.00     0.037 A 
ATOM     48  C   UNL     1      -0.661  -3.629 -15.759  1.00  0.00     0.037 A 
ATOM     49  C   UNL     1      -7.121  -2.866 -16.390  1.00  0.00     0.049 A 
ATOM     50  C   UNL     1      -1.668  -4.124 -16.763  1.00  0.00     0.074 A 
ATOM     51  C   UNL     1      -7.937  -3.339 -17.403  1.00  0.00     0.029 A 
ATOM     52  N   UNL     1      -5.836  -3.301 -16.677  1.00  0.00    -0.354 N 
ATOM     53  N   UNL     1      -2.959  -3.898 -16.816  1.00  0.00    -0.248 NA
ATOM     54  C   UNL     1      -1.160  -4.974 -17.848  1.00  0.00     0.031 C 
ATOM     55  C   UNL     1      -7.153  -4.094 -18.280  1.00  0.00     0.029 A 
ATOM     56  C   UNL     1      -5.839  -4.052 -17.841  1.00  0.00     0.049 A 
ATOM     57  H   UNL     1      -5.038  -3.106 -16.134  1.00  0.00     0.167 HD
ATOM     58  C   UNL     1      -3.413  -4.559 -17.953  1.00  0.00     0.074 A 
ATOM     59  C   UNL     1      -2.255  -5.173 -18.568  1.00  0.00     0.031 C 
ATOM     60  C   UNL     1      -4.675  -4.653 -18.441  1.00  0.00     0.037 A 
BRANCH  47  61
ATOM     61  C   UNL     1      -8.933  -1.716 -15.057  1.00  0.00     0.058 A 
ATOM     62  C   UNL     1      -9.397  -0.406 -15.258  1.00  0.00     0.135 A 
ATOM     63  C   UNL     1      -9.878  -2.701 -14.728  1.00  0.00     0.135 A 
ATOM     64  F   UNL     1      -8.534   0.579 -15.556  1.00  0.00    -0.206 F 
ATOM     65  C   UNL     1     -10.742  -0.082 -15.125  1.00  0.00     0.059 A 
ATOM     66  C   UNL     1     -11.233  -2.405 -14.615  1.00  0.00     0.059 A 
ATOM     67  F   UNL     1      -9.488  -3.969 -14.519  1.00  0.00    -0.206 F 
ATOM     68  C   UNL     1     -11.654  -1.089 -14.807  1.00  0.00     0.060 A 
BRANCH  68  69
ATOM     69  S   UNL     1     -13.401  -0.655 -14.669  1.00  0.00     0.124 S 
ATOM     70  O   UNL     1     -13.417   0.093 -13.416  1.00  0.00    -0.237 OA
ATOM     71  O   UNL     1     -13.623   0.130 -15.879  1.00  0.00    -0.237 OA
ATOM     72  O   UNL     1     -14.072  -1.951 -14.634  1.00  0.00    -0.744 OA
ENDBRANCH  68  69
ENDBRANCH  47  61
BRANCH  48  73
ATOM     73  C   UNL     1       0.774  -4.006 -15.872  1.00  0.00     0.058 A 
ATOM     74  C   UNL     1       1.567  -3.529 -16.926  1.00  0.00     0.135 A 
ATOM     75  C   UNL     1       1.377  -4.862 -14.938  1.00  0.00     0.135 A 
ATOM     76  F   UNL     1       1.036  -2.710 -17.847  1.00  0.00    -0.206 F 
ATOM     77  C   UNL     1       2.897  -3.911 -17.070  1.00  0.00     0.059 A 
ATOM     78  C   UNL     1       2.713  -5.236 -15.044  1.00  0.00     0.059 A 
ATOM     79  F   UNL     1       0.668  -5.331 -13.899  1.00  0.00    -0.206 F 
ATOM     80  C   UNL     1       3.460  -4.768 -16.124  1.00  0.00     0.060 A 
BRANCH  80  81
ATOM     81  S   UNL     1       5.193  -5.242 -16.306  1.00  0.00     0.124 S 
ATOM     82  O   UNL     1       5.122  -6.193 -17.409  1.00  0.00    -0.237 OA
ATOM     83  O   UNL     1       5.832  -3.964 -16.603  1.00  0.00    -0.237 OA
ATOM     84  O   UNL     1       5.523  -5.810 -15.002  1.00  0.00    -0.744 OA
ENDBRANCH  80  81
ENDBRANCH  48  73
BRANCH  60  85
ATOM     85  C   UNL     1      -4.861  -5.425 -19.718  1.00  0.00     0.058 A 
ATOM     86  C   UNL     1      -4.748  -6.823 -19.758  1.00  0.00     0.135 A 
ATOM     87  C   UNL     1      -5.183  -4.758 -20.912  1.00  0.00     0.135 A 
ATOM     88  F   UNL     1      -4.436  -7.507 -18.645  1.00  0.00    -0.206 F 
ATOM     89  C   UNL     1      -4.914  -7.532 -20.943  1.00  0.00     0.059 A 
ATOM     90  C   UNL     1      -5.383  -5.450 -22.102  1.00  0.00     0.059 A 
ATOM     91  F   UNL     1      -5.316  -3.422 -20.927  1.00  0.00    -0.206 F 
ATOM     92  C   UNL     1      -5.230  -6.835 -22.111  1.00  0.00     0.060 A 
BRANCH  92  93
ATOM     93  S   UNL     1      -5.455  -7.767 -23.640  1.00  0.00     0.124 S 
ATOM     94  O   UNL     1      -4.077  -8.101 -23.986  1.00  0.00    -0.237 OA
ATOM     95  O   UNL     1      -6.288  -8.885 -23.206  1.00  0.00    -0.237 OA
ATOM     96  O   UNL     1      -6.112  -6.811 -24.526  1.00  0.00    -0.744 OA
ENDBRANCH  92  93
ENDBRANCH  60  85
ENDBRANCH  34  35
ENDBRANCH  26  29
ENDBRANCH  24  25
ENDBRANCH  23  24
ENDBRANCH   1  23
TORSDOF 18
