REMARK SMILES Cc1ccc(C(=O)N[C@@H](CC(=O)NCCCCNC(=O)c2ccc(-c3c4nc(c(-c5c(F)cc(S(=O)(=O)[O-])cc5F)c5ccc([nH]5)c(-c5c(F)cc(S(=O)(=O)[O-])cc5F)c5nc(c(-c6c(F)cc(S(=O)(=O)[O-])cc6F)c6ccc3[nH]6)C=C5)C=C4)cc2)c2cccs2)o1
REMARK SMILES IDX 15 1 14 2 13 3 11 4 12 5 10 7 9 8 8 9 6 10 7 11 5 13 1 14
REMARK SMILES IDX 2 15 3 16 92 17 4 18 87 19 88 20 91 21 89 22 90 23 16 24
REMARK SMILES IDX 17 25 18 26 19 27 20 29 21 30 22 31 86 32 23 33 85 34 24 35
REMARK SMILES IDX 25 36 26 37 79 38 27 39 84 40 78 41 80 42 28 43 83 44 77 45
REMARK SMILES IDX 76 46 29 48 63 49 42 50 62 51 43 52 46 53 61 54 81 55 44 56
REMARK SMILES IDX 45 57 60 59 82 60 47 61 30 62 31 63 40 64 32 65 33 66 39 67
REMARK SMILES IDX 41 68 34 69 35 70 36 71 37 72 38 73 64 74 65 75 74 76 66 77
REMARK SMILES IDX 67 78 73 79 75 80 68 81 69 82 70 83 71 84 72 85 48 86 49 87
REMARK SMILES IDX 58 88 50 89 51 90 57 91 59 92 52 93 53 94 54 95 55 96 56 97
REMARK H PARENT 13 6 8 12 18 28 80 47 46 58
REMARK Flexibility Score: inf
ROOT
ATOM      1  C   UNL     1      -5.000   3.414   0.237  1.00  0.00     0.023 C 
ENDROOT
BRANCH   1   2
ATOM      2  C   UNL     1      -5.099   2.554   1.496  1.00  0.00     0.116 C 
BRANCH   2   3
ATOM      3  N   UNL     1      -6.215   1.632   1.417  1.00  0.00    -0.356 N 
ATOM      4  C   UNL     1      -6.218   0.281   1.257  1.00  0.00     0.222 C 
ATOM      5  O   UNL     1      -7.303  -0.301   1.212  1.00  0.00    -0.275 OA
ATOM      6  H   UNL     1      -7.105   2.046   1.489  1.00  0.00     0.163 HD
BRANCH   4   7
ATOM      7  C   UNL     1      -4.922  -0.500   1.200  1.00  0.00     0.130 C 
BRANCH   7   8
ATOM      8  C   UNL     1      -4.199  -0.575  -0.150  1.00  0.00     0.132 C 
BRANCH   8   9
ATOM      9  N   UNL     1      -3.410   0.603  -0.454  1.00  0.00    -0.341 N 
ATOM     10  C   UNL     1      -2.109   0.983  -0.297  1.00  0.00     0.287 C 
ATOM     11  O   UNL     1      -1.914   2.198  -0.402  1.00  0.00    -0.266 OA
ATOM     12  H   UNL     1      -3.949   1.307  -0.882  1.00  0.00     0.164 HD
BRANCH  10  13
ATOM     13  C   UNL     1      -1.031   0.040  -0.090  1.00  0.00     0.191 A 
ATOM     14  C   UNL     1       2.547   0.020   0.131  1.00  0.00     0.087 C 
ATOM     15  C   UNL     1       1.134  -0.401   0.087  1.00  0.00     0.101 A 
ATOM     16  C   UNL     1       0.498  -1.618   0.040  1.00  0.00     0.046 A 
ATOM     17  O   UNL     1       0.220   0.598   0.044  1.00  0.00    -0.456 OA
ATOM     18  C   UNL     1      -0.888  -1.336  -0.080  1.00  0.00     0.056 A 
ENDBRANCH  10  13
ENDBRANCH   8   9
BRANCH   8  19
ATOM     19  C   UNL     1      -5.082  -0.869  -1.341  1.00  0.00     0.027 A 
ATOM     20  C   UNL     1      -5.298  -2.093  -1.948  1.00  0.00     0.017 A 
ATOM     21  S   UNL     1      -5.926   0.379  -2.176  1.00  0.00    -0.147 S 
ATOM     22  C   UNL     1      -6.116  -1.994  -3.111  1.00  0.00     0.012 A 
ATOM     23  C   UNL     1      -6.519  -0.701  -3.352  1.00  0.00     0.065 A 
ENDBRANCH   8  19
ENDBRANCH   7   8
ENDBRANCH   4   7
ENDBRANCH   2   3
ENDBRANCH   1   2
BRANCH   1  24
ATOM     24  C   UNL     1      -6.071   4.484   0.099  1.00  0.00     0.023 C 
BRANCH  24  25
ATOM     25  C   UNL     1      -6.080   5.498   1.224  1.00  0.00     0.116 C 
BRANCH  25  26
ATOM     26  N   UNL     1      -4.803   6.179   1.389  1.00  0.00    -0.352 N 
ATOM     27  C   UNL     1      -4.570   7.527   1.540  1.00  0.00     0.251 C 
ATOM     28  H   UNL     1      -4.005   5.601   1.394  1.00  0.00     0.163 HD
ATOM     29  O   UNL     1      -3.433   7.974   1.536  1.00  0.00    -0.269 OA
BRANCH  27  30
ATOM     30  C   UNL     1      -5.736   8.423   1.666  1.00  0.00     0.039 A 
ATOM     31  C   UNL     1      -5.827   9.541   0.838  1.00  0.00     0.014 A 
ATOM     32  C   UNL     1      -6.779   8.086   2.532  1.00  0.00     0.014 A 
ATOM     33  C   UNL     1      -7.006  10.285   0.828  1.00  0.00     0.010 A 
ATOM     34  C   UNL     1      -7.989   8.756   2.433  1.00  0.00     0.010 A 
ATOM     35  C   UNL     1      -8.111   9.872   1.592  1.00  0.00    -0.014 A 
BRANCH  35  36
ATOM     36  C   UNL     1      -9.400  10.603   1.549  1.00  0.00     0.031 A 
ATOM     37  C   UNL     1      -9.949  11.214   2.809  1.00  0.00     0.074 A 
ATOM     38  C   UNL     1     -10.105  10.654   0.401  1.00  0.00     0.049 A 
ATOM     39  N   UNL     1     -11.086  11.830   3.002  1.00  0.00    -0.248 NA
ATOM     40  C   UNL     1      -9.128  11.080   4.025  1.00  0.00     0.031 C 
ATOM     41  C   UNL     1      -9.704  10.043  -0.869  1.00  0.00     0.029 A 
ATOM     42  N   UNL     1     -11.312  11.241   0.118  1.00  0.00    -0.354 N 
ATOM     43  C   UNL     1     -11.122  12.139   4.356  1.00  0.00     0.074 A 
ATOM     44  C   UNL     1      -9.931  11.577   4.952  1.00  0.00     0.031 C 
ATOM     45  C   UNL     1     -10.632  10.314  -1.800  1.00  0.00     0.029 A 
ATOM     46  C   UNL     1     -11.713  11.080  -1.187  1.00  0.00     0.049 A 
ATOM     47  H   UNL     1     -11.843  11.731   0.787  1.00  0.00     0.167 HD
ATOM     48  C   UNL     1     -12.046  12.855   5.037  1.00  0.00     0.037 A 
ATOM     49  C   UNL     1     -12.828  11.498  -1.817  1.00  0.00     0.037 A 
ATOM     50  C   UNL     1     -13.215  13.431   4.427  1.00  0.00     0.049 A 
ATOM     51  C   UNL     1     -13.842  12.297  -1.044  1.00  0.00     0.074 A 
ATOM     52  C   UNL     1     -14.185  14.227   5.008  1.00  0.00     0.029 A 
ATOM     53  N   UNL     1     -13.574  13.269   3.096  1.00  0.00    -0.354 N 
ATOM     54  N   UNL     1     -13.826  12.646   0.221  1.00  0.00    -0.248 NA
ATOM     55  C   UNL     1     -15.021  12.768  -1.783  1.00  0.00     0.031 C 
ATOM     56  C   UNL     1     -15.159  14.501   4.042  1.00  0.00     0.029 A 
ATOM     57  C   UNL     1     -14.764  13.928   2.843  1.00  0.00     0.049 A 
ATOM     58  H   UNL     1     -13.057  12.759   2.430  1.00  0.00     0.167 HD
ATOM     59  C   UNL     1     -14.977  13.399   0.424  1.00  0.00     0.074 A 
ATOM     60  C   UNL     1     -15.660  13.464  -0.853  1.00  0.00     0.031 C 
ATOM     61  C   UNL     1     -15.428  13.984   1.562  1.00  0.00     0.037 A 
BRANCH  48  62
ATOM     62  C   UNL     1     -11.823  13.051   6.513  1.00  0.00     0.058 A 
ATOM     63  C   UNL     1     -10.759  13.826   7.005  1.00  0.00     0.135 A 
ATOM     64  C   UNL     1     -12.684  12.458   7.450  1.00  0.00     0.135 A 
ATOM     65  F   UNL     1      -9.893  14.403   6.156  1.00  0.00    -0.206 F 
ATOM     66  C   UNL     1     -10.530  13.967   8.370  1.00  0.00     0.059 A 
ATOM     67  C   UNL     1     -12.495  12.616   8.820  1.00  0.00     0.059 A 
ATOM     68  F   UNL     1     -13.717  11.706   7.039  1.00  0.00    -0.206 F 
ATOM     69  C   UNL     1     -11.402  13.355   9.270  1.00  0.00     0.060 A 
BRANCH  69  70
ATOM     70  S   UNL     1     -11.083  13.538  11.037  1.00  0.00     0.124 S 
ATOM     71  O   UNL     1      -9.911  12.685  11.210  1.00  0.00    -0.237 OA
ATOM     72  O   UNL     1     -10.846  14.973  11.164  1.00  0.00    -0.237 OA
ATOM     73  O   UNL     1     -12.311  13.051  11.657  1.00  0.00    -0.744 OA
ENDBRANCH  69  70
ENDBRANCH  48  62
BRANCH  49  74
ATOM     74  C   UNL     1     -13.021  11.193  -3.260  1.00  0.00     0.058 A 
ATOM     75  C   UNL     1     -12.938  12.202  -4.231  1.00  0.00     0.135 A 
ATOM     76  C   UNL     1     -13.254   9.881  -3.703  1.00  0.00     0.135 A 
ATOM     77  F   UNL     1     -12.723  13.473  -3.859  1.00  0.00    -0.206 F 
ATOM     78  C   UNL     1     -13.086  11.926  -5.586  1.00  0.00     0.059 A 
ATOM     79  C   UNL     1     -13.379   9.575  -5.054  1.00  0.00     0.059 A 
ATOM     80  F   UNL     1     -13.326   8.875  -2.817  1.00  0.00    -0.206 F 
ATOM     81  C   UNL     1     -13.299  10.606  -5.989  1.00  0.00     0.060 A 
BRANCH  81  82
ATOM     82  S   UNL     1     -13.423  10.251  -7.756  1.00  0.00     0.124 S 
ATOM     83  O   UNL     1     -14.720  10.829  -8.083  1.00  0.00    -0.237 OA
ATOM     84  O   UNL     1     -12.258  10.950  -8.290  1.00  0.00    -0.237 OA
ATOM     85  O   UNL     1     -13.349   8.793  -7.811  1.00  0.00    -0.744 OA
ENDBRANCH  81  82
ENDBRANCH  49  74
BRANCH  61  86
ATOM     86  C   UNL     1     -16.703  14.777   1.476  1.00  0.00     0.058 A 
ATOM     87  C   UNL     1     -17.952  14.156   1.319  1.00  0.00     0.135 A 
ATOM     88  C   UNL     1     -16.678  16.175   1.615  1.00  0.00     0.135 A 
ATOM     89  F   UNL     1     -18.032  12.824   1.176  1.00  0.00    -0.206 F 
ATOM     90  C   UNL     1     -19.130  14.895   1.278  1.00  0.00     0.059 A 
ATOM     91  C   UNL     1     -17.846  16.930   1.609  1.00  0.00     0.059 A 
ATOM     92  F   UNL     1     -15.511  16.818   1.780  1.00  0.00    -0.206 F 
ATOM     93  C   UNL     1     -19.066  16.282   1.429  1.00  0.00     0.060 A 
BRANCH  93  94
ATOM     94  S   UNL     1     -20.605  17.224   1.412  1.00  0.00     0.124 S 
ATOM     95  O   UNL     1     -20.976  17.157   0.002  1.00  0.00    -0.237 OA
ATOM     96  O   UNL     1     -21.449  16.460   2.326  1.00  0.00    -0.237 OA
ATOM     97  O   UNL     1     -20.203  18.543   1.893  1.00  0.00    -0.744 OA
ENDBRANCH  93  94
ENDBRANCH  61  86
ENDBRANCH  35  36
ENDBRANCH  27  30
ENDBRANCH  25  26
ENDBRANCH  24  25
ENDBRANCH   1  24
TORSDOF 18
