REMARK SMILES C[NH2+][C@]1(C(=O)NCCCCNC(=O)c2ccc(-c3c4nc(c(-c5c(F)cc(S(=O)(=O)[O-])cc5F)c5ccc([nH]5)c(-c5c(F)cc(S(=O)(=O)[O-])cc5F)c5nc(c(-c6c(F)cc(S(=O)(=O)[O-])cc6F)c6ccc3[nH]6)C=C5)C=C4)cc2)CCC[C@@H]([N@H+]2CC[C@@H](C)C2)C1
REMARK SMILES IDX 9 1 8 2 7 3 6 4 4 5 5 6 3 8 80 9 90 10 81 11 83 12 82 13
REMARK SMILES IDX 2 14 1 15 84 18 85 19 89 20 86 22 87 23 88 24 10 25 11 26
REMARK SMILES IDX 12 27 13 29 14 30 15 31 79 32 16 33 78 34 17 35 18 36 19 37
REMARK SMILES IDX 72 38 20 39 77 40 71 41 73 42 21 43 76 44 70 45 69 46 22 48
REMARK SMILES IDX 56 49 35 50 55 51 36 52 39 53 54 54 74 55 37 56 38 57 53 59
REMARK SMILES IDX 75 60 40 61 23 62 24 63 33 64 25 65 26 66 32 67 34 68 27 69
REMARK SMILES IDX 28 70 29 71 30 72 31 73 57 74 58 75 67 76 59 77 60 78 66 79
REMARK SMILES IDX 68 80 61 81 62 82 63 83 64 84 65 85 41 86 42 87 51 88 43 89
REMARK SMILES IDX 44 90 50 91 52 92 45 93 46 94 47 95 48 96 49 97
REMARK H PARENT 6 7 2 16 2 17 84 21 11 28 73 47 39 58
REMARK Flexibility Score: inf
ROOT
ATOM      1  C   UNL     1       2.500  -2.722   4.476  1.00  0.00     0.023 C 
ENDROOT
BRANCH   1   2
ATOM      2  C   UNL     1       1.012  -2.623   4.146  1.00  0.00     0.023 C 
BRANCH   2   3
ATOM      3  C   UNL     1       0.629  -1.376   3.360  1.00  0.00     0.116 C 
BRANCH   3   4
ATOM      4  N   UNL     1       1.166  -1.401   2.008  1.00  0.00    -0.351 N 
ATOM      5  C   UNL     1       0.566  -1.371   0.781  1.00  0.00     0.281 C 
ATOM      6  O   UNL     1       1.327  -1.249  -0.187  1.00  0.00    -0.268 OA
ATOM      7  H   UNL     1       2.149  -1.447   1.970  1.00  0.00     0.163 HD
BRANCH   5   8
ATOM      8  C   UNL     1      -0.997  -1.366   0.609  1.00  0.00     0.181 C 
ATOM      9  C   UNL     1      -1.689  -2.559   1.300  1.00  0.00     0.079 C 
ATOM     10  C   UNL     1      -1.450  -0.003   1.187  1.00  0.00     0.144 C 
ATOM     11  C   UNL     1      -3.194  -2.364   1.459  1.00  0.00     0.013 C 
ATOM     12  C   UNL     1      -2.935   0.162   1.535  1.00  0.00     0.190 C 
ATOM     13  C   UNL     1      -3.502  -1.087   2.237  1.00  0.00     0.065 C 
BRANCH   8  14
ATOM     14  N   UNL     1      -1.362  -1.309  -0.848  1.00  0.00    -0.336 N 
ATOM     15  C   UNL     1      -1.012  -2.491  -1.632  1.00  0.00     0.331 C 
ATOM     16  H   UNL     1      -2.372  -1.177  -0.913  1.00  0.00     0.346 HD
ATOM     17  H   UNL     1      -0.820  -0.541  -1.242  1.00  0.00     0.346 HD
ENDBRANCH   8  14
BRANCH  12  18
ATOM     18  N   UNL     1      -3.203   1.392   2.320  1.00  0.00    -0.332 N 
ATOM     19  C   UNL     1      -2.695   1.417   3.698  1.00  0.00     0.262 C 
ATOM     20  C   UNL     1      -2.801   2.642   1.661  1.00  0.00     0.265 C 
ATOM     21  H   UNL     1      -4.220   1.342   2.369  1.00  0.00     0.348 HD
ATOM     22  C   UNL     1      -2.145   2.819   3.938  1.00  0.00     0.070 C 
ATOM     23  C   UNL     1      -1.763   3.324   2.554  1.00  0.00     0.047 C 
ATOM     24  C   UNL     1      -0.310   2.994   2.205  1.00  0.00     0.014 C 
ENDBRANCH  12  18
ENDBRANCH   5   8
ENDBRANCH   3   4
ENDBRANCH   2   3
ENDBRANCH   1   2
BRANCH   1  25
ATOM     25  C   UNL     1       3.071  -1.537   5.249  1.00  0.00     0.116 C 
BRANCH  25  26
ATOM     26  N   UNL     1       2.392  -1.301   6.514  1.00  0.00    -0.352 N 
ATOM     27  C   UNL     1       2.934  -1.113   7.765  1.00  0.00     0.251 C 
ATOM     28  H   UNL     1       1.408  -1.273   6.469  1.00  0.00     0.163 HD
ATOM     29  O   UNL     1       2.208  -1.063   8.748  1.00  0.00    -0.269 OA
BRANCH  27  30
ATOM     30  C   UNL     1       4.402  -1.005   7.908  1.00  0.00     0.039 A 
ATOM     31  C   UNL     1       5.045  -1.780   8.874  1.00  0.00     0.014 A 
ATOM     32  C   UNL     1       5.140  -0.170   7.065  1.00  0.00     0.014 A 
ATOM     33  C   UNL     1       6.440  -1.776   8.944  1.00  0.00     0.010 A 
ATOM     34  C   UNL     1       6.530  -0.225   7.086  1.00  0.00     0.010 A 
ATOM     35  C   UNL     1       7.195  -1.030   8.023  1.00  0.00    -0.014 A 
BRANCH  35  36
ATOM     36  C   UNL     1       8.679  -1.085   8.017  1.00  0.00     0.031 A 
ATOM     37  C   UNL     1       9.481   0.155   8.304  1.00  0.00     0.074 A 
ATOM     38  C   UNL     1       9.304  -2.233   7.686  1.00  0.00     0.049 A 
ATOM     39  N   UNL     1      10.777   0.327   8.269  1.00  0.00    -0.248 NA
ATOM     40  C   UNL     1       8.724   1.370   8.649  1.00  0.00     0.031 C 
ATOM     41  C   UNL     1       8.637  -3.491   7.340  1.00  0.00     0.029 A 
ATOM     42  N   UNL     1      10.640  -2.528   7.576  1.00  0.00    -0.354 N 
ATOM     43  C   UNL     1      10.990   1.666   8.574  1.00  0.00     0.074 A 
ATOM     44  C   UNL     1       9.688   2.275   8.737  1.00  0.00     0.031 C 
ATOM     45  C   UNL     1       9.566  -4.426   7.082  1.00  0.00     0.029 A 
ATOM     46  C   UNL     1      10.891  -3.828   7.205  1.00  0.00     0.049 A 
ATOM     47  H   UNL     1      11.351  -1.870   7.747  1.00  0.00     0.167 HD
ATOM     48  C   UNL     1      12.164   2.323   8.730  1.00  0.00     0.037 A 
ATOM     49  C   UNL     1      12.058  -4.465   6.983  1.00  0.00     0.037 A 
ATOM     50  C   UNL     1      13.457   1.706   8.592  1.00  0.00     0.049 A 
ATOM     51  C   UNL     1      13.349  -3.713   7.159  1.00  0.00     0.074 A 
ATOM     52  C   UNL     1      14.706   2.274   8.780  1.00  0.00     0.029 A 
ATOM     53  N   UNL     1      13.670   0.383   8.234  1.00  0.00    -0.354 N 
ATOM     54  N   UNL     1      13.532  -2.460   7.502  1.00  0.00    -0.248 NA
ATOM     55  C   UNL     1      14.592  -4.461   6.924  1.00  0.00     0.031 C 
ATOM     56  C   UNL     1      15.674   1.305   8.498  1.00  0.00     0.029 A 
ATOM     57  C   UNL     1      15.029   0.120   8.180  1.00  0.00     0.049 A 
ATOM     58  H   UNL     1      12.960  -0.273   8.046  1.00  0.00     0.167 HD
ATOM     59  C   UNL     1      14.910  -2.277   7.551  1.00  0.00     0.074 A 
ATOM     60  C   UNL     1      15.512  -3.551   7.214  1.00  0.00     0.031 C 
ATOM     61  C   UNL     1      15.613  -1.157   7.851  1.00  0.00     0.037 A 
BRANCH  48  62
ATOM     62  C   UNL     1      12.102   3.785   9.078  1.00  0.00     0.058 A 
ATOM     63  C   UNL     1      11.669   4.223  10.340  1.00  0.00     0.135 A 
ATOM     64  C   UNL     1      12.511   4.760   8.153  1.00  0.00     0.135 A 
ATOM     65  F   UNL     1      11.251   3.335  11.257  1.00  0.00    -0.206 F 
ATOM     66  C   UNL     1      11.613   5.574  10.663  1.00  0.00     0.059 A 
ATOM     67  C   UNL     1      12.491   6.117   8.464  1.00  0.00     0.059 A 
ATOM     68  F   UNL     1      12.933   4.398   6.932  1.00  0.00    -0.206 F 
ATOM     69  C   UNL     1      12.026   6.514   9.717  1.00  0.00     0.060 A 
BRANCH  69  70
ATOM     70  S   UNL     1      11.952   8.264  10.154  1.00  0.00     0.124 S 
ATOM     71  O   UNL     1      10.514   8.515  10.104  1.00  0.00    -0.237 OA
ATOM     72  O   UNL     1      12.551   8.280  11.485  1.00  0.00    -0.237 OA
ATOM     73  O   UNL     1      12.738   8.910   9.107  1.00  0.00    -0.744 OA
ENDBRANCH  69  70
ENDBRANCH  48  62
BRANCH  49  74
ATOM     74  C   UNL     1      12.059  -5.902   6.598  1.00  0.00     0.058 A 
ATOM     75  C   UNL     1      12.500  -6.886   7.495  1.00  0.00     0.135 A 
ATOM     76  C   UNL     1      11.613  -6.322   5.336  1.00  0.00     0.135 A 
ATOM     77  F   UNL     1      12.943  -6.533   8.712  1.00  0.00    -0.206 F 
ATOM     78  C   UNL     1      12.514  -8.233   7.151  1.00  0.00     0.059 A 
ATOM     79  C   UNL     1      11.593  -7.666   4.977  1.00  0.00     0.059 A 
ATOM     80  F   UNL     1      11.165  -5.421   4.447  1.00  0.00    -0.206 F 
ATOM     81  C   UNL     1      12.056  -8.614   5.889  1.00  0.00     0.060 A 
BRANCH  81  82
ATOM     82  S   UNL     1      12.033 -10.371   5.470  1.00  0.00     0.124 S 
ATOM     83  O   UNL     1      13.451 -10.643   5.266  1.00  0.00    -0.237 OA
ATOM     84  O   UNL     1      11.433 -10.962   6.662  1.00  0.00    -0.237 OA
ATOM     85  O   UNL     1      11.201 -10.418   4.271  1.00  0.00    -0.744 OA
ENDBRANCH  81  82
ENDBRANCH  49  74
BRANCH  61  86
ATOM     86  C   UNL     1      17.112  -1.263   7.866  1.00  0.00     0.058 A 
ATOM     87  C   UNL     1      17.857  -1.366   6.681  1.00  0.00     0.135 A 
ATOM     88  C   UNL     1      17.815  -1.207   9.081  1.00  0.00     0.135 A 
ATOM     89  F   UNL     1      17.233  -1.430   5.494  1.00  0.00    -0.206 F 
ATOM     90  C   UNL     1      19.246  -1.431   6.700  1.00  0.00     0.059 A 
ATOM     91  C   UNL     1      19.205  -1.243   9.122  1.00  0.00     0.059 A 
ATOM     92  F   UNL     1      17.151  -1.099  10.242  1.00  0.00    -0.206 F 
ATOM     93  C   UNL     1      19.912  -1.367   7.926  1.00  0.00     0.060 A 
BRANCH  93  94
ATOM     94  S   UNL     1      21.717  -1.415   7.935  1.00  0.00     0.124 S 
ATOM     95  O   UNL     1      21.974  -2.823   7.652  1.00  0.00    -0.237 OA
ATOM     96  O   UNL     1      22.060  -0.480   6.869  1.00  0.00    -0.237 OA
ATOM     97  O   UNL     1      22.061  -0.972   9.283  1.00  0.00    -0.744 OA
ENDBRANCH  93  94
ENDBRANCH  61  86
ENDBRANCH  35  36
ENDBRANCH  27  30
ENDBRANCH  25  26
ENDBRANCH   1  25
TORSDOF 16
