REMARK SMILES Nc1c(Br)cc(C(=O)NCCCCNC(=O)c2ccc(-c3c4nc(c(-c5c(F)cc(S(=O)(=O)[O-])cc5F)c5ccc([nH]5)c(-c5c(F)cc(S(=O)(=O)[O-])cc5F)c5nc(c(-c6c(F)cc(S(=O)(=O)[O-])cc6F)c6ccc3[nH]6)C=C5)C=C4)cc2)cc1Br
REMARK SMILES IDX 12 1 11 2 10 3 9 4 7 5 8 6 6 8 2 9 3 10 84 11 4 12 5 13
REMARK SMILES IDX 83 14 85 15 1 16 13 19 14 20 15 21 16 23 17 24 18 25 82 26
REMARK SMILES IDX 19 27 81 28 20 29 21 30 22 31 75 32 23 33 80 34 74 35 76 36
REMARK SMILES IDX 24 37 79 38 73 39 72 40 25 42 59 43 38 44 58 45 39 46 42 47
REMARK SMILES IDX 57 48 77 49 40 50 41 51 56 53 78 54 43 55 26 56 27 57 36 58
REMARK SMILES IDX 28 59 29 60 35 61 37 62 30 63 31 64 32 65 33 66 34 67 60 68
REMARK SMILES IDX 61 69 70 70 62 71 63 72 69 73 71 74 64 75 65 76 66 77 67 78
REMARK SMILES IDX 68 79 44 80 45 81 54 82 46 83 47 84 53 85 55 86 48 87 49 88
REMARK SMILES IDX 50 89 51 90 52 91
REMARK H PARENT 9 7 1 17 1 18 14 22 76 41 42 52
REMARK Flexibility Score: inf
ROOT
ATOM      1  C   UNL     1       3.586  -5.774   1.419  1.00  0.00     0.023 C 
ENDROOT
BRANCH   1   2
ATOM      2  C   UNL     1       3.241  -4.355   0.952  1.00  0.00     0.023 C 
BRANCH   2   3
ATOM      3  C   UNL     1       2.421  -4.297  -0.339  1.00  0.00     0.116 C 
BRANCH   3   4
ATOM      4  N   UNL     1       1.026  -4.590  -0.074  1.00  0.00    -0.352 N 
ATOM      5  C   UNL     1      -0.070  -3.798   0.147  1.00  0.00     0.251 C 
ATOM      6  O   UNL     1      -1.148  -4.367   0.323  1.00  0.00    -0.269 OA
ATOM      7  H   UNL     1       0.826  -5.553  -0.048  1.00  0.00     0.163 HD
BRANCH   5   8
ATOM      8  C   UNL     1      -0.049  -2.306   0.148  1.00  0.00     0.042 A 
ATOM      9  C   UNL     1      -0.237   0.539   0.114  1.00  0.00     0.060 A 
ATOM     10  C   UNL     1       0.979  -0.116   0.364  1.00  0.00     0.042 A 
ATOM     11  C   UNL     1      -1.362  -0.267  -0.120  1.00  0.00     0.042 A 
ATOM     12  Br  UNL     1       2.578   0.878   0.661  1.00  0.00    -0.049 Br
ATOM     13  C   UNL     1       1.067  -1.514   0.417  1.00  0.00     0.031 A 
ATOM     14  C   UNL     1      -1.271  -1.663  -0.102  1.00  0.00     0.031 A 
ATOM     15  Br  UNL     1      -3.068   0.507  -0.452  1.00  0.00    -0.049 Br
BRANCH   9  16
ATOM     16  N   UNL     1      -0.304   1.927   0.000  1.00  0.00    -0.397 N 
ATOM     17  H   UNL     1       0.497   2.473   0.168  1.00  0.00     0.156 HD
ATOM     18  H   UNL     1      -1.153   2.360  -0.248  1.00  0.00     0.156 HD
ENDBRANCH   9  16
ENDBRANCH   5   8
ENDBRANCH   3   4
ENDBRANCH   2   3
ENDBRANCH   1   2
BRANCH   1  19
ATOM     19  C   UNL     1       4.475  -6.574   0.470  1.00  0.00     0.116 C 
BRANCH  19  20
ATOM     20  N   UNL     1       5.732  -5.910   0.164  1.00  0.00    -0.352 N 
ATOM     21  C   UNL     1       6.958  -6.473  -0.111  1.00  0.00     0.251 C 
ATOM     22  H   UNL     1       5.703  -4.926   0.152  1.00  0.00     0.163 HD
ATOM     23  O   UNL     1       7.941  -5.762  -0.250  1.00  0.00    -0.269 OA
BRANCH  21  24
ATOM     24  C   UNL     1       7.078  -7.945  -0.193  1.00  0.00     0.039 A 
ATOM     25  C   UNL     1       8.086  -8.575   0.540  1.00  0.00     0.014 A 
ATOM     26  C   UNL     1       6.188  -8.697  -0.963  1.00  0.00     0.014 A 
ATOM     27  C   UNL     1       8.158  -9.969   0.557  1.00  0.00     0.010 A 
ATOM     28  C   UNL     1       6.224 -10.087  -0.899  1.00  0.00     0.010 A 
ATOM     29  C   UNL     1       7.205 -10.736  -0.133  1.00  0.00    -0.014 A 
BRANCH  29  30
ATOM     30  C   UNL     1       7.205 -12.218  -0.046  1.00  0.00     0.031 A 
ATOM     31  C   UNL     1       7.488 -13.047  -1.267  1.00  0.00     0.074 A 
ATOM     32  C   UNL     1       6.880 -12.812   1.119  1.00  0.00     0.049 A 
ATOM     33  N   UNL     1       7.467 -14.348  -1.403  1.00  0.00    -0.248 NA
ATOM     34  C   UNL     1       7.811 -12.319  -2.504  1.00  0.00     0.031 C 
ATOM     35  C   UNL     1       6.532 -12.112   2.358  1.00  0.00     0.029 A 
ATOM     36  N   UNL     1       6.778 -14.140   1.449  1.00  0.00    -0.354 N 
ATOM     37  C   UNL     1       7.758 -14.594  -2.738  1.00  0.00     0.074 A 
ATOM     38  C   UNL     1       7.907 -13.307  -3.382  1.00  0.00     0.031 C 
ATOM     39  C   UNL     1       6.272 -13.017   3.316  1.00  0.00     0.029 A 
ATOM     40  C   UNL     1       6.404 -14.357   2.754  1.00  0.00     0.049 A 
ATOM     41  H   UNL     1       6.955 -14.869   0.811  1.00  0.00     0.167 HD
ATOM     42  C   UNL     1       7.910 -15.785  -3.366  1.00  0.00     0.037 A 
ATOM     43  C   UNL     1       6.186 -15.507   3.421  1.00  0.00     0.037 A 
ATOM     44  C   UNL     1       7.789 -17.062  -2.713  1.00  0.00     0.049 A 
ATOM     45  C   UNL     1       6.376 -16.817   2.707  1.00  0.00     0.074 A 
ATOM     46  C   UNL     1       7.989 -18.324  -3.246  1.00  0.00     0.029 A 
ATOM     47  N   UNL     1       7.437 -17.242  -1.384  1.00  0.00    -0.354 N 
ATOM     48  N   UNL     1       6.718 -17.031   1.459  1.00  0.00    -0.248 NA
ATOM     49  C   UNL     1       6.156 -18.040   3.491  1.00  0.00     0.031 C 
ATOM     50  C   UNL     1       7.726 -19.268  -2.247  1.00  0.00     0.029 A 
ATOM     51  C   UNL     1       7.398 -18.593  -1.082  1.00  0.00     0.049 A 
ATOM     52  H   UNL     1       7.244 -16.516  -0.748  1.00  0.00     0.167 HD
ATOM     53  C   UNL     1       6.773 -18.412   1.313  1.00  0.00     0.074 A 
ATOM     54  C   UNL     1       6.442 -18.983   2.603  1.00  0.00     0.031 C 
ATOM     55  C   UNL     1       7.070 -19.142   0.209  1.00  0.00     0.037 A 
BRANCH  42  56
ATOM     56  C   UNL     1       8.233 -15.759  -4.834  1.00  0.00     0.058 A 
ATOM     57  C   UNL     1       9.495 -15.357  -5.300  1.00  0.00     0.135 A 
ATOM     58  C   UNL     1       7.282 -16.163  -5.784  1.00  0.00     0.135 A 
ATOM     59  F   UNL     1      10.435 -14.946  -4.435  1.00  0.00    -0.206 F 
ATOM     60  C   UNL     1       9.793 -15.327  -6.658  1.00  0.00     0.059 A 
ATOM     61  C   UNL     1       7.566 -16.166  -7.146  1.00  0.00     0.059 A 
ATOM     62  F   UNL     1       6.059 -16.557  -5.392  1.00  0.00    -0.206 F 
ATOM     63  C   UNL     1       8.820 -15.730  -7.574  1.00  0.00     0.060 A 
BRANCH  63  64
ATOM     64  S   UNL     1       9.219 -15.683  -9.334  1.00  0.00     0.124 S 
ATOM     65  O   UNL     1       9.143 -14.252  -9.610  1.00  0.00    -0.237 OA
ATOM     66  O   UNL     1      10.558 -16.264  -9.368  1.00  0.00    -0.237 OA
ATOM     67  O   UNL     1       8.171 -16.497  -9.942  1.00  0.00    -0.744 OA
ENDBRANCH  63  64
ENDBRANCH  42  56
BRANCH  43  68
ATOM     68  C   UNL     1       5.790 -15.470   4.853  1.00  0.00     0.058 A 
ATOM     69  C   UNL     1       6.695 -15.841   5.859  1.00  0.00     0.135 A 
ATOM     70  C   UNL     1       4.511 -15.049   5.246  1.00  0.00     0.135 A 
ATOM     71  F   UNL     1       7.928 -16.255   5.531  1.00  0.00    -0.206 F 
ATOM     72  C   UNL     1       6.341 -15.811   7.204  1.00  0.00     0.059 A 
ATOM     73  C   UNL     1       4.141 -14.990   6.586  1.00  0.00     0.059 A 
ATOM     74  F   UNL     1       3.615 -14.667   4.322  1.00  0.00    -0.206 F 
ATOM     75  C   UNL     1       5.061 -15.383   7.557  1.00  0.00     0.060 A 
BRANCH  75  76
ATOM     76  S   UNL     1       4.628 -15.297   9.309  1.00  0.00     0.124 S 
ATOM     77  O   UNL     1       4.418 -16.704   9.628  1.00  0.00    -0.237 OA
ATOM     78  O   UNL     1       5.816 -14.680   9.891  1.00  0.00    -0.237 OA
ATOM     79  O   UNL     1       3.431 -14.461   9.316  1.00  0.00    -0.744 OA
ENDBRANCH  75  76
ENDBRANCH  43  68
BRANCH  55  80
ATOM     80  C   UNL     1       7.071 -20.638   0.354  1.00  0.00     0.058 A 
ATOM     81  C   UNL     1       5.876 -21.367   0.441  1.00  0.00     0.135 A 
ATOM     82  C   UNL     1       8.280 -21.352   0.353  1.00  0.00     0.135 A 
ATOM     83  F   UNL     1       4.695 -20.730   0.452  1.00  0.00    -0.206 F 
ATOM     84  C   UNL     1       5.879 -22.755   0.541  1.00  0.00     0.059 A 
ATOM     85  C   UNL     1       8.306 -22.740   0.430  1.00  0.00     0.059 A 
ATOM     86  F   UNL     1       9.450 -20.700   0.264  1.00  0.00    -0.206 F 
ATOM     87  C   UNL     1       7.100 -23.433   0.534  1.00  0.00     0.060 A 
BRANCH  87  88
ATOM     88  S   UNL     1       7.092 -25.236   0.627  1.00  0.00     0.124 S 
ATOM     89  O   UNL     1       6.809 -25.455   2.041  1.00  0.00    -0.237 OA
ATOM     90  O   UNL     1       6.020 -25.593  -0.297  1.00  0.00    -0.237 OA
ATOM     91  O   UNL     1       8.435 -25.604   0.189  1.00  0.00    -0.744 OA
ENDBRANCH  87  88
ENDBRANCH  55  80
ENDBRANCH  29  30
ENDBRANCH  21  24
ENDBRANCH  19  20
ENDBRANCH   1  19
TORSDOF 15
