REMARK SMILES NS(=O)(=O)c1ccc(-c2coc(=O)n2-c2ccc(C(=O)NCCCCNC(=O)c3ccc(-c4c5nc(c(-c6c(F)cc(S(=O)(=O)[O-])cc6F)c6ccc([nH]6)c(-c6c(F)cc(S(=O)(=O)[O-])cc6F)c6nc(c(-c7c(F)cc(S(=O)(=O)[O-])cc7F)c7ccc4[nH]7)C=C6)C=C5)cc3)cc2)cc1
REMARK SMILES IDX 23 1 22 2 21 3 19 4 20 5 18 7 15 8 16 9 96 10 17 11 95 12
REMARK SMILES IDX 14 13 9 14 10 15 11 16 12 17 13 18 8 19 5 20 6 21 98 22 7 23
REMARK SMILES IDX 97 24 2 25 3 26 4 27 1 28 24 31 25 32 26 33 27 34 28 36
REMARK SMILES IDX 29 37 30 38 94 39 31 40 93 41 32 42 33 43 34 44 87 45 35 46
REMARK SMILES IDX 92 47 86 48 88 49 36 50 91 51 85 52 84 53 37 55 71 56 50 57
REMARK SMILES IDX 70 58 51 59 54 60 69 61 89 62 52 63 53 64 68 66 90 67 55 68
REMARK SMILES IDX 38 69 39 70 48 71 40 72 41 73 47 74 49 75 42 76 43 77 44 78
REMARK SMILES IDX 45 79 46 80 72 81 73 82 82 83 74 84 75 85 81 86 83 87 76 88
REMARK SMILES IDX 77 89 78 90 79 91 80 92 56 93 57 94 66 95 58 96 59 97 65 98
REMARK SMILES IDX 67 99 60 100 61 101 62 102 63 103 64 104
REMARK H PARENT 21 6 1 29 1 30 26 35 88 54 54 65
REMARK Flexibility Score: inf
ROOT
ATOM      1  C   UNL     1      -3.938   0.773  -8.027  1.00  0.00     0.023 C 
ENDROOT
BRANCH   1   2
ATOM      2  C   UNL     1      -2.664  -0.058  -7.823  1.00  0.00     0.116 C 
BRANCH   2   3
ATOM      3  N   UNL     1      -1.872  -0.114  -9.040  1.00  0.00    -0.352 N 
ATOM      4  C   UNL     1      -0.813   0.624  -9.511  1.00  0.00     0.251 C 
ATOM      5  O   UNL     1      -0.357   0.320 -10.614  1.00  0.00    -0.269 OA
ATOM      6  H   UNL     1      -2.153  -0.829  -9.656  1.00  0.00     0.163 HD
BRANCH   4   7
ATOM      7  C   UNL     1      -0.165   1.735  -8.752  1.00  0.00     0.039 A 
ATOM      8  C   UNL     1       1.254   3.694  -7.305  1.00  0.00     0.053 A 
ATOM      9  C   UNL     1       1.861   3.061  -8.387  1.00  0.00     0.028 A 
ATOM     10  C   UNL     1      -0.080   3.409  -7.003  1.00  0.00     0.028 A 
ATOM     11  C   UNL     1       1.163   2.065  -9.084  1.00  0.00     0.016 A 
ATOM     12  C   UNL     1      -0.794   2.474  -7.753  1.00  0.00     0.016 A 
BRANCH   8  13
ATOM     13  N   UNL     1       1.964   4.582  -6.479  1.00  0.00    -0.242 N 
ATOM     14  C   UNL     1       2.077   4.545  -5.117  1.00  0.00     0.095 A 
ATOM     15  C   UNL     1       2.693   5.668  -4.770  1.00  0.00     0.228 A 
ATOM     16  O   UNL     1       3.029   6.493  -5.842  1.00  0.00    -0.415 OA
ATOM     17  C   UNL     1       2.559   5.755  -6.932  1.00  0.00     0.424 A 
ATOM     18  O   UNL     1       2.644   6.162  -8.083  1.00  0.00    -0.223 OA
BRANCH  14  19
ATOM     19  C   UNL     1       1.717   3.411  -4.269  1.00  0.00     0.002 A 
ATOM     20  C   UNL     1       1.003   1.192  -2.716  1.00  0.00     0.082 A 
ATOM     21  C   UNL     1       1.938   1.041  -3.740  1.00  0.00     0.022 A 
ATOM     22  C   UNL     1       0.425   2.440  -2.457  1.00  0.00     0.022 A 
ATOM     23  C   UNL     1       2.293   2.151  -4.510  1.00  0.00     0.012 A 
ATOM     24  C   UNL     1       0.791   3.549  -3.227  1.00  0.00     0.012 A 
BRANCH  20  25
ATOM     25  S   UNL     1       0.479  -0.219  -1.784  1.00  0.00     0.238 S 
ATOM     26  O   UNL     1       1.122  -1.400  -2.301  1.00  0.00    -0.207 OA
ATOM     27  O   UNL     1      -0.950  -0.122  -1.587  1.00  0.00    -0.207 OA
BRANCH  25  28
ATOM     28  N   UNL     1       1.181   0.063  -0.283  1.00  0.00    -0.225 NA
ATOM     29  H   UNL     1       0.945  -0.699   0.352  1.00  0.00     0.137 HD
ATOM     30  H   UNL     1       0.830   0.943   0.097  1.00  0.00     0.137 HD
ENDBRANCH  25  28
ENDBRANCH  20  25
ENDBRANCH  14  19
ENDBRANCH   8  13
ENDBRANCH   4   7
ENDBRANCH   2   3
ENDBRANCH   1   2
BRANCH   1  31
ATOM     31  C   UNL     1      -5.049   0.067  -8.818  1.00  0.00     0.023 C 
BRANCH  31  32
ATOM     32  C   UNL     1      -5.751  -1.059  -8.065  1.00  0.00     0.116 C 
BRANCH  32  33
ATOM     33  N   UNL     1      -6.475  -0.586  -6.885  1.00  0.00    -0.352 N 
ATOM     34  C   UNL     1      -6.906  -1.329  -5.803  1.00  0.00     0.251 C 
ATOM     35  H   UNL     1      -6.679   0.377  -6.858  1.00  0.00     0.163 HD
ATOM     36  O   UNL     1      -7.818  -0.933  -5.087  1.00  0.00    -0.269 OA
BRANCH  34  37
ATOM     37  C   UNL     1      -6.229  -2.606  -5.525  1.00  0.00     0.039 A 
ATOM     38  C   UNL     1      -6.951  -3.777  -5.283  1.00  0.00     0.014 A 
ATOM     39  C   UNL     1      -4.837  -2.616  -5.589  1.00  0.00     0.014 A 
ATOM     40  C   UNL     1      -6.260  -4.985  -5.199  1.00  0.00     0.010 A 
ATOM     41  C   UNL     1      -4.174  -3.818  -5.631  1.00  0.00     0.010 A 
ATOM     42  C   UNL     1      -4.871  -5.003  -5.400  1.00  0.00    -0.014 A 
BRANCH  42  43
ATOM     43  C   UNL     1      -4.144  -6.268  -5.472  1.00  0.00     0.031 A 
ATOM     44  C   UNL     1      -4.614  -7.228  -6.516  1.00  0.00     0.074 A 
ATOM     45  C   UNL     1      -2.972  -6.466  -4.830  1.00  0.00     0.049 A 
ATOM     46  N   UNL     1      -5.152  -8.391  -6.348  1.00  0.00    -0.248 NA
ATOM     47  C   UNL     1      -4.577  -6.796  -7.924  1.00  0.00     0.031 C 
ATOM     48  C   UNL     1      -2.192  -5.505  -4.041  1.00  0.00     0.029 A 
ATOM     49  N   UNL     1      -2.158  -7.554  -4.859  1.00  0.00    -0.354 N 
ATOM     50  C   UNL     1      -5.329  -8.931  -7.622  1.00  0.00     0.074 A 
ATOM     51  C   UNL     1      -5.123  -7.844  -8.545  1.00  0.00     0.031 C 
ATOM     52  C   UNL     1      -0.931  -5.964  -3.888  1.00  0.00     0.029 A 
ATOM     53  C   UNL     1      -0.867  -7.319  -4.403  1.00  0.00     0.049 A 
ATOM     54  H   UNL     1      -2.458  -8.436  -5.177  1.00  0.00     0.167 HD
ATOM     55  C   UNL     1      -5.422 -10.276  -7.829  1.00  0.00     0.037 A 
ATOM     56  C   UNL     1       0.188  -8.167  -4.478  1.00  0.00     0.037 A 
ATOM     57  C   UNL     1      -5.617 -10.982  -6.588  1.00  0.00     0.049 A 
ATOM     58  C   UNL     1      -0.367  -9.533  -4.666  1.00  0.00     0.074 A 
ATOM     59  C   UNL     1      -6.579 -10.961  -5.597  1.00  0.00     0.029 A 
ATOM     60  N   UNL     1      -4.524 -11.604  -6.033  1.00  0.00    -0.354 N 
ATOM     61  N   UNL     1      -1.078 -10.160  -3.768  1.00  0.00    -0.248 NA
ATOM     62  C   UNL     1      -0.519 -10.022  -6.028  1.00  0.00     0.031 C 
ATOM     63  C   UNL     1      -5.852 -11.104  -4.379  1.00  0.00     0.029 A 
ATOM     64  C   UNL     1      -4.504 -11.273  -4.702  1.00  0.00     0.049 A 
ATOM     65  H   UNL     1      -3.877 -12.179  -6.502  1.00  0.00     0.167 HD
ATOM     66  C   UNL     1      -2.070 -10.810  -4.488  1.00  0.00     0.074 A 
ATOM     67  C   UNL     1      -1.616 -10.769  -5.877  1.00  0.00     0.031 C 
ATOM     68  C   UNL     1      -3.293 -11.072  -3.936  1.00  0.00     0.037 A 
BRANCH  55  69
ATOM     69  C   UNL     1      -5.003 -11.002  -9.088  1.00  0.00     0.058 A 
ATOM     70  C   UNL     1      -5.347 -12.362  -9.253  1.00  0.00     0.135 A 
ATOM     71  C   UNL     1      -4.047 -10.504  -9.999  1.00  0.00     0.135 A 
ATOM     72  F   UNL     1      -6.242 -12.945  -8.439  1.00  0.00    -0.206 F 
ATOM     73  C   UNL     1      -4.732 -13.181 -10.202  1.00  0.00     0.059 A 
ATOM     74  C   UNL     1      -3.462 -11.289 -10.988  1.00  0.00     0.059 A 
ATOM     75  F   UNL     1      -3.561  -9.260  -9.909  1.00  0.00    -0.206 F 
ATOM     76  C   UNL     1      -3.777 -12.637 -11.055  1.00  0.00     0.060 A 
BRANCH  76  77
ATOM     77  S   UNL     1      -2.902 -13.713 -12.205  1.00  0.00     0.124 S 
ATOM     78  O   UNL     1      -2.076 -14.499 -11.296  1.00  0.00    -0.237 OA
ATOM     79  O   UNL     1      -4.000 -14.427 -12.849  1.00  0.00    -0.237 OA
ATOM     80  O   UNL     1      -2.184 -12.775 -13.062  1.00  0.00    -0.744 OA
ENDBRANCH  76  77
ENDBRANCH  55  69
BRANCH  56  81
ATOM     81  C   UNL     1       1.615  -7.832  -4.721  1.00  0.00     0.058 A 
ATOM     82  C   UNL     1       2.629  -8.785  -4.521  1.00  0.00     0.135 A 
ATOM     83  C   UNL     1       1.988  -6.667  -5.423  1.00  0.00     0.135 A 
ATOM     84  F   UNL     1       2.359  -9.931  -3.878  1.00  0.00    -0.206 F 
ATOM     85  C   UNL     1       3.920  -8.620  -5.035  1.00  0.00     0.059 A 
ATOM     86  C   UNL     1       3.271  -6.475  -5.934  1.00  0.00     0.059 A 
ATOM     87  F   UNL     1       1.087  -5.719  -5.720  1.00  0.00    -0.206 F 
ATOM     88  C   UNL     1       4.226  -7.470  -5.761  1.00  0.00     0.060 A 
BRANCH  88  89
ATOM     89  S   UNL     1       5.829  -7.340  -6.589  1.00  0.00     0.124 S 
ATOM     90  O   UNL     1       6.739  -7.177  -5.461  1.00  0.00    -0.237 OA
ATOM     91  O   UNL     1       5.913  -8.613  -7.297  1.00  0.00    -0.237 OA
ATOM     92  O   UNL     1       5.676  -6.165  -7.443  1.00  0.00    -0.744 OA
ENDBRANCH  88  89
ENDBRANCH  56  81
BRANCH  68  93
ATOM     93  C   UNL     1      -3.456 -10.917  -2.445  1.00  0.00     0.058 A 
ATOM     94  C   UNL     1      -3.321  -9.704  -1.746  1.00  0.00     0.135 A 
ATOM     95  C   UNL     1      -3.922 -12.022  -1.716  1.00  0.00     0.135 A 
ATOM     96  F   UNL     1      -2.987  -8.574  -2.383  1.00  0.00    -0.206 F 
ATOM     97  C   UNL     1      -3.592  -9.605  -0.380  1.00  0.00     0.059 A 
ATOM     98  C   UNL     1      -4.229 -11.939  -0.360  1.00  0.00     0.059 A 
ATOM     99  F   UNL     1      -4.135 -13.195  -2.336  1.00  0.00    -0.206 F 
ATOM    100  C   UNL     1      -4.046 -10.730   0.306  1.00  0.00     0.060 A 
BRANCH 100 101
ATOM    101  S   UNL     1      -4.459 -10.587   2.058  1.00  0.00     0.124 S 
ATOM    102  O   UNL     1      -3.143 -10.450   2.673  1.00  0.00    -0.237 OA
ATOM    103  O   UNL     1      -5.301  -9.394   2.091  1.00  0.00    -0.237 OA
ATOM    104  O   UNL     1      -5.156 -11.838   2.349  1.00  0.00    -0.744 OA
ENDBRANCH 100 101
ENDBRANCH  68  93
ENDBRANCH  42  43
ENDBRANCH  34  37
ENDBRANCH  32  33
ENDBRANCH  31  32
ENDBRANCH   1  31
TORSDOF 18
