REMARK SMILES CC[C@H](C)N1C(=O)c2ccccc2[C@@H](C(=O)NCCCCNC(=O)c2ccc(-c3c4nc(c(-c5c(F)cc(S(=O)(=O)[O-])cc5F)c5ccc([nH]5)c(-c5c(F)cc(S(=O)(=O)[O-])cc5F)c5nc(c(-c6c(F)cc(S(=O)(=O)[O-])cc6F)c6ccc3[nH]6)C=C5)C=C4)cc2)C12CCCCC2
REMARK SMILES IDX 20 1 19 2 18 3 17 4 15 5 16 6 14 8 5 9 6 10 91 11 7 12 8 13
REMARK SMILES IDX 92 14 96 15 9 16 13 17 93 18 95 19 10 20 12 21 94 22 11 23
REMARK SMILES IDX 3 24 4 25 2 26 1 27 21 28 22 29 23 30 24 32 25 33 26 34
REMARK SMILES IDX 90 35 27 36 89 37 28 38 29 39 30 40 83 41 31 42 88 43 82 44
REMARK SMILES IDX 84 45 32 46 87 47 81 48 80 49 33 51 67 52 46 53 66 54 47 55
REMARK SMILES IDX 50 56 65 57 85 58 48 59 49 60 64 62 86 63 51 64 34 65 35 66
REMARK SMILES IDX 44 67 36 68 37 69 43 70 45 71 38 72 39 73 40 74 41 75 42 76
REMARK SMILES IDX 68 77 69 78 78 79 70 80 71 81 77 82 79 83 72 84 73 85 74 86
REMARK SMILES IDX 75 87 76 88 52 89 53 90 62 91 54 92 55 93 61 94 63 95 56 96
REMARK SMILES IDX 57 97 58 98 59 99 60 100
REMARK H PARENT 17 7 22 31 84 50 50 61
REMARK Flexibility Score: inf
ROOT
ATOM      1  C   UNL     1      -1.641   1.589  -9.137  1.00  0.00     0.023 C 
ENDROOT
BRANCH   1   2
ATOM      2  C   UNL     1      -0.559   1.834  -8.103  1.00  0.00     0.023 C 
BRANCH   2   3
ATOM      3  C   UNL     1      -0.742   3.094  -7.250  1.00  0.00     0.116 C 
BRANCH   3   4
ATOM      4  N   UNL     1      -2.057   3.222  -6.638  1.00  0.00    -0.355 N 
ATOM      5  C   UNL     1      -2.475   3.280  -5.340  1.00  0.00     0.229 C 
ATOM      6  O   UNL     1      -3.676   3.514  -5.162  1.00  0.00    -0.274 OA
ATOM      7  H   UNL     1      -2.792   3.277  -7.291  1.00  0.00     0.163 HD
BRANCH   5   8
ATOM      8  C   UNL     1      -1.536   3.113  -4.127  1.00  0.00     0.135 C 
ATOM      9  N   UNL     1       0.272   1.598  -3.120  1.00  0.00    -0.329 N 
ATOM     10  C   UNL     1       1.282   2.368  -3.732  1.00  0.00     0.254 C 
ATOM     11  C   UNL     1      -1.145   1.620  -3.712  1.00  0.00     0.059 C 
ATOM     12  O   UNL     1       2.459   2.025  -3.806  1.00  0.00    -0.269 OA
ATOM     13  C   UNL     1       0.917   3.732  -4.168  1.00  0.00     0.044 A 
ATOM     14  C   UNL     1      -1.117   0.616  -4.890  1.00  0.00     0.030 C 
ATOM     15  C   UNL     1      -2.219   1.107  -2.708  1.00  0.00     0.030 C 
ATOM     16  C   UNL     1       1.934   4.655  -4.461  1.00  0.00     0.014 A 
ATOM     17  C   UNL     1      -0.414   4.127  -4.224  1.00  0.00    -0.020 A 
ATOM     18  C   UNL     1      -2.451   0.187  -5.504  1.00  0.00     0.002 C 
ATOM     19  C   UNL     1      -3.582   0.775  -3.319  1.00  0.00     0.002 C 
ATOM     20  C   UNL     1       1.625   5.984  -4.757  1.00  0.00     0.001 A 
ATOM     21  C   UNL     1      -0.712   5.486  -4.464  1.00  0.00     0.005 A 
ATOM     22  C   UNL     1      -3.470  -0.231  -4.457  1.00  0.00     0.000 C 
ATOM     23  C   UNL     1       0.300   6.405  -4.732  1.00  0.00     0.000 A 
BRANCH   9  24
ATOM     24  C   UNL     1       0.780   0.615  -2.117  1.00  0.00     0.082 C 
ATOM     25  C   UNL     1       0.259   0.858  -0.700  1.00  0.00     0.031 C 
BRANCH  24  26
ATOM     26  C   UNL     1       0.915  -0.863  -2.550  1.00  0.00     0.021 C 
ATOM     27  C   UNL     1      -0.245  -1.808  -2.267  1.00  0.00     0.006 C 
ENDBRANCH  24  26
ENDBRANCH   9  24
ENDBRANCH   5   8
ENDBRANCH   3   4
ENDBRANCH   2   3
ENDBRANCH   1   2
BRANCH   1  28
ATOM     28  C   UNL     1      -1.680   2.656 -10.207  1.00  0.00     0.116 C 
BRANCH  28  29
ATOM     29  N   UNL     1      -0.450   2.689 -10.992  1.00  0.00    -0.352 N 
ATOM     30  C   UNL     1      -0.304   2.546 -12.352  1.00  0.00     0.251 C 
ATOM     31  H   UNL     1       0.381   2.830 -10.483  1.00  0.00     0.163 HD
ATOM     32  O   UNL     1       0.804   2.397 -12.855  1.00  0.00    -0.269 OA
BRANCH  30  33
ATOM     33  C   UNL     1      -1.522   2.552 -13.180  1.00  0.00     0.039 A 
ATOM     34  C   UNL     1      -2.501   3.515 -12.930  1.00  0.00     0.014 A 
ATOM     35  C   UNL     1      -1.738   1.537 -14.113  1.00  0.00     0.014 A 
ATOM     36  C   UNL     1      -3.769   3.337 -13.451  1.00  0.00     0.010 A 
ATOM     37  C   UNL     1      -2.981   1.444 -14.743  1.00  0.00     0.010 A 
ATOM     38  C   UNL     1      -4.020   2.317 -14.383  1.00  0.00    -0.014 A 
BRANCH  38  39
ATOM     39  C   UNL     1      -5.375   2.219 -14.980  1.00  0.00     0.031 A 
ATOM     40  C   UNL     1      -6.220   0.988 -14.795  1.00  0.00     0.074 A 
ATOM     41  C   UNL     1      -5.863   3.297 -15.628  1.00  0.00     0.049 A 
ATOM     42  N   UNL     1      -7.408   0.732 -15.279  1.00  0.00    -0.248 NA
ATOM     43  C   UNL     1      -5.665  -0.098 -13.969  1.00  0.00     0.031 C 
ATOM     44  C   UNL     1      -5.135   4.554 -15.839  1.00  0.00     0.029 A 
ATOM     45  N   UNL     1      -7.090   3.534 -16.187  1.00  0.00    -0.354 N 
ATOM     46  C   UNL     1      -7.731  -0.549 -14.845  1.00  0.00     0.074 A 
ATOM     47  C   UNL     1      -6.608  -1.027 -14.069  1.00  0.00     0.031 C 
ATOM     48  C   UNL     1      -5.956   5.453 -16.396  1.00  0.00     0.029 A 
ATOM     49  C   UNL     1      -7.231   4.810 -16.679  1.00  0.00     0.049 A 
ATOM     50  H   UNL     1      -7.803   2.856 -16.232  1.00  0.00     0.167 HD
ATOM     51  C   UNL     1      -8.865  -1.253 -15.074  1.00  0.00     0.037 A 
ATOM     52  C   UNL     1      -8.262   5.393 -17.316  1.00  0.00     0.037 A 
ATOM     53  C   UNL     1      -9.987  -0.745 -15.821  1.00  0.00     0.049 A 
ATOM     54  C   UNL     1      -9.488   4.574 -17.589  1.00  0.00     0.074 A 
ATOM     55  C   UNL     1     -11.179  -1.381 -16.125  1.00  0.00     0.029 A 
ATOM     56  N   UNL     1     -10.065   0.529 -16.366  1.00  0.00    -0.354 N 
ATOM     57  N   UNL     1      -9.748   3.341 -17.226  1.00  0.00    -0.248 NA
ATOM     58  C   UNL     1     -10.545   5.211 -18.383  1.00  0.00     0.031 C 
ATOM     59  C   UNL     1     -11.964  -0.501 -16.877  1.00  0.00     0.029 A 
ATOM     60  C   UNL     1     -11.279   0.696 -17.010  1.00  0.00     0.049 A 
ATOM     61  H   UNL     1      -9.360   1.213 -16.305  1.00  0.00     0.167 HD
ATOM     62  C   UNL     1     -11.001   3.052 -17.747  1.00  0.00     0.074 A 
ATOM     63  C   UNL     1     -11.456   4.249 -18.428  1.00  0.00     0.031 C 
ATOM     64  C   UNL     1     -11.706   1.898 -17.680  1.00  0.00     0.037 A 
BRANCH  51  65
ATOM     65  C   UNL     1      -8.958  -2.650 -14.524  1.00  0.00     0.058 A 
ATOM     66  C   UNL     1      -9.182  -2.891 -13.161  1.00  0.00     0.135 A 
ATOM     67  C   UNL     1      -8.904  -3.760 -15.385  1.00  0.00     0.135 A 
ATOM     68  F   UNL     1      -9.223  -1.869 -12.291  1.00  0.00    -0.206 F 
ATOM     69  C   UNL     1      -9.345  -4.183 -12.668  1.00  0.00     0.059 A 
ATOM     70  C   UNL     1      -9.086  -5.059 -14.918  1.00  0.00     0.059 A 
ATOM     71  F   UNL     1      -8.689  -3.585 -16.698  1.00  0.00    -0.206 F 
ATOM     72  C   UNL     1      -9.301  -5.260 -13.555  1.00  0.00     0.060 A 
BRANCH  72  73
ATOM     73  S   UNL     1      -9.551  -6.926 -12.902  1.00  0.00     0.124 S 
ATOM     74  O   UNL     1      -8.312  -7.136 -12.160  1.00  0.00    -0.237 OA
ATOM     75  O   UNL     1     -10.754  -6.765 -12.092  1.00  0.00    -0.237 OA
ATOM     76  O   UNL     1      -9.710  -7.743 -14.101  1.00  0.00    -0.744 OA
ENDBRANCH  72  73
ENDBRANCH  51  65
BRANCH  52  77
ATOM     77  C   UNL     1      -8.157   6.807 -17.759  1.00  0.00     0.058 A 
ATOM     78  C   UNL     1      -8.930   7.809 -17.159  1.00  0.00     0.135 A 
ATOM     79  C   UNL     1      -7.257   7.189 -18.768  1.00  0.00     0.135 A 
ATOM     80  F   UNL     1      -9.806   7.493 -16.192  1.00  0.00    -0.206 F 
ATOM     81  C   UNL     1      -8.822   9.141 -17.546  1.00  0.00     0.059 A 
ATOM     82  C   UNL     1      -7.111   8.516 -19.153  1.00  0.00     0.059 A 
ATOM     83  F   UNL     1      -6.481   6.268 -19.361  1.00  0.00    -0.206 F 
ATOM     84  C   UNL     1      -7.906   9.484 -18.543  1.00  0.00     0.060 A 
BRANCH  84  85
ATOM     85  S   UNL     1      -7.737  11.221 -19.006  1.00  0.00     0.124 S 
ATOM     86  O   UNL     1      -8.949  11.434 -19.787  1.00  0.00    -0.237 OA
ATOM     87  O   UNL     1      -7.689  11.883 -17.706  1.00  0.00    -0.237 OA
ATOM     88  O   UNL     1      -6.486  11.246 -19.759  1.00  0.00    -0.744 OA
ENDBRANCH  84  85
ENDBRANCH  52  77
BRANCH  64  89
ATOM     89  C   UNL     1     -13.047   1.881 -18.352  1.00  0.00     0.058 A 
ATOM     90  C   UNL     1     -13.161   1.789 -19.747  1.00  0.00     0.135 A 
ATOM     91  C   UNL     1     -14.225   1.907 -17.590  1.00  0.00     0.135 A 
ATOM     92  F   UNL     1     -12.061   1.772 -20.516  1.00  0.00    -0.206 F 
ATOM     93  C   UNL     1     -14.403   1.738 -20.368  1.00  0.00     0.059 A 
ATOM     94  C   UNL     1     -15.478   1.835 -18.189  1.00  0.00     0.059 A 
ATOM     95  F   UNL     1     -14.164   1.990 -16.252  1.00  0.00    -0.206 F 
ATOM     96  C   UNL     1     -15.556   1.758 -19.580  1.00  0.00     0.060 A 
BRANCH  96  97
ATOM     97  S   UNL     1     -17.161   1.651 -20.398  1.00  0.00     0.124 S 
ATOM     98  O   UNL     1     -17.281   2.982 -20.983  1.00  0.00    -0.237 OA
ATOM     99  O   UNL     1     -16.956   0.558 -21.344  1.00  0.00    -0.237 OA
ATOM    100  O   UNL     1     -18.081   1.361 -19.303  1.00  0.00    -0.744 OA
ENDBRANCH  96  97
ENDBRANCH  64  89
ENDBRANCH  38  39
ENDBRANCH  30  33
ENDBRANCH  28  29
ENDBRANCH   1  28
TORSDOF 16
