REMARK SMILES C[C@@]1(C(=O)c2ccccc2N)[C@H](C(=O)NCCCCNC(=O)c2ccc(-c3c4nc(c(-c5c(F)cc(S(=O)(=O)[O-])cc5F)c5ccc([nH]5)c(-c5c(F)cc(S(=O)(=O)[O-])cc5F)c5nc(c(-c6c(F)cc(S(=O)(=O)[O-])cc6F)c6ccc3[nH]6)C=C5)C=C4)cc2)[C@@H]1C(=O)N1CCOCC1
REMARK SMILES IDX 17 1 16 2 15 3 13 4 14 5 12 7 1 8 2 9 89 10 3 11 4 12 5 13
REMARK SMILES IDX 6 14 10 15 7 16 9 17 8 18 11 19 90 22 91 23 92 24 93 25
REMARK SMILES IDX 97 26 94 27 96 28 95 29 18 30 19 31 20 32 21 33 22 35 23 36
REMARK SMILES IDX 24 37 88 38 25 39 87 40 26 41 27 42 28 43 81 44 29 45 86 46
REMARK SMILES IDX 80 47 82 48 30 49 85 50 79 51 78 52 31 54 65 55 44 56 64 57
REMARK SMILES IDX 45 58 48 59 63 60 83 61 46 62 47 63 62 65 84 66 49 67 32 68
REMARK SMILES IDX 33 69 42 70 34 71 35 72 41 73 43 74 36 75 37 76 38 77 39 78
REMARK SMILES IDX 40 79 66 80 67 81 76 82 68 83 69 84 75 85 77 86 70 87 71 88
REMARK SMILES IDX 72 89 73 90 74 91 50 92 51 93 60 94 52 95 53 96 59 97 61 98
REMARK SMILES IDX 54 99 55 100 56 101 57 102 58 103
REMARK H PARENT 15 6 11 20 11 21 20 34 82 53 48 64
REMARK Flexibility Score: inf
ROOT
ATOM      1  C   UNL     1      -2.617  -1.639   4.249  1.00  0.00     0.023 C 
ENDROOT
BRANCH   1   2
ATOM      2  C   UNL     1      -2.354  -2.778   3.255  1.00  0.00     0.116 C 
BRANCH   2   3
ATOM      3  N   UNL     1      -2.647  -2.320   1.916  1.00  0.00    -0.356 N 
ATOM      4  C   UNL     1      -1.900  -1.594   1.037  1.00  0.00     0.224 C 
ATOM      5  O   UNL     1      -2.488  -0.727   0.393  1.00  0.00    -0.275 OA
ATOM      6  H   UNL     1      -3.537  -2.576   1.582  1.00  0.00     0.163 HD
BRANCH   4   7
ATOM      7  C   UNL     1      -0.578  -2.017   0.541  1.00  0.00     0.106 C 
ATOM      8  C   UNL     1       1.239  -0.653  -0.610  1.00  0.00     0.022 C 
ATOM      9  C   UNL     1       0.661  -1.105   0.734  1.00  0.00     0.056 C 
ATOM     10  C   UNL     1       0.690  -2.592   1.060  1.00  0.00     0.106 C 
BRANCH   9  11
ATOM     11  C   UNL     1       0.686   0.029   1.722  1.00  0.00     0.172 C 
ATOM     12  O   UNL     1       0.061   1.058   1.485  1.00  0.00    -0.293 OA
BRANCH  11  13
ATOM     13  C   UNL     1       1.435  -0.018   3.002  1.00  0.00     0.041 A 
ATOM     14  C   UNL     1       0.468   0.599   4.309  1.00  0.00     0.014 A 
ATOM     15  C   UNL     1       2.553  -1.341   3.364  1.00  0.00     0.042 A 
ATOM     16  C   UNL     1       0.427  -0.079   5.888  1.00  0.00     0.001 A 
ATOM     17  C   UNL     1       2.431  -2.136   5.160  1.00  0.00     0.026 A 
ATOM     18  C   UNL     1       1.368  -1.420   6.368  1.00  0.00     0.002 A 
BRANCH  15  19
ATOM     19  N   UNL     1       3.346  -1.674   2.226  1.00  0.00    -0.398 N 
ATOM     20  H   UNL     1       3.265  -1.147   1.398  1.00  0.00     0.156 HD
ATOM     21  H   UNL     1       3.975  -2.430   2.268  1.00  0.00     0.156 HD
ENDBRANCH  15  19
ENDBRANCH  11  13
ENDBRANCH   9  11
BRANCH  10  22
ATOM     22  C   UNL     1       0.772  -3.524   2.225  1.00  0.00     0.227 C 
ATOM     23  O   UNL     1       0.583  -4.715   1.988  1.00  0.00    -0.275 OA
ATOM     24  N   UNL     1       1.400  -3.130   3.396  1.00  0.00    -0.338 N 
ATOM     25  C   UNL     1       0.859  -1.625   4.260  1.00  0.00     0.148 C 
ATOM     26  C   UNL     1       2.977  -3.773   3.675  1.00  0.00     0.148 C 
ATOM     27  C   UNL     1       2.467  -0.272   4.919  1.00  0.00     0.181 C 
ATOM     28  C   UNL     1       4.390  -2.636   4.208  1.00  0.00     0.181 C 
ATOM     29  O   UNL     1       4.154  -1.019   4.826  1.00  0.00    -0.378 OA
ENDBRANCH  10  22
ENDBRANCH   4   7
ENDBRANCH   2   3
ENDBRANCH   1   2
BRANCH   1  30
ATOM     30  C   UNL     1      -3.344  -2.012   5.526  1.00  0.00     0.023 C 
BRANCH  30  31
ATOM     31  C   UNL     1      -2.929  -3.303   6.207  1.00  0.00     0.116 C 
BRANCH  31  32
ATOM     32  N   UNL     1      -1.631  -3.288   6.871  1.00  0.00    -0.352 N 
ATOM     33  C   UNL     1      -1.325  -3.595   8.183  1.00  0.00     0.251 C 
ATOM     34  H   UNL     1      -0.869  -3.021   6.308  1.00  0.00     0.163 HD
ATOM     35  O   UNL     1      -0.181  -3.483   8.609  1.00  0.00    -0.269 OA
BRANCH  33  36
ATOM     36  C   UNL     1      -2.419  -4.025   9.075  1.00  0.00     0.039 A 
ATOM     37  C   UNL     1      -2.625  -3.369  10.289  1.00  0.00     0.014 A 
ATOM     38  C   UNL     1      -3.330  -4.973   8.614  1.00  0.00     0.014 A 
ATOM     39  C   UNL     1      -3.823  -3.575  10.974  1.00  0.00     0.010 A 
ATOM     40  C   UNL     1      -4.580  -5.042   9.204  1.00  0.00     0.010 A 
ATOM     41  C   UNL     1      -4.840  -4.355  10.398  1.00  0.00    -0.014 A 
BRANCH  41  42
ATOM     42  C   UNL     1      -6.184  -4.489  11.017  1.00  0.00     0.031 A 
ATOM     43  C   UNL     1      -6.719  -5.864  11.325  1.00  0.00     0.074 A 
ATOM     44  C   UNL     1      -6.953  -3.397  11.209  1.00  0.00     0.049 A 
ATOM     45  N   UNL     1      -7.903  -6.211  11.755  1.00  0.00    -0.248 NA
ATOM     46  C   UNL     1      -5.821  -7.005  11.069  1.00  0.00     0.031 C 
ATOM     47  C   UNL     1      -6.575  -2.020  10.878  1.00  0.00     0.029 A 
ATOM     48  N   UNL     1      -8.222  -3.273  11.718  1.00  0.00    -0.354 N 
ATOM     49  C   UNL     1      -7.896  -7.601  11.793  1.00  0.00     0.074 A 
ATOM     50  C   UNL     1      -6.625  -8.037  11.267  1.00  0.00     0.031 C 
ATOM     51  C   UNL     1      -7.571  -1.190  11.228  1.00  0.00     0.029 A 
ATOM     52  C   UNL     1      -8.680  -1.976  11.758  1.00  0.00     0.049 A 
ATOM     53  H   UNL     1      -8.755  -4.041  12.027  1.00  0.00     0.167 HD
ATOM     54  C   UNL     1      -8.849  -8.439  12.259  1.00  0.00     0.037 A 
ATOM     55  C   UNL     1      -9.864  -1.477  12.165  1.00  0.00     0.037 A 
ATOM     56  C   UNL     1     -10.095  -7.990  12.820  1.00  0.00     0.049 A 
ATOM     57  C   UNL     1     -10.905  -2.427  12.695  1.00  0.00     0.074 A 
ATOM     58  C   UNL     1     -11.099  -8.748  13.392  1.00  0.00     0.029 A 
ATOM     59  N   UNL     1     -10.505  -6.666  12.878  1.00  0.00    -0.354 N 
ATOM     60  N   UNL     1     -10.851  -3.734  12.796  1.00  0.00    -0.248 NA
ATOM     61  C   UNL     1     -12.162  -1.838  13.174  1.00  0.00     0.031 C 
ATOM     62  C   UNL     1     -12.146  -7.889  13.736  1.00  0.00     0.029 A 
ATOM     63  C   UNL     1     -11.763  -6.588  13.449  1.00  0.00     0.049 A 
ATOM     64  H   UNL     1      -9.980  -5.897  12.559  1.00  0.00     0.167 HD
ATOM     65  C   UNL     1     -12.054  -4.122  13.377  1.00  0.00     0.074 A 
ATOM     66  C   UNL     1     -12.807  -2.908  13.617  1.00  0.00     0.031 C 
ATOM     67  C   UNL     1     -12.494  -5.367  13.685  1.00  0.00     0.037 A 
BRANCH  54  68
ATOM     68  C   UNL     1      -8.580  -9.918  12.191  1.00  0.00     0.058 A 
ATOM     69  C   UNL     1      -7.584 -10.529  12.972  1.00  0.00     0.135 A 
ATOM     70  C   UNL     1      -9.358 -10.743  11.363  1.00  0.00     0.135 A 
ATOM     71  F   UNL     1      -6.794  -9.787  13.764  1.00  0.00    -0.206 F 
ATOM     72  C   UNL     1      -7.354 -11.899  12.917  1.00  0.00     0.059 A 
ATOM     73  C   UNL     1      -9.169 -12.121  11.319  1.00  0.00     0.059 A 
ATOM     74  F   UNL     1     -10.317 -10.213  10.589  1.00  0.00    -0.206 F 
ATOM     75  C   UNL     1      -8.157 -12.688  12.093  1.00  0.00     0.060 A 
BRANCH  75  76
ATOM     76  S   UNL     1      -7.866 -14.469  12.062  1.00  0.00     0.124 S 
ATOM     77  O   UNL     1      -6.580 -14.542  11.374  1.00  0.00    -0.237 OA
ATOM     78  O   UNL     1      -7.845 -14.803  13.482  1.00  0.00    -0.237 OA
ATOM     79  O   UNL     1      -9.007 -14.988  11.314  1.00  0.00    -0.744 OA
ENDBRANCH  75  76
ENDBRANCH  54  68
BRANCH  55  80
ATOM     80  C   UNL     1     -10.117  -0.010  12.105  1.00  0.00     0.058 A 
ATOM     81  C   UNL     1     -10.230   0.756  13.275  1.00  0.00     0.135 A 
ATOM     82  C   UNL     1     -10.228   0.660  10.876  1.00  0.00     0.135 A 
ATOM     83  F   UNL     1     -10.138   0.164  14.476  1.00  0.00    -0.206 F 
ATOM     84  C   UNL     1     -10.457   2.129  13.231  1.00  0.00     0.059 A 
ATOM     85  C   UNL     1     -10.424   2.036  10.806  1.00  0.00     0.059 A 
ATOM     86  F   UNL     1     -10.112  -0.021   9.725  1.00  0.00    -0.206 F 
ATOM     87  C   UNL     1     -10.545   2.761  11.990  1.00  0.00     0.060 A 
BRANCH  87  88
ATOM     88  S   UNL     1     -10.778   4.552  11.946  1.00  0.00     0.124 S 
ATOM     89  O   UNL     1     -12.148   4.683  12.427  1.00  0.00    -0.237 OA
ATOM     90  O   UNL     1      -9.734   5.016  12.854  1.00  0.00    -0.237 OA
ATOM     91  O   UNL     1     -10.568   4.883  10.540  1.00  0.00    -0.744 OA
ENDBRANCH  87  88
ENDBRANCH  55  80
BRANCH  67  92
ATOM     92  C   UNL     1     -13.836  -5.484  14.354  1.00  0.00     0.058 A 
ATOM     93  C   UNL     1     -15.033  -5.228  13.668  1.00  0.00     0.135 A 
ATOM     94  C   UNL     1     -13.924  -5.924  15.685  1.00  0.00     0.135 A 
ATOM     95  F   UNL     1     -15.006  -4.801  12.395  1.00  0.00    -0.206 F 
ATOM     96  C   UNL     1     -16.269  -5.375  14.288  1.00  0.00     0.059 A 
ATOM     97  C   UNL     1     -15.150  -6.114  16.313  1.00  0.00     0.059 A 
ATOM     98  F   UNL     1     -12.810  -6.197  16.383  1.00  0.00    -0.206 F 
ATOM     99  C   UNL     1     -16.317  -5.824  15.609  1.00  0.00     0.060 A 
BRANCH  99 100
ATOM    100  S   UNL     1     -17.930  -6.043  16.388  1.00  0.00     0.124 S 
ATOM    101  O   UNL     1     -18.364  -4.661  16.557  1.00  0.00    -0.237 OA
ATOM    102  O   UNL     1     -18.655  -6.818  15.386  1.00  0.00    -0.237 OA
ATOM    103  O   UNL     1     -17.618  -6.759  17.622  1.00  0.00    -0.744 OA
ENDBRANCH  99 100
ENDBRANCH  67  92
ENDBRANCH  41  42
ENDBRANCH  33  36
ENDBRANCH  31  32
ENDBRANCH  30  31
ENDBRANCH   1  30
TORSDOF 18
