REMARK SMILES O=C(Cc1ccccc1[N+](=O)[O-])N[C@@H]1C=C[C@H](C(=O)NCCCCNC(=O)c2ccc(-c3c4nc(c(-c5c(F)cc(S(=O)(=O)[O-])cc5F)c5ccc([nH]5)c(-c5c(F)cc(S(=O)(=O)[O-])cc5F)c5nc(c(-c6c(F)cc(S(=O)(=O)[O-])cc6F)c6ccc3[nH]6)C=C5)C=C4)cc2)C1
REMARK SMILES IDX 22 1 21 2 20 3 18 4 19 5 17 7 14 8 15 9 94 10 16 11 13 12
REMARK SMILES IDX 1 13 2 14 3 16 4 17 5 18 9 19 6 20 8 21 7 22 10 23 11 24
REMARK SMILES IDX 12 25 23 26 24 27 25 28 26 29 27 31 28 32 29 33 93 34 30 35
REMARK SMILES IDX 92 36 31 37 32 38 33 39 86 40 34 41 91 42 85 43 87 44 35 45
REMARK SMILES IDX 90 46 84 47 83 48 36 50 70 51 49 52 69 53 50 54 53 55 68 56
REMARK SMILES IDX 88 57 51 58 52 59 67 61 89 62 54 63 37 64 38 65 47 66 39 67
REMARK SMILES IDX 40 68 46 69 48 70 41 71 42 72 43 73 44 74 45 75 71 76 72 77
REMARK SMILES IDX 81 78 73 79 74 80 80 81 82 82 75 83 76 84 77 85 78 86 79 87
REMARK SMILES IDX 55 88 56 89 65 90 57 91 58 92 64 93 66 94 59 95 60 96 61 97
REMARK SMILES IDX 62 98 63 99
REMARK H PARENT 20 6 13 15 25 30 87 49 53 60
REMARK Flexibility Score: inf
ROOT
ATOM      1  C   UNL     1      -1.718   1.562  -4.965  1.00  0.00     0.023 C 
ENDROOT
BRANCH   1   2
ATOM      2  C   UNL     1      -0.206   1.607  -4.769  1.00  0.00     0.116 C 
BRANCH   2   3
ATOM      3  N   UNL     1       0.282   2.966  -4.652  1.00  0.00    -0.356 N 
ATOM      4  C   UNL     1       0.717   3.705  -3.600  1.00  0.00     0.227 C 
ATOM      5  O   UNL     1       1.006   4.885  -3.839  1.00  0.00    -0.274 OA
ATOM      6  H   UNL     1       0.302   3.452  -5.508  1.00  0.00     0.163 HD
BRANCH   4   7
ATOM      7  C   UNL     1       0.944   3.162  -2.179  1.00  0.00     0.103 C 
ATOM      8  C   UNL     1       2.610   1.379  -1.808  1.00  0.00     0.106 C 
ATOM      9  C   UNL     1       1.212   0.906  -1.587  1.00  0.00    -0.006 C 
ATOM     10  C   UNL     1       2.444   2.898  -1.941  1.00  0.00     0.047 C 
ATOM     11  C   UNL     1       0.309   1.881  -1.752  1.00  0.00    -0.016 C 
BRANCH   8  12
ATOM     12  N   UNL     1       3.148   0.801  -3.018  1.00  0.00    -0.350 N 
ATOM     13  O   UNL     1       4.815  -0.391  -1.989  1.00  0.00    -0.275 OA
ATOM     14  C   UNL     1       4.275   0.011  -3.018  1.00  0.00     0.225 C 
ATOM     15  H   UNL     1       2.692   0.980  -3.872  1.00  0.00     0.164 HD
BRANCH  14  16
ATOM     16  C   UNL     1       4.859  -0.291  -4.392  1.00  0.00     0.142 C 
BRANCH  16  17
ATOM     17  C   UNL     1       4.080  -1.318  -5.185  1.00  0.00     0.039 A 
ATOM     18  C   UNL     1       4.304  -2.674  -4.872  1.00  0.00     0.011 A 
ATOM     19  C   UNL     1       3.164  -1.033  -6.223  1.00  0.00     0.273 A 
ATOM     20  C   UNL     1       3.652  -3.699  -5.562  1.00  0.00     0.001 A 
ATOM     21  C   UNL     1       2.499  -2.067  -6.907  1.00  0.00     0.086 A 
ATOM     22  C   UNL     1       2.748  -3.397  -6.575  1.00  0.00     0.007 A 
BRANCH  19  23
ATOM     23  N   UNL     1       2.843   0.339  -6.635  1.00  0.00     0.063 N 
ATOM     24  O   UNL     1       2.480   0.525  -7.803  1.00  0.00    -0.258 OA
ATOM     25  O   UNL     1       2.890   1.225  -5.770  1.00  0.00    -0.258 OA
ENDBRANCH  19  23
ENDBRANCH  16  17
ENDBRANCH  14  16
ENDBRANCH   8  12
ENDBRANCH   4   7
ENDBRANCH   2   3
ENDBRANCH   1   2
BRANCH   1  26
ATOM     26  C   UNL     1      -2.170   1.904  -6.389  1.00  0.00     0.023 C 
BRANCH  26  27
ATOM     27  C   UNL     1      -1.520   1.081  -7.502  1.00  0.00     0.116 C 
BRANCH  27  28
ATOM     28  N   UNL     1      -1.613  -0.356  -7.288  1.00  0.00    -0.352 N 
ATOM     29  C   UNL     1      -1.763  -1.357  -8.215  1.00  0.00     0.251 C 
ATOM     30  H   UNL     1      -1.562  -0.650  -6.350  1.00  0.00     0.163 HD
ATOM     31  O   UNL     1      -1.911  -2.517  -7.838  1.00  0.00    -0.269 OA
BRANCH  29  32
ATOM     32  C   UNL     1      -1.780  -1.033  -9.657  1.00  0.00     0.039 A 
ATOM     33  C   UNL     1      -2.779  -1.594 -10.455  1.00  0.00     0.014 A 
ATOM     34  C   UNL     1      -0.829  -0.176 -10.219  1.00  0.00     0.014 A 
ATOM     35  C   UNL     1      -2.854  -1.253 -11.806  1.00  0.00     0.010 A 
ATOM     36  C   UNL     1      -0.954   0.223 -11.548  1.00  0.00     0.010 A 
ATOM     37  C   UNL     1      -1.964  -0.315 -12.359  1.00  0.00    -0.014 A 
BRANCH  37  38
ATOM     38  C   UNL     1      -2.109   0.113 -13.775  1.00  0.00     0.031 A 
ATOM     39  C   UNL     1      -1.029  -0.176 -14.783  1.00  0.00     0.074 A 
ATOM     40  C   UNL     1      -3.220   0.779 -14.149  1.00  0.00     0.049 A 
ATOM     41  N   UNL     1      -1.018   0.065 -16.070  1.00  0.00    -0.248 NA
ATOM     42  C   UNL     1       0.207  -0.795 -14.281  1.00  0.00     0.031 C 
ATOM     43  C   UNL     1      -4.306   1.181 -13.251  1.00  0.00     0.029 A 
ATOM     44  N   UNL     1      -3.629   1.226 -15.380  1.00  0.00    -0.354 N 
ATOM     45  C   UNL     1       0.219  -0.373 -16.529  1.00  0.00     0.074 A 
ATOM     46  C   UNL     1       0.956  -0.835 -15.373  1.00  0.00     0.031 C 
ATOM     47  C   UNL     1      -5.274   1.773 -13.967  1.00  0.00     0.029 A 
ATOM     48  C   UNL     1      -4.869   1.822 -15.368  1.00  0.00     0.049 A 
ATOM     49  H   UNL     1      -3.086   1.129 -16.196  1.00  0.00     0.167 HD
ATOM     50  C   UNL     1       0.688  -0.412 -17.800  1.00  0.00     0.037 A 
ATOM     51  C   UNL     1      -5.602   2.341 -16.372  1.00  0.00     0.037 A 
ATOM     52  C   UNL     1      -0.056   0.046 -18.947  1.00  0.00     0.049 A 
ATOM     53  C   UNL     1      -5.066   2.272 -17.776  1.00  0.00     0.074 A 
ATOM     54  C   UNL     1       0.308   0.004 -20.282  1.00  0.00     0.029 A 
ATOM     55  N   UNL     1      -1.311   0.637 -18.896  1.00  0.00    -0.354 N 
ATOM     56  N   UNL     1      -3.927   1.780 -18.203  1.00  0.00    -0.248 NA
ATOM     57  C   UNL     1      -5.924   2.813 -18.837  1.00  0.00     0.031 C 
ATOM     58  C   UNL     1      -0.703   0.616 -21.032  1.00  0.00     0.029 A 
ATOM     59  C   UNL     1      -1.725   0.983 -20.173  1.00  0.00     0.049 A 
ATOM     60  H   UNL     1      -1.830   0.788 -18.074  1.00  0.00     0.167 HD
ATOM     61  C   UNL     1      -3.943   1.928 -19.585  1.00  0.00     0.074 A 
ATOM     62  C   UNL     1      -5.216   2.534 -19.922  1.00  0.00     0.031 C 
ATOM     63  C   UNL     1      -2.992   1.595 -20.494  1.00  0.00     0.037 A 
BRANCH  50  64
ATOM     64  C   UNL     1       2.068  -0.974 -18.019  1.00  0.00     0.058 A 
ATOM     65  C   UNL     1       2.349  -2.338 -17.827  1.00  0.00     0.135 A 
ATOM     66  C   UNL     1       3.115  -0.151 -18.464  1.00  0.00     0.135 A 
ATOM     67  F   UNL     1       1.392  -3.171 -17.388  1.00  0.00    -0.206 F 
ATOM     68  C   UNL     1       3.623  -2.857 -18.039  1.00  0.00     0.059 A 
ATOM     69  C   UNL     1       4.390  -0.655 -18.712  1.00  0.00     0.059 A 
ATOM     70  F   UNL     1       2.906   1.160 -18.664  1.00  0.00    -0.206 F 
ATOM     71  C   UNL     1       4.637  -2.008 -18.483  1.00  0.00     0.060 A 
BRANCH  71  72
ATOM     72  S   UNL     1       6.280  -2.701 -18.761  1.00  0.00     0.124 S 
ATOM     73  O   UNL     1       6.725  -2.953 -17.393  1.00  0.00    -0.237 OA
ATOM     74  O   UNL     1       5.986  -3.887 -19.559  1.00  0.00    -0.237 OA
ATOM     75  O   UNL     1       6.986  -1.635 -19.464  1.00  0.00    -0.744 OA
ENDBRANCH  71  72
ENDBRANCH  50  64
BRANCH  51  76
ATOM     76  C   UNL     1      -6.937   2.935 -16.089  1.00  0.00     0.058 A 
ATOM     77  C   UNL     1      -8.116   2.314 -16.530  1.00  0.00     0.135 A 
ATOM     78  C   UNL     1      -7.062   4.130 -15.363  1.00  0.00     0.135 A 
ATOM     79  F   UNL     1      -8.050   1.172 -17.232  1.00  0.00    -0.206 F 
ATOM     80  C   UNL     1      -9.368   2.866 -16.282  1.00  0.00     0.059 A 
ATOM     81  C   UNL     1      -8.305   4.685 -15.076  1.00  0.00     0.059 A 
ATOM     82  F   UNL     1      -5.967   4.754 -14.902  1.00  0.00    -0.206 F 
ATOM     83  C   UNL     1      -9.452   4.051 -15.550  1.00  0.00     0.060 A 
BRANCH  83  84
ATOM     84  S   UNL     1     -11.085   4.734 -15.191  1.00  0.00     0.124 S 
ATOM     85  O   UNL     1     -11.487   5.237 -16.500  1.00  0.00    -0.237 OA
ATOM     86  O   UNL     1     -11.807   3.562 -14.707  1.00  0.00    -0.237 OA
ATOM     87  O   UNL     1     -10.809   5.751 -14.181  1.00  0.00    -0.744 OA
ENDBRANCH  83  84
ENDBRANCH  51  76
BRANCH  63  88
ATOM     88  C   UNL     1      -3.312   1.849 -21.944  1.00  0.00     0.058 A 
ATOM     89  C   UNL     1      -3.419   3.150 -22.464  1.00  0.00     0.135 A 
ATOM     90  C   UNL     1      -3.522   0.775 -22.824  1.00  0.00     0.135 A 
ATOM     91  F   UNL     1      -3.229   4.214 -21.668  1.00  0.00    -0.206 F 
ATOM     92  C   UNL     1      -3.778   3.376 -23.789  1.00  0.00     0.059 A 
ATOM     93  C   UNL     1      -3.846   0.978 -24.162  1.00  0.00     0.059 A 
ATOM     94  F   UNL     1      -3.416  -0.490 -22.387  1.00  0.00    -0.206 F 
ATOM     95  C   UNL     1      -3.998   2.282 -24.628  1.00  0.00     0.060 A 
BRANCH  95  96
ATOM     96  S   UNL     1      -4.488   2.587 -26.338  1.00  0.00     0.124 S 
ATOM     97  O   UNL     1      -5.878   3.002 -26.175  1.00  0.00    -0.237 OA
ATOM     98  O   UNL     1      -3.558   3.633 -26.750  1.00  0.00    -0.237 OA
ATOM     99  O   UNL     1      -4.291   1.292 -26.984  1.00  0.00    -0.744 OA
ENDBRANCH  95  96
ENDBRANCH  63  88
ENDBRANCH  37  38
ENDBRANCH  29  32
ENDBRANCH  27  28
ENDBRANCH  26  27
ENDBRANCH   1  26
TORSDOF 18
