REMARK SMILES Cc1cc(C(=O)N[C@H]2CCCCC[C@H]2C(=O)NCCCCNC(=O)c2ccc(-c3c4nc(c(-c5c(F)cc(S(=O)(=O)[O-])cc5F)c5ccc([nH]5)c(-c5c(F)cc(S(=O)(=O)[O-])cc5F)c5nc(c(-c6c(F)cc(S(=O)(=O)[O-])cc6F)c6ccc3[nH]6)C=C5)C=C4)cc2)n(C)n1
REMARK SMILES IDX 19 1 18 2 17 3 15 4 16 5 14 7 8 8 7 9 5 10 6 11 4 13 1 14
REMARK SMILES IDX 2 15 3 16 93 17 91 18 92 19 9 20 10 21 11 22 13 24 12 25
REMARK SMILES IDX 20 27 21 28 22 29 23 30 24 32 25 33 26 34 90 35 27 36 89 37
REMARK SMILES IDX 28 38 29 39 30 40 83 41 31 42 88 43 82 44 84 45 32 46 87 47
REMARK SMILES IDX 81 48 80 49 33 51 67 52 46 53 66 54 47 55 50 56 65 57 85 58
REMARK SMILES IDX 48 59 49 60 64 62 86 63 51 64 34 65 35 66 44 67 36 68 37 69
REMARK SMILES IDX 43 70 45 71 38 72 39 73 40 74 41 75 42 76 68 77 69 78 78 79
REMARK SMILES IDX 70 80 71 81 77 82 79 83 72 84 73 85 74 86 75 87 76 88 52 89
REMARK SMILES IDX 53 90 62 91 54 92 55 93 61 94 63 95 56 96 57 97 58 98 59 99
REMARK SMILES IDX 60 100
REMARK H PARENT 17 6 7 12 22 31 84 50 50 61
REMARK Flexibility Score: 90.00
ROOT
ATOM      1  C   UNL     1      -4.232  -2.702   0.331  1.00  0.00     0.023 C 
ENDROOT
BRANCH   1   2
ATOM      2  C   UNL     1      -4.217  -4.199   0.632  1.00  0.00     0.116 C 
BRANCH   2   3
ATOM      3  N   UNL     1      -3.304  -4.907  -0.240  1.00  0.00    -0.356 N 
ATOM      4  C   UNL     1      -2.656  -6.014   0.224  1.00  0.00     0.225 C 
ATOM      5  O   UNL     1      -3.263  -7.078   0.345  1.00  0.00    -0.275 OA
ATOM      6  H   UNL     1      -3.153  -4.592  -1.161  1.00  0.00     0.163 HD
BRANCH   4   7
ATOM      7  C   UNL     1      -1.168  -5.904   0.549  1.00  0.00     0.101 C 
BRANCH   7   8
ATOM      8  C   UNL     1      -0.328  -4.682   0.098  1.00  0.00     0.094 C 
BRANCH   8   9
ATOM      9  N   UNL     1      -0.713  -3.967  -1.138  1.00  0.00    -0.347 N 
ATOM     10  C   UNL     1      -0.949  -4.353  -2.439  1.00  0.00     0.269 C 
ATOM     11  O   UNL     1      -1.115  -3.452  -3.260  1.00  0.00    -0.268 OA
ATOM     12  H   UNL     1      -0.825  -2.999  -1.000  1.00  0.00     0.164 HD
BRANCH  10  13
ATOM     13  C   UNL     1      -1.090  -5.745  -2.774  1.00  0.00     0.126 A 
ATOM     14  C   UNL     1      -1.170  -9.300  -2.027  1.00  0.00     0.069 C 
ATOM     15  C   UNL     1      -1.218  -7.948  -2.633  1.00  0.00     0.060 A 
ATOM     16  C   UNL     1      -0.360  -6.855  -2.388  1.00  0.00     0.059 A 
ATOM     17  N   UNL     1      -2.218  -7.600  -3.444  1.00  0.00    -0.178 NA
ATOM     18  N   UNL     1      -2.075  -6.265  -3.585  1.00  0.00    -0.263 N 
ATOM     19  C   UNL     1      -3.027  -5.582  -4.430  1.00  0.00     0.174 C 
ENDBRANCH  10  13
ENDBRANCH   8   9
BRANCH   8  20
ATOM     20  C   UNL     1       0.029  -3.670   1.218  1.00  0.00     0.026 C 
BRANCH  20  21
ATOM     21  C   UNL     1      -1.048  -3.342   2.247  1.00  0.00     0.002 C 
BRANCH  21  22
ATOM     22  C   UNL     1      -1.157  -4.320   3.414  1.00  0.00     0.000 CG0
ATOM     23  G   UNL     1      -1.633  -5.726   3.084  1.00  0.00     0.000 G0
ENDBRANCH  21  22
ENDBRANCH  20  21
ENDBRANCH   8  20
ENDBRANCH   7   8
BRANCH   7  24
ATOM     24  C   UNL     1      -0.864  -6.412   1.968  1.00  0.00     0.015 C 
BRANCH  24  25
ATOM     25  C   UNL     1      -1.633  -5.726   3.084  1.00  0.00     0.001 CG0
ATOM     26  G   UNL     1      -1.157  -4.320   3.414  1.00  0.00     0.000 G0
ENDBRANCH  24  25
ENDBRANCH   7  24
ENDBRANCH   4   7
ENDBRANCH   2   3
ENDBRANCH   1   2
BRANCH   1  27
ATOM     27  C   UNL     1      -5.625  -2.107   0.177  1.00  0.00     0.023 C 
BRANCH  27  28
ATOM     28  C   UNL     1      -6.626  -2.504   1.250  1.00  0.00     0.116 C 
BRANCH  28  29
ATOM     29  N   UNL     1      -6.192  -2.275   2.621  1.00  0.00    -0.352 N 
ATOM     30  C   UNL     1      -7.019  -2.196   3.724  1.00  0.00     0.251 C 
ATOM     31  H   UNL     1      -5.225  -2.166   2.775  1.00  0.00     0.163 HD
ATOM     32  O   UNL     1      -6.582  -1.970   4.846  1.00  0.00    -0.269 OA
BRANCH  30  33
ATOM     33  C   UNL     1      -8.468  -2.337   3.478  1.00  0.00     0.039 A 
ATOM     34  C   UNL     1      -9.283  -1.213   3.615  1.00  0.00     0.014 A 
ATOM     35  C   UNL     1      -8.944  -3.506   2.879  1.00  0.00     0.014 A 
ATOM     36  C   UNL     1     -10.563  -1.231   3.061  1.00  0.00     0.010 A 
ATOM     37  C   UNL     1     -10.182  -3.487   2.252  1.00  0.00     0.010 A 
ATOM     38  C   UNL     1     -11.000  -2.347   2.326  1.00  0.00    -0.014 A 
BRANCH  38  39
ATOM     39  C   UNL     1     -12.301  -2.339   1.611  1.00  0.00     0.031 A 
ATOM     40  C   UNL     1     -13.360  -3.340   1.978  1.00  0.00     0.074 A 
ATOM     41  C   UNL     1     -12.492  -1.504   0.569  1.00  0.00     0.049 A 
ATOM     42  N   UNL     1     -14.527  -3.549   1.426  1.00  0.00    -0.248 NA
ATOM     43  C   UNL     1     -13.044  -4.258   3.083  1.00  0.00     0.031 C 
ATOM     44  C   UNL     1     -11.506  -0.552   0.052  1.00  0.00     0.029 A 
ATOM     45  N   UNL     1     -13.577  -1.335  -0.255  1.00  0.00    -0.354 N 
ATOM     46  C   UNL     1     -15.067  -4.640   2.094  1.00  0.00     0.074 A 
ATOM     47  C   UNL     1     -14.076  -5.086   3.048  1.00  0.00     0.031 C 
ATOM     48  C   UNL     1     -12.037   0.112  -0.988  1.00  0.00     0.029 A 
ATOM     49  C   UNL     1     -13.390  -0.381  -1.228  1.00  0.00     0.049 A 
ATOM     50  H   UNL     1     -14.411  -1.848  -0.159  1.00  0.00     0.167 HD
ATOM     51  C   UNL     1     -16.290  -5.204   1.948  1.00  0.00     0.037 A 
ATOM     52  C   UNL     1     -14.215   0.049  -2.203  1.00  0.00     0.037 A 
ATOM     53  C   UNL     1     -17.288  -4.727   1.029  1.00  0.00     0.049 A 
ATOM     54  C   UNL     1     -15.598  -0.533  -2.300  1.00  0.00     0.074 A 
ATOM     55  C   UNL     1     -18.591  -5.161   0.870  1.00  0.00     0.029 A 
ATOM     56  N   UNL     1     -17.089  -3.705   0.112  1.00  0.00    -0.354 N 
ATOM     57  N   UNL     1     -16.134  -1.498  -1.591  1.00  0.00    -0.248 NA
ATOM     58  C   UNL     1     -16.494   0.040  -3.313  1.00  0.00     0.031 C 
ATOM     59  C   UNL     1     -19.173  -4.419  -0.166  1.00  0.00     0.029 A 
ATOM     60  C   UNL     1     -18.242  -3.501  -0.627  1.00  0.00     0.049 A 
ATOM     61  H   UNL     1     -16.252  -3.199   0.002  1.00  0.00     0.167 HD
ATOM     62  C   UNL     1     -17.434  -1.641  -2.062  1.00  0.00     0.074 A 
ATOM     63  C   UNL     1     -17.608  -0.651  -3.107  1.00  0.00     0.031 C 
ATOM     64  C   UNL     1     -18.396  -2.511  -1.665  1.00  0.00     0.037 A 
BRANCH  51  65
ATOM     65  C   UNL     1     -16.598  -6.394   2.813  1.00  0.00     0.058 A 
ATOM     66  C   UNL     1     -16.761  -6.271   4.203  1.00  0.00     0.135 A 
ATOM     67  C   UNL     1     -16.690  -7.678   2.255  1.00  0.00     0.135 A 
ATOM     68  F   UNL     1     -16.667  -5.067   4.791  1.00  0.00    -0.206 F 
ATOM     69  C   UNL     1     -16.941  -7.384   5.016  1.00  0.00     0.059 A 
ATOM     70  C   UNL     1     -16.900  -8.804   3.046  1.00  0.00     0.059 A 
ATOM     71  F   UNL     1     -16.546  -7.853   0.932  1.00  0.00    -0.206 F 
ATOM     72  C   UNL     1     -16.995  -8.649   4.429  1.00  0.00     0.060 A 
BRANCH  72  73
ATOM     73  S   UNL     1     -17.176 -10.092   5.498  1.00  0.00     0.124 S 
ATOM     74  O   UNL     1     -15.816 -10.248   6.004  1.00  0.00    -0.237 OA
ATOM     75  O   UNL     1     -18.166  -9.642   6.472  1.00  0.00    -0.237 OA
ATOM     76  O   UNL     1     -17.632 -11.134   4.583  1.00  0.00    -0.744 OA
ENDBRANCH  72  73
ENDBRANCH  51  65
BRANCH  52  77
ATOM     77  C   UNL     1     -13.759   1.117  -3.129  1.00  0.00     0.058 A 
ATOM     78  C   UNL     1     -14.216   2.436  -2.990  1.00  0.00     0.135 A 
ATOM     79  C   UNL     1     -12.807   0.857  -4.128  1.00  0.00     0.135 A 
ATOM     80  F   UNL     1     -15.130   2.733  -2.054  1.00  0.00    -0.206 F 
ATOM     81  C   UNL     1     -13.744   3.461  -3.804  1.00  0.00     0.059 A 
ATOM     82  C   UNL     1     -12.306   1.868  -4.942  1.00  0.00     0.059 A 
ATOM     83  F   UNL     1     -12.326  -0.386  -4.289  1.00  0.00    -0.206 F 
ATOM     84  C   UNL     1     -12.780   3.168  -4.771  1.00  0.00     0.060 A 
BRANCH  84  85
ATOM     85  S   UNL     1     -12.098   4.524  -5.753  1.00  0.00     0.124 S 
ATOM     86  O   UNL     1     -13.190   4.795  -6.680  1.00  0.00    -0.237 OA
ATOM     87  O   UNL     1     -11.853   5.544  -4.738  1.00  0.00    -0.237 OA
ATOM     88  O   UNL     1     -10.898   3.938  -6.342  1.00  0.00    -0.744 OA
ENDBRANCH  84  85
ENDBRANCH  52  77
BRANCH  64  89
ATOM     89  C   UNL     1     -19.729  -2.427  -2.351  1.00  0.00     0.058 A 
ATOM     90  C   UNL     1     -19.917  -2.920  -3.651  1.00  0.00     0.135 A 
ATOM     91  C   UNL     1     -20.846  -1.909  -1.676  1.00  0.00     0.135 A 
ATOM     92  F   UNL     1     -18.880  -3.420  -4.341  1.00  0.00    -0.206 F 
ATOM     93  C   UNL     1     -21.165  -2.889  -4.265  1.00  0.00     0.059 A 
ATOM     94  C   UNL     1     -22.107  -1.888  -2.262  1.00  0.00     0.059 A 
ATOM     95  F   UNL     1     -20.720  -1.434  -0.426  1.00  0.00    -0.206 F 
ATOM     96  C   UNL     1     -22.255  -2.373  -3.561  1.00  0.00     0.060 A 
BRANCH  96  97
ATOM     97  S   UNL     1     -23.879  -2.377  -4.350  1.00  0.00     0.124 S 
ATOM     98  O   UNL     1     -23.759  -1.255  -5.275  1.00  0.00    -0.237 OA
ATOM     99  O   UNL     1     -23.928  -3.701  -4.963  1.00  0.00    -0.237 OA
ATOM    100  O   UNL     1     -24.798  -2.177  -3.233  1.00  0.00    -0.744 OA
ENDBRANCH  96  97
ENDBRANCH  64  89
ENDBRANCH  38  39
ENDBRANCH  30  33
ENDBRANCH  28  29
ENDBRANCH  27  28
ENDBRANCH   1  27
TORSDOF 16
