REMARK SMILES Cc1ccc(NC(=O)C[NH+]2CCN(c3ccc(C(=O)NCCCCNC(=O)c4ccc(-c5c6nc(c(-c7c(F)cc(S(=O)(=O)[O-])cc7F)c7ccc([nH]7)c(-c7c(F)cc(S(=O)(=O)[O-])cc7F)c7nc(c(-c8c(F)cc(S(=O)(=O)[O-])cc8F)c8ccc5[nH]8)C=C7)C=C6)cc4)cc3NS(C)(=O)=O)CC2)cc1
REMARK SMILES IDX 22 1 21 2 20 3 18 4 19 5 17 7 14 8 15 9 95 10 16 11 94 12
REMARK SMILES IDX 13 13 10 14 11 15 102 16 12 18 101 19 9 20 7 21 6 22 8 24
REMARK SMILES IDX 5 25 1 26 2 27 3 28 104 29 4 30 103 31 96 32 97 34 98 35
REMARK SMILES IDX 99 36 100 37 23 38 24 39 25 40 26 41 27 43 28 44 29 45 93 46
REMARK SMILES IDX 30 47 92 48 31 49 32 50 33 51 86 52 34 53 91 54 85 55 87 56
REMARK SMILES IDX 35 57 90 58 84 59 83 60 36 62 70 63 49 64 69 65 50 66 53 67
REMARK SMILES IDX 68 68 88 69 51 70 52 71 67 73 89 74 54 75 37 76 38 77 47 78
REMARK SMILES IDX 39 79 40 80 46 81 48 82 41 83 42 84 43 85 44 86 45 87 71 88
REMARK SMILES IDX 72 89 81 90 73 91 74 92 80 93 82 94 75 95 76 96 77 97 78 98
REMARK SMILES IDX 79 99 55 100 56 101 65 102 57 103 58 104 64 105 66 106
REMARK SMILES IDX 59 107 60 108 61 109 62 110 63 111
REMARK H PARENT 20 6 10 17 6 23 96 33 25 42 87 61 53 72
REMARK Flexibility Score: inf
ROOT
ATOM      1  C   UNL     1       6.287  -3.951  -3.396  1.00  0.00     0.023 C 
ENDROOT
BRANCH   1   2
ATOM      2  C   UNL     1       6.272  -4.754  -2.081  1.00  0.00     0.116 C 
BRANCH   2   3
ATOM      3  N   UNL     1       6.605  -3.909  -0.945  1.00  0.00    -0.352 N 
ATOM      4  C   UNL     1       5.857  -3.191  -0.050  1.00  0.00     0.251 C 
ATOM      5  O   UNL     1       6.464  -2.502   0.771  1.00  0.00    -0.269 OA
ATOM      6  H   UNL     1       7.574  -3.837  -0.786  1.00  0.00     0.163 HD
BRANCH   4   7
ATOM      7  C   UNL     1       4.367  -3.213  -0.005  1.00  0.00     0.042 A 
ATOM      8  C   UNL     1       1.552  -3.161   0.222  1.00  0.00     0.062 A 
ATOM      9  C   UNL     1       2.191  -3.640  -0.935  1.00  0.00     0.029 A 
ATOM     10  C   UNL     1       2.352  -2.727   1.324  1.00  0.00     0.073 A 
ATOM     11  C   UNL     1       3.567  -3.594  -1.072  1.00  0.00     0.016 A 
ATOM     12  C   UNL     1       3.746  -2.779   1.185  1.00  0.00     0.042 A 
BRANCH   8  13
ATOM     13  N   UNL     1       0.148  -2.985   0.116  1.00  0.00    -0.359 N 
ATOM     14  N   UNL     1      -2.527  -2.910  -1.074  1.00  0.00    -0.324 N 
ATOM     15  C   UNL     1      -1.458  -2.154  -1.735  1.00  0.00     0.284 C 
ATOM     16  C   UNL     1      -1.920  -4.222  -0.739  1.00  0.00     0.284 C 
ATOM     17  H   UNL     1      -3.336  -2.994  -1.689  1.00  0.00     0.348 HD
ATOM     18  C   UNL     1      -0.173  -1.968  -0.922  1.00  0.00     0.178 C 
ATOM     19  C   UNL     1      -0.684  -4.206   0.207  1.00  0.00     0.178 C 
BRANCH  14  20
ATOM     20  C   UNL     1      -3.064  -2.240   0.143  1.00  0.00     0.364 C 
BRANCH  20  21
ATOM     21  C   UNL     1      -3.883  -0.962  -0.157  1.00  0.00     0.279 C 
ATOM     22  N   UNL     1      -3.400   0.318  -0.031  1.00  0.00    -0.321 N 
ATOM     23  H   UNL     1      -4.061   1.017  -0.242  1.00  0.00     0.170 HD
ATOM     24  O   UNL     1      -5.041  -1.056  -0.590  1.00  0.00    -0.268 OA
BRANCH  22  25
ATOM     25  C   UNL     1      -2.145   0.817   0.341  1.00  0.00     0.041 A 
ATOM     26  C   UNL     1       2.060   1.185  -0.034  1.00  0.00     0.044 C 
ATOM     27  C   UNL     1       0.605   1.320   0.325  1.00  0.00    -0.051 A 
ATOM     28  C   UNL     1       0.024   0.482   1.278  1.00  0.00     0.005 A 
ATOM     29  C   UNL     1      -0.243   2.110  -0.445  1.00  0.00     0.005 A 
ATOM     30  C   UNL     1      -1.351   0.245   1.317  1.00  0.00     0.026 A 
ATOM     31  C   UNL     1      -1.622   1.869  -0.423  1.00  0.00     0.026 A 
ENDBRANCH  22  25
ENDBRANCH  20  21
ENDBRANCH  14  20
ENDBRANCH   8  13
BRANCH  10  32
ATOM     32  N   UNL     1       1.703  -2.191   2.501  1.00  0.00    -0.282 N 
ATOM     33  H   UNL     1       0.719  -2.185   2.476  1.00  0.00     0.180 HD
BRANCH  32  34
ATOM     34  S   UNL     1       2.397  -1.577   3.904  1.00  0.00     0.229 S 
ATOM     35  C   UNL     1       2.292   0.199   3.718  1.00  0.00     0.183 C 
ATOM     36  O   UNL     1       1.480  -1.907   4.969  1.00  0.00    -0.207 OA
ATOM     37  O   UNL     1       3.804  -1.908   4.017  1.00  0.00    -0.207 OA
ENDBRANCH  32  34
ENDBRANCH  10  32
ENDBRANCH   4   7
ENDBRANCH   2   3
ENDBRANCH   1   2
BRANCH   1  38
ATOM     38  C   UNL     1       7.682  -3.504  -3.846  1.00  0.00     0.023 C 
BRANCH  38  39
ATOM     39  C   UNL     1       8.610  -4.661  -4.174  1.00  0.00     0.116 C 
BRANCH  39  40
ATOM     40  N   UNL     1       8.633  -5.110  -5.555  1.00  0.00    -0.352 N 
ATOM     41  C   UNL     1       9.584  -5.972  -6.101  1.00  0.00     0.251 C 
ATOM     42  H   UNL     1       7.922  -4.782  -6.152  1.00  0.00     0.163 HD
ATOM     43  O   UNL     1       9.960  -5.903  -7.263  1.00  0.00    -0.269 OA
BRANCH  41  44
ATOM     44  C   UNL     1       9.986  -7.122  -5.254  1.00  0.00     0.039 A 
ATOM     45  C   UNL     1       9.573  -8.398  -5.665  1.00  0.00     0.014 A 
ATOM     46  C   UNL     1      10.375  -6.885  -3.943  1.00  0.00     0.014 A 
ATOM     47  C   UNL     1       9.289  -9.361  -4.707  1.00  0.00     0.010 A 
ATOM     48  C   UNL     1       9.933  -7.761  -2.989  1.00  0.00     0.010 A 
ATOM     49  C   UNL     1       9.351  -8.974  -3.378  1.00  0.00    -0.014 A 
BRANCH  49  50
ATOM     50  C   UNL     1       8.971  -9.792  -2.250  1.00  0.00     0.031 A 
ATOM     51  C   UNL     1      10.078 -10.465  -1.552  1.00  0.00     0.074 A 
ATOM     52  C   UNL     1       7.727  -9.630  -1.753  1.00  0.00     0.049 A 
ATOM     53  N   UNL     1       9.933 -11.320  -0.612  1.00  0.00    -0.248 NA
ATOM     54  C   UNL     1      11.481 -10.238  -1.902  1.00  0.00     0.031 C 
ATOM     55  C   UNL     1       7.230  -9.934  -0.417  1.00  0.00     0.029 A 
ATOM     56  N   UNL     1       6.576  -9.306  -2.479  1.00  0.00    -0.354 N 
ATOM     57  C   UNL     1      11.169 -11.504  -0.025  1.00  0.00     0.074 A 
ATOM     58  C   UNL     1      12.108 -10.915  -0.939  1.00  0.00     0.031 C 
ATOM     59  C   UNL     1       5.892 -10.071  -0.472  1.00  0.00     0.029 A 
ATOM     60  C   UNL     1       5.522 -10.025  -1.879  1.00  0.00     0.049 A 
ATOM     61  H   UNL     1       6.514  -8.700  -3.252  1.00  0.00     0.167 HD
ATOM     62  C   UNL     1      11.191 -12.002   1.244  1.00  0.00     0.037 A 
ATOM     63  C   UNL     1       4.961 -11.073  -2.557  1.00  0.00     0.037 A 
ATOM     64  C   UNL     1       9.842 -12.454   1.593  1.00  0.00     0.049 A 
ATOM     65  C   UNL     1       5.228 -12.402  -1.883  1.00  0.00     0.074 A 
ATOM     66  C   UNL     1       8.811 -11.867   2.307  1.00  0.00     0.029 A 
ATOM     67  N   UNL     1       9.272 -13.482   0.848  1.00  0.00    -0.354 N 
ATOM     68  N   UNL     1       6.258 -12.650  -1.116  1.00  0.00    -0.248 NA
ATOM     69  C   UNL     1       4.299 -13.523  -1.953  1.00  0.00     0.031 C 
ATOM     70  C   UNL     1       7.598 -12.493   1.904  1.00  0.00     0.029 A 
ATOM     71  C   UNL     1       7.897 -13.478   0.975  1.00  0.00     0.049 A 
ATOM     72  H   UNL     1       9.781 -14.126   0.304  1.00  0.00     0.167 HD
ATOM     73  C   UNL     1       6.147 -13.914  -0.591  1.00  0.00     0.074 A 
ATOM     74  C   UNL     1       4.892 -14.406  -1.132  1.00  0.00     0.031 C 
ATOM     75  C   UNL     1       7.080 -14.453   0.256  1.00  0.00     0.037 A 
BRANCH  62  76
ATOM     76  C   UNL     1      12.318 -11.874   2.255  1.00  0.00     0.058 A 
ATOM     77  C   UNL     1      12.072 -12.204   3.609  1.00  0.00     0.135 A 
ATOM     78  C   UNL     1      13.612 -11.364   2.015  1.00  0.00     0.135 A 
ATOM     79  F   UNL     1      10.900 -12.722   4.001  1.00  0.00    -0.206 F 
ATOM     80  C   UNL     1      13.004 -12.003   4.631  1.00  0.00     0.059 A 
ATOM     81  C   UNL     1      14.564 -11.159   3.021  1.00  0.00     0.059 A 
ATOM     82  F   UNL     1      14.041 -11.030   0.798  1.00  0.00    -0.206 F 
ATOM     83  C   UNL     1      14.248 -11.471   4.330  1.00  0.00     0.060 A 
BRANCH  83  84
ATOM     84  S   UNL     1      15.437 -11.213   5.657  1.00  0.00     0.124 S 
ATOM     85  O   UNL     1      14.758 -10.221   6.484  1.00  0.00    -0.237 OA
ATOM     86  O   UNL     1      15.552 -12.550   6.229  1.00  0.00    -0.237 OA
ATOM     87  O   UNL     1      16.627 -10.731   4.960  1.00  0.00    -0.744 OA
ENDBRANCH  83  84
ENDBRANCH  62  76
BRANCH  63  88
ATOM     88  C   UNL     1       4.888 -10.812  -4.030  1.00  0.00     0.058 A 
ATOM     89  C   UNL     1       4.055  -9.750  -4.445  1.00  0.00     0.135 A 
ATOM     90  C   UNL     1       5.925 -11.187  -4.897  1.00  0.00     0.135 A 
ATOM     91  F   UNL     1       3.030  -9.361  -3.669  1.00  0.00    -0.206 F 
ATOM     92  C   UNL     1       4.359  -8.967  -5.554  1.00  0.00     0.059 A 
ATOM     93  C   UNL     1       6.235 -10.424  -6.030  1.00  0.00     0.059 A 
ATOM     94  F   UNL     1       6.744 -12.199  -4.574  1.00  0.00    -0.206 F 
ATOM     95  C   UNL     1       5.497  -9.269  -6.296  1.00  0.00     0.060 A 
BRANCH  95  96
ATOM     96  S   UNL     1       6.080  -8.024  -7.477  1.00  0.00     0.124 S 
ATOM     97  O   UNL     1       4.965  -7.954  -8.414  1.00  0.00    -0.237 OA
ATOM     98  O   UNL     1       6.257  -6.851  -6.616  1.00  0.00    -0.237 OA
ATOM     99  O   UNL     1       7.306  -8.612  -8.002  1.00  0.00    -0.744 OA
ENDBRANCH  95  96
ENDBRANCH  63  88
BRANCH  75 100
ATOM    100  C   UNL     1       7.252 -15.933   0.573  1.00  0.00     0.058 A 
ATOM    101  C   UNL     1       6.675 -16.978  -0.170  1.00  0.00     0.135 A 
ATOM    102  C   UNL     1       8.143 -16.362   1.595  1.00  0.00     0.135 A 
ATOM    103  F   UNL     1       5.948 -16.750  -1.271  1.00  0.00    -0.206 F 
ATOM    104  C   UNL     1       6.861 -18.324   0.148  1.00  0.00     0.059 A 
ATOM    105  C   UNL     1       8.411 -17.700   1.872  1.00  0.00     0.059 A 
ATOM    106  F   UNL     1       8.816 -15.496   2.365  1.00  0.00    -0.206 F 
ATOM    107  C   UNL     1       7.727 -18.677   1.174  1.00  0.00     0.060 A 
BRANCH 107 108
ATOM    108  S   UNL     1       7.973 -20.415   1.558  1.00  0.00     0.124 S 
ATOM    109  O   UNL     1       6.777 -20.708   2.341  1.00  0.00    -0.237 OA
ATOM    110  O   UNL     1       8.025 -21.026   0.233  1.00  0.00    -0.237 OA
ATOM    111  O   UNL     1       9.231 -20.426   2.296  1.00  0.00    -0.744 OA
ENDBRANCH 107 108
ENDBRANCH  75 100
ENDBRANCH  49  50
ENDBRANCH  41  44
ENDBRANCH  39  40
ENDBRANCH  38  39
ENDBRANCH   1  38
TORSDOF 20
