REMARK SMILES CC[C@H]1CO[C@@H](C)CN1c1cccc(F)c1C(=O)NCCCCNC(=O)c1ccc(-c2c3nc(c(-c4c(F)cc(S(=O)(=O)[O-])cc4F)c4ccc([nH]4)c(-c4c(F)cc(S(=O)(=O)[O-])cc4F)c4nc(c(-c5c(F)cc(S(=O)(=O)[O-])cc5F)c5ccc2[nH]5)C=C4)C=C3)cc1
REMARK SMILES IDX 22 1 21 2 20 3 19 4 17 5 18 6 16 8 10 9 11 10 12 11 14 12
REMARK SMILES IDX 13 13 15 14 9 15 3 16 4 17 5 18 8 19 6 20 7 21 2 22 1 23
REMARK SMILES IDX 23 24 24 25 25 26 26 28 27 29 28 30 92 31 29 32 91 33 30 34
REMARK SMILES IDX 31 35 32 36 85 37 33 38 90 39 84 40 86 41 34 42 89 43 83 44
REMARK SMILES IDX 82 45 35 47 69 48 48 49 68 50 49 51 52 52 67 53 87 54 50 55
REMARK SMILES IDX 51 56 66 58 88 59 53 60 36 61 37 62 46 63 38 64 39 65 45 66
REMARK SMILES IDX 47 67 40 68 41 69 42 70 43 71 44 72 70 73 71 74 80 75 72 76
REMARK SMILES IDX 73 77 79 78 81 79 74 80 75 81 76 82 77 83 78 84 54 85 55 86
REMARK SMILES IDX 64 87 56 88 57 89 63 90 65 91 58 92 59 93 60 94 61 95 62 96
REMARK H PARENT 19 7 24 27 86 46 52 57
REMARK Flexibility Score: inf
ROOT
ATOM      1  C   UNL     1      -1.230   7.254  -7.175  1.00  0.00     0.023 C 
ENDROOT
BRANCH   1   2
ATOM      2  C   UNL     1      -0.895   5.762  -7.296  1.00  0.00     0.023 C 
BRANCH   2   3
ATOM      3  C   UNL     1       0.411   5.329  -6.610  1.00  0.00     0.116 C 
BRANCH   3   4
ATOM      4  N   UNL     1       0.249   5.236  -5.170  1.00  0.00    -0.352 N 
ATOM      5  C   UNL     1      -0.652   4.384  -4.565  1.00  0.00     0.256 C 
ATOM      6  O   UNL     1      -1.618   4.883  -3.993  1.00  0.00    -0.269 OA
ATOM      7  H   UNL     1       0.810   5.808  -4.598  1.00  0.00     0.163 HD
BRANCH   5   8
ATOM      8  C   UNL     1      -0.455   2.913  -4.561  1.00  0.00     0.098 A 
ATOM      9  C   UNL     1      -0.228   2.197  -3.348  1.00  0.00     0.053 A 
ATOM     10  C   UNL     1      -0.271   0.789  -3.410  1.00  0.00     0.027 A 
ATOM     11  C   UNL     1      -0.400   0.102  -4.618  1.00  0.00     0.005 A 
ATOM     12  C   UNL     1      -0.611   2.205  -5.759  1.00  0.00     0.138 A 
ATOM     13  C   UNL     1      -0.541   0.815  -5.798  1.00  0.00     0.040 A 
ATOM     14  F   UNL     1      -0.864   2.831  -6.916  1.00  0.00    -0.206 F 
BRANCH   9  15
ATOM     15  N   UNL     1       0.103   2.814  -2.144  1.00  0.00    -0.363 N 
ATOM     16  C   UNL     1       1.129   2.304  -1.189  1.00  0.00     0.108 C 
ATOM     17  C   UNL     1       1.655   3.505  -0.357  1.00  0.00     0.185 C 
ATOM     18  O   UNL     1       0.601   4.211   0.316  1.00  0.00    -0.375 OA
ATOM     19  C   UNL     1      -0.990   3.517  -1.426  1.00  0.00     0.148 C 
ATOM     20  C   UNL     1      -0.416   4.684  -0.593  1.00  0.00     0.134 C 
ATOM     21  C   UNL     1       0.105   5.849  -1.432  1.00  0.00     0.040 C 
BRANCH  16  22
ATOM     22  C   UNL     1       2.320   1.519  -1.776  1.00  0.00     0.024 C 
ATOM     23  C   UNL     1       2.957   2.067  -3.044  1.00  0.00     0.006 C 
ENDBRANCH  16  22
ENDBRANCH   9  15
ENDBRANCH   5   8
ENDBRANCH   3   4
ENDBRANCH   2   3
ENDBRANCH   1   2
BRANCH   1  24
ATOM     24  C   UNL     1      -0.223   8.205  -7.819  1.00  0.00     0.116 C 
BRANCH  24  25
ATOM     25  N   UNL     1       0.081   7.875  -9.202  1.00  0.00    -0.352 N 
ATOM     26  C   UNL     1       0.371   8.716 -10.252  1.00  0.00     0.251 C 
ATOM     27  H   UNL     1       0.079   6.915  -9.418  1.00  0.00     0.163 HD
ATOM     28  O   UNL     1       0.515   8.264 -11.380  1.00  0.00    -0.269 OA
BRANCH  26  29
ATOM     29  C   UNL     1       0.470  10.170 -10.010  1.00  0.00     0.039 A 
ATOM     30  C   UNL     1      -0.232  11.039 -10.849  1.00  0.00     0.014 A 
ATOM     31  C   UNL     1       1.226  10.669  -8.947  1.00  0.00     0.014 A 
ATOM     32  C   UNL     1      -0.234  12.408 -10.577  1.00  0.00     0.010 A 
ATOM     33  C   UNL     1       1.169  12.024  -8.638  1.00  0.00     0.010 A 
ATOM     34  C   UNL     1       0.434  12.905  -9.446  1.00  0.00    -0.014 A 
BRANCH  34  35
ATOM     35  C   UNL     1       0.366  14.343  -9.083  1.00  0.00     0.031 A 
ATOM     36  C   UNL     1       1.613  15.182  -9.091  1.00  0.00     0.074 A 
ATOM     37  C   UNL     1      -0.808  14.873  -8.685  1.00  0.00     0.049 A 
ATOM     38  N   UNL     1       1.770  16.429  -8.730  1.00  0.00    -0.248 NA
ATOM     39  C   UNL     1       2.853  14.526  -9.538  1.00  0.00     0.031 C 
ATOM     40  C   UNL     1      -2.076  14.146  -8.593  1.00  0.00     0.029 A 
ATOM     41  N   UNL     1      -1.126  16.144  -8.277  1.00  0.00    -0.354 N 
ATOM     42  C   UNL     1       3.122  16.703  -8.895  1.00  0.00     0.074 A 
ATOM     43  C   UNL     1       3.752  15.478  -9.337  1.00  0.00     0.031 C 
ATOM     44  C   UNL     1      -3.039  14.989  -8.187  1.00  0.00     0.029 A 
ATOM     45  C   UNL     1      -2.452  16.305  -7.952  1.00  0.00     0.049 A 
ATOM     46  H   UNL     1      -0.466  16.873  -8.222  1.00  0.00     0.167 HD
ATOM     47  C   UNL     1       3.773  17.877  -8.719  1.00  0.00     0.037 A 
ATOM     48  C   UNL     1      -3.120  17.389  -7.512  1.00  0.00     0.037 A 
ATOM     49  C   UNL     1       3.132  19.099  -8.311  1.00  0.00     0.049 A 
ATOM     50  C   UNL     1      -2.376  18.682  -7.325  1.00  0.00     0.074 A 
ATOM     51  C   UNL     1       3.696  20.353  -8.154  1.00  0.00     0.029 A 
ATOM     52  N   UNL     1       1.786  19.224  -8.000  1.00  0.00    -0.354 N 
ATOM     53  N   UNL     1      -1.104  18.934  -7.526  1.00  0.00    -0.248 NA
ATOM     54  C   UNL     1      -3.151  19.836  -6.851  1.00  0.00     0.031 C 
ATOM     55  C   UNL     1       2.698  21.229  -7.716  1.00  0.00     0.029 A 
ATOM     56  C   UNL     1       1.503  20.530  -7.639  1.00  0.00     0.049 A 
ATOM     57  H   UNL     1       1.129  18.491  -8.032  1.00  0.00     0.167 HD
ATOM     58  C   UNL     1      -0.931  20.280  -7.223  1.00  0.00     0.074 A 
ATOM     59  C   UNL     1      -2.230  20.791  -6.836  1.00  0.00     0.031 C 
ATOM     60  C   UNL     1       0.202  21.023  -7.261  1.00  0.00     0.037 A 
BRANCH  47  61
ATOM     61  C   UNL     1       5.251  17.904  -8.989  1.00  0.00     0.058 A 
ATOM     62  C   UNL     1       6.169  18.065  -7.939  1.00  0.00     0.135 A 
ATOM     63  C   UNL     1       5.759  17.821 -10.296  1.00  0.00     0.135 A 
ATOM     64  F   UNL     1       5.740  18.142  -6.670  1.00  0.00    -0.206 F 
ATOM     65  C   UNL     1       7.537  18.154  -8.177  1.00  0.00     0.059 A 
ATOM     66  C   UNL     1       7.124  17.883 -10.554  1.00  0.00     0.059 A 
ATOM     67  F   UNL     1       4.925  17.644 -11.333  1.00  0.00    -0.206 F 
ATOM     68  C   UNL     1       8.005  18.064  -9.489  1.00  0.00     0.060 A 
BRANCH  68  69
ATOM     69  S   UNL     1       9.785  18.145  -9.779  1.00  0.00     0.124 S 
ATOM     70  O   UNL     1      10.068  19.551  -9.516  1.00  0.00    -0.237 OA
ATOM     71  O   UNL     1      10.300  17.196  -8.796  1.00  0.00    -0.237 OA
ATOM     72  O   UNL     1       9.920  17.724 -11.171  1.00  0.00    -0.744 OA
ENDBRANCH  68  69
ENDBRANCH  47  61
BRANCH  48  73
ATOM     73  C   UNL     1      -4.583  17.301  -7.259  1.00  0.00     0.058 A 
ATOM     74  C   UNL     1      -5.096  16.574  -6.174  1.00  0.00     0.135 A 
ATOM     75  C   UNL     1      -5.498  17.912  -8.129  1.00  0.00     0.135 A 
ATOM     76  F   UNL     1      -4.263  15.962  -5.319  1.00  0.00    -0.206 F 
ATOM     77  C   UNL     1      -6.465  16.435  -5.974  1.00  0.00     0.059 A 
ATOM     78  C   UNL     1      -6.873  17.806  -7.937  1.00  0.00     0.059 A 
ATOM     79  F   UNL     1      -5.054  18.627  -9.173  1.00  0.00    -0.206 F 
ATOM     80  C   UNL     1      -7.346  17.050  -6.865  1.00  0.00     0.060 A 
BRANCH  80  81
ATOM     81  S   UNL     1      -9.121  16.842  -6.601  1.00  0.00     0.124 S 
ATOM     82  O   UNL     1      -9.303  15.435  -6.942  1.00  0.00    -0.237 OA
ATOM     83  O   UNL     1      -9.261  17.176  -5.187  1.00  0.00    -0.237 OA
ATOM     84  O   UNL     1      -9.715  17.796  -7.531  1.00  0.00    -0.744 OA
ENDBRANCH  80  81
ENDBRANCH  48  73
BRANCH  60  85
ATOM     85  C   UNL     1       0.096  22.475  -6.891  1.00  0.00     0.058 A 
ATOM     86  C   UNL     1       0.223  23.471  -7.873  1.00  0.00     0.135 A 
ATOM     87  C   UNL     1      -0.042  22.883  -5.555  1.00  0.00     0.135 A 
ATOM     88  F   UNL     1       0.362  23.134  -9.165  1.00  0.00    -0.206 F 
ATOM     89  C   UNL     1       0.240  24.820  -7.540  1.00  0.00     0.059 A 
ATOM     90  C   UNL     1      -0.053  24.229  -5.202  1.00  0.00     0.059 A 
ATOM     91  F   UNL     1      -0.179  21.968  -4.582  1.00  0.00    -0.206 F 
ATOM     92  C   UNL     1       0.108  25.190  -6.201  1.00  0.00     0.060 A 
BRANCH  92  93
ATOM     93  S   UNL     1       0.132  26.946  -5.786  1.00  0.00     0.124 S 
ATOM     94  O   UNL     1       1.536  27.283  -5.996  1.00  0.00    -0.237 OA
ATOM     95  O   UNL     1      -0.807  27.506  -6.753  1.00  0.00    -0.237 OA
ATOM     96  O   UNL     1      -0.320  26.973  -4.398  1.00  0.00    -0.744 OA
ENDBRANCH  92  93
ENDBRANCH  60  85
ENDBRANCH  34  35
ENDBRANCH  26  29
ENDBRANCH  24  25
ENDBRANCH   1  24
TORSDOF 16
