REMARK SMILES CC(C)[C@H](NC(=O)c1cc2cc(Cl)ccc2n1C)C(=O)N[C@@H](C(=O)NCCCCNC(=O)c1ccc(-c2c3nc(c(-c4c(F)cc(S(=O)(=O)[O-])cc4F)c4ccc([nH]4)c(-c4c(F)cc(S(=O)(=O)[O-])cc4F)c4nc(c(-c5c(F)cc(S(=O)(=O)[O-])cc5F)c5ccc2[nH]5)C=C4)C=C3)cc1)c1ccccc1
REMARK SMILES IDX 27 1 26 2 25 3 23 4 24 5 22 7 21 8 19 9 20 10 4 12 2 13 1 14
REMARK SMILES IDX 3 15 5 16 6 17 7 19 8 20 9 21 17 22 10 23 16 24 18 25 11 26
REMARK SMILES IDX 15 27 12 28 14 29 13 30 99 31 100 32 104 33 101 34 103 35
REMARK SMILES IDX 102 36 28 37 29 38 30 39 31 40 32 42 33 43 34 44 98 45 35 46
REMARK SMILES IDX 97 47 36 48 37 49 38 50 91 51 39 52 96 53 90 54 92 55 40 56
REMARK SMILES IDX 95 57 89 58 88 59 41 61 75 62 54 63 74 64 55 65 58 66 73 67
REMARK SMILES IDX 93 68 56 69 57 70 72 72 94 73 59 74 42 75 43 76 52 77 44 78
REMARK SMILES IDX 45 79 51 80 53 81 46 82 47 83 48 84 49 85 50 86 76 87 77 88
REMARK SMILES IDX 86 89 78 90 79 91 85 92 87 93 80 94 81 95 82 96 83 97 84 98
REMARK SMILES IDX 60 99 61 100 70 101 62 102 63 103 69 104 71 105 64 106
REMARK SMILES IDX 65 107 66 108 67 109 68 110
REMARK H PARENT 25 6 21 11 5 18 30 41 92 60 58 71
REMARK Flexibility Score: inf
ROOT
ATOM      1  C   UNL     1       2.021  -2.645   4.229  1.00  0.00     0.023 C 
ENDROOT
BRANCH   1   2
ATOM      2  C   UNL     1       1.850  -2.923   2.747  1.00  0.00     0.116 C 
BRANCH   2   3
ATOM      3  N   UNL     1       1.865  -4.313   2.396  1.00  0.00    -0.354 N 
ATOM      4  C   UNL     1       1.198  -4.909   1.364  1.00  0.00     0.247 C 
ATOM      5  O   UNL     1       1.772  -5.903   0.902  1.00  0.00    -0.272 OA
ATOM      6  H   UNL     1       2.416  -4.902   2.961  1.00  0.00     0.163 HD
BRANCH   4   7
ATOM      7  C   UNL     1      -0.089  -4.270   0.672  1.00  0.00     0.202 C 
BRANCH   7   8
ATOM      8  N   UNL     1      -1.090  -3.633   1.539  1.00  0.00    -0.339 N 
ATOM      9  C   UNL     1      -1.790  -2.467   1.455  1.00  0.00     0.243 C 
ATOM     10  O   UNL     1      -2.933  -2.505   1.934  1.00  0.00    -0.273 OA
ATOM     11  H   UNL     1      -1.298  -4.156   2.347  1.00  0.00     0.164 HD
BRANCH   9  12
ATOM     12  C   UNL     1      -1.303  -1.127   0.817  1.00  0.00     0.174 C 
BRANCH  12  13
ATOM     13  C   UNL     1      -1.681  -0.894  -0.676  1.00  0.00     0.015 C 
ATOM     14  C   UNL     1      -0.660  -1.374  -1.714  1.00  0.00     0.010 C 
ATOM     15  C   UNL     1      -3.093  -1.389  -1.008  1.00  0.00     0.010 C 
ENDBRANCH  12  13
BRANCH  12  16
ATOM     16  N   UNL     1       0.091  -0.796   1.086  1.00  0.00    -0.339 N 
ATOM     17  C   UNL     1       0.686  -0.058   2.083  1.00  0.00     0.268 C 
ATOM     18  H   UNL     1       0.725  -1.172   0.433  1.00  0.00     0.164 HD
ATOM     19  O   UNL     1       1.902   0.097   1.946  1.00  0.00    -0.268 OA
BRANCH  17  20
ATOM     20  C   UNL     1      -0.035   0.514   3.205  1.00  0.00     0.107 A 
ATOM     21  C   UNL     1       0.258   1.769   3.738  1.00  0.00     0.042 A 
ATOM     22  N   UNL     1      -0.932  -0.047   4.102  1.00  0.00    -0.340 N 
ATOM     23  C   UNL     1      -0.582   2.026   4.850  1.00  0.00     0.002 A 
ATOM     24  C   UNL     1      -1.378   0.900   5.013  1.00  0.00     0.048 A 
ATOM     25  C   UNL     1      -1.209  -1.445   4.346  1.00  0.00     0.150 C 
ATOM     26  C   UNL     1      -0.727   3.099   5.750  1.00  0.00     0.030 A 
ATOM     27  C   UNL     1      -2.352   0.805   6.022  1.00  0.00     0.028 A 
ATOM     28  C   UNL     1      -1.696   3.014   6.756  1.00  0.00     0.041 A 
ATOM     29  C   UNL     1      -2.503   1.889   6.887  1.00  0.00     0.023 A 
ATOM     30  Cl  UNL     1      -1.896   4.328   7.851  1.00  0.00    -0.084 Cl
ENDBRANCH  17  20
ENDBRANCH  12  16
ENDBRANCH   9  12
ENDBRANCH   7   8
BRANCH   7  31
ATOM     31  C   UNL     1      -0.849  -5.325  -0.170  1.00  0.00    -0.016 A 
ATOM     32  C   UNL     1      -0.867  -6.689   0.175  1.00  0.00     0.006 A 
ATOM     33  C   UNL     1      -1.604  -4.946  -1.290  1.00  0.00     0.006 A 
ATOM     34  C   UNL     1      -1.499  -7.638  -0.635  1.00  0.00     0.000 A 
ATOM     35  C   UNL     1      -2.260  -5.888  -2.089  1.00  0.00     0.000 A 
ATOM     36  C   UNL     1      -2.184  -7.239  -1.776  1.00  0.00     0.000 A 
ENDBRANCH   7  31
ENDBRANCH   4   7
ENDBRANCH   2   3
ENDBRANCH   1   2
BRANCH   1  37
ATOM     37  C   UNL     1       3.451  -2.737   4.745  1.00  0.00     0.023 C 
BRANCH  37  38
ATOM     38  C   UNL     1       4.447  -1.769   4.092  1.00  0.00     0.116 C 
BRANCH  38  39
ATOM     39  N   UNL     1       4.038  -0.377   4.072  1.00  0.00    -0.352 N 
ATOM     40  C   UNL     1       4.303   0.698   4.880  1.00  0.00     0.251 C 
ATOM     41  H   UNL     1       3.443  -0.158   3.318  1.00  0.00     0.163 HD
ATOM     42  O   UNL     1       4.088   1.817   4.405  1.00  0.00    -0.269 OA
BRANCH  40  43
ATOM     43  C   UNL     1       4.743   0.604   6.302  1.00  0.00     0.039 A 
ATOM     44  C   UNL     1       4.949  -0.583   7.000  1.00  0.00     0.014 A 
ATOM     45  C   UNL     1       4.830   1.817   7.012  1.00  0.00     0.014 A 
ATOM     46  C   UNL     1       5.083  -0.576   8.383  1.00  0.00     0.010 A 
ATOM     47  C   UNL     1       5.006   1.834   8.393  1.00  0.00     0.010 A 
ATOM     48  C   UNL     1       5.066   0.630   9.086  1.00  0.00    -0.014 A 
BRANCH  48  49
ATOM     49  C   UNL     1       5.202   0.560  10.540  1.00  0.00     0.031 A 
ATOM     50  C   UNL     1       6.452  -0.102  11.016  1.00  0.00     0.074 A 
ATOM     51  C   UNL     1       4.326   1.113  11.404  1.00  0.00     0.049 A 
ATOM     52  N   UNL     1       6.581  -1.198  11.692  1.00  0.00    -0.248 NA
ATOM     53  C   UNL     1       7.729   0.473  10.564  1.00  0.00     0.031 C 
ATOM     54  C   UNL     1       3.212   2.020  11.114  1.00  0.00     0.029 A 
ATOM     55  N   UNL     1       4.309   1.039  12.765  1.00  0.00    -0.354 N 
ATOM     56  C   UNL     1       7.948  -1.348  11.924  1.00  0.00     0.074 A 
ATOM     57  C   UNL     1       8.610  -0.380  11.088  1.00  0.00     0.031 C 
ATOM     58  C   UNL     1       2.782   2.583  12.267  1.00  0.00     0.029 A 
ATOM     59  C   UNL     1       3.483   1.971  13.383  1.00  0.00     0.049 A 
ATOM     60  H   UNL     1       4.839   0.379  13.270  1.00  0.00     0.167 HD
ATOM     61  C   UNL     1       8.435  -2.120  12.935  1.00  0.00     0.037 A 
ATOM     62  C   UNL     1       3.430   2.252  14.710  1.00  0.00     0.037 A 
ATOM     63  C   UNL     1       7.452  -3.055  13.412  1.00  0.00     0.049 A 
ATOM     64  C   UNL     1       4.005   1.085  15.427  1.00  0.00     0.074 A 
ATOM     65  C   UNL     1       6.771  -4.122  12.862  1.00  0.00     0.029 A 
ATOM     66  N   UNL     1       6.787  -2.747  14.572  1.00  0.00    -0.354 N 
ATOM     67  N   UNL     1       3.456  -0.097  15.470  1.00  0.00    -0.248 NA
ATOM     68  C   UNL     1       5.419   1.130  15.766  1.00  0.00     0.031 C 
ATOM     69  C   UNL     1       5.476  -4.084  13.458  1.00  0.00     0.029 A 
ATOM     70  C   UNL     1       5.460  -3.024  14.367  1.00  0.00     0.049 A 
ATOM     71  H   UNL     1       7.188  -2.392  15.398  1.00  0.00     0.167 HD
ATOM     72  C   UNL     1       4.520  -0.985  15.432  1.00  0.00     0.074 A 
ATOM     73  C   UNL     1       5.701  -0.173  15.712  1.00  0.00     0.031 C 
ATOM     74  C   UNL     1       4.375  -2.240  14.917  1.00  0.00     0.037 A 
BRANCH  61  75
ATOM     75  C   UNL     1       9.687  -1.797  13.717  1.00  0.00     0.058 A 
ATOM     76  C   UNL     1      10.220  -2.746  14.615  1.00  0.00     0.135 A 
ATOM     77  C   UNL     1      10.217  -0.492  13.827  1.00  0.00     0.135 A 
ATOM     78  F   UNL     1       9.780  -4.014  14.611  1.00  0.00    -0.206 F 
ATOM     79  C   UNL     1      11.161  -2.406  15.590  1.00  0.00     0.059 A 
ATOM     80  C   UNL     1      11.193  -0.145  14.755  1.00  0.00     0.059 A 
ATOM     81  F   UNL     1       9.743   0.532  13.107  1.00  0.00    -0.206 F 
ATOM     82  C   UNL     1      11.630  -1.097  15.660  1.00  0.00     0.060 A 
BRANCH  82  83
ATOM     83  S   UNL     1      12.759  -0.630  16.983  1.00  0.00     0.124 S 
ATOM     84  O   UNL     1      11.900  -0.750  18.155  1.00  0.00    -0.237 OA
ATOM     85  O   UNL     1      13.809  -1.634  16.853  1.00  0.00    -0.237 OA
ATOM     86  O   UNL     1      13.153   0.730  16.625  1.00  0.00    -0.744 OA
ENDBRANCH  82  83
ENDBRANCH  61  75
BRANCH  62  87
ATOM     87  C   UNL     1       3.275   3.577  15.372  1.00  0.00     0.058 A 
ATOM     88  C   UNL     1       3.058   3.667  16.761  1.00  0.00     0.135 A 
ATOM     89  C   UNL     1       3.650   4.771  14.725  1.00  0.00     0.135 A 
ATOM     90  F   UNL     1       2.711   2.577  17.462  1.00  0.00    -0.206 F 
ATOM     91  C   UNL     1       3.274   4.851  17.475  1.00  0.00     0.059 A 
ATOM     92  C   UNL     1       3.860   5.965  15.415  1.00  0.00     0.059 A 
ATOM     93  F   UNL     1       3.923   4.790  13.412  1.00  0.00    -0.206 F 
ATOM     94  C   UNL     1       3.703   5.989  16.796  1.00  0.00     0.060 A 
BRANCH  94  95
ATOM     95  S   UNL     1       4.177   7.458  17.739  1.00  0.00     0.124 S 
ATOM     96  O   UNL     1       2.898   7.888  18.293  1.00  0.00    -0.237 OA
ATOM     97  O   UNL     1       5.134   6.911  18.696  1.00  0.00    -0.237 OA
ATOM     98  O   UNL     1       4.748   8.342  16.727  1.00  0.00    -0.744 OA
ENDBRANCH  94  95
ENDBRANCH  62  87
BRANCH  74  99
ATOM     99  C   UNL     1       2.979  -2.759  14.684  1.00  0.00     0.058 A 
ATOM    100  C   UNL     1       2.076  -2.220  13.750  1.00  0.00     0.135 A 
ATOM    101  C   UNL     1       2.604  -3.950  15.324  1.00  0.00     0.135 A 
ATOM    102  F   UNL     1       2.396  -1.139  13.025  1.00  0.00    -0.206 F 
ATOM    103  C   UNL     1       0.845  -2.825  13.486  1.00  0.00     0.059 A 
ATOM    104  C   UNL     1       1.396  -4.587  15.054  1.00  0.00     0.059 A 
ATOM    105  F   UNL     1       3.447  -4.545  16.185  1.00  0.00    -0.206 F 
ATOM    106  C   UNL     1       0.516  -4.014  14.138  1.00  0.00     0.060 A 
BRANCH 106 107
ATOM    107  S   UNL     1      -1.029  -4.852  13.720  1.00  0.00     0.124 S 
ATOM    108  O   UNL     1      -2.032  -3.945  14.274  1.00  0.00    -0.237 OA
ATOM    109  O   UNL     1      -0.971  -4.912  12.260  1.00  0.00    -0.237 OA
ATOM    110  O   UNL     1      -0.915  -6.140  14.391  1.00  0.00    -0.744 OA
ENDBRANCH 106 107
ENDBRANCH  74  99
ENDBRANCH  48  49
ENDBRANCH  40  43
ENDBRANCH  38  39
ENDBRANCH  37  38
ENDBRANCH   1  37
TORSDOF 20
