REMARK SMILES O=C(NCCCCNC(=O)[C@H]1[C@H]2CC[C@H](C2)[C@@H]1C(=O)Nc1sc2c(c1C(=O)NC1CCCCC1)CCCC2)c1ccc(-c2c3nc(c(-c4c(F)cc(S(=O)(=O)[O-])cc4F)c4ccc([nH]4)c(-c4c(F)cc(S(=O)(=O)[O-])cc4F)c4nc(c(-c5c(F)cc(S(=O)(=O)[O-])cc5F)c5ccc2[nH]5)C=C4)C=C3)cc1
REMARK SMILES IDX 6 1 5 2 4 3 3 4 1 5 2 6 39 8 40 9 104 10 41 11 103 12 42 13
REMARK SMILES IDX 43 14 44 15 97 16 45 17 102 18 96 19 98 20 46 21 101 22
REMARK SMILES IDX 95 23 94 24 47 26 81 27 60 28 80 29 61 30 64 31 79 32 99 33
REMARK SMILES IDX 62 34 63 35 78 37 100 38 65 39 48 40 49 41 58 42 50 43 51 44
REMARK SMILES IDX 57 45 59 46 52 47 53 48 54 49 55 50 56 51 82 52 83 53 92 54
REMARK SMILES IDX 84 55 85 56 91 57 93 58 86 59 87 60 88 61 89 62 90 63 66 64
REMARK SMILES IDX 67 65 76 66 68 67 69 68 75 69 77 70 70 71 71 72 72 73 73 74
REMARK SMILES IDX 74 75 7 76 8 77 9 78 10 80 11 81 12 82 17 83 13 84 16 85
REMARK SMILES IDX 15 86 14 87 18 88 19 89 20 90 21 92 22 93 25 94 23 95 24 96
REMARK SMILES IDX 38 97 35 98 37 99 36 100 26 101 27 102 28 103 29 105 30 106
REMARK SMILES IDX 34 107 31 108 33 109 32 110
REMARK H PARENT 3 7 98 25 64 36 8 79 20 91 28 104
REMARK Flexibility Score: inf
ROOT
ATOM      1  C   UNL     1       5.893  -2.463  -2.668  1.00  0.00     0.023 C 
ENDROOT
BRANCH   1   2
ATOM      2  C   UNL     1       4.630  -2.739  -1.850  1.00  0.00     0.023 C 
BRANCH   2   3
ATOM      3  C   UNL     1       4.351  -4.213  -1.588  1.00  0.00     0.116 C 
BRANCH   3   4
ATOM      4  N   UNL     1       5.391  -4.848  -0.791  1.00  0.00    -0.352 N 
ATOM      5  O   UNL     1       6.225  -6.003   0.960  1.00  0.00    -0.269 OA
ATOM      6  C   UNL     1       5.244  -5.669   0.302  1.00  0.00     0.251 C 
ATOM      7  H   UNL     1       6.317  -4.667  -1.070  1.00  0.00     0.163 HD
BRANCH   6   8
ATOM      8  C   UNL     1       3.889  -6.116   0.690  1.00  0.00     0.039 A 
ATOM      9  C   UNL     1       3.006  -6.605  -0.277  1.00  0.00     0.014 A 
ATOM     10  C   UNL     1       3.487  -6.012   2.024  1.00  0.00     0.014 A 
ATOM     11  C   UNL     1       1.682  -6.851   0.063  1.00  0.00     0.010 A 
ATOM     12  C   UNL     1       2.176  -6.345   2.379  1.00  0.00     0.010 A 
ATOM     13  C   UNL     1       1.254  -6.736   1.396  1.00  0.00    -0.014 A 
BRANCH  13  14
ATOM     14  C   UNL     1      -0.149  -7.089   1.738  1.00  0.00     0.031 A 
ATOM     15  C   UNL     1      -1.110  -6.059   2.262  1.00  0.00     0.074 A 
ATOM     16  C   UNL     1      -0.558  -8.357   1.534  1.00  0.00     0.049 A 
ATOM     17  N   UNL     1      -2.372  -6.199   2.581  1.00  0.00    -0.248 NA
ATOM     18  C   UNL     1      -0.592  -4.697   2.463  1.00  0.00     0.031 C 
ATOM     19  C   UNL     1       0.290  -9.446   1.040  1.00  0.00     0.029 A 
ATOM     20  N   UNL     1      -1.787  -8.943   1.693  1.00  0.00    -0.354 N 
ATOM     21  C   UNL     1      -2.795  -4.955   3.036  1.00  0.00     0.074 A 
ATOM     22  C   UNL     1      -1.646  -4.076   2.976  1.00  0.00     0.031 C 
ATOM     23  C   UNL     1      -0.453 -10.551   0.890  1.00  0.00     0.029 A 
ATOM     24  C   UNL     1      -1.813 -10.270   1.335  1.00  0.00     0.049 A 
ATOM     25  H   UNL     1      -2.575  -8.460   2.031  1.00  0.00     0.167 HD
ATOM     26  C   UNL     1      -4.029  -4.582   3.456  1.00  0.00     0.037 A 
ATOM     27  C   UNL     1      -2.814 -11.168   1.373  1.00  0.00     0.037 A 
ATOM     28  C   UNL     1      -5.170  -5.463   3.498  1.00  0.00     0.049 A 
ATOM     29  C   UNL     1      -4.165 -10.732   1.857  1.00  0.00     0.074 A 
ATOM     30  C   UNL     1      -6.469  -5.172   3.877  1.00  0.00     0.029 A 
ATOM     31  N   UNL     1      -5.149  -6.808   3.153  1.00  0.00    -0.354 N 
ATOM     32  N   UNL     1      -4.552  -9.544   2.257  1.00  0.00    -0.248 NA
ATOM     33  C   UNL     1      -5.216 -11.757   1.900  1.00  0.00     0.031 C 
ATOM     34  C   UNL     1      -7.223  -6.348   3.803  1.00  0.00     0.029 A 
ATOM     35  C   UNL     1      -6.407  -7.363   3.331  1.00  0.00     0.049 A 
ATOM     36  H   UNL     1      -4.358  -7.295   2.829  1.00  0.00     0.167 HD
ATOM     37  C   UNL     1      -5.896  -9.674   2.584  1.00  0.00     0.074 A 
ATOM     38  C   UNL     1      -6.258 -11.052   2.317  1.00  0.00     0.031 C 
ATOM     39  C   UNL     1      -6.752  -8.738   3.063  1.00  0.00     0.037 A 
BRANCH  26  40
ATOM     40  C   UNL     1      -4.211  -3.163   3.924  1.00  0.00     0.058 A 
ATOM     41  C   UNL     1      -4.213  -2.082   3.029  1.00  0.00     0.135 A 
ATOM     42  C   UNL     1      -4.431  -2.884   5.283  1.00  0.00     0.135 A 
ATOM     43  F   UNL     1      -3.995  -2.288   1.720  1.00  0.00    -0.206 F 
ATOM     44  C   UNL     1      -4.399  -0.773   3.466  1.00  0.00     0.059 A 
ATOM     45  C   UNL     1      -4.645  -1.587   5.740  1.00  0.00     0.059 A 
ATOM     46  F   UNL     1      -4.443  -3.880   6.184  1.00  0.00    -0.206 F 
ATOM     47  C   UNL     1      -4.612  -0.536   4.825  1.00  0.00     0.060 A 
BRANCH  47  48
ATOM     48  S   UNL     1      -4.850   1.167   5.379  1.00  0.00     0.124 S 
ATOM     49  O   UNL     1      -3.493   1.697   5.277  1.00  0.00    -0.237 OA
ATOM     50  O   UNL     1      -5.806   1.683   4.406  1.00  0.00    -0.237 OA
ATOM     51  O   UNL     1      -5.362   1.015   6.737  1.00  0.00    -0.744 OA
ENDBRANCH  47  48
ENDBRANCH  26  40
BRANCH  27  52
ATOM     52  C   UNL     1      -2.563 -12.567   0.937  1.00  0.00     0.058 A 
ATOM     53  C   UNL     1      -3.121 -13.066  -0.248  1.00  0.00     0.135 A 
ATOM     54  C   UNL     1      -1.733 -13.420   1.681  1.00  0.00     0.135 A 
ATOM     55  F   UNL     1      -3.924 -12.289  -0.991  1.00  0.00    -0.206 F 
ATOM     56  C   UNL     1      -2.875 -14.366  -0.676  1.00  0.00     0.059 A 
ATOM     57  C   UNL     1      -1.449 -14.713   1.259  1.00  0.00     0.059 A 
ATOM     58  F   UNL     1      -1.159 -12.982   2.813  1.00  0.00    -0.206 F 
ATOM     59  C   UNL     1      -2.033 -15.181   0.083  1.00  0.00     0.060 A 
BRANCH  59  60
ATOM     60  S   UNL     1      -1.672 -16.848  -0.509  1.00  0.00     0.124 S 
ATOM     61  O   UNL     1      -2.916 -17.543  -0.201  1.00  0.00    -0.237 OA
ATOM     62  O   UNL     1      -1.401 -16.619  -1.925  1.00  0.00    -0.237 OA
ATOM     63  O   UNL     1      -0.513 -17.242   0.287  1.00  0.00    -0.744 OA
ENDBRANCH  59  60
ENDBRANCH  27  52
BRANCH  39  64
ATOM     64  C   UNL     1      -8.171  -9.169   3.304  1.00  0.00     0.058 A 
ATOM     65  C   UNL     1      -8.516 -10.000   4.381  1.00  0.00     0.135 A 
ATOM     66  C   UNL     1      -9.202  -8.725   2.460  1.00  0.00     0.135 A 
ATOM     67  F   UNL     1      -7.567 -10.460   5.211  1.00  0.00    -0.206 F 
ATOM     68  C   UNL     1      -9.831 -10.399   4.598  1.00  0.00     0.059 A 
ATOM     69  C   UNL     1     -10.527  -9.089   2.674  1.00  0.00     0.059 A 
ATOM     70  F   UNL     1      -8.926  -7.922   1.420  1.00  0.00    -0.206 F 
ATOM     71  C   UNL     1     -10.830  -9.939   3.737  1.00  0.00     0.060 A 
BRANCH  71  72
ATOM     72  S   UNL     1     -12.536 -10.447   4.039  1.00  0.00     0.124 S 
ATOM     73  O   UNL     1     -12.519 -11.827   3.565  1.00  0.00    -0.237 OA
ATOM     74  O   UNL     1     -12.663 -10.275   5.483  1.00  0.00    -0.237 OA
ATOM     75  O   UNL     1     -13.315  -9.514   3.232  1.00  0.00    -0.744 OA
ENDBRANCH  71  72
ENDBRANCH  39  64
ENDBRANCH  13  14
ENDBRANCH   6   8
ENDBRANCH   3   4
ENDBRANCH   2   3
ENDBRANCH   1   2
BRANCH   1  76
ATOM     76  C   UNL     1       5.904  -3.148  -4.034  1.00  0.00     0.116 C 
BRANCH  76  77
ATOM     77  N   UNL     1       4.859  -2.608  -4.886  1.00  0.00    -0.356 N 
ATOM     78  C   UNL     1       4.975  -1.784  -5.969  1.00  0.00     0.224 C 
ATOM     79  H   UNL     1       3.940  -2.872  -4.650  1.00  0.00     0.163 HD
ATOM     80  O   UNL     1       3.962  -1.275  -6.442  1.00  0.00    -0.275 OA
BRANCH  78  81
ATOM     81  C   UNL     1       6.345  -1.644  -6.596  1.00  0.00     0.094 C 
ATOM     82  C   UNL     1       6.609  -2.882  -7.503  1.00  0.00     0.002 C 
ATOM     83  C   UNL     1       6.540  -0.453  -7.559  1.00  0.00     0.094 C 
ATOM     84  C   UNL     1       5.614  -2.992  -8.675  1.00  0.00     0.005 C 
ATOM     85  C   UNL     1       7.840  -2.406  -8.243  1.00  0.00     0.009 C 
ATOM     86  C   UNL     1       7.156  -1.144  -8.795  1.00  0.00     0.002 C 
ATOM     87  C   UNL     1       6.000  -1.808  -9.577  1.00  0.00     0.005 C 
BRANCH  83  88
ATOM     88  C   UNL     1       7.205   0.774  -6.889  1.00  0.00     0.229 C 
ATOM     89  O   UNL     1       6.518   1.796  -6.744  1.00  0.00    -0.274 OA
ATOM     90  N   UNL     1       8.413   0.774  -6.257  1.00  0.00    -0.317 N 
ATOM     91  H   UNL     1       8.488   1.424  -5.521  1.00  0.00     0.170 HD
BRANCH  90  92
ATOM     92  C   UNL     1       9.545   0.023  -6.468  1.00  0.00     0.108 A 
ATOM     93  S   UNL     1      10.124  -0.051  -8.062  1.00  0.00    -0.122 S 
ATOM     94  C   UNL     1      10.476  -0.462  -5.533  1.00  0.00     0.078 A 
ATOM     95  C   UNL     1      11.104  -1.357  -7.636  1.00  0.00     0.011 A 
ATOM     96  C   UNL     1      11.373  -1.383  -6.272  1.00  0.00    -0.019 A 
ATOM     97  C   UNL     1      11.598  -2.322  -8.672  1.00  0.00     0.047 C 
ATOM     98  C   UNL     1      12.412  -2.368  -5.797  1.00  0.00     0.037 C 
ATOM     99  C   UNL     1      12.142  -3.579  -7.990  1.00  0.00     0.006 C 
ATOM    100  C   UNL     1      13.122  -3.165  -6.899  1.00  0.00     0.005 C 
BRANCH  94 101
ATOM    101  C   UNL     1      10.285  -0.020  -4.117  1.00  0.00     0.254 C 
ATOM    102  O   UNL     1       9.571   0.965  -3.880  1.00  0.00    -0.269 OA
ATOM    103  N   UNL     1      10.803  -0.580  -2.975  1.00  0.00    -0.349 N 
ATOM    104  H   UNL     1      10.530  -0.115  -2.152  1.00  0.00     0.164 HD
BRANCH 103 105
ATOM    105  C   UNL     1      11.661  -1.704  -2.737  1.00  0.00     0.082 C 
ATOM    106  C   UNL     1      12.872  -1.384  -1.865  1.00  0.00     0.025 C 
ATOM    107  C   UNL     1      10.934  -2.944  -2.227  1.00  0.00     0.025 C 
ATOM    108  C   UNL     1      13.861  -2.549  -1.962  1.00  0.00     0.002 C 
ATOM    109  C   UNL     1      11.879  -4.148  -2.265  1.00  0.00     0.002 C 
ATOM    110  C   UNL     1      13.219  -3.882  -1.572  1.00  0.00     0.000 C 
ENDBRANCH 103 105
ENDBRANCH  94 101
ENDBRANCH  90  92
ENDBRANCH  83  88
ENDBRANCH  78  81
ENDBRANCH  76  77
ENDBRANCH   1  76
TORSDOF 18
