REMARK SMILES COc1cccc([C@@H]2C[N@@H+](Cc3nccn3C)C[C@H]2C(=O)NCCCCNC(=O)c2ccc(-c3c4nc(c(-c5c(F)cc(S(=O)(=O)[O-])cc5F)c5ccc([nH]5)c(-c5c(F)cc(S(=O)(=O)[O-])cc5F)c5nc(c(-c6c(F)cc(S(=O)(=O)[O-])cc6F)c6ccc3[nH]6)C=C5)C=C4)cc2)c1
REMARK SMILES IDX 25 1 24 2 23 3 22 4 20 5 21 6 19 8 8 9 9 10 10 11 18 12 7 14
REMARK SMILES IDX 3 15 4 16 96 17 5 18 6 19 2 20 1 21 11 22 12 23 13 24 16 25
REMARK SMILES IDX 14 26 15 27 17 28 26 29 27 30 28 31 29 33 30 34 31 35 95 36
REMARK SMILES IDX 32 37 94 38 33 39 34 40 35 41 88 42 36 43 93 44 87 45 89 46
REMARK SMILES IDX 37 47 92 48 86 49 85 50 38 52 72 53 51 54 71 55 52 56 55 57
REMARK SMILES IDX 70 58 90 59 53 60 54 61 69 63 91 64 56 65 39 66 40 67 49 68
REMARK SMILES IDX 41 69 42 70 48 71 50 72 43 73 44 74 45 75 46 76 47 77 73 78
REMARK SMILES IDX 74 79 83 80 75 81 76 82 82 83 84 84 77 85 78 86 79 87 80 88
REMARK SMILES IDX 81 89 57 90 58 91 67 92 59 93 60 94 66 95 68 96 61 97 62 98
REMARK SMILES IDX 63 99 64 100 65 101
REMARK H PARENT 22 7 10 13 27 32 89 51 55 62
REMARK Flexibility Score: inf
ROOT
ATOM      1  C   UNL     1       4.444   5.502   8.140  1.00  0.00     0.023 C 
ENDROOT
BRANCH   1   2
ATOM      2  C   UNL     1       3.953   4.918   6.805  1.00  0.00     0.023 C 
BRANCH   2   3
ATOM      3  C   UNL     1       4.523   3.564   6.362  1.00  0.00     0.116 C 
BRANCH   3   4
ATOM      4  N   UNL     1       3.551   2.810   5.557  1.00  0.00    -0.356 N 
ATOM      5  C   UNL     1       3.839   1.759   4.731  1.00  0.00     0.229 C 
ATOM      6  O   UNL     1       3.718   0.622   5.198  1.00  0.00    -0.275 OA
ATOM      7  H   UNL     1       2.609   3.087   5.618  1.00  0.00     0.163 HD
BRANCH   5   8
ATOM      8  C   UNL     1       4.162   1.926   3.243  1.00  0.00     0.146 C 
ATOM      9  C   UNL     1       3.711   3.173   2.489  1.00  0.00     0.092 C 
ATOM     10  C   UNL     1       4.623   3.160   1.242  1.00  0.00     0.271 C 
ATOM     11  N   UNL     1       5.873   2.485   1.624  1.00  0.00    -0.327 N 
ATOM     12  C   UNL     1       5.628   1.740   2.867  1.00  0.00     0.277 C 
ATOM     13  H   UNL     1       6.139   1.805   0.912  1.00  0.00     0.348 HD
BRANCH   9  14
ATOM     14  C   UNL     1       2.244   3.138   2.093  1.00  0.00    -0.035 A 
ATOM     15  C   UNL     1       0.407   2.067   0.879  1.00  0.00     0.119 A 
ATOM     16  C   UNL     1      -0.449   3.078   1.309  1.00  0.00     0.046 A 
ATOM     17  C   UNL     1       1.743   2.107   1.270  1.00  0.00     0.050 A 
ATOM     18  C   UNL     1       0.023   4.104   2.132  1.00  0.00     0.004 A 
ATOM     19  C   UNL     1       1.363   4.136   2.523  1.00  0.00     0.004 A 
BRANCH  15  20
ATOM     20  O   UNL     1      -0.156   1.114   0.075  1.00  0.00    -0.497 OA
ATOM     21  C   UNL     1       0.619  -0.059  -0.155  1.00  0.00     0.278 C 
ENDBRANCH  15  20
ENDBRANCH   9  14
BRANCH  11  22
ATOM     22  C   UNL     1       7.050   3.369   1.613  1.00  0.00     0.339 C 
BRANCH  22  23
ATOM     23  C   UNL     1       6.851   4.638   2.380  1.00  0.00     0.164 A 
ATOM     24  N   UNL     1       6.276   5.728   1.895  1.00  0.00    -0.236 NA
ATOM     25  N   UNL     1       7.086   4.785   3.724  1.00  0.00    -0.333 N 
ATOM     26  C   UNL     1       5.943   6.487   2.975  1.00  0.00     0.131 A 
ATOM     27  C   UNL     1       6.380   5.882   4.122  1.00  0.00     0.107 A 
ATOM     28  C   UNL     1       7.894   3.949   4.578  1.00  0.00     0.151 C 
ENDBRANCH  22  23
ENDBRANCH  11  22
ENDBRANCH   5   8
ENDBRANCH   3   4
ENDBRANCH   2   3
ENDBRANCH   1   2
BRANCH   1  29
ATOM     29  C   UNL     1       5.932   5.477   8.480  1.00  0.00     0.116 C 
BRANCH  29  30
ATOM     30  N   UNL     1       6.747   6.498   7.835  1.00  0.00    -0.352 N 
ATOM     31  C   UNL     1       7.633   7.415   8.373  1.00  0.00     0.251 C 
ATOM     32  H   UNL     1       6.651   6.544   6.856  1.00  0.00     0.163 HD
ATOM     33  O   UNL     1       8.241   8.183   7.658  1.00  0.00    -0.269 OA
BRANCH  31  34
ATOM     34  C   UNL     1       7.768   7.480   9.842  1.00  0.00     0.039 A 
ATOM     35  C   UNL     1       7.468   8.681  10.489  1.00  0.00     0.014 A 
ATOM     36  C   UNL     1       8.027   6.321  10.567  1.00  0.00     0.014 A 
ATOM     37  C   UNL     1       7.287   8.681  11.873  1.00  0.00     0.010 A 
ATOM     38  C   UNL     1       7.737   6.301  11.925  1.00  0.00     0.010 A 
ATOM     39  C   UNL     1       7.342   7.474  12.591  1.00  0.00    -0.014 A 
BRANCH  39  40
ATOM     40  C   UNL     1       6.963   7.402  14.028  1.00  0.00     0.031 A 
ATOM     41  C   UNL     1       7.942   6.852  15.031  1.00  0.00     0.074 A 
ATOM     42  C   UNL     1       5.710   7.724  14.416  1.00  0.00     0.049 A 
ATOM     43  N   UNL     1       7.761   6.571  16.295  1.00  0.00    -0.248 NA
ATOM     44  C   UNL     1       9.287   6.522  14.531  1.00  0.00     0.031 C 
ATOM     45  C   UNL     1       4.635   8.186  13.533  1.00  0.00     0.029 A 
ATOM     46  N   UNL     1       5.123   7.702  15.657  1.00  0.00    -0.354 N 
ATOM     47  C   UNL     1       8.949   5.993  16.726  1.00  0.00     0.074 A 
ATOM     48  C   UNL     1       9.817   5.901  15.573  1.00  0.00     0.031 C 
ATOM     49  C   UNL     1       3.538   8.443  14.265  1.00  0.00     0.029 A 
ATOM     50  C   UNL     1       3.815   8.130  15.662  1.00  0.00     0.049 A 
ATOM     51  H   UNL     1       5.595   7.407  16.470  1.00  0.00     0.167 HD
ATOM     52  C   UNL     1       9.304   5.609  17.975  1.00  0.00     0.037 A 
ATOM     53  C   UNL     1       2.940   8.260  16.679  1.00  0.00     0.037 A 
ATOM     54  C   UNL     1       8.468   5.776  19.132  1.00  0.00     0.049 A 
ATOM     55  C   UNL     1       3.383   7.904  18.073  1.00  0.00     0.074 A 
ATOM     56  C   UNL     1       8.762   5.501  20.455  1.00  0.00     0.029 A 
ATOM     57  N   UNL     1       7.178   6.286  19.105  1.00  0.00    -0.354 N 
ATOM     58  N   UNL     1       4.534   7.417  18.472  1.00  0.00    -0.248 NA
ATOM     59  C   UNL     1       2.415   8.122  19.157  1.00  0.00     0.031 C 
ATOM     60  C   UNL     1       7.643   5.828  21.228  1.00  0.00     0.029 A 
ATOM     61  C   UNL     1       6.663   6.336  20.389  1.00  0.00     0.049 A 
ATOM     62  H   UNL     1       6.699   6.570  18.293  1.00  0.00     0.167 HD
ATOM     63  C   UNL     1       4.438   7.296  19.854  1.00  0.00     0.074 A 
ATOM     64  C   UNL     1       3.121   7.772  20.224  1.00  0.00     0.031 C 
ATOM     65  C   UNL     1       5.356   6.833  20.737  1.00  0.00     0.037 A 
BRANCH  52  66
ATOM     66  C   UNL     1      10.668   5.001  18.148  1.00  0.00     0.058 A 
ATOM     67  C   UNL     1      11.837   5.767  18.001  1.00  0.00     0.135 A 
ATOM     68  C   UNL     1      10.813   3.640  18.459  1.00  0.00     0.135 A 
ATOM     69  F   UNL     1      11.755   7.070  17.686  1.00  0.00    -0.206 F 
ATOM     70  C   UNL     1      13.099   5.196  18.106  1.00  0.00     0.059 A 
ATOM     71  C   UNL     1      12.068   3.054  18.602  1.00  0.00     0.059 A 
ATOM     72  F   UNL     1       9.731   2.862  18.614  1.00  0.00    -0.206 F 
ATOM     73  C   UNL     1      13.205   3.837  18.401  1.00  0.00     0.060 A 
BRANCH  73  74
ATOM     74  S   UNL     1      14.851   3.105  18.514  1.00  0.00     0.124 S 
ATOM     75  O   UNL     1      15.216   2.998  17.105  1.00  0.00    -0.237 OA
ATOM     76  O   UNL     1      15.586   4.103  19.284  1.00  0.00    -0.237 OA
ATOM     77  O   UNL     1      14.612   1.839  19.200  1.00  0.00    -0.744 OA
ENDBRANCH  73  74
ENDBRANCH  52  66
BRANCH  53  78
ATOM     78  C   UNL     1       1.576   8.801  16.431  1.00  0.00     0.058 A 
ATOM     79  C   UNL     1       1.231  10.094  16.856  1.00  0.00     0.135 A 
ATOM     80  C   UNL     1       0.595   8.049  15.768  1.00  0.00     0.135 A 
ATOM     81  F   UNL     1       2.133  10.850  17.500  1.00  0.00    -0.206 F 
ATOM     82  C   UNL     1      -0.042  10.616  16.650  1.00  0.00     0.059 A 
ATOM     83  C   UNL     1      -0.680   8.558  15.530  1.00  0.00     0.059 A 
ATOM     84  F   UNL     1       0.879   6.815  15.325  1.00  0.00    -0.206 F 
ATOM     85  C   UNL     1      -0.992   9.839  15.985  1.00  0.00     0.060 A 
BRANCH  85  86
ATOM     86  S   UNL     1      -2.628  10.543  15.681  1.00  0.00     0.124 S 
ATOM     87  O   UNL     1      -3.231  10.468  17.006  1.00  0.00    -0.237 OA
ATOM     88  O   UNL     1      -2.302  11.883  15.202  1.00  0.00    -0.237 OA
ATOM     89  O   UNL     1      -3.194   9.649  14.676  1.00  0.00    -0.744 OA
ENDBRANCH  85  86
ENDBRANCH  53  78
BRANCH  65  90
ATOM     90  C   UNL     1       4.988   6.852  22.192  1.00  0.00     0.058 A 
ATOM     91  C   UNL     1       4.096   5.916  22.737  1.00  0.00     0.135 A 
ATOM     92  C   UNL     1       5.588   7.776  23.063  1.00  0.00     0.135 A 
ATOM     93  F   UNL     1       3.493   5.016  21.944  1.00  0.00    -0.206 F 
ATOM     94  C   UNL     1       3.799   5.905  24.095  1.00  0.00     0.059 A 
ATOM     95  C   UNL     1       5.323   7.768  24.428  1.00  0.00     0.059 A 
ATOM     96  F   UNL     1       6.456   8.684  22.590  1.00  0.00    -0.206 F 
ATOM     97  C   UNL     1       4.420   6.834  24.933  1.00  0.00     0.060 A 
BRANCH  97  98
ATOM     98  S   UNL     1       4.063   6.780  26.702  1.00  0.00     0.124 S 
ATOM     99  O   UNL     1       2.738   7.390  26.752  1.00  0.00    -0.237 OA
ATOM    100  O   UNL     1       4.113   5.350  26.989  1.00  0.00    -0.237 OA
ATOM    101  O   UNL     1       5.142   7.569  27.290  1.00  0.00    -0.744 OA
ENDBRANCH  97  98
ENDBRANCH  65  90
ENDBRANCH  39  40
ENDBRANCH  31  34
ENDBRANCH  29  30
ENDBRANCH   1  29
TORSDOF 18
