REMARK SMILES COc1ccc(C(=O)Nc2cc(C(=O)NCCCCNC(=O)c3ccc(-c4c5nc(c(-c6c(F)cc(S(=O)(=O)[O-])cc6F)c6ccc([nH]6)c(-c6c(F)cc(S(=O)(=O)[O-])cc6F)c6nc(c(-c7c(F)cc(S(=O)(=O)[O-])cc7F)c7ccc4[nH]7)C=C6)C=C5)cc3)c(Cl)cc2Cl)cc1Cl
REMARK SMILES IDX 17 1 16 2 15 3 13 4 14 5 12 7 10 8 11 9 92 10 91 11 93 12
REMARK SMILES IDX 89 13 90 14 9 15 7 16 8 17 6 19 3 20 4 21 95 22 5 23 94 24
REMARK SMILES IDX 96 25 2 26 1 27 18 28 19 29 20 30 21 31 22 33 23 34 24 35
REMARK SMILES IDX 88 36 25 37 87 38 26 39 27 40 28 41 81 42 29 43 86 44 80 45
REMARK SMILES IDX 82 46 30 47 85 48 79 49 78 50 31 52 65 53 44 54 64 55 45 56
REMARK SMILES IDX 48 57 63 58 83 59 46 60 47 61 62 63 84 64 49 65 32 66 33 67
REMARK SMILES IDX 42 68 34 69 35 70 41 71 43 72 36 73 37 74 38 75 39 76 40 77
REMARK SMILES IDX 66 78 67 79 76 80 68 81 69 82 75 83 77 84 70 85 71 86 72 87
REMARK SMILES IDX 73 88 74 89 50 90 51 91 60 92 52 93 53 94 59 95 61 96 54 97
REMARK SMILES IDX 55 98 56 99 57 100 58 101
REMARK H PARENT 15 6 9 18 20 32 82 51 48 62
REMARK Flexibility Score: inf
ROOT
ATOM      1  C   UNL     1       6.801  -1.319  -0.363  1.00  0.00     0.023 C 
ENDROOT
BRANCH   1   2
ATOM      2  C   UNL     1       7.142  -1.655   1.086  1.00  0.00     0.116 C 
BRANCH   2   3
ATOM      3  N   UNL     1       6.651  -0.702   2.067  1.00  0.00    -0.352 N 
ATOM      4  C   UNL     1       6.185  -0.897   3.346  1.00  0.00     0.252 C 
ATOM      5  O   UNL     1       5.884   0.079   4.032  1.00  0.00    -0.269 OA
ATOM      6  H   UNL     1       6.652   0.236   1.767  1.00  0.00     0.163 HD
BRANCH   4   7
ATOM      7  C   UNL     1       5.910  -2.244   3.903  1.00  0.00     0.060 A 
ATOM      8  C   UNL     1       4.218  -3.659   4.975  1.00  0.00     0.061 A 
ATOM      9  C   UNL     1       4.625  -2.421   4.464  1.00  0.00     0.043 A 
ATOM     10  C   UNL     1       5.145  -4.714   4.977  1.00  0.00     0.066 A 
ATOM     11  C   UNL     1       6.438  -4.534   4.483  1.00  0.00     0.044 A 
ATOM     12  Cl  UNL     1       4.713  -6.282   5.570  1.00  0.00    -0.082 Cl
ATOM     13  C   UNL     1       6.834  -3.290   3.980  1.00  0.00     0.055 A 
ATOM     14  Cl  UNL     1       8.509  -3.116   3.604  1.00  0.00    -0.083 Cl
BRANCH   8  15
ATOM     15  N   UNL     1       2.939  -3.893   5.526  1.00  0.00    -0.321 N 
ATOM     16  C   UNL     1       1.718  -3.273   5.399  1.00  0.00     0.255 C 
ATOM     17  O   UNL     1       0.846  -3.512   6.236  1.00  0.00    -0.269 OA
ATOM     18  H   UNL     1       2.917  -4.669   6.132  1.00  0.00     0.170 HD
BRANCH  16  19
ATOM     19  C   UNL     1       1.363  -2.424   4.233  1.00  0.00     0.041 A 
ATOM     20  C   UNL     1       0.642  -0.773   2.050  1.00  0.00     0.137 A 
ATOM     21  C   UNL     1      -0.014  -0.677   3.289  1.00  0.00     0.049 A 
ATOM     22  C   UNL     1       1.647  -1.737   1.908  1.00  0.00     0.083 A 
ATOM     23  C   UNL     1       0.345  -1.482   4.374  1.00  0.00     0.018 A 
ATOM     24  C   UNL     1       1.952  -2.591   2.978  1.00  0.00     0.038 A 
ATOM     25  Cl  UNL     1       2.639  -1.969   0.511  1.00  0.00    -0.080 Cl
BRANCH  20  26
ATOM     26  O   UNL     1       0.153   0.139   1.159  1.00  0.00    -0.495 OA
ATOM     27  C   UNL     1       0.583   0.126  -0.192  1.00  0.00     0.278 C 
ENDBRANCH  20  26
ENDBRANCH  16  19
ENDBRANCH   8  15
ENDBRANCH   4   7
ENDBRANCH   2   3
ENDBRANCH   1   2
BRANCH   1  28
ATOM     28  C   UNL     1       7.340   0.001  -0.916  1.00  0.00     0.023 C 
BRANCH  28  29
ATOM     29  C   UNL     1       8.815   0.310  -0.673  1.00  0.00     0.116 C 
BRANCH  29  30
ATOM     30  N   UNL     1       9.732  -0.698  -1.186  1.00  0.00    -0.352 N 
ATOM     31  C   UNL     1      10.860  -0.542  -1.962  1.00  0.00     0.251 C 
ATOM     32  H   UNL     1       9.515  -1.626  -0.942  1.00  0.00     0.163 HD
ATOM     33  O   UNL     1      11.487  -1.531  -2.335  1.00  0.00    -0.269 OA
BRANCH  31  34
ATOM     34  C   UNL     1      11.287   0.809  -2.391  1.00  0.00     0.039 A 
ATOM     35  C   UNL     1      11.566   1.032  -3.743  1.00  0.00     0.014 A 
ATOM     36  C   UNL     1      11.366   1.863  -1.478  1.00  0.00     0.014 A 
ATOM     37  C   UNL     1      11.816   2.331  -4.196  1.00  0.00     0.010 A 
ATOM     38  C   UNL     1      11.540   3.164  -1.942  1.00  0.00     0.010 A 
ATOM     39  C   UNL     1      11.748   3.416  -3.308  1.00  0.00    -0.014 A 
BRANCH  39  40
ATOM     40  C   UNL     1      11.862   4.824  -3.775  1.00  0.00     0.031 A 
ATOM     41  C   UNL     1      12.975   5.698  -3.266  1.00  0.00     0.074 A 
ATOM     42  C   UNL     1      10.906   5.347  -4.571  1.00  0.00     0.049 A 
ATOM     43  N   UNL     1      13.156   6.984  -3.423  1.00  0.00    -0.248 NA
ATOM     44  C   UNL     1      14.003   5.043  -2.441  1.00  0.00     0.031 C 
ATOM     45  C   UNL     1       9.749   4.620  -5.098  1.00  0.00     0.029 A 
ATOM     46  N   UNL     1      10.742   6.622  -5.057  1.00  0.00    -0.354 N 
ATOM     47  C   UNL     1      14.298   7.298  -2.695  1.00  0.00     0.074 A 
ATOM     48  C   UNL     1      14.743   6.075  -2.062  1.00  0.00     0.031 C 
ATOM     49  C   UNL     1       9.003   5.454  -5.841  1.00  0.00     0.029 A 
ATOM     50  C   UNL     1       9.602   6.785  -5.811  1.00  0.00     0.049 A 
ATOM     51  H   UNL     1      11.381   7.350  -4.883  1.00  0.00     0.167 HD
ATOM     52  C   UNL     1      14.928   8.491  -2.579  1.00  0.00     0.037 A 
ATOM     53  C   UNL     1       9.088   7.884  -6.398  1.00  0.00     0.037 A 
ATOM     54  C   UNL     1      14.503   9.697  -3.241  1.00  0.00     0.049 A 
ATOM     55  C   UNL     1       9.816   9.195  -6.271  1.00  0.00     0.074 A 
ATOM     56  C   UNL     1      15.107  10.942  -3.232  1.00  0.00     0.029 A 
ATOM     57  N   UNL     1      13.372   9.807  -4.036  1.00  0.00    -0.354 N 
ATOM     58  N   UNL     1      10.920   9.463  -5.614  1.00  0.00    -0.248 NA
ATOM     59  C   UNL     1       9.234  10.351  -6.966  1.00  0.00     0.031 C 
ATOM     60  C   UNL     1      14.324  11.814  -3.997  1.00  0.00     0.029 A 
ATOM     61  C   UNL     1      13.255  11.101  -4.517  1.00  0.00     0.049 A 
ATOM     62  H   UNL     1      12.744   9.074  -4.231  1.00  0.00     0.167 HD
ATOM     63  C   UNL     1      11.181  10.809  -5.844  1.00  0.00     0.074 A 
ATOM     64  C   UNL     1      10.122  11.300  -6.703  1.00  0.00     0.031 C 
ATOM     65  C   UNL     1      12.206  11.569  -5.388  1.00  0.00     0.037 A 
BRANCH  52  66
ATOM     66  C   UNL     1      16.151   8.548  -1.705  1.00  0.00     0.058 A 
ATOM     67  C   UNL     1      17.356   7.937  -2.086  1.00  0.00     0.135 A 
ATOM     68  C   UNL     1      16.126   9.241  -0.484  1.00  0.00     0.135 A 
ATOM     69  F   UNL     1      17.431   7.249  -3.237  1.00  0.00    -0.206 F 
ATOM     70  C   UNL     1      18.483   7.979  -1.272  1.00  0.00     0.059 A 
ATOM     71  C   UNL     1      17.249   9.320   0.334  1.00  0.00     0.059 A 
ATOM     72  F   UNL     1      15.000   9.845  -0.072  1.00  0.00    -0.206 F 
ATOM     73  C   UNL     1      18.418   8.671  -0.061  1.00  0.00     0.060 A 
BRANCH  73  74
ATOM     74  S   UNL     1      19.887   8.713   0.987  1.00  0.00     0.124 S 
ATOM     75  O   UNL     1      19.885   7.363   1.543  1.00  0.00    -0.237 OA
ATOM     76  O   UNL     1      20.949   9.002   0.029  1.00  0.00    -0.237 OA
ATOM     77  O   UNL     1      19.596   9.783   1.937  1.00  0.00    -0.744 OA
ENDBRANCH  73  74
ENDBRANCH  52  66
BRANCH  53  78
ATOM     78  C   UNL     1       7.826   7.788  -7.180  1.00  0.00     0.058 A 
ATOM     79  C   UNL     1       7.841   7.880  -8.579  1.00  0.00     0.135 A 
ATOM     80  C   UNL     1       6.588   7.590  -6.551  1.00  0.00     0.135 A 
ATOM     81  F   UNL     1       9.000   8.076  -9.226  1.00  0.00    -0.206 F 
ATOM     82  C   UNL     1       6.672   7.794  -9.329  1.00  0.00     0.059 A 
ATOM     83  C   UNL     1       5.407   7.478  -7.279  1.00  0.00     0.059 A 
ATOM     84  F   UNL     1       6.522   7.479  -5.215  1.00  0.00    -0.206 F 
ATOM     85  C   UNL     1       5.459   7.591  -8.669  1.00  0.00     0.060 A 
BRANCH  85  86
ATOM     86  S   UNL     1       3.953   7.427  -9.653  1.00  0.00     0.124 S 
ATOM     87  O   UNL     1       3.711   8.808 -10.052  1.00  0.00    -0.237 OA
ATOM     88  O   UNL     1       4.377   6.520 -10.715  1.00  0.00    -0.237 OA
ATOM     89  O   UNL     1       2.994   6.864  -8.706  1.00  0.00    -0.744 OA
ENDBRANCH  85  86
ENDBRANCH  53  78
BRANCH  65  90
ATOM     90  C   UNL     1      12.269  12.999  -5.844  1.00  0.00     0.058 A 
ATOM     91  C   UNL     1      11.410  13.979  -5.325  1.00  0.00     0.135 A 
ATOM     92  C   UNL     1      13.250  13.405  -6.763  1.00  0.00     0.135 A 
ATOM     93  F   UNL     1      10.450  13.641  -4.449  1.00  0.00    -0.206 F 
ATOM     94  C   UNL     1      11.511  15.311  -5.714  1.00  0.00     0.059 A 
ATOM     95  C   UNL     1      13.385  14.735  -7.148  1.00  0.00     0.059 A 
ATOM     96  F   UNL     1      14.103  12.507  -7.282  1.00  0.00    -0.206 F 
ATOM     97  C   UNL     1      12.504  15.680  -6.624  1.00  0.00     0.060 A 
BRANCH  97  98
ATOM     98  S   UNL     1      12.658  17.419  -7.084  1.00  0.00     0.124 S 
ATOM     99  O   UNL     1      11.530  17.583  -7.995  1.00  0.00    -0.237 OA
ATOM    100  O   UNL     1      12.536  18.096  -5.796  1.00  0.00    -0.237 OA
ATOM    101  O   UNL     1      13.979  17.492  -7.700  1.00  0.00    -0.744 OA
ENDBRANCH  97  98
ENDBRANCH  65  90
ENDBRANCH  39  40
ENDBRANCH  31  34
ENDBRANCH  29  30
ENDBRANCH  28  29
ENDBRANCH   1  28
TORSDOF 17
