REMARK SMILES Cc1nc(-c2ccccc2Cl)nc2sc(C(=O)NCCCCNC(=O)c3ccc(-c4c5nc(c(-c6c(F)cc(S(=O)(=O)[O-])cc6F)c6ccc([nH]6)c(-c6c(F)cc(S(=O)(=O)[O-])cc6F)c6nc(c(-c7c(F)cc(S(=O)(=O)[O-])cc7F)c7ccc4[nH]7)C=C6)C=C5)cc3)c(N)c12
REMARK SMILES IDX 21 1 20 2 19 3 18 4 16 5 17 6 15 8 1 9 2 10 3 11 94 12 4 13
REMARK SMILES IDX 13 14 92 15 12 16 14 17 5 18 6 19 10 20 7 21 9 22 11 23 8 24
REMARK SMILES IDX 93 25 22 28 23 29 24 30 25 32 26 33 27 34 91 35 28 36 90 37
REMARK SMILES IDX 29 38 30 39 31 40 84 41 32 42 89 43 83 44 85 45 33 46 88 47
REMARK SMILES IDX 82 48 81 49 34 51 68 52 47 53 67 54 48 55 51 56 66 57 86 58
REMARK SMILES IDX 49 59 50 60 65 62 87 63 52 64 35 65 36 66 45 67 37 68 38 69
REMARK SMILES IDX 44 70 46 71 39 72 40 73 41 74 42 75 43 76 69 77 70 78 79 79
REMARK SMILES IDX 71 80 72 81 78 82 80 83 73 84 74 85 75 86 76 87 77 88 53 89
REMARK SMILES IDX 54 90 63 91 55 92 56 93 62 94 64 95 57 96 58 97 59 98 60 99
REMARK SMILES IDX 61 100
REMARK H PARENT 18 7 93 26 93 27 23 31 85 50 51 61
REMARK Flexibility Score: inf
ROOT
ATOM      1  C   UNL     1       0.630   6.340   7.348  1.00  0.00     0.023 C 
ENDROOT
BRANCH   1   2
ATOM      2  C   UNL     1       0.262   5.074   6.563  1.00  0.00     0.023 C 
BRANCH   2   3
ATOM      3  C   UNL     1      -0.723   5.275   5.398  1.00  0.00     0.116 C 
BRANCH   3   4
ATOM      4  N   UNL     1      -0.064   5.718   4.174  1.00  0.00    -0.351 N 
ATOM      5  C   UNL     1       0.425   5.042   3.070  1.00  0.00     0.263 C 
ATOM      6  O   UNL     1       0.810   5.767   2.145  1.00  0.00    -0.268 OA
ATOM      7  H   UNL     1       0.056   6.694   4.124  1.00  0.00     0.163 HD
BRANCH   5   8
ATOM      8  C   UNL     1       0.459   3.584   2.961  1.00  0.00     0.118 A 
ATOM      9  C   UNL     1       0.852   0.119  -0.168  1.00  0.00     0.067 C 
ATOM     10  C   UNL     1       0.440   0.210   1.269  1.00  0.00     0.052 A 
ATOM     11  N   UNL     1       0.079  -0.971   1.865  1.00  0.00    -0.233 NA
ATOM     12  C   UNL     1       0.443   1.390   2.048  1.00  0.00     0.056 A 
ATOM     13  C   UNL     1      -0.215  -0.981   3.178  1.00  0.00     0.162 A 
ATOM     14  C   UNL     1       0.193   1.191   3.393  1.00  0.00     0.130 A 
ATOM     15  C   UNL     1       0.632   2.806   1.813  1.00  0.00     0.067 A 
ATOM     16  N   UNL     1      -0.141   0.056   4.005  1.00  0.00    -0.217 NA
ATOM     17  S   UNL     1       0.411   2.568   4.325  1.00  0.00    -0.108 S 
BRANCH  13  18
ATOM     18  C   UNL     1      -0.679  -2.206   3.814  1.00  0.00     0.038 A 
ATOM     19  C   UNL     1      -2.029  -2.298   4.219  1.00  0.00     0.013 A 
ATOM     20  C   UNL     1       0.197  -3.231   4.197  1.00  0.00     0.052 A 
ATOM     21  C   UNL     1      -2.483  -3.370   4.989  1.00  0.00     0.001 A 
ATOM     22  C   UNL     1      -0.260  -4.305   4.969  1.00  0.00     0.021 A 
ATOM     23  Cl  UNL     1       1.884  -3.187   3.810  1.00  0.00    -0.084 Cl
ATOM     24  C   UNL     1      -1.595  -4.371   5.369  1.00  0.00     0.002 A 
ENDBRANCH  13  18
BRANCH  15  25
ATOM     25  N   UNL     1       0.880   3.356   0.602  1.00  0.00    -0.397 N 
ATOM     26  H   UNL     1       0.999   4.330   0.519  1.00  0.00     0.156 HD
ATOM     27  H   UNL     1       0.942   2.783  -0.195  1.00  0.00     0.156 HD
ENDBRANCH  15  25
ENDBRANCH   5   8
ENDBRANCH   3   4
ENDBRANCH   2   3
ENDBRANCH   1   2
BRANCH   1  28
ATOM     28  C   UNL     1      -0.520   6.967   8.125  1.00  0.00     0.116 C 
BRANCH  28  29
ATOM     29  N   UNL     1      -1.071   6.094   9.164  1.00  0.00    -0.352 N 
ATOM     30  C   UNL     1      -2.209   6.311   9.928  1.00  0.00     0.251 C 
ATOM     31  H   UNL     1      -0.579   5.259   9.340  1.00  0.00     0.163 HD
ATOM     32  O   UNL     1      -2.351   5.777  11.016  1.00  0.00    -0.269 OA
BRANCH  30  33
ATOM     33  C   UNL     1      -3.252   7.194   9.371  1.00  0.00     0.039 A 
ATOM     34  C   UNL     1      -3.916   8.148  10.144  1.00  0.00     0.014 A 
ATOM     35  C   UNL     1      -3.503   7.078   8.007  1.00  0.00     0.014 A 
ATOM     36  C   UNL     1      -4.776   9.037   9.501  1.00  0.00     0.010 A 
ATOM     37  C   UNL     1      -4.185   8.069   7.356  1.00  0.00     0.010 A 
ATOM     38  C   UNL     1      -4.885   9.006   8.097  1.00  0.00    -0.014 A 
BRANCH  38  39
ATOM     39  C   UNL     1      -5.664  10.000   7.371  1.00  0.00     0.031 A 
ATOM     40  C   UNL     1      -5.343  11.405   7.725  1.00  0.00     0.074 A 
ATOM     41  C   UNL     1      -6.498   9.703   6.350  1.00  0.00     0.049 A 
ATOM     42  N   UNL     1      -6.014  12.176   8.512  1.00  0.00    -0.248 NA
ATOM     43  C   UNL     1      -4.045  11.960   7.316  1.00  0.00     0.031 C 
ATOM     44  C   UNL     1      -6.730   8.420   5.674  1.00  0.00     0.029 A 
ATOM     45  N   UNL     1      -7.312  10.546   5.660  1.00  0.00    -0.354 N 
ATOM     46  C   UNL     1      -5.362  13.403   8.499  1.00  0.00     0.074 A 
ATOM     47  C   UNL     1      -4.065  13.149   7.927  1.00  0.00     0.031 C 
ATOM     48  C   UNL     1      -7.465   8.614   4.555  1.00  0.00     0.029 A 
ATOM     49  C   UNL     1      -7.914   9.993   4.535  1.00  0.00     0.049 A 
ATOM     50  H   UNL     1      -7.463  11.479   5.937  1.00  0.00     0.167 HD
ATOM     51  C   UNL     1      -6.049  14.556   8.736  1.00  0.00     0.037 A 
ATOM     52  C   UNL     1      -8.761  10.614   3.675  1.00  0.00     0.037 A 
ATOM     53  C   UNL     1      -7.345  14.266   9.310  1.00  0.00     0.049 A 
ATOM     54  C   UNL     1      -9.354  11.753   4.424  1.00  0.00     0.074 A 
ATOM     55  C   UNL     1      -7.778  13.637  10.462  1.00  0.00     0.029 A 
ATOM     56  N   UNL     1      -8.431  14.279   8.465  1.00  0.00    -0.354 N 
ATOM     57  N   UNL     1     -10.142  11.602   5.456  1.00  0.00    -0.248 NA
ATOM     58  C   UNL     1      -8.682  13.039   4.334  1.00  0.00     0.031 C 
ATOM     59  C   UNL     1      -8.920  12.880  10.062  1.00  0.00     0.029 A 
ATOM     60  C   UNL     1      -9.166  13.148   8.713  1.00  0.00     0.049 A 
ATOM     61  H   UNL     1      -8.642  14.975   7.802  1.00  0.00     0.167 HD
ATOM     62  C   UNL     1      -9.744  12.582   6.355  1.00  0.00     0.074 A 
ATOM     63  C   UNL     1      -8.890  13.481   5.577  1.00  0.00     0.031 C 
ATOM     64  C   UNL     1      -9.913  12.426   7.702  1.00  0.00     0.037 A 
BRANCH  51  65
ATOM     65  C   UNL     1      -5.739  15.897   8.107  1.00  0.00     0.058 A 
ATOM     66  C   UNL     1      -6.497  17.022   8.496  1.00  0.00     0.135 A 
ATOM     67  C   UNL     1      -4.947  16.074   6.950  1.00  0.00     0.135 A 
ATOM     68  F   UNL     1      -7.274  16.980   9.591  1.00  0.00    -0.206 F 
ATOM     69  C   UNL     1      -6.550  18.191   7.736  1.00  0.00     0.059 A 
ATOM     70  C   UNL     1      -4.946  17.249   6.206  1.00  0.00     0.059 A 
ATOM     71  F   UNL     1      -4.207  15.092   6.425  1.00  0.00    -0.206 F 
ATOM     72  C   UNL     1      -5.785  18.284   6.579  1.00  0.00     0.060 A 
BRANCH  72  73
ATOM     73  S   UNL     1      -5.947  19.738   5.530  1.00  0.00     0.124 S 
ATOM     74  O   UNL     1      -7.321  19.605   5.061  1.00  0.00    -0.237 OA
ATOM     75  O   UNL     1      -5.694  20.819   6.477  1.00  0.00    -0.237 OA
ATOM     76  O   UNL     1      -4.912  19.540   4.520  1.00  0.00    -0.744 OA
ENDBRANCH  72  73
ENDBRANCH  51  65
BRANCH  52  77
ATOM     77  C   UNL     1      -8.789  10.524   2.189  1.00  0.00     0.058 A 
ATOM     78  C   UNL     1      -9.842  11.086   1.442  1.00  0.00     0.135 A 
ATOM     79  C   UNL     1      -7.643  10.152   1.458  1.00  0.00     0.135 A 
ATOM     80  F   UNL     1     -10.966  11.485   2.057  1.00  0.00    -0.206 F 
ATOM     81  C   UNL     1      -9.743  11.317   0.063  1.00  0.00     0.059 A 
ATOM     82  C   UNL     1      -7.522  10.370   0.084  1.00  0.00     0.059 A 
ATOM     83  F   UNL     1      -6.566   9.647   2.078  1.00  0.00    -0.206 F 
ATOM     84  C   UNL     1      -8.567  10.977  -0.604  1.00  0.00     0.060 A 
BRANCH  84  85
ATOM     85  S   UNL     1      -8.370  11.424  -2.348  1.00  0.00     0.124 S 
ATOM     86  O   UNL     1      -9.370  10.579  -2.992  1.00  0.00    -0.237 OA
ATOM     87  O   UNL     1      -8.658  12.854  -2.333  1.00  0.00    -0.237 OA
ATOM     88  O   UNL     1      -6.981  11.074  -2.633  1.00  0.00    -0.744 OA
ENDBRANCH  84  85
ENDBRANCH  52  77
BRANCH  64  89
ATOM     89  C   UNL     1     -10.780  11.288   8.190  1.00  0.00     0.058 A 
ATOM     90  C   UNL     1     -10.461   9.924   8.048  1.00  0.00     0.135 A 
ATOM     91  C   UNL     1     -11.891  11.599   8.987  1.00  0.00     0.135 A 
ATOM     92  F   UNL     1      -9.367   9.538   7.380  1.00  0.00    -0.206 F 
ATOM     93  C   UNL     1     -11.225   8.919   8.650  1.00  0.00     0.059 A 
ATOM     94  C   UNL     1     -12.650  10.617   9.619  1.00  0.00     0.059 A 
ATOM     95  F   UNL     1     -12.218  12.883   9.210  1.00  0.00    -0.206 F 
ATOM     96  C   UNL     1     -12.316   9.277   9.441  1.00  0.00     0.060 A 
BRANCH  96  97
ATOM     97  S   UNL     1     -13.252   7.984  10.288  1.00  0.00     0.124 S 
ATOM     98  O   UNL     1     -13.902   7.295   9.178  1.00  0.00    -0.237 OA
ATOM     99  O   UNL     1     -12.205   7.232  10.974  1.00  0.00    -0.237 OA
ATOM    100  O   UNL     1     -14.149   8.730  11.168  1.00  0.00    -0.744 OA
ENDBRANCH  96  97
ENDBRANCH  64  89
ENDBRANCH  38  39
ENDBRANCH  30  33
ENDBRANCH  28  29
ENDBRANCH   1  28
TORSDOF 16
