REMARK SMILES CN(CC(C)(C)O)C(=O)NC[C@@H](C(=O)NCCCCNC(=O)c1ccc(-c2c3nc(c(-c4c(F)cc(S(=O)(=O)[O-])cc4F)c4ccc([nH]4)c(-c4c(F)cc(S(=O)(=O)[O-])cc4F)c4nc(c(-c5c(F)cc(S(=O)(=O)[O-])cc5F)c5ccc2[nH]5)C=C4)C=C3)cc1)c1ccccc1
REMARK SMILES IDX 16 1 15 2 13 3 14 4 12 6 11 7 10 8 8 9 9 10 2 12 1 13 3 14
REMARK SMILES IDX 4 15 5 16 6 17 7 18 89 20 90 21 94 22 91 23 93 24 92 25
REMARK SMILES IDX 17 26 18 27 19 28 20 29 21 30 22 32 23 33 24 34 88 35 25 36
REMARK SMILES IDX 87 37 26 38 27 39 28 40 81 41 29 42 86 43 80 44 82 45 30 46
REMARK SMILES IDX 85 47 79 48 78 49 31 51 65 52 44 53 64 54 45 55 48 56 63 57
REMARK SMILES IDX 83 58 46 59 47 60 62 62 84 63 49 64 32 65 33 66 42 67 34 68
REMARK SMILES IDX 35 69 41 70 43 71 36 72 37 73 38 74 39 75 40 76 66 77 67 78
REMARK SMILES IDX 76 79 68 80 69 81 75 82 77 83 70 84 71 85 72 86 73 87 74 88
REMARK SMILES IDX 50 89 51 90 60 91 52 92 53 93 59 94 61 95 54 96 55 97 56 98
REMARK SMILES IDX 57 99 58 100
REMARK H PARENT 15 5 10 11 7 19 20 31 82 50 48 61
REMARK Flexibility Score: inf
ROOT
ATOM      1  C   UNL     1      -0.249  -2.614  -5.016  1.00  0.00     0.116 C 
ENDROOT
BRANCH   1   2
ATOM      2  N   UNL     1      -0.646  -4.003  -5.155  1.00  0.00    -0.356 N 
ATOM      3  C   UNL     1      -1.031  -4.913  -4.213  1.00  0.00     0.229 C 
ATOM      4  O   UNL     1      -1.097  -6.087  -4.582  1.00  0.00    -0.274 OA
ATOM      5  H   UNL     1      -0.636  -4.344  -6.079  1.00  0.00     0.163 HD
BRANCH   3   6
ATOM      6  C   UNL     1      -1.396  -4.459  -2.786  1.00  0.00     0.128 C 
BRANCH   6   7
ATOM      7  C   UNL     1      -0.181  -4.401  -1.825  1.00  0.00     0.136 C 
BRANCH   7   8
ATOM      8  N   UNL     1       0.719  -3.261  -1.972  1.00  0.00    -0.337 N 
ATOM      9  C   UNL     1       0.968  -2.036  -1.497  1.00  0.00     0.317 C 
ATOM     10  O   UNL     1       1.831  -1.426  -2.142  1.00  0.00    -0.249 OA
ATOM     11  H   UNL     1       1.380  -3.469  -2.671  1.00  0.00     0.165 HD
BRANCH   9  12
ATOM     12  N   UNL     1       0.368  -1.460  -0.422  1.00  0.00    -0.325 N 
ATOM     13  C   UNL     1       0.760  -0.078  -0.142  1.00  0.00     0.148 C 
BRANCH  12  14
ATOM     14  C   UNL     1      -0.582  -2.032   0.531  1.00  0.00     0.155 C 
BRANCH  14  15
ATOM     15  C   UNL     1      -2.018  -1.446   0.468  1.00  0.00     0.077 C 
ATOM     16  C   UNL     1      -2.524  -1.245  -0.957  1.00  0.00     0.043 C 
ATOM     17  C   UNL     1      -2.959  -2.372   1.247  1.00  0.00     0.043 C 
BRANCH  15  18
ATOM     18  O   UNL     1      -2.044  -0.170   1.123  1.00  0.00    -0.389 OA
ATOM     19  H   UNL     1      -1.457   0.445   0.656  1.00  0.00     0.211 HD
ENDBRANCH  15  18
ENDBRANCH  14  15
ENDBRANCH  12  14
ENDBRANCH   9  12
ENDBRANCH   7   8
ENDBRANCH   6   7
BRANCH   6  20
ATOM     20  C   UNL     1      -2.436  -5.386  -2.131  1.00  0.00    -0.034 A 
ATOM     21  C   UNL     1      -3.652  -4.878  -1.653  1.00  0.00     0.004 A 
ATOM     22  C   UNL     1      -2.143  -6.742  -1.897  1.00  0.00     0.004 A 
ATOM     23  C   UNL     1      -4.518  -5.686  -0.909  1.00  0.00     0.000 A 
ATOM     24  C   UNL     1      -3.016  -7.551  -1.170  1.00  0.00     0.000 A 
ATOM     25  C   UNL     1      -4.194  -7.018  -0.660  1.00  0.00     0.000 A 
ENDBRANCH   6  20
ENDBRANCH   3   6
ENDBRANCH   1   2
BRANCH   1  26
ATOM     26  C   UNL     1       1.270  -2.478  -5.131  1.00  0.00     0.023 C 
BRANCH  26  27
ATOM     27  C   UNL     1       1.833  -2.675  -6.532  1.00  0.00     0.023 C 
BRANCH  27  28
ATOM     28  C   UNL     1       1.392  -1.630  -7.540  1.00  0.00     0.116 C 
BRANCH  28  29
ATOM     29  N   UNL     1       1.815  -0.279  -7.189  1.00  0.00    -0.352 N 
ATOM     30  C   UNL     1       2.468   0.643  -7.978  1.00  0.00     0.251 C 
ATOM     31  H   UNL     1       1.608   0.011  -6.272  1.00  0.00     0.163 HD
ATOM     32  O   UNL     1       2.852   1.710  -7.520  1.00  0.00    -0.269 OA
BRANCH  30  33
ATOM     33  C   UNL     1       2.736   0.286  -9.385  1.00  0.00     0.039 A 
ATOM     34  C   UNL     1       4.053   0.294  -9.847  1.00  0.00     0.014 A 
ATOM     35  C   UNL     1       1.696  -0.185 -10.190  1.00  0.00     0.014 A 
ATOM     36  C   UNL     1       4.343  -0.270 -11.090  1.00  0.00     0.010 A 
ATOM     37  C   UNL     1       2.000  -0.824 -11.384  1.00  0.00     0.010 A 
ATOM     38  C   UNL     1       3.327  -0.885 -11.840  1.00  0.00    -0.014 A 
BRANCH  38  39
ATOM     39  C   UNL     1       3.615  -1.611 -13.102  1.00  0.00     0.031 A 
ATOM     40  C   UNL     1       2.981  -1.143 -14.383  1.00  0.00     0.074 A 
ATOM     41  C   UNL     1       4.359  -2.735 -13.081  1.00  0.00     0.049 A 
ATOM     42  N   UNL     1       2.959  -1.722 -15.554  1.00  0.00    -0.248 NA
ATOM     43  C   UNL     1       2.241   0.130 -14.326  1.00  0.00     0.031 C 
ATOM     44  C   UNL     1       4.996  -3.314 -11.895  1.00  0.00     0.029 A 
ATOM     45  N   UNL     1       4.695  -3.604 -14.089  1.00  0.00    -0.354 N 
ATOM     46  C   UNL     1       2.189  -0.898 -16.366  1.00  0.00     0.074 A 
ATOM     47  C   UNL     1       1.717   0.192 -15.541  1.00  0.00     0.031 C 
ATOM     48  C   UNL     1       5.661  -4.427 -12.248  1.00  0.00     0.029 A 
ATOM     49  C   UNL     1       5.462  -4.667 -13.673  1.00  0.00     0.049 A 
ATOM     50  H   UNL     1       4.412  -3.478 -15.024  1.00  0.00     0.167 HD
ATOM     51  C   UNL     1       1.921  -1.025 -17.686  1.00  0.00     0.037 A 
ATOM     52  C   UNL     1       5.938  -5.723 -14.361  1.00  0.00     0.037 A 
ATOM     53  C   UNL     1       2.427  -2.088 -18.511  1.00  0.00     0.049 A 
ATOM     54  C   UNL     1       5.619  -5.845 -15.827  1.00  0.00     0.074 A 
ATOM     55  C   UNL     1       2.252  -2.280 -19.870  1.00  0.00     0.029 A 
ATOM     56  N   UNL     1       3.219  -3.131 -18.056  1.00  0.00    -0.354 N 
ATOM     57  N   UNL     1       4.912  -5.041 -16.586  1.00  0.00    -0.248 NA
ATOM     58  C   UNL     1       6.154  -7.020 -16.530  1.00  0.00     0.031 C 
ATOM     59  C   UNL     1       2.921  -3.454 -20.233  1.00  0.00     0.029 A 
ATOM     60  C   UNL     1       3.536  -3.976 -19.105  1.00  0.00     0.049 A 
ATOM     61  H   UNL     1       3.513  -3.252 -17.124  1.00  0.00     0.167 HD
ATOM     62  C   UNL     1       4.936  -5.601 -17.858  1.00  0.00     0.074 A 
ATOM     63  C   UNL     1       5.736  -6.806 -17.770  1.00  0.00     0.031 C 
ATOM     64  C   UNL     1       4.346  -5.162 -18.996  1.00  0.00     0.037 A 
BRANCH  51  65
ATOM     65  C   UNL     1       1.059   0.029 -18.320  1.00  0.00     0.058 A 
ATOM     66  C   UNL     1       1.543   1.327 -18.548  1.00  0.00     0.135 A 
ATOM     67  C   UNL     1      -0.253  -0.264 -18.724  1.00  0.00     0.135 A 
ATOM     68  F   UNL     1       2.783   1.663 -18.161  1.00  0.00    -0.206 F 
ATOM     69  C   UNL     1       0.747   2.307 -19.130  1.00  0.00     0.059 A 
ATOM     70  C   UNL     1      -1.059   0.695 -19.332  1.00  0.00     0.059 A 
ATOM     71  F   UNL     1      -0.765  -1.488 -18.525  1.00  0.00    -0.206 F 
ATOM     72  C   UNL     1      -0.553   1.982 -19.517  1.00  0.00     0.060 A 
BRANCH  72  73
ATOM     73  S   UNL     1      -1.572   3.263 -20.278  1.00  0.00     0.124 S 
ATOM     74  O   UNL     1      -1.929   4.075 -19.119  1.00  0.00    -0.237 OA
ATOM     75  O   UNL     1      -0.646   3.881 -21.222  1.00  0.00    -0.237 OA
ATOM     76  O   UNL     1      -2.668   2.512 -20.881  1.00  0.00    -0.744 OA
ENDBRANCH  72  73
ENDBRANCH  51  65
BRANCH  52  77
ATOM     77  C   UNL     1       6.775  -6.749 -13.684  1.00  0.00     0.058 A 
ATOM     78  C   UNL     1       8.148  -6.847 -13.957  1.00  0.00     0.135 A 
ATOM     79  C   UNL     1       6.223  -7.660 -12.771  1.00  0.00     0.135 A 
ATOM     80  F   UNL     1       8.719  -6.002 -14.829  1.00  0.00    -0.206 F 
ATOM     81  C   UNL     1       8.941  -7.826 -13.368  1.00  0.00     0.059 A 
ATOM     82  C   UNL     1       7.000  -8.634 -12.151  1.00  0.00     0.059 A 
ATOM     83  F   UNL     1       4.918  -7.598 -12.464  1.00  0.00    -0.206 F 
ATOM     84  C   UNL     1       8.356  -8.719 -12.468  1.00  0.00     0.060 A 
BRANCH  84  85
ATOM     85  S   UNL     1       9.396  -9.974 -11.690  1.00  0.00     0.124 S 
ATOM     86  O   UNL     1       9.543 -10.943 -12.769  1.00  0.00    -0.237 OA
ATOM     87  O   UNL     1      10.595  -9.214 -11.347  1.00  0.00    -0.237 OA
ATOM     88  O   UNL     1       8.594 -10.411 -10.551  1.00  0.00    -0.744 OA
ENDBRANCH  84  85
ENDBRANCH  52  77
BRANCH  64  89
ATOM     89  C   UNL     1       4.563  -5.969 -20.242  1.00  0.00     0.058 A 
ATOM     90  C   UNL     1       3.877  -7.171 -20.463  1.00  0.00     0.135 A 
ATOM     91  C   UNL     1       5.413  -5.497 -21.255  1.00  0.00     0.135 A 
ATOM     92  F   UNL     1       3.059  -7.666 -19.520  1.00  0.00    -0.206 F 
ATOM     93  C   UNL     1       4.031  -7.886 -21.645  1.00  0.00     0.059 A 
ATOM     94  C   UNL     1       5.567  -6.186 -22.454  1.00  0.00     0.059 A 
ATOM     95  F   UNL     1       6.086  -4.347 -21.093  1.00  0.00    -0.206 F 
ATOM     96  C   UNL     1       4.876  -7.383 -22.637  1.00  0.00     0.060 A 
BRANCH  96  97
ATOM     97  S   UNL     1       5.024  -8.290 -24.191  1.00  0.00     0.124 S 
ATOM     98  O   UNL     1       5.892  -9.397 -23.803  1.00  0.00    -0.237 OA
ATOM     99  O   UNL     1       3.638  -8.643 -24.483  1.00  0.00    -0.237 OA
ATOM    100  O   UNL     1       5.619  -7.313 -25.098  1.00  0.00    -0.744 OA
ENDBRANCH  96  97
ENDBRANCH  64  89
ENDBRANCH  38  39
ENDBRANCH  30  33
ENDBRANCH  28  29
ENDBRANCH  27  28
ENDBRANCH  26  27
ENDBRANCH   1  26
TORSDOF 21
