REMARK SMILES O=C(NCCCCNC(=O)[C@H]1CC2(CCN(C(=O)c3cccc(O)c3)CC2)CN1C(=O)C1CC1)c1ccc(-c2c3nc(c(-c4c(F)cc(S(=O)(=O)[O-])cc4F)c4ccc([nH]4)c(-c4c(F)cc(S(=O)(=O)[O-])cc4F)c4nc(c(-c5c(F)cc(S(=O)(=O)[O-])cc5F)c5ccc2[nH]5)C=C4)C=C3)cc1
REMARK SMILES IDX 5 1 4 2 3 3 1 4 2 5 35 7 36 8 100 9 37 10 99 11 38 12 39 13
REMARK SMILES IDX 40 14 93 15 41 16 98 17 92 18 94 19 42 20 97 21 91 22 90 23
REMARK SMILES IDX 43 25 77 26 56 27 76 28 57 29 60 30 75 31 95 32 58 33 59 34
REMARK SMILES IDX 74 36 96 37 61 38 44 39 45 40 54 41 46 42 47 43 53 44 55 45
REMARK SMILES IDX 48 46 49 47 50 48 51 49 52 50 78 51 79 52 88 53 80 54 81 55
REMARK SMILES IDX 87 56 89 57 82 58 83 59 84 60 85 61 86 62 62 63 63 64 72 65
REMARK SMILES IDX 64 66 65 67 71 68 73 69 66 70 67 71 68 72 69 73 70 74 6 75
REMARK SMILES IDX 7 76 8 77 9 78 10 80 11 81 12 82 29 83 13 84 28 85 14 86
REMARK SMILES IDX 27 87 15 88 26 89 16 90 17 91 18 92 30 93 31 94 32 95 33 96
REMARK SMILES IDX 34 97 19 98 20 99 25 100 21 101 23 102 22 103 24 104
REMARK H PARENT 3 6 94 24 60 35 8 79 24 105
REMARK Flexibility Score: inf
ROOT
ATOM      1  C   UNL     1       9.800  -3.888  -5.095  1.00  0.00     0.023 C 
ENDROOT
BRANCH   1   2
ATOM      2  C   UNL     1       9.456  -3.134  -6.374  1.00  0.00     0.116 C 
BRANCH   2   3
ATOM      3  N   UNL     1       9.270  -1.705  -6.175  1.00  0.00    -0.352 N 
ATOM      4  O   UNL     1       9.476   0.494  -6.629  1.00  0.00    -0.269 OA
ATOM      5  C   UNL     1       9.637  -0.666  -6.999  1.00  0.00     0.251 C 
ATOM      6  H   UNL     1       8.822  -1.446  -5.337  1.00  0.00     0.163 HD
BRANCH   5   7
ATOM      7  C   UNL     1      10.267  -0.955  -8.306  1.00  0.00     0.039 A 
ATOM      8  C   UNL     1       9.742  -1.931  -9.156  1.00  0.00     0.014 A 
ATOM      9  C   UNL     1      11.424  -0.259  -8.667  1.00  0.00     0.014 A 
ATOM     10  C   UNL     1      10.458  -2.321 -10.282  1.00  0.00     0.010 A 
ATOM     11  C   UNL     1      12.101  -0.599  -9.842  1.00  0.00     0.010 A 
ATOM     12  C   UNL     1      11.649  -1.665 -10.635  1.00  0.00    -0.014 A 
BRANCH  12  13
ATOM     13  C   UNL     1      12.395  -2.107 -11.842  1.00  0.00     0.031 A 
ATOM     14  C   UNL     1      13.764  -2.723 -11.725  1.00  0.00     0.074 A 
ATOM     15  C   UNL     1      11.811  -1.987 -13.050  1.00  0.00     0.049 A 
ATOM     16  N   UNL     1      14.533  -3.204 -12.668  1.00  0.00    -0.248 NA
ATOM     17  C   UNL     1      14.349  -2.801 -10.377  1.00  0.00     0.031 C 
ATOM     18  C   UNL     1      10.492  -1.398 -13.291  1.00  0.00     0.029 A 
ATOM     19  N   UNL     1      12.236  -2.373 -14.294  1.00  0.00    -0.354 N 
ATOM     20  C   UNL     1      15.701  -3.617 -12.036  1.00  0.00     0.074 A 
ATOM     21  C   UNL     1      15.547  -3.311 -10.630  1.00  0.00     0.031 C 
ATOM     22  C   UNL     1      10.193  -1.509 -14.594  1.00  0.00     0.029 A 
ATOM     23  C   UNL     1      11.317  -2.130 -15.287  1.00  0.00     0.049 A 
ATOM     24  H   UNL     1      13.114  -2.784 -14.461  1.00  0.00     0.167 HD
ATOM     25  C   UNL     1      16.797  -4.203 -12.578  1.00  0.00     0.037 A 
ATOM     26  C   UNL     1      11.371  -2.376 -16.609  1.00  0.00     0.037 A 
ATOM     27  C   UNL     1      16.935  -4.530 -13.974  1.00  0.00     0.049 A 
ATOM     28  C   UNL     1      12.593  -3.033 -17.184  1.00  0.00     0.074 A 
ATOM     29  C   UNL     1      17.989  -5.163 -14.611  1.00  0.00     0.029 A 
ATOM     30  N   UNL     1      15.991  -4.249 -14.951  1.00  0.00    -0.354 N 
ATOM     31  N   UNL     1      13.674  -3.443 -16.566  1.00  0.00    -0.248 NA
ATOM     32  C   UNL     1      12.602  -3.259 -18.635  1.00  0.00     0.031 C 
ATOM     33  C   UNL     1      17.697  -5.234 -15.979  1.00  0.00     0.029 A 
ATOM     34  C   UNL     1      16.444  -4.681 -16.188  1.00  0.00     0.049 A 
ATOM     35  H   UNL     1      15.126  -3.808 -14.790  1.00  0.00     0.167 HD
ATOM     36  C   UNL     1      14.485  -3.997 -17.549  1.00  0.00     0.074 A 
ATOM     37  C   UNL     1      13.764  -3.876 -18.801  1.00  0.00     0.031 C 
ATOM     38  C   UNL     1      15.713  -4.557 -17.425  1.00  0.00     0.037 A 
BRANCH  25  39
ATOM     39  C   UNL     1      17.948  -4.507 -11.657  1.00  0.00     0.058 A 
ATOM     40  C   UNL     1      17.892  -5.550 -10.719  1.00  0.00     0.135 A 
ATOM     41  C   UNL     1      19.131  -3.753 -11.727  1.00  0.00     0.135 A 
ATOM     42  F   UNL     1      16.780  -6.293 -10.600  1.00  0.00    -0.206 F 
ATOM     43  C   UNL     1      18.953  -5.811  -9.857  1.00  0.00     0.059 A 
ATOM     44  C   UNL     1      20.214  -4.012 -10.892  1.00  0.00     0.059 A 
ATOM     45  F   UNL     1      19.240  -2.747 -12.609  1.00  0.00    -0.206 F 
ATOM     46  C   UNL     1      20.108  -5.031  -9.946  1.00  0.00     0.060 A 
BRANCH  46  47
ATOM     47  S   UNL     1      21.469  -5.362  -8.806  1.00  0.00     0.124 S 
ATOM     48  O   UNL     1      20.965  -4.762  -7.574  1.00  0.00    -0.237 OA
ATOM     49  O   UNL     1      21.541  -6.819  -8.816  1.00  0.00    -0.237 OA
ATOM     50  O   UNL     1      22.601  -4.677  -9.422  1.00  0.00    -0.744 OA
ENDBRANCH  46  47
ENDBRANCH  25  39
BRANCH  26  51
ATOM     51  C   UNL     1      10.213  -2.022 -17.467  1.00  0.00     0.058 A 
ATOM     52  C   UNL     1       9.375  -3.017 -17.989  1.00  0.00     0.135 A 
ATOM     53  C   UNL     1       9.892  -0.683 -17.740  1.00  0.00     0.135 A 
ATOM     54  F   UNL     1       9.645  -4.311 -17.757  1.00  0.00    -0.206 F 
ATOM     55  C   UNL     1       8.259  -2.699 -18.755  1.00  0.00     0.059 A 
ATOM     56  C   UNL     1       8.768  -0.339 -18.483  1.00  0.00     0.059 A 
ATOM     57  F   UNL     1      10.655   0.305 -17.246  1.00  0.00    -0.206 F 
ATOM     58  C   UNL     1       7.960  -1.355 -18.991  1.00  0.00     0.060 A 
BRANCH  58  59
ATOM     59  S   UNL     1       6.467  -0.949 -19.921  1.00  0.00     0.124 S 
ATOM     60  O   UNL     1       6.880  -1.251 -21.286  1.00  0.00    -0.237 OA
ATOM     61  O   UNL     1       5.483  -1.854 -19.335  1.00  0.00    -0.237 OA
ATOM     62  O   UNL     1       6.261   0.465 -19.620  1.00  0.00    -0.744 OA
ENDBRANCH  58  59
ENDBRANCH  26  51
BRANCH  38  63
ATOM     63  C   UNL     1      16.340  -5.114 -18.671  1.00  0.00     0.058 A 
ATOM     64  C   UNL     1      16.880  -4.279 -19.661  1.00  0.00     0.135 A 
ATOM     65  C   UNL     1      16.422  -6.502 -18.864  1.00  0.00     0.135 A 
ATOM     66  F   UNL     1      16.819  -2.945 -19.528  1.00  0.00    -0.206 F 
ATOM     67  C   UNL     1      17.458  -4.802 -20.814  1.00  0.00     0.059 A 
ATOM     68  C   UNL     1      17.016  -7.047 -19.998  1.00  0.00     0.059 A 
ATOM     69  F   UNL     1      15.928  -7.343 -17.942  1.00  0.00    -0.206 F 
ATOM     70  C   UNL     1      17.518  -6.187 -20.975  1.00  0.00     0.060 A 
BRANCH  70  71
ATOM     71  S   UNL     1      18.285  -6.858 -22.465  1.00  0.00     0.124 S 
ATOM     72  O   UNL     1      17.226  -6.669 -23.450  1.00  0.00    -0.237 OA
ATOM     73  O   UNL     1      19.460  -6.007 -22.626  1.00  0.00    -0.237 OA
ATOM     74  O   UNL     1      18.569  -8.244 -22.104  1.00  0.00    -0.744 OA
ENDBRANCH  70  71
ENDBRANCH  38  63
ENDBRANCH  12  13
ENDBRANCH   5   7
ENDBRANCH   2   3
ENDBRANCH   1   2
BRANCH   1  75
ATOM     75  C   UNL     1       8.789  -3.741  -3.958  1.00  0.00     0.023 C 
BRANCH  75  76
ATOM     76  C   UNL     1       7.343  -4.046  -4.344  1.00  0.00     0.116 C 
BRANCH  76  77
ATOM     77  N   UNL     1       7.148  -5.416  -4.797  1.00  0.00    -0.354 N 
ATOM     78  C   UNL     1       6.718  -6.508  -4.081  1.00  0.00     0.242 C 
ATOM     79  H   UNL     1       7.351  -5.582  -5.746  1.00  0.00     0.163 HD
ATOM     80  O   UNL     1       6.551  -7.579  -4.663  1.00  0.00    -0.273 OA
BRANCH  78  81
ATOM     81  C   UNL     1       6.370  -6.291  -2.601  1.00  0.00     0.175 C 
ATOM     82  C   UNL     1       4.903  -5.834  -2.597  1.00  0.00     0.044 C 
ATOM     83  N   UNL     1       6.369  -7.393  -1.650  1.00  0.00    -0.330 N 
ATOM     84  C   UNL     1       4.338  -6.176  -1.207  1.00  0.00    -0.006 C 
ATOM     85  C   UNL     1       5.335  -7.204  -0.647  1.00  0.00     0.127 C 
ATOM     86  C   UNL     1       2.932  -6.804  -1.324  1.00  0.00     0.030 C 
ATOM     87  C   UNL     1       4.250  -4.920  -0.311  1.00  0.00     0.030 C 
ATOM     88  C   UNL     1       1.906  -5.794  -1.823  1.00  0.00     0.120 C 
ATOM     89  C   UNL     1       3.147  -3.947  -0.748  1.00  0.00     0.120 C 
ATOM     90  N   UNL     1       1.871  -4.630  -0.939  1.00  0.00    -0.339 N 
ATOM     91  C   UNL     1       0.708  -4.022  -0.467  1.00  0.00     0.253 C 
ATOM     92  O   UNL     1       0.683  -2.909   0.053  1.00  0.00    -0.269 OA
BRANCH  83  93
ATOM     93  C   UNL     1       7.409  -8.254  -1.340  1.00  0.00     0.226 C 
ATOM     94  O   UNL     1       7.461  -8.837  -0.259  1.00  0.00    -0.275 OA
BRANCH  93  95
ATOM     95  C   UNL     1       8.423  -8.610  -2.365  1.00  0.00     0.079 C 
ATOM     96  C   UNL     1       9.332  -7.683  -3.123  1.00  0.00     0.014 C 
ATOM     97  C   UNL     1       9.886  -8.461  -1.977  1.00  0.00     0.014 C 
ENDBRANCH  93  95
ENDBRANCH  83  93
BRANCH  91  98
ATOM     98  C   UNL     1      -0.573  -4.751  -0.578  1.00  0.00     0.043 A 
ATOM     99  C   UNL     1      -0.736  -5.996   0.043  1.00  0.00     0.014 A 
ATOM    100  C   UNL     1      -1.631  -4.160  -1.270  1.00  0.00     0.060 A 
ATOM    101  C   UNL     1      -1.950  -6.674  -0.075  1.00  0.00     0.005 A 
ATOM    102  C   UNL     1      -2.836  -4.845  -1.375  1.00  0.00     0.116 A 
ATOM    103  C   UNL     1      -3.002  -6.100  -0.791  1.00  0.00     0.046 A 
BRANCH 102 104
ATOM    104  O   UNL     1      -3.847  -4.248  -2.069  1.00  0.00    -0.508 OA
ATOM    105  H   UNL     1      -4.673  -4.682  -2.160  1.00  0.00     0.293 HD
ENDBRANCH 102 104
ENDBRANCH  91  98
ENDBRANCH  78  81
ENDBRANCH  76  77
ENDBRANCH  75  76
ENDBRANCH   1  75
TORSDOF 18
