REMARK SMILES CC1(C)CCC[C@@H]1Nc1nc2c(cc1C(=O)NCCCCNC(=O)c1ccc(-c3c4nc(c(-c5c(F)cc(S(=O)(=O)[O-])cc5F)c5ccc([nH]5)c(-c5c(F)cc(S(=O)(=O)[O-])cc5F)c5nc(c(-c6c(F)cc(S(=O)(=O)[O-])cc6F)c6ccc3[nH]6)C=C5)C=C4)cc1)CCC2
REMARK SMILES IDX 20 1 19 2 18 3 17 4 15 5 16 6 14 8 9 9 10 10 11 11 13 12
REMARK SMILES IDX 12 13 93 14 91 15 92 16 8 17 7 19 1 20 2 21 3 22 4 23 5 24
REMARK SMILES IDX 6 25 21 26 22 27 23 28 24 30 25 31 26 32 90 33 27 34 89 35
REMARK SMILES IDX 28 36 29 37 30 38 83 39 31 40 88 41 82 42 84 43 32 44 87 45
REMARK SMILES IDX 81 46 80 47 33 49 67 50 46 51 66 52 47 53 50 54 65 55 85 56
REMARK SMILES IDX 48 57 49 58 64 60 86 61 51 62 34 63 35 64 44 65 36 66 37 67
REMARK SMILES IDX 43 68 45 69 38 70 39 71 40 72 41 73 42 74 68 75 69 76 78 77
REMARK SMILES IDX 70 78 71 79 77 80 79 81 72 82 73 83 74 84 75 85 76 86 52 87
REMARK SMILES IDX 53 88 62 89 54 90 55 91 61 92 63 93 56 94 57 95 58 96 59 97
REMARK SMILES IDX 60 98
REMARK H PARENT 17 7 8 18 22 29 84 48 50 59
REMARK Flexibility Score: inf
ROOT
ATOM      1  C   UNL     1       3.357   1.200   2.879  1.00  0.00     0.023 C 
ENDROOT
BRANCH   1   2
ATOM      2  C   UNL     1       3.065   2.317   1.857  1.00  0.00     0.023 C 
BRANCH   2   3
ATOM      3  C   UNL     1       1.646   2.470   1.319  1.00  0.00     0.116 C 
BRANCH   3   4
ATOM      4  N   UNL     1       0.666   3.100   2.164  1.00  0.00    -0.352 N 
ATOM      5  C   UNL     1      -0.542   3.677   1.827  1.00  0.00     0.255 C 
ATOM      6  O   UNL     1      -1.325   3.888   2.760  1.00  0.00    -0.269 OA
ATOM      7  H   UNL     1       0.891   3.123   3.122  1.00  0.00     0.163 HD
BRANCH   5   8
ATOM      8  C   UNL     1      -0.926   4.208   0.477  1.00  0.00     0.082 A 
ATOM      9  C   UNL     1      -0.859   3.622  -0.799  1.00  0.00     0.139 A 
ATOM     10  N   UNL     1      -1.234   4.291  -1.928  1.00  0.00    -0.235 NA
ATOM     11  C   UNL     1      -1.760   5.509  -1.797  1.00  0.00     0.046 A 
ATOM     12  C   UNL     1      -1.504   5.507   0.554  1.00  0.00     0.023 A 
ATOM     13  C   UNL     1      -1.931   6.149  -0.593  1.00  0.00    -0.025 A 
ATOM     14  C   UNL     1      -2.332   6.296  -2.937  1.00  0.00     0.057 C 
ATOM     15  C   UNL     1      -2.649   7.443  -0.777  1.00  0.00     0.038 C 
ATOM     16  C   UNL     1      -2.468   7.679  -2.289  1.00  0.00     0.011 C 
BRANCH   9  17
ATOM     17  N   UNL     1      -0.487   2.386  -1.210  1.00  0.00    -0.366 N 
ATOM     18  H   UNL     1       0.011   2.368  -2.060  1.00  0.00     0.162 HD
BRANCH  17  19
ATOM     19  C   UNL     1      -0.699   1.106  -0.613  1.00  0.00     0.086 C 
ATOM     20  C   UNL     1       1.588   0.227  -1.426  1.00  0.00     0.013 C 
ATOM     21  C   UNL     1       0.073   0.005  -1.392  1.00  0.00    -0.015 C 
ATOM     22  C   UNL     1      -0.335  -0.175  -2.874  1.00  0.00     0.013 C 
ATOM     23  C   UNL     1      -0.420  -1.207  -0.586  1.00  0.00     0.008 C 
ATOM     24  C   UNL     1      -1.931  -0.937  -0.405  1.00  0.00     0.003 C 
ATOM     25  C   UNL     1      -2.127   0.581  -0.598  1.00  0.00     0.025 C 
ENDBRANCH  17  19
ENDBRANCH   9  17
ENDBRANCH   5   8
ENDBRANCH   3   4
ENDBRANCH   2   3
ENDBRANCH   1   2
BRANCH   1  26
ATOM     26  C   UNL     1       2.571  -0.116   2.834  1.00  0.00     0.116 C 
BRANCH  26  27
ATOM     27  N   UNL     1       2.720  -0.876   1.601  1.00  0.00    -0.352 N 
ATOM     28  C   UNL     1       3.234  -2.123   1.340  1.00  0.00     0.251 C 
ATOM     29  H   UNL     1       2.389  -0.406   0.801  1.00  0.00     0.163 HD
ATOM     30  O   UNL     1       3.307  -2.549   0.201  1.00  0.00    -0.269 OA
BRANCH  28  31
ATOM     31  C   UNL     1       3.703  -2.934   2.468  1.00  0.00     0.039 A 
ATOM     32  C   UNL     1       5.033  -3.357   2.495  1.00  0.00     0.014 A 
ATOM     33  C   UNL     1       2.828  -3.194   3.522  1.00  0.00     0.014 A 
ATOM     34  C   UNL     1       5.524  -3.953   3.653  1.00  0.00     0.010 A 
ATOM     35  C   UNL     1       3.334  -3.725   4.694  1.00  0.00     0.010 A 
ATOM     36  C   UNL     1       4.688  -4.087   4.771  1.00  0.00    -0.014 A 
BRANCH  36  37
ATOM     37  C   UNL     1       5.204  -4.576   6.064  1.00  0.00     0.031 A 
ATOM     38  C   UNL     1       4.714  -5.885   6.598  1.00  0.00     0.074 A 
ATOM     39  C   UNL     1       6.004  -3.772   6.789  1.00  0.00     0.049 A 
ATOM     40  N   UNL     1       4.941  -6.438   7.758  1.00  0.00    -0.248 NA
ATOM     41  C   UNL     1       3.813  -6.655   5.724  1.00  0.00     0.031 C 
ATOM     42  C   UNL     1       6.471  -2.446   6.373  1.00  0.00     0.029 A 
ATOM     43  N   UNL     1       6.548  -3.939   8.034  1.00  0.00    -0.354 N 
ATOM     44  C   UNL     1       4.199  -7.611   7.762  1.00  0.00     0.074 A 
ATOM     45  C   UNL     1       3.470  -7.661   6.514  1.00  0.00     0.031 C 
ATOM     46  C   UNL     1       7.244  -1.928   7.340  1.00  0.00     0.029 A 
ATOM     47  C   UNL     1       7.305  -2.871   8.451  1.00  0.00     0.049 A 
ATOM     48  H   UNL     1       6.410  -4.748   8.578  1.00  0.00     0.167 HD
ATOM     49  C   UNL     1       4.153  -8.569   8.716  1.00  0.00     0.037 A 
ATOM     50  C   UNL     1       7.973  -2.682   9.605  1.00  0.00     0.037 A 
ATOM     51  C   UNL     1       4.908  -8.502   9.938  1.00  0.00     0.049 A 
ATOM     52  C   UNL     1       7.941  -3.773  10.635  1.00  0.00     0.074 A 
ATOM     53  C   UNL     1       4.999  -9.438  10.950  1.00  0.00     0.029 A 
ATOM     54  N   UNL     1       5.706  -7.427  10.310  1.00  0.00    -0.354 N 
ATOM     55  N   UNL     1       7.292  -4.914  10.600  1.00  0.00    -0.248 NA
ATOM     56  C   UNL     1       8.730  -3.563  11.854  1.00  0.00     0.031 C 
ATOM     57  C   UNL     1       5.832  -8.917  11.947  1.00  0.00     0.029 A 
ATOM     58  C   UNL     1       6.285  -7.670  11.542  1.00  0.00     0.049 A 
ATOM     59  H   UNL     1       5.840  -6.611   9.774  1.00  0.00     0.167 HD
ATOM     60  C   UNL     1       7.603  -5.567  11.785  1.00  0.00     0.074 A 
ATOM     61  C   UNL     1       8.510  -4.696  12.510  1.00  0.00     0.031 C 
ATOM     62  C   UNL     1       7.179  -6.774  12.235  1.00  0.00     0.037 A 
BRANCH  49  63
ATOM     63  C   UNL     1       3.268  -9.754   8.454  1.00  0.00     0.058 A 
ATOM     64  C   UNL     1       3.582 -10.697   7.460  1.00  0.00     0.135 A 
ATOM     65  C   UNL     1       2.080  -9.938   9.178  1.00  0.00     0.135 A 
ATOM     66  F   UNL     1       4.695 -10.557   6.723  1.00  0.00    -0.206 F 
ATOM     67  C   UNL     1       2.727 -11.753   7.163  1.00  0.00     0.059 A 
ATOM     68  C   UNL     1       1.224 -11.004   8.916  1.00  0.00     0.059 A 
ATOM     69  F   UNL     1       1.730  -9.066  10.136  1.00  0.00    -0.206 F 
ATOM     70  C   UNL     1       1.546 -11.893   7.891  1.00  0.00     0.060 A 
BRANCH  70  71
ATOM     71  S   UNL     1       0.432 -13.251   7.472  1.00  0.00     0.124 S 
ATOM     72  O   UNL     1      -0.154 -12.771   6.225  1.00  0.00    -0.237 OA
ATOM     73  O   UNL     1       1.349 -14.380   7.347  1.00  0.00    -0.237 OA
ATOM     74  O   UNL     1      -0.477 -13.309   8.612  1.00  0.00    -0.744 OA
ENDBRANCH  70  71
ENDBRANCH  49  63
BRANCH  50  75
ATOM     75  C   UNL     1       8.765  -1.440   9.794  1.00  0.00     0.058 A 
ATOM     76  C   UNL     1      10.161  -1.458   9.661  1.00  0.00     0.135 A 
ATOM     77  C   UNL     1       8.145  -0.200  10.015  1.00  0.00     0.135 A 
ATOM     78  F   UNL     1      10.798  -2.620   9.450  1.00  0.00    -0.206 F 
ATOM     79  C   UNL     1      10.915  -0.291   9.728  1.00  0.00     0.059 A 
ATOM     80  C   UNL     1       8.877   0.984  10.071  1.00  0.00     0.059 A 
ATOM     81  F   UNL     1       6.810  -0.127  10.130  1.00  0.00    -0.206 F 
ATOM     82  C   UNL     1      10.263   0.927   9.921  1.00  0.00     0.060 A 
BRANCH  82  83
ATOM     83  S   UNL     1      11.245   2.444   9.900  1.00  0.00     0.124 S 
ATOM     84  O   UNL     1      11.968   2.346  11.163  1.00  0.00    -0.237 OA
ATOM     85  O   UNL     1      12.044   2.272   8.691  1.00  0.00    -0.237 OA
ATOM     86  O   UNL     1      10.236   3.497   9.830  1.00  0.00    -0.744 OA
ENDBRANCH  82  83
ENDBRANCH  50  75
BRANCH  62  87
ATOM     87  C   UNL     1       7.692  -7.223  13.572  1.00  0.00     0.058 A 
ATOM     88  C   UNL     1       7.171  -6.697  14.763  1.00  0.00     0.135 A 
ATOM     89  C   UNL     1       8.648  -8.247  13.660  1.00  0.00     0.135 A 
ATOM     90  F   UNL     1       6.261  -5.712  14.727  1.00  0.00    -0.206 F 
ATOM     91  C   UNL     1       7.587  -7.169  16.002  1.00  0.00     0.059 A 
ATOM     92  C   UNL     1       9.062  -8.749  14.888  1.00  0.00     0.059 A 
ATOM     93  F   UNL     1       9.166  -8.786  12.545  1.00  0.00    -0.206 F 
ATOM     94  C   UNL     1       8.528  -8.200  16.054  1.00  0.00     0.060 A 
BRANCH  94  95
ATOM     95  S   UNL     1       9.014  -8.843  17.669  1.00  0.00     0.124 S 
ATOM     96  O   UNL     1       9.873  -7.773  18.165  1.00  0.00    -0.237 OA
ATOM     97  O   UNL     1       7.729  -8.991  18.346  1.00  0.00    -0.237 OA
ATOM     98  O   UNL     1       9.693 -10.095  17.345  1.00  0.00    -0.744 OA
ENDBRANCH  94  95
ENDBRANCH  62  87
ENDBRANCH  36  37
ENDBRANCH  28  31
ENDBRANCH  26  27
ENDBRANCH   1  26
TORSDOF 16
