REMARK SMILES C[N@@H+]1CCN(C(=O)c2cnn3c2CCCC3)C[C@@H]1C(=O)NCCCCNC(=O)c1ccc(-c2c3nc(c(-c4c(F)cc(S(=O)(=O)[O-])cc4F)c4ccc([nH]4)c(-c4c(F)cc(S(=O)(=O)[O-])cc4F)c4nc(c(-c5c(F)cc(S(=O)(=O)[O-])cc5F)c5ccc2[nH]5)C=C4)C=C3)cc1
REMARK SMILES IDX 24 1 23 2 22 3 21 4 19 5 20 6 18 8 1 9 2 10 3 11 4 13 17 14
REMARK SMILES IDX 5 15 6 16 7 17 8 18 9 19 12 20 10 21 11 22 13 23 16 24 14 25
REMARK SMILES IDX 15 26 25 27 26 28 27 29 28 31 29 32 30 33 94 34 31 35 93 36
REMARK SMILES IDX 32 37 33 38 34 39 87 40 35 41 92 42 86 43 88 44 36 45 91 46
REMARK SMILES IDX 85 47 84 48 37 50 71 51 50 52 70 53 51 54 54 55 69 56 89 57
REMARK SMILES IDX 52 58 53 59 68 61 90 62 55 63 38 64 39 65 48 66 40 67 41 68
REMARK SMILES IDX 47 69 49 70 42 71 43 72 44 73 45 74 46 75 72 76 73 77 82 78
REMARK SMILES IDX 74 79 75 80 81 81 83 82 76 83 77 84 78 85 79 86 80 87 56 88
REMARK SMILES IDX 57 89 66 90 58 91 59 92 65 93 67 94 60 95 61 96 62 97 63 98
REMARK SMILES IDX 64 99
REMARK H PARENT 21 7 2 12 26 30 88 49 54 60
REMARK Flexibility Score: inf
ROOT
ATOM      1  C   UNL     1       4.482  -1.362   3.411  1.00  0.00     0.023 C 
ENDROOT
BRANCH   1   2
ATOM      2  C   UNL     1       4.117  -1.616   1.942  1.00  0.00     0.023 C 
BRANCH   2   3
ATOM      3  C   UNL     1       2.810  -2.377   1.681  1.00  0.00     0.116 C 
BRANCH   3   4
ATOM      4  N   UNL     1       1.654  -1.730   2.268  1.00  0.00    -0.351 N 
ATOM      5  C   UNL     1       0.554  -1.145   1.709  1.00  0.00     0.280 C 
ATOM      6  O   UNL     1      -0.280  -0.703   2.505  1.00  0.00    -0.268 OA
ATOM      7  H   UNL     1       1.663  -1.708   3.253  1.00  0.00     0.163 HD
BRANCH   5   8
ATOM      8  C   UNL     1       0.380  -1.029   0.173  1.00  0.00     0.293 C 
ATOM      9  C   UNL     1       2.338   0.438  -0.215  1.00  0.00     0.333 C 
ATOM     10  N   UNL     1       0.915   0.245  -0.403  1.00  0.00    -0.324 N 
ATOM     11  C   UNL     1       0.161   1.411   0.095  1.00  0.00     0.284 C 
ATOM     12  H   UNL     1       0.780   0.159  -1.410  1.00  0.00     0.348 HD
ATOM     13  C   UNL     1      -1.329   1.315  -0.249  1.00  0.00     0.181 C 
ATOM     14  C   UNL     1      -1.130  -1.150  -0.182  1.00  0.00     0.195 C 
ATOM     15  N   UNL     1      -1.912   0.048   0.175  1.00  0.00    -0.326 N 
BRANCH  15  16
ATOM     16  C   UNL     1      -3.186   0.068   0.734  1.00  0.00     0.257 C 
ATOM     17  O   UNL     1      -3.817   1.117   0.870  1.00  0.00    -0.269 OA
BRANCH  16  18
ATOM     18  C   UNL     1      -3.807  -1.200   1.050  1.00  0.00     0.081 A 
ATOM     19  C   UNL     1      -3.409  -2.226   1.934  1.00  0.00     0.149 A 
ATOM     20  C   UNL     1      -5.019  -1.639   0.548  1.00  0.00     0.051 A 
ATOM     21  N   UNL     1      -4.239  -3.271   1.913  1.00  0.00    -0.180 NA
ATOM     22  N   UNL     1      -5.247  -2.857   1.129  1.00  0.00    -0.269 N 
ATOM     23  C   UNL     1      -5.995  -1.012  -0.382  1.00  0.00     0.057 C 
ATOM     24  C   UNL     1      -6.400  -3.703   0.879  1.00  0.00     0.144 C 
ATOM     25  C   UNL     1      -6.986  -2.038  -0.932  1.00  0.00     0.008 C 
ATOM     26  C   UNL     1      -7.529  -2.929   0.190  1.00  0.00     0.024 C 
ENDBRANCH  16  18
ENDBRANCH  15  16
ENDBRANCH   5   8
ENDBRANCH   3   4
ENDBRANCH   2   3
ENDBRANCH   1   2
BRANCH   1  27
ATOM     27  C   UNL     1       4.804  -2.627   4.186  1.00  0.00     0.116 C 
BRANCH  27  28
ATOM     28  N   UNL     1       5.964  -3.329   3.638  1.00  0.00    -0.352 N 
ATOM     29  C   UNL     1       6.508  -4.534   4.047  1.00  0.00     0.251 C 
ATOM     30  H   UNL     1       6.416  -2.888   2.882  1.00  0.00     0.163 HD
ATOM     31  O   UNL     1       7.646  -4.843   3.747  1.00  0.00    -0.269 OA
BRANCH  29  32
ATOM     32  C   UNL     1       5.665  -5.431   4.857  1.00  0.00     0.039 A 
ATOM     33  C   UNL     1       6.167  -6.070   5.995  1.00  0.00     0.014 A 
ATOM     34  C   UNL     1       4.333  -5.570   4.484  1.00  0.00     0.014 A 
ATOM     35  C   UNL     1       5.287  -6.785   6.804  1.00  0.00     0.010 A 
ATOM     36  C   UNL     1       3.445  -6.132   5.362  1.00  0.00     0.010 A 
ATOM     37  C   UNL     1       3.921  -6.794   6.491  1.00  0.00    -0.014 A 
BRANCH  37  38
ATOM     38  C   UNL     1       2.938  -7.388   7.394  1.00  0.00     0.031 A 
ATOM     39  C   UNL     1       2.929  -6.807   8.769  1.00  0.00     0.074 A 
ATOM     40  C   UNL     1       1.943  -8.177   6.929  1.00  0.00     0.049 A 
ATOM     41  N   UNL     1       3.205  -7.391   9.889  1.00  0.00    -0.248 NA
ATOM     42  C   UNL     1       2.737  -5.351   8.901  1.00  0.00     0.031 C 
ATOM     43  C   UNL     1       1.655  -8.536   5.532  1.00  0.00     0.029 A 
ATOM     44  N   UNL     1       0.882  -8.711   7.587  1.00  0.00    -0.354 N 
ATOM     45  C   UNL     1       2.969  -6.441  10.885  1.00  0.00     0.074 A 
ATOM     46  C   UNL     1       2.915  -5.173  10.211  1.00  0.00     0.031 C 
ATOM     47  C   UNL     1       0.384  -8.980   5.430  1.00  0.00     0.029 A 
ATOM     48  C   UNL     1      -0.168  -9.112   6.764  1.00  0.00     0.049 A 
ATOM     49  H   UNL     1       0.856  -8.807   8.566  1.00  0.00     0.167 HD
ATOM     50  C   UNL     1       2.562  -6.812  12.134  1.00  0.00     0.037 A 
ATOM     51  C   UNL     1      -1.413  -9.487   7.152  1.00  0.00     0.037 A 
ATOM     52  C   UNL     1       2.800  -8.221  12.346  1.00  0.00     0.049 A 
ATOM     53  C   UNL     1      -1.320  -9.841   8.594  1.00  0.00     0.074 A 
ATOM     54  C   UNL     1       3.912  -9.041  12.311  1.00  0.00     0.029 A 
ATOM     55  N   UNL     1       1.716  -9.064  12.275  1.00  0.00    -0.354 N 
ATOM     56  N   UNL     1      -0.623 -10.846   9.052  1.00  0.00    -0.248 NA
ATOM     57  C   UNL     1      -1.615  -8.797   9.562  1.00  0.00     0.031 C 
ATOM     58  C   UNL     1       3.452 -10.259  11.729  1.00  0.00     0.029 A 
ATOM     59  C   UNL     1       2.077 -10.144  11.515  1.00  0.00     0.049 A 
ATOM     60  H   UNL     1       0.837  -8.917  12.695  1.00  0.00     0.167 HD
ATOM     61  C   UNL     1      -0.034 -10.371  10.216  1.00  0.00     0.074 A 
ATOM     62  C   UNL     1      -0.752  -9.135  10.524  1.00  0.00     0.031 C 
ATOM     63  C   UNL     1       1.163 -10.864  10.655  1.00  0.00     0.037 A 
BRANCH  50  64
ATOM     64  C   UNL     1       1.575  -6.037  12.996  1.00  0.00     0.058 A 
ATOM     65  C   UNL     1       1.238  -6.557  14.268  1.00  0.00     0.135 A 
ATOM     66  C   UNL     1       0.725  -5.011  12.528  1.00  0.00     0.135 A 
ATOM     67  F   UNL     1       1.991  -7.509  14.842  1.00  0.00    -0.206 F 
ATOM     68  C   UNL     1       0.073  -6.192  14.945  1.00  0.00     0.059 A 
ATOM     69  C   UNL     1      -0.413  -4.596  13.212  1.00  0.00     0.059 A 
ATOM     70  F   UNL     1       0.892  -4.411  11.346  1.00  0.00    -0.206 F 
ATOM     71  C   UNL     1      -0.762  -5.231  14.390  1.00  0.00     0.060 A 
BRANCH  71  72
ATOM     72  S   UNL     1      -2.336  -4.861  15.182  1.00  0.00     0.124 S 
ATOM     73  O   UNL     1      -3.073  -6.097  14.947  1.00  0.00    -0.237 OA
ATOM     74  O   UNL     1      -1.927  -4.611  16.561  1.00  0.00    -0.237 OA
ATOM     75  O   UNL     1      -2.811  -3.690  14.452  1.00  0.00    -0.744 OA
ENDBRANCH  71  72
ENDBRANCH  50  64
BRANCH  51  76
ATOM     76  C   UNL     1      -2.709  -9.239   6.461  1.00  0.00     0.058 A 
ATOM     77  C   UNL     1      -3.882  -9.910   6.849  1.00  0.00     0.135 A 
ATOM     78  C   UNL     1      -2.886  -8.141   5.591  1.00  0.00     0.135 A 
ATOM     79  F   UNL     1      -3.813 -10.954   7.689  1.00  0.00    -0.206 F 
ATOM     80  C   UNL     1      -5.155  -9.492   6.439  1.00  0.00     0.059 A 
ATOM     81  C   UNL     1      -4.144  -7.711   5.162  1.00  0.00     0.059 A 
ATOM     82  F   UNL     1      -1.840  -7.397   5.200  1.00  0.00    -0.206 F 
ATOM     83  C   UNL     1      -5.277  -8.377   5.610  1.00  0.00     0.060 A 
BRANCH  83  84
ATOM     84  S   UNL     1      -6.928  -7.747   5.212  1.00  0.00     0.124 S 
ATOM     85  O   UNL     1      -7.460  -8.806   4.360  1.00  0.00    -0.237 OA
ATOM     86  O   UNL     1      -7.539  -7.627   6.531  1.00  0.00    -0.237 OA
ATOM     87  O   UNL     1      -6.662  -6.482   4.534  1.00  0.00    -0.744 OA
ENDBRANCH  83  84
ENDBRANCH  51  76
BRANCH  63  88
ATOM     88  C   UNL     1       1.684 -12.141  10.046  1.00  0.00     0.058 A 
ATOM     89  C   UNL     1       2.070 -12.291   8.702  1.00  0.00     0.135 A 
ATOM     90  C   UNL     1       1.960 -13.210  10.912  1.00  0.00     0.135 A 
ATOM     91  F   UNL     1       1.939 -11.283   7.830  1.00  0.00    -0.206 F 
ATOM     92  C   UNL     1       2.669 -13.463   8.235  1.00  0.00     0.059 A 
ATOM     93  C   UNL     1       2.585 -14.374  10.475  1.00  0.00     0.059 A 
ATOM     94  F   UNL     1       1.675 -13.106  12.221  1.00  0.00    -0.206 F 
ATOM     95  C   UNL     1       2.926 -14.500   9.131  1.00  0.00     0.060 A 
BRANCH  95  96
ATOM     96  S   UNL     1       3.771 -15.984   8.545  1.00  0.00     0.124 S 
ATOM     97  O   UNL     1       2.746 -16.617   7.723  1.00  0.00    -0.237 OA
ATOM     98  O   UNL     1       4.915 -15.435   7.822  1.00  0.00    -0.237 OA
ATOM     99  O   UNL     1       4.108 -16.694   9.777  1.00  0.00    -0.744 OA
ENDBRANCH  95  96
ENDBRANCH  63  88
ENDBRANCH  37  38
ENDBRANCH  29  32
ENDBRANCH  27  28
ENDBRANCH   1  27
TORSDOF 16
