REMARK SMILES Cc1cccc(-c2cccc(C(=O)NCCCCNC(=O)c3ccc(-c4c5nc(c(-c6c(F)cc(S(=O)(=O)[O-])cc6F)c6ccc([nH]6)c(-c6c(F)cc(S(=O)(=O)[O-])cc6F)c6nc(c(-c7c(F)cc(S(=O)(=O)[O-])cc7F)c7ccc4[nH]7)C=C6)C=C5)cc3)c2)c1
REMARK SMILES IDX 17 1 16 2 15 3 14 4 12 5 13 6 11 8 7 9 8 10 88 11 9 12 10 13
REMARK SMILES IDX 6 14 1 15 2 16 3 17 89 18 4 19 5 20 18 21 19 22 20 23 21 25
REMARK SMILES IDX 22 26 23 27 87 28 24 29 86 30 25 31 26 32 27 33 80 34 28 35
REMARK SMILES IDX 85 36 79 37 81 38 29 39 84 40 78 41 77 42 30 44 64 45 43 46
REMARK SMILES IDX 63 47 44 48 47 49 62 50 82 51 45 52 46 53 61 55 83 56 48 57
REMARK SMILES IDX 31 58 32 59 41 60 33 61 34 62 40 63 42 64 35 65 36 66 37 67
REMARK SMILES IDX 38 68 39 69 65 70 66 71 75 72 67 73 68 74 74 75 76 76 69 77
REMARK SMILES IDX 70 78 71 79 72 80 73 81 49 82 50 83 59 84 51 85 52 86 58 87
REMARK SMILES IDX 60 88 53 89 54 90 55 91 56 92 57 93
REMARK H PARENT 14 7 19 24 81 43 47 54
REMARK Flexibility Score: inf
ROOT
ATOM      1  C   UNL     1      -7.811   6.728   0.898  1.00  0.00     0.023 C 
ENDROOT
BRANCH   1   2
ATOM      2  C   UNL     1      -6.599   6.593  -0.021  1.00  0.00     0.023 C 
BRANCH   2   3
ATOM      3  C   UNL     1      -5.231   6.728   0.655  1.00  0.00     0.116 C 
BRANCH   3   4
ATOM      4  N   UNL     1      -4.962   5.697   1.652  1.00  0.00    -0.352 N 
ATOM      5  C   UNL     1      -4.124   4.611   1.733  1.00  0.00     0.251 C 
ATOM      6  O   UNL     1      -4.230   3.902   2.738  1.00  0.00    -0.269 OA
ATOM      7  H   UNL     1      -5.512   5.805   2.461  1.00  0.00     0.163 HD
BRANCH   5   8
ATOM      8  C   UNL     1      -3.128   4.213   0.694  1.00  0.00     0.040 A 
ATOM      9  C   UNL     1      -1.690   2.422  -0.200  1.00  0.00    -0.018 A 
ATOM     10  C   UNL     1      -1.254   3.312  -1.192  1.00  0.00     0.009 A 
ATOM     11  C   UNL     1      -2.663   2.878   0.710  1.00  0.00     0.022 A 
ATOM     12  C   UNL     1      -1.667   4.640  -1.195  1.00  0.00     0.001 A 
ATOM     13  C   UNL     1      -2.553   5.096  -0.219  1.00  0.00     0.014 A 
BRANCH   9  14
ATOM     14  C   UNL     1      -1.055   1.095  -0.083  1.00  0.00    -0.018 A 
ATOM     15  C   UNL     1       2.514  -0.286   0.059  1.00  0.00     0.044 C 
ATOM     16  C   UNL     1       1.015  -0.228   0.040  1.00  0.00    -0.051 A 
ATOM     17  C   UNL     1       0.255  -1.398   0.089  1.00  0.00     0.003 A 
ATOM     18  C   UNL     1       0.352   1.003  -0.043  1.00  0.00     0.012 A 
ATOM     19  C   UNL     1      -1.139  -1.331   0.069  1.00  0.00     0.001 A 
ATOM     20  C   UNL     1      -1.790  -0.095  -0.013  1.00  0.00     0.009 A 
ENDBRANCH   9  14
ENDBRANCH   5   8
ENDBRANCH   3   4
ENDBRANCH   2   3
ENDBRANCH   1   2
BRANCH   1  21
ATOM     21  C   UNL     1      -7.934   8.077   1.597  1.00  0.00     0.116 C 
BRANCH  21  22
ATOM     22  N   UNL     1      -8.685   9.079   0.867  1.00  0.00    -0.352 N 
ATOM     23  C   UNL     1      -9.084  10.336   1.313  1.00  0.00     0.251 C 
ATOM     24  H   UNL     1      -8.944   8.843  -0.054  1.00  0.00     0.163 HD
ATOM     25  O   UNL     1     -10.002  10.933   0.804  1.00  0.00    -0.269 OA
BRANCH  23  26
ATOM     26  C   UNL     1      -8.239  10.980   2.352  1.00  0.00     0.039 A 
ATOM     27  C   UNL     1      -7.571  12.156   1.988  1.00  0.00     0.014 A 
ATOM     28  C   UNL     1      -7.919  10.323   3.535  1.00  0.00     0.014 A 
ATOM     29  C   UNL     1      -6.452  12.568   2.714  1.00  0.00     0.010 A 
ATOM     30  C   UNL     1      -6.759  10.679   4.198  1.00  0.00     0.010 A 
ATOM     31  C   UNL     1      -5.995  11.773   3.762  1.00  0.00    -0.014 A 
BRANCH  31  32
ATOM     32  C   UNL     1      -4.690  11.929   4.407  1.00  0.00     0.031 A 
ATOM     33  C   UNL     1      -4.593  12.322   5.834  1.00  0.00     0.074 A 
ATOM     34  C   UNL     1      -3.572  11.551   3.750  1.00  0.00     0.049 A 
ATOM     35  N   UNL     1      -3.502  12.638   6.448  1.00  0.00    -0.248 NA
ATOM     36  C   UNL     1      -5.773  12.433   6.681  1.00  0.00     0.031 C 
ATOM     37  C   UNL     1      -2.276  11.220   4.335  1.00  0.00     0.029 A 
ATOM     38  N   UNL     1      -3.329  11.595   2.376  1.00  0.00    -0.354 N 
ATOM     39  C   UNL     1      -3.775  12.716   7.798  1.00  0.00     0.074 A 
ATOM     40  C   UNL     1      -5.215  12.642   7.876  1.00  0.00     0.031 C 
ATOM     41  C   UNL     1      -1.331  11.327   3.390  1.00  0.00     0.029 A 
ATOM     42  C   UNL     1      -1.959  11.887   2.208  1.00  0.00     0.049 A 
ATOM     43  H   UNL     1      -3.989  11.449   1.660  1.00  0.00     0.167 HD
ATOM     44  C   UNL     1      -2.740  12.717   8.692  1.00  0.00     0.037 A 
ATOM     45  C   UNL     1      -1.574  13.053   1.606  1.00  0.00     0.037 A 
ATOM     46  C   UNL     1      -1.450  12.876   8.011  1.00  0.00     0.049 A 
ATOM     47  C   UNL     1      -0.856  14.032   2.512  1.00  0.00     0.074 A 
ATOM     48  C   UNL     1      -0.430  12.016   7.635  1.00  0.00     0.029 A 
ATOM     49  N   UNL     1      -1.189  14.075   7.367  1.00  0.00    -0.354 N 
ATOM     50  N   UNL     1      -0.566  13.810   3.765  1.00  0.00    -0.248 NA
ATOM     51  C   UNL     1      -0.472  15.381   2.086  1.00  0.00     0.031 C 
ATOM     52  C   UNL     1       0.407  12.698   6.703  1.00  0.00     0.029 A 
ATOM     53  C   UNL     1      -0.102  13.970   6.518  1.00  0.00     0.049 A 
ATOM     54  H   UNL     1      -1.711  14.899   7.499  1.00  0.00     0.167 HD
ATOM     55  C   UNL     1      -0.061  14.954   4.321  1.00  0.00     0.074 A 
ATOM     56  C   UNL     1       0.015  15.902   3.225  1.00  0.00     0.031 C 
ATOM     57  C   UNL     1       0.217  15.086   5.647  1.00  0.00     0.037 A 
BRANCH  44  58
ATOM     58  C   UNL     1      -2.873  12.337  10.161  1.00  0.00     0.058 A 
ATOM     59  C   UNL     1      -1.774  11.791  10.866  1.00  0.00     0.135 A 
ATOM     60  C   UNL     1      -4.060  12.404  10.918  1.00  0.00     0.135 A 
ATOM     61  F   UNL     1      -0.546  11.756  10.331  1.00  0.00    -0.206 F 
ATOM     62  C   UNL     1      -1.880  11.248  12.151  1.00  0.00     0.059 A 
ATOM     63  C   UNL     1      -4.208  11.816  12.179  1.00  0.00     0.059 A 
ATOM     64  F   UNL     1      -5.120  13.105  10.505  1.00  0.00    -0.206 F 
ATOM     65  C   UNL     1      -3.113  11.225  12.785  1.00  0.00     0.060 A 
BRANCH  65  66
ATOM     66  S   UNL     1      -3.263  10.439  14.399  1.00  0.00     0.124 S 
ATOM     67  O   UNL     1      -2.746   9.099  14.139  1.00  0.00    -0.237 OA
ATOM     68  O   UNL     1      -2.425  11.294  15.233  1.00  0.00    -0.237 OA
ATOM     69  O   UNL     1      -4.696  10.505  14.678  1.00  0.00    -0.744 OA
ENDBRANCH  65  66
ENDBRANCH  44  58
BRANCH  45  70
ATOM     70  C   UNL     1      -2.455  13.414   0.463  1.00  0.00     0.058 A 
ATOM     71  C   UNL     1      -2.432  12.562  -0.657  1.00  0.00     0.135 A 
ATOM     72  C   UNL     1      -3.585  14.223   0.647  1.00  0.00     0.135 A 
ATOM     73  F   UNL     1      -1.360  11.785  -0.889  1.00  0.00    -0.206 F 
ATOM     74  C   UNL     1      -3.558  12.368  -1.444  1.00  0.00     0.059 A 
ATOM     75  C   UNL     1      -4.723  14.055  -0.141  1.00  0.00     0.059 A 
ATOM     76  F   UNL     1      -3.655  15.061   1.692  1.00  0.00    -0.206 F 
ATOM     77  C   UNL     1      -4.722  13.062  -1.123  1.00  0.00     0.060 A 
BRANCH  77  78
ATOM     78  S   UNL     1      -6.270  12.489  -1.859  1.00  0.00     0.124 S 
ATOM     79  O   UNL     1      -5.963  12.525  -3.285  1.00  0.00    -0.237 OA
ATOM     80  O   UNL     1      -6.389  11.155  -1.273  1.00  0.00    -0.237 OA
ATOM     81  O   UNL     1      -7.242  13.472  -1.396  1.00  0.00    -0.744 OA
ENDBRANCH  77  78
ENDBRANCH  45  70
BRANCH  57  82
ATOM     82  C   UNL     1       0.823  16.332   6.203  1.00  0.00     0.058 A 
ATOM     83  C   UNL     1       2.047  16.822   5.719  1.00  0.00     0.135 A 
ATOM     84  C   UNL     1       0.261  16.997   7.308  1.00  0.00     0.135 A 
ATOM     85  F   UNL     1       2.655  16.226   4.681  1.00  0.00    -0.206 F 
ATOM     86  C   UNL     1       2.677  17.924   6.291  1.00  0.00     0.059 A 
ATOM     87  C   UNL     1       0.888  18.080   7.917  1.00  0.00     0.059 A 
ATOM     88  F   UNL     1      -0.925  16.617   7.809  1.00  0.00    -0.206 F 
ATOM     89  C   UNL     1       2.091  18.546   7.393  1.00  0.00     0.060 A 
BRANCH  89  90
ATOM     90  S   UNL     1       2.923  19.944   8.173  1.00  0.00     0.124 S 
ATOM     91  O   UNL     1       4.333  19.671   7.913  1.00  0.00    -0.237 OA
ATOM     92  O   UNL     1       2.353  21.067   7.435  1.00  0.00    -0.237 OA
ATOM     93  O   UNL     1       2.518  19.833   9.570  1.00  0.00    -0.744 OA
ENDBRANCH  89  90
ENDBRANCH  57  82
ENDBRANCH  31  32
ENDBRANCH  23  26
ENDBRANCH  21  22
ENDBRANCH   1  21
TORSDOF 15
