REMARK SMILES Cc1ccc(C(N)=O)c(NCc2ccc(C(=O)NCCCCNC(=O)c3ccc(-c4c5nc(c(-c6c(F)cc(S(=O)(=O)[O-])cc6F)c6ccc([nH]6)c(-c6c(F)cc(S(=O)(=O)[O-])cc6F)c6nc(c(-c7c(F)cc(S(=O)(=O)[O-])cc7F)c7ccc4[nH]7)C=C6)C=C5)cc3)o2)n1
REMARK SMILES IDX 20 1 19 2 18 3 16 4 17 5 15 7 12 8 13 9 92 10 14 11 11 12
REMARK SMILES IDX 10 13 9 15 1 16 2 17 3 18 93 19 4 20 5 21 6 22 7 23 8 24
REMARK SMILES IDX 21 27 22 28 23 29 24 30 25 32 26 33 27 34 91 35 28 36 90 37
REMARK SMILES IDX 29 38 30 39 31 40 84 41 32 42 89 43 83 44 85 45 33 46 88 47
REMARK SMILES IDX 82 48 81 49 34 51 68 52 47 53 67 54 48 55 51 56 66 57 86 58
REMARK SMILES IDX 49 59 50 60 65 62 87 63 52 64 35 65 36 66 45 67 37 68 38 69
REMARK SMILES IDX 44 70 46 71 39 72 40 73 41 74 42 75 43 76 69 77 70 78 79 79
REMARK SMILES IDX 71 80 72 81 78 82 80 83 73 84 74 85 75 86 76 87 77 88 53 89
REMARK SMILES IDX 54 90 63 91 55 92 56 93 62 94 64 95 57 96 58 97 59 98 60 99
REMARK SMILES IDX 61 100
REMARK H PARENT 18 6 10 14 7 25 7 26 23 31 85 50 51 61
REMARK Flexibility Score: inf
ROOT
ATOM      1  C   UNL     1      -2.650   7.009  -5.958  1.00  0.00     0.023 C 
ENDROOT
BRANCH   1   2
ATOM      2  C   UNL     1      -1.210   7.030  -5.445  1.00  0.00     0.116 C 
BRANCH   2   3
ATOM      3  N   UNL     1      -1.099   7.786  -4.215  1.00  0.00    -0.349 N 
ATOM      4  C   UNL     1      -1.069   7.372  -2.903  1.00  0.00     0.286 C 
ATOM      5  O   UNL     1      -0.874   8.257  -2.066  1.00  0.00    -0.266 OA
ATOM      6  H   UNL     1      -1.034   8.760  -4.339  1.00  0.00     0.163 HD
BRANCH   4   7
ATOM      7  C   UNL     1      -1.243   5.976  -2.541  1.00  0.00     0.191 A 
ATOM      8  C   UNL     1      -1.079   4.288  -1.110  1.00  0.00     0.124 A 
ATOM      9  C   UNL     1      -1.603   3.763  -2.269  1.00  0.00     0.048 A 
ATOM     10  O   UNL     1      -0.856   5.621  -1.268  1.00  0.00    -0.454 OA
ATOM     11  C   UNL     1      -1.749   4.848  -3.165  1.00  0.00     0.056 A 
BRANCH   8  12
ATOM     12  C   UNL     1      -0.754   3.710   0.227  1.00  0.00     0.190 C 
BRANCH  12  13
ATOM     13  N   UNL     1      -1.530   2.519   0.540  1.00  0.00    -0.362 N 
ATOM     14  H   UNL     1      -2.435   2.612   0.915  1.00  0.00     0.162 HD
BRANCH  13  15
ATOM     15  C   UNL     1      -1.009   1.254   0.317  1.00  0.00     0.139 A 
ATOM     16  C   UNL     1       2.395  -0.112  -0.049  1.00  0.00     0.067 C 
ATOM     17  C   UNL     1       0.900  -0.074   0.039  1.00  0.00     0.040 A 
ATOM     18  C   UNL     1       0.147  -1.233  -0.060  1.00  0.00     0.024 A 
ATOM     19  N   UNL     1       0.336   1.147   0.208  1.00  0.00    -0.236 NA
ATOM     20  C   UNL     1      -1.236  -1.128   0.023  1.00  0.00     0.019 A 
ATOM     21  C   UNL     1      -1.833   0.127   0.203  1.00  0.00     0.081 A 
BRANCH  21  22
ATOM     22  C   UNL     1      -3.320   0.167   0.220  1.00  0.00     0.252 C 
ATOM     23  N   UNL     1      -3.933   1.331  -0.149  1.00  0.00    -0.365 N 
ATOM     24  O   UNL     1      -3.983  -0.822   0.511  1.00  0.00    -0.269 OA
ATOM     25  H   UNL     1      -3.392   2.120  -0.381  1.00  0.00     0.159 HD
ATOM     26  H   UNL     1      -4.915   1.381  -0.182  1.00  0.00     0.159 HD
ENDBRANCH  21  22
ENDBRANCH  13  15
ENDBRANCH  12  13
ENDBRANCH   8  12
ENDBRANCH   4   7
ENDBRANCH   2   3
ENDBRANCH   1   2
BRANCH   1  27
ATOM     27  C   UNL     1      -3.066   8.281  -6.706  1.00  0.00     0.023 C 
BRANCH  27  28
ATOM     28  C   UNL     1      -2.265   8.580  -7.972  1.00  0.00     0.116 C 
BRANCH  28  29
ATOM     29  N   UNL     1      -2.304   7.503  -8.949  1.00  0.00    -0.352 N 
ATOM     30  C   UNL     1      -2.224   7.595 -10.320  1.00  0.00     0.251 C 
ATOM     31  H   UNL     1      -2.400   6.594  -8.584  1.00  0.00     0.163 HD
ATOM     32  O   UNL     1      -2.375   6.601 -11.018  1.00  0.00    -0.269 OA
BRANCH  30  33
ATOM     33  C   UNL     1      -1.997   8.920 -10.936  1.00  0.00     0.039 A 
ATOM     34  C   UNL     1      -2.869   9.360 -11.934  1.00  0.00     0.014 A 
ATOM     35  C   UNL     1      -0.956   9.738 -10.492  1.00  0.00     0.014 A 
ATOM     36  C   UNL     1      -2.743  10.656 -12.437  1.00  0.00     0.010 A 
ATOM     37  C   UNL     1      -0.870  11.049 -10.950  1.00  0.00     0.010 A 
ATOM     38  C   UNL     1      -1.766  11.523 -11.921  1.00  0.00    -0.014 A 
BRANCH  38  39
ATOM     39  C   UNL     1      -1.658  12.933 -12.372  1.00  0.00     0.031 A 
ATOM     40  C   UNL     1      -0.417  13.396 -13.083  1.00  0.00     0.074 A 
ATOM     41  C   UNL     1      -2.630  13.812 -12.059  1.00  0.00     0.049 A 
ATOM     42  N   UNL     1      -0.066  14.607 -13.429  1.00  0.00    -0.248 NA
ATOM     43  C   UNL     1       0.574  12.362 -13.422  1.00  0.00     0.031 C 
ATOM     44  C   UNL     1      -3.864  13.491 -11.338  1.00  0.00     0.029 A 
ATOM     45  N   UNL     1      -2.725  15.162 -12.290  1.00  0.00    -0.354 N 
ATOM     46  C   UNL     1       1.193  14.486 -14.004  1.00  0.00     0.074 A 
ATOM     47  C   UNL     1       1.563  13.089 -13.922  1.00  0.00     0.031 C 
ATOM     48  C   UNL     1      -4.594  14.610 -11.194  1.00  0.00     0.029 A 
ATOM     49  C   UNL     1      -3.865  15.733 -11.775  1.00  0.00     0.049 A 
ATOM     50  H   UNL     1      -2.040  15.674 -12.777  1.00  0.00     0.167 HD
ATOM     51  C   UNL     1       1.963  15.448 -14.566  1.00  0.00     0.037 A 
ATOM     52  C   UNL     1      -4.271  17.018 -11.760  1.00  0.00     0.037 A 
ATOM     53  C   UNL     1       1.574  16.829 -14.673  1.00  0.00     0.049 A 
ATOM     54  C   UNL     1      -3.404  18.068 -12.400  1.00  0.00     0.074 A 
ATOM     55  C   UNL     1       2.261  17.873 -15.267  1.00  0.00     0.029 A 
ATOM     56  N   UNL     1       0.390  17.359 -14.181  1.00  0.00    -0.354 N 
ATOM     57  N   UNL     1      -2.234  17.929 -12.977  1.00  0.00    -0.248 NA
ATOM     58  C   UNL     1      -3.911  19.447 -12.394  1.00  0.00     0.031 C 
ATOM     59  C   UNL     1       1.506  19.040 -15.107  1.00  0.00     0.029 A 
ATOM     60  C   UNL     1       0.330  18.715 -14.451  1.00  0.00     0.049 A 
ATOM     61  H   UNL     1      -0.306  16.845 -13.709  1.00  0.00     0.167 HD
ATOM     62  C   UNL     1      -1.882  19.195 -13.433  1.00  0.00     0.074 A 
ATOM     63  C   UNL     1      -2.963  20.087 -13.065  1.00  0.00     0.031 C 
ATOM     64  C   UNL     1      -0.767  19.582 -14.099  1.00  0.00     0.037 A 
BRANCH  51  65
ATOM     65  C   UNL     1       3.302  15.037 -15.111  1.00  0.00     0.058 A 
ATOM     66  C   UNL     1       3.414  14.261 -16.276  1.00  0.00     0.135 A 
ATOM     67  C   UNL     1       4.487  15.446 -14.480  1.00  0.00     0.135 A 
ATOM     68  F   UNL     1       2.312  13.830 -16.910  1.00  0.00    -0.206 F 
ATOM     69  C   UNL     1       4.653  13.879 -16.779  1.00  0.00     0.059 A 
ATOM     70  C   UNL     1       5.739  15.098 -14.981  1.00  0.00     0.059 A 
ATOM     71  F   UNL     1       4.438  16.189 -13.363  1.00  0.00    -0.206 F 
ATOM     72  C   UNL     1       5.810  14.300 -16.122  1.00  0.00     0.060 A 
BRANCH  72  73
ATOM     73  S   UNL     1       7.411  13.795 -16.786  1.00  0.00     0.124 S 
ATOM     74  O   UNL     1       7.462  12.393 -16.384  1.00  0.00    -0.237 OA
ATOM     75  O   UNL     1       7.249  14.039 -18.215  1.00  0.00    -0.237 OA
ATOM     76  O   UNL     1       8.354  14.678 -16.106  1.00  0.00    -0.744 OA
ENDBRANCH  72  73
ENDBRANCH  51  65
BRANCH  52  77
ATOM     77  C   UNL     1      -5.572  17.380 -11.138  1.00  0.00     0.058 A 
ATOM     78  C   UNL     1      -6.665  17.761 -11.929  1.00  0.00     0.135 A 
ATOM     79  C   UNL     1      -5.753  17.341  -9.747  1.00  0.00     0.135 A 
ATOM     80  F   UNL     1      -6.539  17.818 -13.263  1.00  0.00    -0.206 F 
ATOM     81  C   UNL     1      -7.888  18.107 -11.364  1.00  0.00     0.059 A 
ATOM     82  C   UNL     1      -6.973  17.660  -9.159  1.00  0.00     0.059 A 
ATOM     83  F   UNL     1      -4.742  16.965  -8.947  1.00  0.00    -0.206 F 
ATOM     84  C   UNL     1      -8.033  18.052  -9.977  1.00  0.00     0.060 A 
BRANCH  84  85
ATOM     85  S   UNL     1      -9.639  18.457  -9.256  1.00  0.00     0.124 S 
ATOM     86  O   UNL     1      -9.659  19.910  -9.383  1.00  0.00    -0.237 OA
ATOM     87  O   UNL     1     -10.558  17.727 -10.123  1.00  0.00    -0.237 OA
ATOM     88  O   UNL     1      -9.533  17.942  -7.894  1.00  0.00    -0.744 OA
ENDBRANCH  84  85
ENDBRANCH  52  77
BRANCH  64  89
ATOM     89  C   UNL     1      -0.675  21.020 -14.526  1.00  0.00     0.058 A 
ATOM     90  C   UNL     1      -0.388  22.046 -13.614  1.00  0.00     0.135 A 
ATOM     91  C   UNL     1      -0.803  21.361 -15.883  1.00  0.00     0.135 A 
ATOM     92  F   UNL     1      -0.264  21.772 -12.306  1.00  0.00    -0.206 F 
ATOM     93  C   UNL     1      -0.242  23.365 -14.030  1.00  0.00     0.059 A 
ATOM     94  C   UNL     1      -0.637  22.669 -16.324  1.00  0.00     0.059 A 
ATOM     95  F   UNL     1      -1.069  20.413 -16.796  1.00  0.00    -0.206 F 
ATOM     96  C   UNL     1      -0.363  23.666 -15.389  1.00  0.00     0.060 A 
BRANCH  96  97
ATOM     97  S   UNL     1      -0.116  25.372 -15.925  1.00  0.00     0.124 S 
ATOM     98  O   UNL     1      -1.365  25.997 -15.501  1.00  0.00    -0.237 OA
ATOM     99  O   UNL     1       1.075  25.766 -15.178  1.00  0.00    -0.237 OA
ATOM    100  O   UNL     1       0.069  25.252 -17.368  1.00  0.00    -0.744 OA
ENDBRANCH  96  97
ENDBRANCH  64  89
ENDBRANCH  38  39
ENDBRANCH  30  33
ENDBRANCH  28  29
ENDBRANCH  27  28
ENDBRANCH   1  27
TORSDOF 18
