REMARK SMILES C[C@@H](C(=O)NCCCCNC(=O)c1ccc(-c2c3nc(c(-c4c(F)cc(S(=O)(=O)[O-])cc4F)c4ccc([nH]4)c(-c4c(F)cc(S(=O)(=O)[O-])cc4F)c4nc(c(-c5c(F)cc(S(=O)(=O)[O-])cc5F)c5ccc2[nH]5)C=C4)C=C3)cc1)n1ccc(C(=O)NC2CCCCCCC2)n1
REMARK SMILES IDX 3 1 4 2 5 3 2 5 1 6 79 7 80 8 94 9 81 10 82 11 83 12 84 13
REMARK SMILES IDX 85 14 86 16 87 17 88 18 89 19 90 20 93 22 92 23 91 24 6 26
REMARK SMILES IDX 7 27 8 28 9 29 10 30 11 31 12 33 13 34 14 35 78 36 15 37
REMARK SMILES IDX 77 38 16 39 17 40 18 41 71 42 19 43 76 44 70 45 72 46 20 47
REMARK SMILES IDX 75 48 69 49 68 50 21 52 55 53 34 54 54 55 35 56 38 57 53 58
REMARK SMILES IDX 73 59 36 60 37 61 52 63 74 64 39 65 22 66 23 67 32 68 24 69
REMARK SMILES IDX 25 70 31 71 33 72 26 73 27 74 28 75 29 76 30 77 56 78 57 79
REMARK SMILES IDX 66 80 58 81 59 82 65 83 67 84 60 85 61 86 62 87 63 88 64 89
REMARK SMILES IDX 40 90 41 91 50 92 42 93 43 94 49 95 51 96 44 97 45 98 46 99
REMARK SMILES IDX 47 100 48 101
REMARK H PARENT 5 4 85 15 10 32 72 51 38 62
REMARK Flexibility Score: 80.00
ROOT
ATOM      1  C   UNL     1       1.110  -2.378   0.919  1.00  0.00     0.244 C 
ATOM      2  O   UNL     1       0.449  -2.975   1.769  1.00  0.00    -0.273 OA
ATOM      3  N   UNL     1       2.465  -2.592   0.924  1.00  0.00    -0.354 N 
ATOM      4  H   UNL     1       2.777  -3.268   1.568  1.00  0.00     0.163 HD
ENDROOT
BRANCH   1   5
ATOM      5  C   UNL     1       0.500  -1.460  -0.137  1.00  0.00     0.193 C 
ATOM      6  C   UNL     1       0.933  -0.007   0.100  1.00  0.00     0.044 C 
BRANCH   5   7
ATOM      7  N   UNL     1      -0.967  -1.549  -0.204  1.00  0.00    -0.260 N 
ATOM      8  C   UNL     1      -1.774  -2.648  -0.251  1.00  0.00     0.110 A 
ATOM      9  N   UNL     1      -1.660  -0.410  -0.367  1.00  0.00    -0.167 NA
ATOM     10  C   UNL     1      -3.066  -2.165  -0.251  1.00  0.00     0.056 A 
ATOM     11  C   UNL     1      -2.952  -0.747  -0.273  1.00  0.00     0.150 A 
BRANCH  11  12
ATOM     12  C   UNL     1      -4.043   0.246  -0.224  1.00  0.00     0.271 C 
ATOM     13  O   UNL     1      -5.229  -0.103  -0.201  1.00  0.00    -0.267 OA
ATOM     14  N   UNL     1      -3.781   1.606  -0.187  1.00  0.00    -0.348 N 
ATOM     15  H   UNL     1      -4.577   2.177  -0.088  1.00  0.00     0.164 HD
BRANCH  14  16
ATOM     16  C   UNL     1      -2.502   2.336  -0.273  1.00  0.00     0.082 C 
BRANCH  16  17
ATOM     17  C   UNL     1      -2.109   2.474  -1.753  1.00  0.00     0.025 C 
BRANCH  17  18
ATOM     18  C   UNL     1      -0.704   2.994  -2.049  1.00  0.00     0.002 C 
BRANCH  18  19
ATOM     19  C   UNL     1      -0.348   4.405  -1.600  1.00  0.00     0.000 C 
BRANCH  19  20
ATOM     20  C   UNL     1      -1.403   5.457  -1.927  1.00  0.00     0.000 CG0
ATOM     21  G   UNL     1      -2.269   5.873  -0.737  1.00  0.00     0.000 G0
ENDBRANCH  19  20
ENDBRANCH  18  19
ENDBRANCH  17  18
ENDBRANCH  16  17
BRANCH  16  22
ATOM     22  C   UNL     1      -2.599   3.650   0.525  1.00  0.00     0.025 C 
BRANCH  22  23
ATOM     23  C   UNL     1      -3.252   4.831  -0.195  1.00  0.00     0.002 C 
BRANCH  23  24
ATOM     24  C   UNL     1      -2.269   5.873  -0.737  1.00  0.00     0.000 CG0
ATOM     25  G   UNL     1      -1.403   5.457  -1.927  1.00  0.00     0.000 G0
ENDBRANCH  23  24
ENDBRANCH  22  23
ENDBRANCH  16  22
ENDBRANCH  14  16
ENDBRANCH  11  12
ENDBRANCH   5   7
ENDBRANCH   1   5
BRANCH   3  26
ATOM     26  C   UNL     1       3.510  -1.974   0.126  1.00  0.00     0.116 C 
BRANCH  26  27
ATOM     27  C   UNL     1       4.296  -0.941   0.940  1.00  0.00     0.023 C 
BRANCH  27  28
ATOM     28  C   UNL     1       5.126  -1.526   2.082  1.00  0.00     0.023 C 
BRANCH  28  29
ATOM     29  C   UNL     1       6.132  -2.586   1.661  1.00  0.00     0.116 C 
BRANCH  29  30
ATOM     30  N   UNL     1       7.070  -2.099   0.663  1.00  0.00    -0.352 N 
ATOM     31  C   UNL     1       8.423  -2.309   0.572  1.00  0.00     0.251 C 
ATOM     32  H   UNL     1       6.680  -1.541  -0.047  1.00  0.00     0.163 HD
ATOM     33  O   UNL     1       9.074  -1.682  -0.259  1.00  0.00    -0.269 OA
BRANCH  31  34
ATOM     34  C   UNL     1       9.093  -3.256   1.490  1.00  0.00     0.039 A 
ATOM     35  C   UNL     1      10.327  -2.895   2.033  1.00  0.00     0.014 A 
ATOM     36  C   UNL     1       8.518  -4.489   1.816  1.00  0.00     0.014 A 
ATOM     37  C   UNL     1      10.957  -3.747   2.939  1.00  0.00     0.010 A 
ATOM     38  C   UNL     1       9.107  -5.298   2.786  1.00  0.00     0.010 A 
ATOM     39  C   UNL     1      10.338  -4.940   3.352  1.00  0.00    -0.014 A 
BRANCH  39  40
ATOM     40  C   UNL     1      10.977  -5.797   4.383  1.00  0.00     0.031 A 
ATOM     41  C   UNL     1      11.421  -7.198   4.056  1.00  0.00     0.074 A 
ATOM     42  C   UNL     1      11.148  -5.307   5.628  1.00  0.00     0.049 A 
ATOM     43  N   UNL     1      12.038  -8.064   4.818  1.00  0.00    -0.248 NA
ATOM     44  C   UNL     1      11.114  -7.701   2.708  1.00  0.00     0.031 C 
ATOM     45  C   UNL     1      10.690  -3.993   6.087  1.00  0.00     0.029 A 
ATOM     46  N   UNL     1      11.756  -5.849   6.731  1.00  0.00    -0.354 N 
ATOM     47  C   UNL     1      12.205  -9.205   4.042  1.00  0.00     0.074 A 
ATOM     48  C   UNL     1      11.557  -8.949   2.774  1.00  0.00     0.031 C 
ATOM     49  C   UNL     1      11.068  -3.816   7.363  1.00  0.00     0.029 A 
ATOM     50  C   UNL     1      11.763  -5.013   7.824  1.00  0.00     0.049 A 
ATOM     51  H   UNL     1      12.151  -6.750   6.740  1.00  0.00     0.167 HD
ATOM     52  C   UNL     1      12.867 -10.348   4.343  1.00  0.00     0.037 A 
ATOM     53  C   UNL     1      12.273  -5.189   9.058  1.00  0.00     0.037 A 
ATOM     54  C   UNL     1      13.513 -10.595   5.608  1.00  0.00     0.049 A 
ATOM     55  C   UNL     1      13.008  -6.465   9.366  1.00  0.00     0.074 A 
ATOM     56  C   UNL     1      14.238 -11.707   6.002  1.00  0.00     0.029 A 
ATOM     57  N   UNL     1      13.511  -9.721   6.685  1.00  0.00    -0.354 N 
ATOM     58  N   UNL     1      13.219  -7.504   8.593  1.00  0.00    -0.248 NA
ATOM     59  C   UNL     1      13.591  -6.585  10.708  1.00  0.00     0.031 C 
ATOM     60  C   UNL     1      14.634 -11.524   7.331  1.00  0.00     0.029 A 
ATOM     61  C   UNL     1      14.207 -10.275   7.748  1.00  0.00     0.049 A 
ATOM     62  H   UNL     1      13.078  -8.836   6.693  1.00  0.00     0.167 HD
ATOM     63  C   UNL     1      13.973  -8.394   9.350  1.00  0.00     0.074 A 
ATOM     64  C   UNL     1      14.209  -7.755  10.628  1.00  0.00     0.031 C 
ATOM     65  C   UNL     1      14.424  -9.631   9.020  1.00  0.00     0.037 A 
BRANCH  52  66
ATOM     66  C   UNL     1      12.946 -11.412   3.280  1.00  0.00     0.058 A 
ATOM     67  C   UNL     1      13.710 -11.228   2.115  1.00  0.00     0.135 A 
ATOM     68  C   UNL     1      12.296 -12.645   3.444  1.00  0.00     0.135 A 
ATOM     69  F   UNL     1      14.340 -10.062   1.895  1.00  0.00    -0.206 F 
ATOM     70  C   UNL     1      13.807 -12.217   1.142  1.00  0.00     0.059 A 
ATOM     71  C   UNL     1      12.404 -13.662   2.498  1.00  0.00     0.059 A 
ATOM     72  F   UNL     1      11.550 -12.877   4.536  1.00  0.00    -0.206 F 
ATOM     73  C   UNL     1      13.153 -13.434   1.345  1.00  0.00     0.060 A 
BRANCH  73  74
ATOM     74  S   UNL     1      13.309 -14.713   0.081  1.00  0.00     0.124 S 
ATOM     75  O   UNL     1      12.514 -14.148  -1.005  1.00  0.00    -0.237 OA
ATOM     76  O   UNL     1      14.750 -14.753  -0.145  1.00  0.00    -0.237 OA
ATOM     77  O   UNL     1      12.743 -15.896   0.721  1.00  0.00    -0.744 OA
ENDBRANCH  73  74
ENDBRANCH  52  66
BRANCH  53  78
ATOM     78  C   UNL     1      12.116  -4.125  10.087  1.00  0.00     0.058 A 
ATOM     79  C   UNL     1      13.217  -3.395  10.558  1.00  0.00     0.135 A 
ATOM     80  C   UNL     1      10.853  -3.817  10.618  1.00  0.00     0.135 A 
ATOM     81  F   UNL     1      14.445  -3.653  10.084  1.00  0.00    -0.206 F 
ATOM     82  C   UNL     1      13.078  -2.418  11.539  1.00  0.00     0.059 A 
ATOM     83  C   UNL     1      10.684  -2.822  11.576  1.00  0.00     0.059 A 
ATOM     84  F   UNL     1       9.763  -4.470  10.186  1.00  0.00    -0.206 F 
ATOM     85  C   UNL     1      11.806  -2.138  12.041  1.00  0.00     0.060 A 
BRANCH  85  86
ATOM     86  S   UNL     1      11.630  -0.844  13.287  1.00  0.00     0.124 S 
ATOM     87  O   UNL     1      12.200  -1.489  14.463  1.00  0.00    -0.237 OA
ATOM     88  O   UNL     1      12.413   0.245  12.711  1.00  0.00    -0.237 OA
ATOM     89  O   UNL     1      10.189  -0.613  13.330  1.00  0.00    -0.744 OA
ENDBRANCH  85  86
ENDBRANCH  53  78
BRANCH  65  90
ATOM     90  C   UNL     1      15.236 -10.360  10.058  1.00  0.00     0.058 A 
ATOM     91  C   UNL     1      14.659 -10.839  11.245  1.00  0.00     0.135 A 
ATOM     92  C   UNL     1      16.608 -10.584   9.862  1.00  0.00     0.135 A 
ATOM     93  F   UNL     1      13.351 -10.651  11.486  1.00  0.00    -0.206 F 
ATOM     94  C   UNL     1      15.423 -11.466  12.224  1.00  0.00     0.059 A 
ATOM     95  C   UNL     1      17.385 -11.241  10.811  1.00  0.00     0.059 A 
ATOM     96  F   UNL     1      17.209 -10.162   8.738  1.00  0.00    -0.206 F 
ATOM     97  C   UNL     1      16.787 -11.657  12.000  1.00  0.00     0.060 A 
BRANCH  97  98
ATOM     98  S   UNL     1      17.771 -12.459  13.284  1.00  0.00     0.124 S 
ATOM     99  O   UNL     1      17.861 -11.402  14.286  1.00  0.00    -0.237 OA
ATOM    100  O   UNL     1      16.942 -13.605  13.643  1.00  0.00    -0.237 OA
ATOM    101  O   UNL     1      19.019 -12.785  12.601  1.00  0.00    -0.744 OA
ENDBRANCH  97  98
ENDBRANCH  65  90
ENDBRANCH  39  40
ENDBRANCH  31  34
ENDBRANCH  29  30
ENDBRANCH  28  29
ENDBRANCH  27  28
ENDBRANCH  26  27
ENDBRANCH   3  26
TORSDOF 17
