REMARK SMILES CC[C@H](C(=O)NCCCCNC(=O)c1ccc(-c2c3nc(c(-c4c(F)cc(S(=O)(=O)[O-])cc4F)c4ccc([nH]4)c(-c4c(F)cc(S(=O)(=O)[O-])cc4F)c4nc(c(-c5c(F)cc(S(=O)(=O)[O-])cc5F)c5ccc2[nH]5)C=C4)C=C3)cc1)[N@@H+](C)[C@H]1CC[C@@H]([NH2+]C)CC1
REMARK SMILES IDX 8 1 7 2 6 3 4 4 5 5 3 7 2 8 1 9 80 10 81 11 82 13 89 14
REMARK SMILES IDX 83 15 88 16 84 17 85 18 86 19 87 20 9 23 10 24 11 25 12 26
REMARK SMILES IDX 13 28 14 29 15 30 79 31 16 32 78 33 17 34 18 35 19 36 72 37
REMARK SMILES IDX 20 38 77 39 71 40 73 41 21 42 76 43 70 44 69 45 22 47 56 48
REMARK SMILES IDX 35 49 55 50 36 51 39 52 54 53 74 54 37 55 38 56 53 58 75 59
REMARK SMILES IDX 40 60 23 61 24 62 33 63 25 64 26 65 32 66 34 67 27 68 28 69
REMARK SMILES IDX 29 70 30 71 31 72 57 73 58 74 67 75 59 76 60 77 66 78 68 79
REMARK SMILES IDX 61 80 62 81 63 82 64 83 65 84 41 85 42 86 51 87 43 88 44 89
REMARK SMILES IDX 50 90 52 91 45 92 46 93 47 94 48 95 49 96
REMARK H PARENT 6 6 80 12 86 21 86 22 11 27 73 46 39 57
REMARK Flexibility Score: inf
ROOT
ATOM      1  C   UNL     1       0.235   1.741   1.682  1.00  0.00     0.023 C 
ENDROOT
BRANCH   1   2
ATOM      2  C   UNL     1      -0.425   0.398   1.397  1.00  0.00     0.116 C 
BRANCH   2   3
ATOM      3  N   UNL     1       0.117  -0.242   0.214  1.00  0.00    -0.351 N 
ATOM      4  C   UNL     1       0.723  -1.444   0.011  1.00  0.00     0.278 C 
ATOM      5  O   UNL     1       0.908  -1.743  -1.178  1.00  0.00    -0.268 OA
ATOM      6  H   UNL     1       0.031   0.300  -0.603  1.00  0.00     0.163 HD
BRANCH   4   7
ATOM      7  C   UNL     1       1.182  -2.423   1.134  1.00  0.00     0.273 C 
BRANCH   7   8
ATOM      8  C   UNL     1       1.482  -1.937   2.566  1.00  0.00     0.072 C 
ATOM      9  C   UNL     1       2.423  -0.739   2.644  1.00  0.00     0.011 C 
ENDBRANCH   7   8
BRANCH   7  10
ATOM     10  N   UNL     1       0.465  -3.730   1.081  1.00  0.00    -0.325 N 
ATOM     11  C   UNL     1       1.204  -4.805   1.732  1.00  0.00     0.333 C 
ATOM     12  H   UNL     1       0.482  -3.870   0.071  1.00  0.00     0.348 HD
BRANCH  10  13
ATOM     13  C   UNL     1      -1.013  -3.846   1.019  1.00  0.00     0.184 C 
ATOM     14  C   UNL     1      -1.552  -5.198   1.569  1.00  0.00     0.071 C 
ATOM     15  C   UNL     1      -1.809  -2.655   1.585  1.00  0.00     0.071 C 
ATOM     16  C   UNL     1      -3.075  -5.302   1.637  1.00  0.00     0.071 C 
ATOM     17  C   UNL     1      -3.323  -2.855   1.678  1.00  0.00     0.071 C 
ATOM     18  C   UNL     1      -3.705  -4.141   2.412  1.00  0.00     0.182 C 
BRANCH  18  19
ATOM     19  N   UNL     1      -3.279  -4.027   3.814  1.00  0.00    -0.346 N 
ATOM     20  C   UNL     1      -3.703  -5.138   4.649  1.00  0.00     0.331 C 
ATOM     21  H   UNL     1      -3.668  -3.168   4.200  1.00  0.00     0.346 HD
ATOM     22  H   UNL     1      -2.259  -4.029   3.815  1.00  0.00     0.346 HD
ENDBRANCH  18  19
ENDBRANCH  10  13
ENDBRANCH   7  10
ENDBRANCH   4   7
ENDBRANCH   2   3
ENDBRANCH   1   2
BRANCH   1  23
ATOM     23  C   UNL     1      -0.319   2.900   0.857  1.00  0.00     0.023 C 
BRANCH  23  24
ATOM     24  C   UNL     1      -1.816   3.148   1.003  1.00  0.00     0.116 C 
BRANCH  24  25
ATOM     25  N   UNL     1      -2.253   3.289   2.385  1.00  0.00    -0.352 N 
ATOM     26  C   UNL     1      -3.191   4.150   2.902  1.00  0.00     0.251 C 
ATOM     27  H   UNL     1      -1.819   2.689   3.034  1.00  0.00     0.163 HD
ATOM     28  O   UNL     1      -3.369   4.215   4.115  1.00  0.00    -0.269 OA
BRANCH  26  29
ATOM     29  C   UNL     1      -3.951   5.021   1.984  1.00  0.00     0.039 A 
ATOM     30  C   UNL     1      -4.030   6.387   2.260  1.00  0.00     0.014 A 
ATOM     31  C   UNL     1      -4.533   4.496   0.827  1.00  0.00     0.014 A 
ATOM     32  C   UNL     1      -4.638   7.238   1.337  1.00  0.00     0.010 A 
ATOM     33  C   UNL     1      -5.063   5.356  -0.129  1.00  0.00     0.010 A 
ATOM     34  C   UNL     1      -5.127   6.734   0.119  1.00  0.00    -0.014 A 
BRANCH  34  35
ATOM     35  C   UNL     1      -5.710   7.642  -0.899  1.00  0.00     0.031 A 
ATOM     36  C   UNL     1      -7.159   7.515  -1.284  1.00  0.00     0.074 A 
ATOM     37  C   UNL     1      -4.921   8.548  -1.509  1.00  0.00     0.049 A 
ATOM     38  N   UNL     1      -7.848   8.215  -2.147  1.00  0.00    -0.248 NA
ATOM     39  C   UNL     1      -7.927   6.438  -0.638  1.00  0.00     0.031 C 
ATOM     40  C   UNL     1      -3.483   8.712  -1.278  1.00  0.00     0.029 A 
ATOM     41  N   UNL     1      -5.215   9.505  -2.446  1.00  0.00    -0.354 N 
ATOM     42  C   UNL     1      -9.121   7.659  -2.155  1.00  0.00     0.074 A 
ATOM     43  C   UNL     1      -9.092   6.522  -1.262  1.00  0.00     0.031 C 
ATOM     44  C   UNL     1      -3.030   9.734  -2.023  1.00  0.00     0.029 A 
ATOM     45  C   UNL     1      -4.137  10.283  -2.798  1.00  0.00     0.049 A 
ATOM     46  H   UNL     1      -6.113   9.624  -2.831  1.00  0.00     0.167 HD
ATOM     47  C   UNL     1     -10.224   8.075  -2.822  1.00  0.00     0.037 A 
ATOM     48  C   UNL     1      -4.057  11.332  -3.639  1.00  0.00     0.037 A 
ATOM     49  C   UNL     1     -10.253   9.227  -3.685  1.00  0.00     0.049 A 
ATOM     50  C   UNL     1      -5.306  11.812  -4.326  1.00  0.00     0.074 A 
ATOM     51  C   UNL     1     -11.328   9.770  -4.365  1.00  0.00     0.029 A 
ATOM     52  N   UNL     1      -9.152  10.018  -3.981  1.00  0.00    -0.354 N 
ATOM     53  N   UNL     1      -6.520  11.317  -4.268  1.00  0.00    -0.248 NA
ATOM     54  C   UNL     1      -5.180  13.003  -5.175  1.00  0.00     0.031 C 
ATOM     55  C   UNL     1     -10.871  10.874  -5.095  1.00  0.00     0.029 A 
ATOM     56  C   UNL     1      -9.520  11.042  -4.837  1.00  0.00     0.049 A 
ATOM     57  H   UNL     1      -8.242   9.873  -3.634  1.00  0.00     0.167 HD
ATOM     58  C   UNL     1      -7.308  12.151  -5.052  1.00  0.00     0.074 A 
ATOM     59  C   UNL     1      -6.435  13.191  -5.560  1.00  0.00     0.031 C 
ATOM     60  C   UNL     1      -8.634  12.067  -5.328  1.00  0.00     0.037 A 
BRANCH  47  61
ATOM     61  C   UNL     1     -11.490   7.286  -2.626  1.00  0.00     0.058 A 
ATOM     62  C   UNL     1     -12.182   7.300  -1.403  1.00  0.00     0.135 A 
ATOM     63  C   UNL     1     -12.023   6.512  -3.669  1.00  0.00     0.135 A 
ATOM     64  F   UNL     1     -11.708   8.008  -0.366  1.00  0.00    -0.206 F 
ATOM     65  C   UNL     1     -13.336   6.548  -1.210  1.00  0.00     0.059 A 
ATOM     66  C   UNL     1     -13.192   5.774  -3.507  1.00  0.00     0.059 A 
ATOM     67  F   UNL     1     -11.402   6.460  -4.858  1.00  0.00    -0.206 F 
ATOM     68  C   UNL     1     -13.831   5.784  -2.268  1.00  0.00     0.060 A 
BRANCH  68  69
ATOM     69  S   UNL     1     -15.326   4.808  -2.001  1.00  0.00     0.124 S 
ATOM     70  O   UNL     1     -14.811   3.701  -1.200  1.00  0.00    -0.237 OA
ATOM     71  O   UNL     1     -16.193   5.748  -1.298  1.00  0.00    -0.237 OA
ATOM     72  O   UNL     1     -15.750   4.460  -3.353  1.00  0.00    -0.744 OA
ENDBRANCH  68  69
ENDBRANCH  47  61
BRANCH  48  73
ATOM     73  C   UNL     1      -2.761  12.036  -3.827  1.00  0.00     0.058 A 
ATOM     74  C   UNL     1      -2.549  13.311  -3.282  1.00  0.00     0.135 A 
ATOM     75  C   UNL     1      -1.704  11.445  -4.536  1.00  0.00     0.135 A 
ATOM     76  F   UNL     1      -3.531  13.919  -2.598  1.00  0.00    -0.206 F 
ATOM     77  C   UNL     1      -1.343  13.985  -3.446  1.00  0.00     0.059 A 
ATOM     78  C   UNL     1      -0.480  12.088  -4.694  1.00  0.00     0.059 A 
ATOM     79  F   UNL     1      -1.849  10.217  -5.059  1.00  0.00    -0.206 F 
ATOM     80  C   UNL     1      -0.313  13.363  -4.154  1.00  0.00     0.060 A 
BRANCH  80  81
ATOM     81  S   UNL     1       1.268  14.222  -4.317  1.00  0.00     0.124 S 
ATOM     82  O   UNL     1       0.952  15.230  -5.323  1.00  0.00    -0.237 OA
ATOM     83  O   UNL     1       1.490  14.719  -2.962  1.00  0.00    -0.237 OA
ATOM     84  O   UNL     1       2.179  13.165  -4.745  1.00  0.00    -0.744 OA
ENDBRANCH  80  81
ENDBRANCH  48  73
BRANCH  60  85
ATOM     85  C   UNL     1      -9.220  13.149  -6.191  1.00  0.00     0.058 A 
ATOM     86  C   UNL     1      -8.954  13.220  -7.567  1.00  0.00     0.135 A 
ATOM     87  C   UNL     1     -10.067  14.120  -5.634  1.00  0.00     0.135 A 
ATOM     88  F   UNL     1      -8.148  12.317  -8.148  1.00  0.00    -0.206 F 
ATOM     89  C   UNL     1      -9.476  14.241  -8.355  1.00  0.00     0.059 A 
ATOM     90  C   UNL     1     -10.622  15.134  -6.407  1.00  0.00     0.059 A 
ATOM     91  F   UNL     1     -10.364  14.088  -4.325  1.00  0.00    -0.206 F 
ATOM     92  C   UNL     1     -10.303  15.197  -7.764  1.00  0.00     0.060 A 
BRANCH  92  93
ATOM     93  S   UNL     1     -10.973  16.522  -8.791  1.00  0.00     0.124 S 
ATOM     94  O   UNL     1      -9.819  17.407  -8.915  1.00  0.00    -0.237 OA
ATOM     95  O   UNL     1     -11.361  15.813 -10.007  1.00  0.00    -0.237 OA
ATOM     96  O   UNL     1     -12.081  17.040  -7.995  1.00  0.00    -0.744 OA
ENDBRANCH  92  93
ENDBRANCH  60  85
ENDBRANCH  34  35
ENDBRANCH  26  29
ENDBRANCH  24  25
ENDBRANCH  23  24
ENDBRANCH   1  23
TORSDOF 18
