REMARK SMILES O=C(CCCNC(=O)N1CC[C@@H](C(=O)NCCCCNC(=O)c2ccc(-c3c4nc(c(-c5c(F)cc(S(=O)(=O)[O-])cc5F)c5ccc([nH]5)c(-c5c(F)cc(S(=O)(=O)[O-])cc5F)c5nc(c(-c6c(F)cc(S(=O)(=O)[O-])cc6F)c6ccc3[nH]6)C=C5)C=C4)cc2)C1)NC1CC1
REMARK SMILES IDX 16 1 15 2 13 3 14 4 12 6 9 7 10 8 89 9 11 10 7 11 6 12 8 14
REMARK SMILES IDX 5 15 4 16 3 17 2 18 1 19 90 20 91 22 92 23 93 24 17 25 18 26
REMARK SMILES IDX 19 27 20 28 21 29 22 31 23 32 24 33 88 34 25 35 87 36 26 37
REMARK SMILES IDX 27 38 28 39 81 40 29 41 86 42 80 43 82 44 30 45 85 46 79 47
REMARK SMILES IDX 78 48 31 50 65 51 44 52 64 53 45 54 48 55 63 56 83 57 46 58
REMARK SMILES IDX 47 59 62 61 84 62 49 63 32 64 33 65 42 66 34 67 35 68 41 69
REMARK SMILES IDX 43 70 36 71 37 72 38 73 39 74 40 75 66 76 67 77 76 78 68 79
REMARK SMILES IDX 69 80 75 81 77 82 70 83 71 84 72 85 73 86 74 87 50 88 51 89
REMARK SMILES IDX 60 90 52 91 53 92 59 93 61 94 54 95 55 96 56 97 57 98 58 99
REMARK H PARENT 15 5 6 13 90 21 20 30 82 49 48 60
REMARK Flexibility Score: inf
ROOT
ATOM      1  C   UNL     1      10.645   6.051   0.164  1.00  0.00     0.116 C 
ENDROOT
BRANCH   1   2
ATOM      2  N   UNL     1      10.901   4.958   1.084  1.00  0.00    -0.356 N 
ATOM      3  C   UNL     1      10.085   3.956   1.506  1.00  0.00     0.224 C 
ATOM      4  O   UNL     1      10.494   3.195   2.384  1.00  0.00    -0.275 OA
ATOM      5  H   UNL     1      11.810   4.940   1.463  1.00  0.00     0.163 HD
BRANCH   3   6
ATOM      6  C   UNL     1       8.725   3.776   0.873  1.00  0.00     0.100 C 
ATOM      7  N   UNL     1       7.633   1.729   0.494  1.00  0.00    -0.324 N 
ATOM      8  C   UNL     1       7.442   2.018   1.901  1.00  0.00     0.122 C 
ATOM      9  C   UNL     1       8.732   2.522  -0.012  1.00  0.00     0.134 C 
ATOM     10  C   UNL     1       7.647   3.518   1.944  1.00  0.00     0.037 C 
BRANCH   7  11
ATOM     11  C   UNL     1       7.049   0.755  -0.247  1.00  0.00     0.317 C 
ATOM     12  N   UNL     1       5.737   0.479  -0.026  1.00  0.00    -0.338 N 
ATOM     13  H   UNL     1       5.444  -0.447  -0.188  1.00  0.00     0.165 HD
ATOM     14  O   UNL     1       7.621   0.162  -1.159  1.00  0.00    -0.249 OA
BRANCH  12  15
ATOM     15  C   UNL     1       4.723   1.418   0.427  1.00  0.00     0.118 C 
BRANCH  15  16
ATOM     16  C   UNL     1       3.718   1.760  -0.674  1.00  0.00     0.031 C 
BRANCH  16  17
ATOM     17  C   UNL     1       2.855   0.588  -1.131  1.00  0.00     0.102 C 
BRANCH  17  18
ATOM     18  C   UNL     1       1.969   0.106  -0.004  1.00  0.00     0.220 C 
ATOM     19  O   UNL     1       0.895   0.642   0.249  1.00  0.00    -0.275 OA
ATOM     20  N   UNL     1       2.523  -0.924   0.729  1.00  0.00    -0.353 N 
ATOM     21  H   UNL     1       3.367  -1.322   0.415  1.00  0.00     0.163 HD
BRANCH  20  22
ATOM     22  C   UNL     1       1.930  -1.438   1.919  1.00  0.00     0.082 C 
ATOM     23  C   UNL     1       0.546  -2.020   1.936  1.00  0.00     0.027 C 
ATOM     24  C   UNL     1       1.737  -2.922   2.069  1.00  0.00     0.027 C 
ENDBRANCH  20  22
ENDBRANCH  17  18
ENDBRANCH  16  17
ENDBRANCH  15  16
ENDBRANCH  12  15
ENDBRANCH   7  11
ENDBRANCH   3   6
ENDBRANCH   1   2
BRANCH   1  25
ATOM     25  C   UNL     1      10.401   7.363   0.908  1.00  0.00     0.023 C 
BRANCH  25  26
ATOM     26  C   UNL     1      11.594   7.856   1.735  1.00  0.00     0.023 C 
BRANCH  26  27
ATOM     27  C   UNL     1      12.915   7.965   0.979  1.00  0.00     0.116 C 
BRANCH  27  28
ATOM     28  N   UNL     1      12.841   8.861  -0.164  1.00  0.00    -0.352 N 
ATOM     29  C   UNL     1      13.725   9.838  -0.556  1.00  0.00     0.251 C 
ATOM     30  H   UNL     1      12.047   8.753  -0.736  1.00  0.00     0.163 HD
ATOM     31  O   UNL     1      13.430  10.592  -1.479  1.00  0.00    -0.269 OA
BRANCH  29  32
ATOM     32  C   UNL     1      15.010   9.999   0.158  1.00  0.00     0.039 A 
ATOM     33  C   UNL     1      15.402  11.279   0.557  1.00  0.00     0.014 A 
ATOM     34  C   UNL     1      15.816   8.895   0.450  1.00  0.00     0.014 A 
ATOM     35  C   UNL     1      16.564  11.442   1.317  1.00  0.00     0.010 A 
ATOM     36  C   UNL     1      16.938   9.051   1.261  1.00  0.00     0.010 A 
ATOM     37  C   UNL     1      17.318  10.325   1.711  1.00  0.00    -0.014 A 
BRANCH  37  38
ATOM     38  C   UNL     1      18.494  10.464   2.611  1.00  0.00     0.031 A 
ATOM     39  C   UNL     1      19.868  10.093   2.122  1.00  0.00     0.074 A 
ATOM     40  C   UNL     1      18.313  10.860   3.887  1.00  0.00     0.049 A 
ATOM     41  N   UNL     1      20.994  10.043   2.787  1.00  0.00    -0.248 NA
ATOM     42  C   UNL     1      19.990   9.709   0.707  1.00  0.00     0.031 C 
ATOM     43  C   UNL     1      17.025  11.214   4.491  1.00  0.00     0.029 A 
ATOM     44  N   UNL     1      19.211  11.018   4.914  1.00  0.00    -0.354 N 
ATOM     45  C   UNL     1      21.955   9.620   1.876  1.00  0.00     0.074 A 
ATOM     46  C   UNL     1      21.271   9.378   0.624  1.00  0.00     0.031 C 
ATOM     47  C   UNL     1      17.218  11.556   5.775  1.00  0.00     0.029 A 
ATOM     48  C   UNL     1      18.633  11.406   6.101  1.00  0.00     0.049 A 
ATOM     49  H   UNL     1      20.178  10.866   4.811  1.00  0.00     0.167 HD
ATOM     50  C   UNL     1      23.288   9.472   2.059  1.00  0.00     0.037 A 
ATOM     51  C   UNL     1      19.177  11.601   7.318  1.00  0.00     0.037 A 
ATOM     52  C   UNL     1      23.968   9.733   3.302  1.00  0.00     0.049 A 
ATOM     53  C   UNL     1      20.658  11.399   7.500  1.00  0.00     0.074 A 
ATOM     54  C   UNL     1      25.322   9.640   3.577  1.00  0.00     0.029 A 
ATOM     55  N   UNL     1      23.351  10.142   4.474  1.00  0.00    -0.354 N 
ATOM     56  N   UNL     1      21.557  11.040   6.614  1.00  0.00    -0.248 NA
ATOM     57  C   UNL     1      21.202  11.631   8.846  1.00  0.00     0.031 C 
ATOM     58  C   UNL     1      25.518   9.957   4.924  1.00  0.00     0.029 A 
ATOM     59  C   UNL     1      24.294  10.293   5.477  1.00  0.00     0.049 A 
ATOM     60  H   UNL     1      22.385  10.302   4.578  1.00  0.00     0.167 HD
ATOM     61  C   UNL     1      22.773  11.034   7.289  1.00  0.00     0.074 A 
ATOM     62  C   UNL     1      22.498  11.440   8.651  1.00  0.00     0.031 C 
ATOM     63  C   UNL     1      24.007  10.717   6.824  1.00  0.00     0.037 A 
BRANCH  50  64
ATOM     64  C   UNL     1      24.114   9.027   0.884  1.00  0.00     0.058 A 
ATOM     65  C   UNL     1      24.373   9.888  -0.194  1.00  0.00     0.135 A 
ATOM     66  C   UNL     1      24.716   7.758   0.869  1.00  0.00     0.135 A 
ATOM     67  F   UNL     1      23.808  11.105  -0.237  1.00  0.00    -0.206 F 
ATOM     68  C   UNL     1      25.191   9.505  -1.251  1.00  0.00     0.059 A 
ATOM     69  C   UNL     1      25.560   7.363  -0.166  1.00  0.00     0.059 A 
ATOM     70  F   UNL     1      24.500   6.895   1.873  1.00  0.00    -0.206 F 
ATOM     71  C   UNL     1      25.786   8.242  -1.225  1.00  0.00     0.060 A 
BRANCH  71  72
ATOM     72  S   UNL     1      26.877   7.779  -2.586  1.00  0.00     0.124 S 
ATOM     73  O   UNL     1      25.922   7.591  -3.674  1.00  0.00    -0.237 OA
ATOM     74  O   UNL     1      27.745   8.947  -2.700  1.00  0.00    -0.237 OA
ATOM     75  O   UNL     1      27.526   6.563  -2.105  1.00  0.00    -0.744 OA
ENDBRANCH  71  72
ENDBRANCH  50  64
BRANCH  51  76
ATOM     76  C   UNL     1      18.325  12.003   8.471  1.00  0.00     0.058 A 
ATOM     77  C   UNL     1      18.457  13.270   9.060  1.00  0.00     0.135 A 
ATOM     78  C   UNL     1      17.392  11.117   9.031  1.00  0.00     0.135 A 
ATOM     79  F   UNL     1      19.339  14.151   8.564  1.00  0.00    -0.206 F 
ATOM     80  C   UNL     1      17.724  13.631  10.186  1.00  0.00     0.059 A 
ATOM     81  C   UNL     1      16.626  11.466  10.139  1.00  0.00     0.059 A 
ATOM     82  F   UNL     1      17.212   9.900   8.495  1.00  0.00    -0.206 F 
ATOM     83  C   UNL     1      16.815  12.718  10.722  1.00  0.00     0.060 A 
BRANCH  83  84
ATOM     84  S   UNL     1      15.866  13.194  12.184  1.00  0.00     0.124 S 
ATOM     85  O   UNL     1      16.874  13.090  13.232  1.00  0.00    -0.237 OA
ATOM     86  O   UNL     1      15.434  14.546  11.844  1.00  0.00    -0.237 OA
ATOM     87  O   UNL     1      14.801  12.196  12.229  1.00  0.00    -0.744 OA
ENDBRANCH  83  84
ENDBRANCH  51  76
BRANCH  63  88
ATOM     88  C   UNL     1      25.160  10.841   7.781  1.00  0.00     0.058 A 
ATOM     89  C   UNL     1      25.352   9.927   8.829  1.00  0.00     0.135 A 
ATOM     90  C   UNL     1      26.112  11.861   7.617  1.00  0.00     0.135 A 
ATOM     91  F   UNL     1      24.468   8.938   9.033  1.00  0.00    -0.206 F 
ATOM     92  C   UNL     1      26.433  10.034   9.697  1.00  0.00     0.059 A 
ATOM     93  C   UNL     1      27.217  11.970   8.456  1.00  0.00     0.059 A 
ATOM     94  F   UNL     1      25.982  12.755   6.625  1.00  0.00    -0.206 F 
ATOM     95  C   UNL     1      27.362  11.059   9.501  1.00  0.00     0.060 A 
BRANCH  95  96
ATOM     96  S   UNL     1      28.779  11.167  10.615  1.00  0.00     0.124 S 
ATOM     97  O   UNL     1      28.159  11.687  11.829  1.00  0.00    -0.237 OA
ATOM     98  O   UNL     1      29.233   9.781  10.678  1.00  0.00    -0.237 OA
ATOM     99  O   UNL     1      29.682  12.086   9.928  1.00  0.00    -0.744 OA
ENDBRANCH  95  96
ENDBRANCH  63  88
ENDBRANCH  37  38
ENDBRANCH  29  32
ENDBRANCH  27  28
ENDBRANCH  26  27
ENDBRANCH  25  26
ENDBRANCH   1  25
TORSDOF 20
