REMARK SMILES O=C(NCCCCNC(=O)c1ccccc1-c1ccccc1C(=O)N1CC[NH+](Cc2ccc3c(c2)OCO3)CC1)c1ccc(-c2c3nc(c(-c4c(F)cc(S(=O)(=O)[O-])cc4F)c4ccc([nH]4)c(-c4c(F)cc(S(=O)(=O)[O-])cc4F)c4nc(c(-c5c(F)cc(S(=O)(=O)[O-])cc5F)c5ccc2[nH]5)C=C4)C=C3)cc1
REMARK SMILES IDX 6 1 5 2 4 3 3 4 1 5 2 6 41 8 42 9 106 10 43 11 105 12 44 13
REMARK SMILES IDX 45 14 46 15 99 16 47 17 104 18 98 19 100 20 48 21 103 22
REMARK SMILES IDX 97 23 96 24 49 26 83 27 62 28 82 29 63 30 66 31 81 32 101 33
REMARK SMILES IDX 64 34 65 35 80 37 102 38 67 39 50 40 51 41 60 42 52 43 53 44
REMARK SMILES IDX 59 45 61 46 54 47 55 48 56 49 57 50 58 51 84 52 85 53 94 54
REMARK SMILES IDX 86 55 87 56 93 57 95 58 88 59 89 60 90 61 91 62 92 63 68 64
REMARK SMILES IDX 69 65 78 66 70 67 71 68 77 69 79 70 72 71 73 72 74 73 75 74
REMARK SMILES IDX 76 75 7 76 8 77 9 78 10 80 11 81 12 82 16 83 13 84 15 85
REMARK SMILES IDX 14 86 17 87 18 88 22 89 19 90 21 91 20 92 23 93 24 94 25 95
REMARK SMILES IDX 26 96 40 97 27 98 39 99 28 100 29 102 30 103 31 104 35 105
REMARK SMILES IDX 32 106 34 107 33 108 36 109 38 110 37 111
REMARK H PARENT 3 7 100 25 66 36 8 79 28 101
REMARK Flexibility Score: inf
ROOT
ATOM      1  C   UNL     1       4.035   3.390   1.104  1.00  0.00     0.023 C 
ENDROOT
BRANCH   1   2
ATOM      2  C   UNL     1       4.733   2.407   0.163  1.00  0.00     0.023 C 
BRANCH   2   3
ATOM      3  C   UNL     1       4.518   0.943   0.521  1.00  0.00     0.116 C 
BRANCH   3   4
ATOM      4  N   UNL     1       3.103   0.622   0.664  1.00  0.00    -0.352 N 
ATOM      5  O   UNL     1       1.120  -0.235   0.017  1.00  0.00    -0.269 OA
ATOM      6  C   UNL     1       2.332  -0.221  -0.096  1.00  0.00     0.251 C 
ATOM      7  H   UNL     1       2.638   1.070   1.407  1.00  0.00     0.163 HD
BRANCH   6   8
ATOM      8  C   UNL     1       3.023  -1.099  -1.054  1.00  0.00     0.039 A 
ATOM      9  C   UNL     1       4.105  -1.869  -0.617  1.00  0.00     0.014 A 
ATOM     10  C   UNL     1       2.615  -1.115  -2.388  1.00  0.00     0.014 A 
ATOM     11  C   UNL     1       4.856  -2.573  -1.542  1.00  0.00     0.010 A 
ATOM     12  C   UNL     1       3.317  -1.899  -3.301  1.00  0.00     0.010 A 
ATOM     13  C   UNL     1       4.443  -2.626  -2.883  1.00  0.00    -0.014 A 
BRANCH  13  14
ATOM     14  C   UNL     1       5.114  -3.575  -3.798  1.00  0.00     0.031 A 
ATOM     15  C   UNL     1       5.891  -3.098  -4.986  1.00  0.00     0.074 A 
ATOM     16  C   UNL     1       4.975  -4.888  -3.531  1.00  0.00     0.049 A 
ATOM     17  N   UNL     1       6.478  -3.808  -5.913  1.00  0.00    -0.248 NA
ATOM     18  C   UNL     1       6.023  -1.643  -5.170  1.00  0.00     0.031 C 
ATOM     19  C   UNL     1       4.212  -5.442  -2.405  1.00  0.00     0.029 A 
ATOM     20  N   UNL     1       5.455  -5.995  -4.178  1.00  0.00    -0.354 N 
ATOM     21  C   UNL     1       7.024  -2.894  -6.806  1.00  0.00     0.074 A 
ATOM     22  C   UNL     1       6.697  -1.574  -6.312  1.00  0.00     0.031 C 
ATOM     23  C   UNL     1       4.293  -6.778  -2.430  1.00  0.00     0.029 A 
ATOM     24  C   UNL     1       5.044  -7.178  -3.611  1.00  0.00     0.049 A 
ATOM     25  H   UNL     1       6.038  -5.949  -4.970  1.00  0.00     0.167 HD
ATOM     26  C   UNL     1       7.729  -3.151  -7.932  1.00  0.00     0.037 A 
ATOM     27  C   UNL     1       5.208  -8.447  -4.024  1.00  0.00     0.037 A 
ATOM     28  C   UNL     1       8.065  -4.479  -8.381  1.00  0.00     0.049 A 
ATOM     29  C   UNL     1       5.974  -8.692  -5.289  1.00  0.00     0.074 A 
ATOM     30  C   UNL     1       8.854  -4.846  -9.457  1.00  0.00     0.029 A 
ATOM     31  N   UNL     1       7.620  -5.654  -7.792  1.00  0.00    -0.354 N 
ATOM     32  N   UNL     1       6.548  -7.819  -6.082  1.00  0.00    -0.248 NA
ATOM     33  C   UNL     1       6.104 -10.086  -5.727  1.00  0.00     0.031 C 
ATOM     34  C   UNL     1       8.839  -6.241  -9.553  1.00  0.00     0.029 A 
ATOM     35  C   UNL     1       8.080  -6.746  -8.509  1.00  0.00     0.049 A 
ATOM     36  H   UNL     1       7.061  -5.704  -6.983  1.00  0.00     0.167 HD
ATOM     37  C   UNL     1       7.108  -8.558  -7.114  1.00  0.00     0.074 A 
ATOM     38  C   UNL     1       6.830  -9.951  -6.828  1.00  0.00     0.031 C 
ATOM     39  C   UNL     1       7.782  -8.123  -8.206  1.00  0.00     0.037 A 
BRANCH  26  40
ATOM     40  C   UNL     1       8.177  -1.995  -8.781  1.00  0.00     0.058 A 
ATOM     41  C   UNL     1       9.257  -1.178  -8.413  1.00  0.00     0.135 A 
ATOM     42  C   UNL     1       7.588  -1.775 -10.038  1.00  0.00     0.135 A 
ATOM     43  F   UNL     1       9.847  -1.336  -7.217  1.00  0.00    -0.206 F 
ATOM     44  C   UNL     1       9.740  -0.187  -9.262  1.00  0.00     0.059 A 
ATOM     45  C   UNL     1       8.068  -0.803 -10.911  1.00  0.00     0.059 A 
ATOM     46  F   UNL     1       6.550  -2.526 -10.437  1.00  0.00    -0.206 F 
ATOM     47  C   UNL     1       9.145  -0.013 -10.514  1.00  0.00     0.060 A 
BRANCH  47  48
ATOM     48  S   UNL     1       9.823   1.237 -11.628  1.00  0.00     0.124 S 
ATOM     49  O   UNL     1       9.393   2.471 -10.977  1.00  0.00    -0.237 OA
ATOM     50  O   UNL     1      11.255   0.958 -11.574  1.00  0.00    -0.237 OA
ATOM     51  O   UNL     1       9.178   0.944 -12.904  1.00  0.00    -0.744 OA
ENDBRANCH  47  48
ENDBRANCH  26  40
BRANCH  27  52
ATOM     52  C   UNL     1       4.582  -9.559  -3.266  1.00  0.00     0.058 A 
ATOM     53  C   UNL     1       5.360 -10.493  -2.569  1.00  0.00     0.135 A 
ATOM     54  C   UNL     1       3.185  -9.700  -3.214  1.00  0.00     0.135 A 
ATOM     55  F   UNL     1       6.698 -10.399  -2.588  1.00  0.00    -0.206 F 
ATOM     56  C   UNL     1       4.778 -11.545  -1.869  1.00  0.00     0.059 A 
ATOM     57  C   UNL     1       2.579 -10.724  -2.496  1.00  0.00     0.059 A 
ATOM     58  F   UNL     1       2.395  -8.817  -3.844  1.00  0.00    -0.206 F 
ATOM     59  C   UNL     1       3.386 -11.653  -1.842  1.00  0.00     0.060 A 
BRANCH  59  60
ATOM     60  S   UNL     1       2.636 -13.010  -0.918  1.00  0.00     0.124 S 
ATOM     61  O   UNL     1       2.865 -14.135  -1.818  1.00  0.00    -0.237 OA
ATOM     62  O   UNL     1       3.413 -13.011   0.317  1.00  0.00    -0.237 OA
ATOM     63  O   UNL     1       1.246 -12.589  -0.774  1.00  0.00    -0.744 OA
ENDBRANCH  59  60
ENDBRANCH  27  52
BRANCH  39  64
ATOM     64  C   UNL     1       8.260  -9.168  -9.170  1.00  0.00     0.058 A 
ATOM     65  C   UNL     1       7.368  -9.822 -10.034  1.00  0.00     0.135 A 
ATOM     66  C   UNL     1       9.624  -9.481  -9.268  1.00  0.00     0.135 A 
ATOM     67  F   UNL     1       6.051  -9.567  -9.967  1.00  0.00    -0.206 F 
ATOM     68  C   UNL     1       7.812 -10.760 -10.958  1.00  0.00     0.059 A 
ATOM     69  C   UNL     1      10.094 -10.396 -10.203  1.00  0.00     0.059 A 
ATOM     70  F   UNL     1      10.516  -8.878  -8.465  1.00  0.00    -0.206 F 
ATOM     71  C   UNL     1       9.179 -11.036 -11.039  1.00  0.00     0.060 A 
BRANCH  71  72
ATOM     72  S   UNL     1       9.748 -12.218 -12.278  1.00  0.00     0.124 S 
ATOM     73  O   UNL     1       9.316 -13.485 -11.696  1.00  0.00    -0.237 OA
ATOM     74  O   UNL     1       9.026 -11.790 -13.472  1.00  0.00    -0.237 OA
ATOM     75  O   UNL     1      11.191 -12.003 -12.315  1.00  0.00    -0.744 OA
ENDBRANCH  71  72
ENDBRANCH  39  64
ENDBRANCH  13  14
ENDBRANCH   6   8
ENDBRANCH   3   4
ENDBRANCH   2   3
ENDBRANCH   1   2
BRANCH   1  76
ATOM     76  C   UNL     1       4.243   3.075   2.579  1.00  0.00     0.116 C 
BRANCH  76  77
ATOM     77  N   UNL     1       5.644   3.157   2.908  1.00  0.00    -0.352 N 
ATOM     78  C   UNL     1       6.221   4.144   3.647  1.00  0.00     0.251 C 
ATOM     79  H   UNL     1       6.231   2.443   2.570  1.00  0.00     0.163 HD
ATOM     80  O   UNL     1       7.335   4.551   3.332  1.00  0.00    -0.269 OA
BRANCH  78  81
ATOM     81  C   UNL     1       5.494   4.726   4.807  1.00  0.00     0.047 A 
ATOM     82  C   UNL     1       5.646   6.117   4.955  1.00  0.00     0.014 A 
ATOM     83  C   UNL     1       4.759   3.978   5.761  1.00  0.00    -0.005 A 
ATOM     84  C   UNL     1       5.053   6.793   6.017  1.00  0.00     0.001 A 
ATOM     85  C   UNL     1       4.165   4.702   6.824  1.00  0.00     0.009 A 
ATOM     86  C   UNL     1       4.306   6.086   6.949  1.00  0.00     0.001 A 
BRANCH  83  87
ATOM     87  C   UNL     1       4.525   2.510   5.729  1.00  0.00    -0.005 A 
ATOM     88  C   UNL     1       3.167   2.092   5.650  1.00  0.00     0.009 A 
ATOM     89  C   UNL     1       5.513   1.498   5.715  1.00  0.00     0.047 A 
ATOM     90  C   UNL     1       2.798   0.753   5.507  1.00  0.00     0.001 A 
ATOM     91  C   UNL     1       5.118   0.144   5.577  1.00  0.00     0.014 A 
ATOM     92  C   UNL     1       3.777  -0.224   5.465  1.00  0.00     0.001 A 
BRANCH  89  93
ATOM     93  C   UNL     1       6.989   1.725   5.633  1.00  0.00     0.254 C 
ATOM     94  O   UNL     1       7.646   0.933   4.953  1.00  0.00    -0.269 OA
ATOM     95  N   UNL     1       7.583   2.832   6.229  1.00  0.00    -0.327 N 
ATOM     96  C   UNL     1       8.855   3.266   5.668  1.00  0.00     0.181 C 
ATOM     97  C   UNL     1       7.384   3.199   7.625  1.00  0.00     0.181 C 
ATOM     98  C   UNL     1       9.140   4.761   5.918  1.00  0.00     0.284 C 
ATOM     99  C   UNL     1       7.765   4.670   7.940  1.00  0.00     0.284 C 
ATOM    100  N   UNL     1       8.956   5.247   7.298  1.00  0.00    -0.328 N 
ATOM    101  H   UNL     1       8.738   6.240   7.220  1.00  0.00     0.348 HD
BRANCH 100 102
ATOM    102  C   UNL     1      10.177   5.329   8.107  1.00  0.00     0.299 C 
BRANCH 102 103
ATOM    103  C   UNL     1      10.822   3.992   8.384  1.00  0.00     0.010 A 
ATOM    104  C   UNL     1      10.354   3.200   9.458  1.00  0.00     0.013 A 
ATOM    105  C   UNL     1      11.686   3.441   7.424  1.00  0.00     0.060 A 
ATOM    106  C   UNL     1      10.570   1.821   9.466  1.00  0.00     0.051 A 
ATOM    107  C   UNL     1      11.818   2.074   7.422  1.00  0.00     0.166 A 
ATOM    108  C   UNL     1      11.241   1.285   8.390  1.00  0.00     0.165 A 
ATOM    109  O   UNL     1      12.320   1.340   6.389  1.00  0.00    -0.454 OA
ATOM    110  O   UNL     1      11.307  -0.038   8.071  1.00  0.00    -0.454 OA
ATOM    111  C   UNL     1      11.708   0.067   6.685  1.00  0.00     0.468 C 
ENDBRANCH 102 103
ENDBRANCH 100 102
ENDBRANCH  89  93
ENDBRANCH  83  87
ENDBRANCH  78  81
ENDBRANCH  76  77
ENDBRANCH   1  76
TORSDOF 18
