REMARK SMILES CCN1C(=O)/C(=C2/SC(=S)N([C@@H](C)C(=O)NCCCCNC(=O)c3ccc(-c4c5nc(c(-c6c(F)cc(S(=O)(=O)[O-])cc6F)c6ccc([nH]6)c(-c6c(F)cc(S(=O)(=O)[O-])cc6F)c6nc(c(-c7c(F)cc(S(=O)(=O)[O-])cc7F)c7ccc4[nH]7)C=C6)C=C5)cc3)C2=O)c2cc(Br)ccc21
REMARK SMILES IDX 19 1 18 2 17 3 16 4 14 5 15 6 12 8 13 9 11 10 3 11 4 12
REMARK SMILES IDX 98 13 5 14 6 15 92 16 97 17 7 18 93 19 96 20 8 21 90 22
REMARK SMILES IDX 94 23 9 24 91 25 95 26 10 27 2 28 1 29 20 30 21 31 22 32
REMARK SMILES IDX 23 34 24 35 25 36 89 37 26 38 88 39 27 40 28 41 29 42 82 43
REMARK SMILES IDX 30 44 87 45 81 46 83 47 31 48 86 49 80 50 79 51 32 53 66 54
REMARK SMILES IDX 45 55 65 56 46 57 49 58 64 59 84 60 47 61 48 62 63 64 85 65
REMARK SMILES IDX 50 66 33 67 34 68 43 69 35 70 36 71 42 72 44 73 37 74 38 75
REMARK SMILES IDX 39 76 40 77 41 78 67 79 68 80 77 81 69 82 70 83 76 84 78 85
REMARK SMILES IDX 71 86 72 87 73 88 74 89 75 90 51 91 52 92 61 93 53 94 54 95
REMARK SMILES IDX 60 96 62 97 55 98 56 99 57 100 58 101 59 102
REMARK H PARENT 16 7 21 33 83 52 49 63
REMARK Flexibility Score: inf
ROOT
ATOM      1  C   UNL     1       0.958 -11.288   3.501  1.00  0.00     0.023 C 
ENDROOT
BRANCH   1   2
ATOM      2  C   UNL     1       1.288 -10.559   2.204  1.00  0.00     0.023 C 
BRANCH   2   3
ATOM      3  C   UNL     1       0.841 -11.277   0.931  1.00  0.00     0.116 C 
BRANCH   3   4
ATOM      4  N   UNL     1      -0.504 -10.906   0.547  1.00  0.00    -0.354 N 
ATOM      5  C   UNL     1      -0.999 -10.138  -0.463  1.00  0.00     0.242 C 
ATOM      6  O   UNL     1      -2.232 -10.117  -0.563  1.00  0.00    -0.273 OA
ATOM      7  H   UNL     1      -1.200 -11.285   1.132  1.00  0.00     0.163 HD
BRANCH   5   8
ATOM      8  C   UNL     1      -0.128  -9.399  -1.518  1.00  0.00     0.178 C 
ATOM      9  C   UNL     1       0.522 -10.399  -2.471  1.00  0.00     0.042 C 
BRANCH   8  10
ATOM     10  N   UNL     1       0.734  -8.354  -0.917  1.00  0.00    -0.280 N 
ATOM     11  N   UNL     1       1.101  -2.644  -0.053  1.00  0.00    -0.308 N 
ATOM     12  C   UNL     1       0.566  -3.879  -0.481  1.00  0.00     0.260 C 
ATOM     13  C   UNL     1       2.111  -2.842   0.912  1.00  0.00     0.052 A 
ATOM     14  O   UNL     1      -0.207  -4.054  -1.400  1.00  0.00    -0.269 OA
ATOM     15  C   UNL     1       1.274  -4.934   0.330  1.00  0.00     0.069 C 
ATOM     16  C   UNL     1       2.245  -4.210   1.188  1.00  0.00     0.014 A 
ATOM     17  C   UNL     1       2.922  -1.918   1.558  1.00  0.00     0.028 A 
ATOM     18  C   UNL     1       1.133  -6.263   0.173  1.00  0.00     0.093 C 
ATOM     19  C   UNL     1       3.177  -4.644   2.130  1.00  0.00     0.026 A 
ATOM     20  C   UNL     1       3.873  -2.361   2.486  1.00  0.00     0.018 A 
ATOM     21  S   UNL     1       2.254  -7.399   0.846  1.00  0.00    -0.053 SA
ATOM     22  C   UNL     1       0.180  -7.088  -0.658  1.00  0.00     0.267 C 
ATOM     23  C   UNL     1       3.998  -3.718   2.763  1.00  0.00     0.018 A 
ATOM     24  C   UNL     1       2.028  -8.482  -0.492  1.00  0.00     0.149 C 
ATOM     25  O   UNL     1      -0.928  -6.717  -1.007  1.00  0.00    -0.268 OA
ATOM     26  Br  UNL     1       5.300  -4.320   3.994  1.00  0.00    -0.051 Br
ATOM     27  S   UNL     1       3.317  -9.341  -1.104  1.00  0.00    -0.052 S 
BRANCH  11  28
ATOM     28  C   UNL     1       0.715  -1.420  -0.730  1.00  0.00     0.122 C 
ATOM     29  C   UNL     1       0.955  -0.082  -0.051  1.00  0.00     0.028 C 
ENDBRANCH  11  28
ENDBRANCH   8  10
ENDBRANCH   5   8
ENDBRANCH   3   4
ENDBRANCH   2   3
ENDBRANCH   1   2
BRANCH   1  30
ATOM     30  C   UNL     1       1.609 -12.653   3.660  1.00  0.00     0.116 C 
BRANCH  30  31
ATOM     31  N   UNL     1       3.068 -12.642   3.636  1.00  0.00    -0.352 N 
ATOM     32  C   UNL     1       3.931 -13.430   4.375  1.00  0.00     0.251 C 
ATOM     33  H   UNL     1       3.488 -11.998   3.022  1.00  0.00     0.163 HD
ATOM     34  O   UNL     1       5.144 -13.270   4.309  1.00  0.00    -0.269 OA
BRANCH  32  35
ATOM     35  C   UNL     1       3.348 -14.434   5.293  1.00  0.00     0.039 A 
ATOM     36  C   UNL     1       2.325 -15.264   4.839  1.00  0.00     0.014 A 
ATOM     37  C   UNL     1       3.709 -14.430   6.642  1.00  0.00     0.014 A 
ATOM     38  C   UNL     1       1.502 -15.888   5.764  1.00  0.00     0.010 A 
ATOM     39  C   UNL     1       2.956 -15.172   7.558  1.00  0.00     0.010 A 
ATOM     40  C   UNL     1       1.797 -15.846   7.138  1.00  0.00    -0.014 A 
BRANCH  40  41
ATOM     41  C   UNL     1       0.856 -16.490   8.098  1.00  0.00     0.031 A 
ATOM     42  C   UNL     1       0.174 -15.686   9.181  1.00  0.00     0.074 A 
ATOM     43  C   UNL     1       0.548 -17.794   7.935  1.00  0.00     0.049 A 
ATOM     44  N   UNL     1      -0.690 -16.087  10.080  1.00  0.00    -0.248 NA
ATOM     45  C   UNL     1       0.501 -14.253   9.275  1.00  0.00     0.031 C 
ATOM     46  C   UNL     1       1.130 -18.675   6.918  1.00  0.00     0.029 A 
ATOM     47  N   UNL     1      -0.350 -18.599   8.588  1.00  0.00    -0.354 N 
ATOM     48  C   UNL     1      -0.990 -14.971  10.854  1.00  0.00     0.074 A 
ATOM     49  C   UNL     1      -0.193 -13.879  10.343  1.00  0.00     0.031 C 
ATOM     50  C   UNL     1       0.526 -19.870   6.969  1.00  0.00     0.029 A 
ATOM     51  C   UNL     1      -0.419 -19.875   8.078  1.00  0.00     0.049 A 
ATOM     52  H   UNL     1      -0.893 -18.294   9.351  1.00  0.00     0.167 HD
ATOM     53  C   UNL     1      -1.864 -14.863  11.883  1.00  0.00     0.037 A 
ATOM     54  C   UNL     1      -1.141 -20.943   8.469  1.00  0.00     0.037 A 
ATOM     55  C   UNL     1      -2.688 -15.944  12.361  1.00  0.00     0.049 A 
ATOM     56  C   UNL     1      -2.063 -20.805   9.647  1.00  0.00     0.074 A 
ATOM     57  C   UNL     1      -3.626 -15.921  13.379  1.00  0.00     0.029 A 
ATOM     58  N   UNL     1      -2.679 -17.235  11.855  1.00  0.00    -0.354 N 
ATOM     59  N   UNL     1      -2.340 -19.734  10.352  1.00  0.00    -0.248 NA
ATOM     60  C   UNL     1      -2.758 -22.019  10.094  1.00  0.00     0.031 C 
ATOM     61  C   UNL     1      -4.146 -17.209  13.524  1.00  0.00     0.029 A 
ATOM     62  C   UNL     1      -3.574 -18.024  12.560  1.00  0.00     0.049 A 
ATOM     63  H   UNL     1      -2.121 -17.545  11.106  1.00  0.00     0.167 HD
ATOM     64  C   UNL     1      -3.249 -20.145  11.320  1.00  0.00     0.074 A 
ATOM     65  C   UNL     1      -3.498 -21.553  11.091  1.00  0.00     0.031 C 
ATOM     66  C   UNL     1      -3.817 -19.423  12.316  1.00  0.00     0.037 A 
BRANCH  53  67
ATOM     67  C   UNL     1      -1.999 -13.533  12.577  1.00  0.00     0.058 A 
ATOM     68  C   UNL     1      -2.661 -12.452  11.975  1.00  0.00     0.135 A 
ATOM     69  C   UNL     1      -1.564 -13.375  13.904  1.00  0.00     0.135 A 
ATOM     70  F   UNL     1      -3.084 -12.541  10.704  1.00  0.00    -0.206 F 
ATOM     71  C   UNL     1      -2.888 -11.263  12.662  1.00  0.00     0.059 A 
ATOM     72  C   UNL     1      -1.802 -12.204  14.620  1.00  0.00     0.059 A 
ATOM     73  F   UNL     1      -0.925 -14.377  14.529  1.00  0.00    -0.206 F 
ATOM     74  C   UNL     1      -2.465 -11.153  13.988  1.00  0.00     0.060 A 
BRANCH  74  75
ATOM     75  S   UNL     1      -2.816  -9.620  14.876  1.00  0.00     0.124 S 
ATOM     76  O   UNL     1      -1.966  -8.669  14.166  1.00  0.00    -0.237 OA
ATOM     77  O   UNL     1      -4.252  -9.465  14.667  1.00  0.00    -0.237 OA
ATOM     78  O   UNL     1      -2.412  -9.918  16.247  1.00  0.00    -0.744 OA
ENDBRANCH  74  75
ENDBRANCH  53  67
BRANCH  54  79
ATOM     79  C   UNL     1      -0.994 -22.242   7.758  1.00  0.00     0.058 A 
ATOM     80  C   UNL     1      -2.058 -22.797   7.033  1.00  0.00     0.135 A 
ATOM     81  C   UNL     1       0.216 -22.954   7.788  1.00  0.00     0.135 A 
ATOM     82  F   UNL     1      -3.237 -22.159   6.976  1.00  0.00    -0.206 F 
ATOM     83  C   UNL     1      -1.935 -24.020   6.382  1.00  0.00     0.059 A 
ATOM     84  C   UNL     1       0.375 -24.161   7.117  1.00  0.00     0.059 A 
ATOM     85  F   UNL     1       1.272 -22.460   8.455  1.00  0.00    -0.206 F 
ATOM     86  C   UNL     1      -0.713 -24.694   6.428  1.00  0.00     0.060 A 
BRANCH  86  87
ATOM     87  S   UNL     1      -0.560 -26.269   5.561  1.00  0.00     0.124 S 
ATOM     88  O   UNL     1      -1.404 -27.135   6.375  1.00  0.00    -0.237 OA
ATOM     89  O   UNL     1      -1.073 -25.937   4.236  1.00  0.00    -0.237 OA
ATOM     90  O   UNL     1       0.872 -26.547   5.619  1.00  0.00    -0.744 OA
ENDBRANCH  86  87
ENDBRANCH  54  79
BRANCH  66  91
ATOM     91  C   UNL     1      -4.772 -20.131  13.235  1.00  0.00     0.058 A 
ATOM     92  C   UNL     1      -4.316 -21.042  14.199  1.00  0.00     0.135 A 
ATOM     93  C   UNL     1      -6.144 -19.828  13.213  1.00  0.00     0.135 A 
ATOM     94  F   UNL     1      -3.016 -21.373  14.255  1.00  0.00    -0.206 F 
ATOM     95  C   UNL     1      -5.187 -21.634  15.107  1.00  0.00     0.059 A 
ATOM     96  C   UNL     1      -7.028 -20.385  14.131  1.00  0.00     0.059 A 
ATOM     97  F   UNL     1      -6.630 -18.956  12.315  1.00  0.00    -0.206 F 
ATOM     98  C   UNL     1      -6.540 -21.290  15.072  1.00  0.00     0.060 A 
BRANCH  98  99
ATOM     99  S   UNL     1      -7.642 -22.019  16.301  1.00  0.00     0.124 S 
ATOM    100  O   UNL     1      -7.668 -23.417  15.882  1.00  0.00    -0.237 OA
ATOM    101  O   UNL     1      -6.938 -21.744  17.549  1.00  0.00    -0.237 OA
ATOM    102  O   UNL     1      -8.892 -21.287  16.117  1.00  0.00    -0.744 OA
ENDBRANCH  98  99
ENDBRANCH  66  91
ENDBRANCH  40  41
ENDBRANCH  32  35
ENDBRANCH  30  31
ENDBRANCH   1  30
TORSDOF 16
