REMARK SMILES O=C(NCCCCNC(=O)[C@@H]1CCn2c(C(=O)c3ccccc3)ccc21)c1ccc(-c2c3nc(c(-c4c(F)cc(S(=O)(=O)[O-])cc4F)c4ccc([nH]4)c(-c4c(F)cc(S(=O)(=O)[O-])cc4F)c4nc(c(-c5c(F)cc(S(=O)(=O)[O-])cc5F)c5ccc2[nH]5)C=C4)C=C3)cc1
REMARK SMILES IDX 5 1 4 2 3 3 1 4 2 5 27 7 28 8 92 9 29 10 91 11 30 12 31 13
REMARK SMILES IDX 32 14 85 15 33 16 90 17 84 18 86 19 34 20 89 21 83 22 82 23
REMARK SMILES IDX 35 25 69 26 48 27 68 28 49 29 52 30 67 31 87 32 50 33 51 34
REMARK SMILES IDX 66 36 88 37 53 38 36 39 37 40 46 41 38 42 39 43 45 44 47 45
REMARK SMILES IDX 40 46 41 47 42 48 43 49 44 50 70 51 71 52 80 53 72 54 73 55
REMARK SMILES IDX 79 56 81 57 74 58 75 59 76 60 77 61 78 62 54 63 55 64 64 65
REMARK SMILES IDX 56 66 57 67 63 68 65 69 58 70 59 71 60 72 61 73 62 74 6 75
REMARK SMILES IDX 7 76 8 77 9 78 10 80 11 81 12 82 26 83 13 84 14 85 25 86
REMARK SMILES IDX 15 87 24 88 16 89 17 90 18 91 19 92 23 93 20 94 22 95 21 96
REMARK H PARENT 3 6 86 24 52 35 8 79
REMARK Flexibility Score: inf
ROOT
ATOM      1  C   UNL     1       4.894  -2.643  -0.246  1.00  0.00     0.023 C 
ENDROOT
BRANCH   1   2
ATOM      2  C   UNL     1       4.537  -1.167  -0.275  1.00  0.00     0.116 C 
BRANCH   2   3
ATOM      3  N   UNL     1       3.123  -0.908  -0.515  1.00  0.00    -0.352 N 
ATOM      4  O   UNL     1       1.152   0.167  -0.244  1.00  0.00    -0.269 OA
ATOM      5  C   UNL     1       2.357   0.121  -0.017  1.00  0.00     0.251 C 
ATOM      6  H   UNL     1       2.660  -1.546  -1.105  1.00  0.00     0.163 HD
BRANCH   5   7
ATOM      7  C   UNL     1       3.006   1.136   0.838  1.00  0.00     0.039 A 
ATOM      8  C   UNL     1       4.204   1.728   0.433  1.00  0.00     0.014 A 
ATOM      9  C   UNL     1       2.461   1.421   2.092  1.00  0.00     0.014 A 
ATOM     10  C   UNL     1       4.946   2.460   1.349  1.00  0.00     0.010 A 
ATOM     11  C   UNL     1       3.169   2.235   2.980  1.00  0.00     0.010 A 
ATOM     12  C   UNL     1       4.441   2.718   2.634  1.00  0.00    -0.014 A 
BRANCH  12  13
ATOM     13  C   UNL     1       5.267   3.502   3.586  1.00  0.00     0.031 A 
ATOM     14  C   UNL     1       5.805   2.880   4.846  1.00  0.00     0.074 A 
ATOM     15  C   UNL     1       5.583   4.773   3.267  1.00  0.00     0.049 A 
ATOM     16  N   UNL     1       6.583   3.408   5.756  1.00  0.00    -0.248 NA
ATOM     17  C   UNL     1       5.414   1.490   5.129  1.00  0.00     0.031 C 
ATOM     18  C   UNL     1       5.111   5.483   2.075  1.00  0.00     0.029 A 
ATOM     19  N   UNL     1       6.397   5.679   3.893  1.00  0.00    -0.354 N 
ATOM     20  C   UNL     1       6.747   2.434   6.734  1.00  0.00     0.074 A 
ATOM     21  C   UNL     1       5.979   1.282   6.312  1.00  0.00     0.031 C 
ATOM     22  C   UNL     1       5.694   6.689   2.023  1.00  0.00     0.029 A 
ATOM     23  C   UNL     1       6.535   6.859   3.203  1.00  0.00     0.049 A 
ATOM     24  H   UNL     1       6.841   5.503   4.754  1.00  0.00     0.167 HD
ATOM     25  C   UNL     1       7.474   2.495   7.876  1.00  0.00     0.037 A 
ATOM     26  C   UNL     1       7.258   7.958   3.486  1.00  0.00     0.037 A 
ATOM     27  C   UNL     1       8.268   3.631   8.271  1.00  0.00     0.049 A 
ATOM     28  C   UNL     1       8.084   7.985   4.737  1.00  0.00     0.074 A 
ATOM     29  C   UNL     1       9.064   3.779   9.394  1.00  0.00     0.029 A 
ATOM     30  N   UNL     1       8.374   4.812   7.549  1.00  0.00    -0.354 N 
ATOM     31  N   UNL     1       8.231   7.050   5.645  1.00  0.00    -0.248 NA
ATOM     32  C   UNL     1       8.838   9.216   5.005  1.00  0.00     0.031 C 
ATOM     33  C   UNL     1       9.632   5.059   9.364  1.00  0.00     0.029 A 
ATOM     34  C   UNL     1       9.215   5.695   8.206  1.00  0.00     0.049 A 
ATOM     35  H   UNL     1       7.918   4.995   6.696  1.00  0.00     0.167 HD
ATOM     36  C   UNL     1       9.104   7.575   6.588  1.00  0.00     0.074 A 
ATOM     37  C   UNL     1       9.466   8.902   6.131  1.00  0.00     0.031 C 
ATOM     38  C   UNL     1       9.563   7.011   7.732  1.00  0.00     0.037 A 
BRANCH  25  39
ATOM     39  C   UNL     1       7.428   1.307   8.797  1.00  0.00     0.058 A 
ATOM     40  C   UNL     1       8.115   0.118   8.507  1.00  0.00     0.135 A 
ATOM     41  C   UNL     1       6.712   1.373  10.003  1.00  0.00     0.135 A 
ATOM     42  F   UNL     1       8.801  -0.003   7.360  1.00  0.00    -0.206 F 
ATOM     43  C   UNL     1       8.074  -0.974   9.370  1.00  0.00     0.059 A 
ATOM     44  C   UNL     1       6.674   0.301  10.890  1.00  0.00     0.059 A 
ATOM     45  F   UNL     1       6.038   2.487  10.329  1.00  0.00    -0.206 F 
ATOM     46  C   UNL     1       7.345  -0.875  10.557  1.00  0.00     0.060 A 
BRANCH  46  47
ATOM     47  S   UNL     1       7.292  -2.299  11.666  1.00  0.00     0.124 S 
ATOM     48  O   UNL     1       6.328  -3.158  10.987  1.00  0.00    -0.237 OA
ATOM     49  O   UNL     1       8.675  -2.764  11.651  1.00  0.00    -0.237 OA
ATOM     50  O   UNL     1       6.841  -1.726  12.931  1.00  0.00    -0.744 OA
ENDBRANCH  46  47
ENDBRANCH  25  39
BRANCH  26  51
ATOM     51  C   UNL     1       7.237   9.109   2.549  1.00  0.00     0.058 A 
ATOM     52  C   UNL     1       8.346   9.399   1.742  1.00  0.00     0.135 A 
ATOM     53  C   UNL     1       6.093   9.909   2.407  1.00  0.00     0.135 A 
ATOM     54  F   UNL     1       9.462   8.661   1.843  1.00  0.00    -0.206 F 
ATOM     55  C   UNL     1       8.325  10.448   0.829  1.00  0.00     0.059 A 
ATOM     56  C   UNL     1       6.040  10.948   1.486  1.00  0.00     0.059 A 
ATOM     57  F   UNL     1       5.000   9.655   3.144  1.00  0.00    -0.206 F 
ATOM     58  C   UNL     1       7.165  11.214   0.706  1.00  0.00     0.060 A 
BRANCH  58  59
ATOM     59  S   UNL     1       7.114  12.529  -0.532  1.00  0.00     0.124 S 
ATOM     60  O   UNL     1       7.840  13.596   0.146  1.00  0.00    -0.237 OA
ATOM     61  O   UNL     1       7.795  11.914  -1.667  1.00  0.00    -0.237 OA
ATOM     62  O   UNL     1       5.684  12.753  -0.718  1.00  0.00    -0.744 OA
ENDBRANCH  58  59
ENDBRANCH  26  51
BRANCH  38  63
ATOM     63  C   UNL     1      10.523   7.823   8.550  1.00  0.00     0.058 A 
ATOM     64  C   UNL     1      10.087   8.900   9.336  1.00  0.00     0.135 A 
ATOM     65  C   UNL     1      11.892   7.512   8.556  1.00  0.00     0.135 A 
ATOM     66  F   UNL     1       8.789   9.240   9.356  1.00  0.00    -0.206 F 
ATOM     67  C   UNL     1      10.981   9.662  10.081  1.00  0.00     0.059 A 
ATOM     68  C   UNL     1      12.801   8.248   9.309  1.00  0.00     0.059 A 
ATOM     69  F   UNL     1      12.355   6.486   7.825  1.00  0.00    -0.206 F 
ATOM     70  C   UNL     1      12.338   9.331  10.056  1.00  0.00     0.060 A 
BRANCH  70  71
ATOM     71  S   UNL     1      13.493  10.318  11.030  1.00  0.00     0.124 S 
ATOM     72  O   UNL     1      13.681  11.482  10.171  1.00  0.00    -0.237 OA
ATOM     73  O   UNL     1      12.748  10.554  12.263  1.00  0.00    -0.237 OA
ATOM     74  O   UNL     1      14.653   9.441  11.165  1.00  0.00    -0.744 OA
ENDBRANCH  70  71
ENDBRANCH  38  63
ENDBRANCH  12  13
ENDBRANCH   5   7
ENDBRANCH   2   3
ENDBRANCH   1   2
BRANCH   1  75
ATOM     75  C   UNL     1       4.523  -3.424  -1.502  1.00  0.00     0.023 C 
BRANCH  75  76
ATOM     76  C   UNL     1       5.227  -2.972  -2.785  1.00  0.00     0.116 C 
BRANCH  76  77
ATOM     77  N   UNL     1       6.584  -3.473  -2.861  1.00  0.00    -0.356 N 
ATOM     78  C   UNL     1       7.125  -4.566  -3.470  1.00  0.00     0.229 C 
ATOM     79  H   UNL     1       7.241  -2.918  -2.383  1.00  0.00     0.163 HD
ATOM     80  O   UNL     1       8.356  -4.653  -3.392  1.00  0.00    -0.274 OA
BRANCH  78  81
ATOM     81  C   UNL     1       6.293  -5.565  -4.304  1.00  0.00     0.127 C 
ATOM     82  C   UNL     1       4.836  -5.840  -3.869  1.00  0.00     0.042 C 
ATOM     83  C   UNL     1       6.862  -6.953  -4.214  1.00  0.00     0.031 A 
ATOM     84  C   UNL     1       4.561  -7.325  -4.087  1.00  0.00     0.124 C 
ATOM     85  N   UNL     1       5.888  -7.901  -4.062  1.00  0.00    -0.341 N 
ATOM     86  C   UNL     1       8.072  -7.595  -4.225  1.00  0.00     0.025 A 
ATOM     87  C   UNL     1       6.405  -9.148  -3.883  1.00  0.00     0.090 A 
ATOM     88  C   UNL     1       7.785  -8.972  -4.011  1.00  0.00     0.032 A 
BRANCH  87  89
ATOM     89  C   UNL     1       5.728 -10.402  -3.584  1.00  0.00     0.209 C 
ATOM     90  O   UNL     1       6.314 -11.469  -3.416  1.00  0.00    -0.287 OA
BRANCH  89  91
ATOM     91  C   UNL     1       4.261 -10.430  -3.416  1.00  0.00     0.024 A 
ATOM     92  C   UNL     1       3.733 -10.623  -2.135  1.00  0.00     0.012 A 
ATOM     93  C   UNL     1       3.417 -10.255  -4.517  1.00  0.00     0.012 A 
ATOM     94  C   UNL     1       2.351 -10.591  -1.949  1.00  0.00     0.001 A 
ATOM     95  C   UNL     1       2.035 -10.211  -4.322  1.00  0.00     0.001 A 
ATOM     96  C   UNL     1       1.506 -10.372  -3.039  1.00  0.00     0.000 A 
ENDBRANCH  89  91
ENDBRANCH  87  89
ENDBRANCH  78  81
ENDBRANCH  76  77
ENDBRANCH  75  76
ENDBRANCH   1  75
TORSDOF 16
