REMARK SMILES CCN(CC)C(=O)[C@H](C)SCC(=O)NCCCCNC(=O)c1ccc(-c2c3nc(c(-c4c(F)cc(S(=O)(=O)[O-])cc4F)c4ccc([nH]4)c(-c4c(F)cc(S(=O)(=O)[O-])cc4F)c4nc(c(-c5c(F)cc(S(=O)(=O)[O-])cc5F)c5ccc2[nH]5)C=C4)C=C3)cc1
REMARK SMILES IDX 16 1 15 2 14 3 12 4 13 5 11 7 10 8 8 9 9 10 6 11 3 12 7 13
REMARK SMILES IDX 2 14 1 15 4 16 5 17 17 18 18 19 19 20 20 21 21 23 22 24
REMARK SMILES IDX 23 25 87 26 24 27 86 28 25 29 26 30 27 31 80 32 28 33 85 34
REMARK SMILES IDX 79 35 81 36 29 37 84 38 78 39 77 40 30 42 64 43 43 44 63 45
REMARK SMILES IDX 44 46 47 47 62 48 82 49 45 50 46 51 61 53 83 54 48 55 31 56
REMARK SMILES IDX 32 57 41 58 33 59 34 60 40 61 42 62 35 63 36 64 37 65 38 66
REMARK SMILES IDX 39 67 65 68 66 69 75 70 67 71 68 72 74 73 76 74 69 75 70 76
REMARK SMILES IDX 71 77 72 78 73 79 49 80 50 81 59 82 51 83 52 84 58 85 60 86
REMARK SMILES IDX 53 87 54 88 55 89 56 90 57 91
REMARK H PARENT 14 6 19 22 81 41 47 52
REMARK Flexibility Score: inf
ROOT
ATOM      1  C   UNL     1       1.696  -8.752   0.052  1.00  0.00     0.023 C 
ENDROOT
BRANCH   1   2
ATOM      2  C   UNL     1       0.431  -8.016  -0.397  1.00  0.00     0.116 C 
BRANCH   2   3
ATOM      3  N   UNL     1       0.079  -6.884   0.439  1.00  0.00    -0.355 N 
ATOM      4  C   UNL     1      -0.226  -5.590   0.142  1.00  0.00     0.230 C 
ATOM      5  O   UNL     1      -0.770  -4.934   1.035  1.00  0.00    -0.274 OA
ATOM      6  H   UNL     1       0.056  -7.089   1.402  1.00  0.00     0.163 HD
BRANCH   4   7
ATOM      7  C   UNL     1      -0.018  -4.983  -1.223  1.00  0.00     0.170 C 
BRANCH   7   8
ATOM      8  S   UNL     1       1.639  -4.403  -1.696  1.00  0.00    -0.139 SA
BRANCH   8   9
ATOM      9  C   UNL     1       2.375  -3.435  -0.302  1.00  0.00     0.133 C 
ATOM     10  C   UNL     1       2.034  -1.950  -0.434  1.00  0.00     0.030 C 
BRANCH   9  11
ATOM     11  C   UNL     1       2.103  -3.946   1.104  1.00  0.00     0.235 C 
ATOM     12  N   UNL     1       2.668  -5.149   1.537  1.00  0.00    -0.342 N 
ATOM     13  O   UNL     1       1.411  -3.261   1.867  1.00  0.00    -0.274 OA
BRANCH  12  14
ATOM     14  C   UNL     1       2.221  -5.605   2.863  1.00  0.00     0.116 C 
ATOM     15  C   UNL     1       3.127  -5.138   3.992  1.00  0.00     0.027 C 
ENDBRANCH  12  14
BRANCH  12  16
ATOM     16  C   UNL     1       3.906  -5.774   1.038  1.00  0.00     0.116 C 
ATOM     17  C   UNL     1       4.029  -6.125  -0.435  1.00  0.00     0.027 C 
ENDBRANCH  12  16
ENDBRANCH   9  11
ENDBRANCH   8   9
ENDBRANCH   7   8
ENDBRANCH   4   7
ENDBRANCH   2   3
ENDBRANCH   1   2
BRANCH   1  18
ATOM     18  C   UNL     1       1.752  -9.184   1.514  1.00  0.00     0.023 C 
BRANCH  18  19
ATOM     19  C   UNL     1       1.172 -10.557   1.765  1.00  0.00     0.116 C 
BRANCH  19  20
ATOM     20  N   UNL     1       1.957 -11.610   1.137  1.00  0.00    -0.352 N 
ATOM     21  C   UNL     1       2.378 -12.810   1.660  1.00  0.00     0.251 C 
ATOM     22  H   UNL     1       2.224 -11.439   0.204  1.00  0.00     0.163 HD
ATOM     23  O   UNL     1       3.171 -13.501   1.039  1.00  0.00    -0.269 OA
BRANCH  21  24
ATOM     24  C   UNL     1       1.885 -13.233   2.989  1.00  0.00     0.039 A 
ATOM     25  C   UNL     1       2.765 -13.862   3.871  1.00  0.00     0.014 A 
ATOM     26  C   UNL     1       0.563 -12.989   3.369  1.00  0.00     0.014 A 
ATOM     27  C   UNL     1       2.323 -14.211   5.147  1.00  0.00     0.010 A 
ATOM     28  C   UNL     1       0.167 -13.211   4.678  1.00  0.00     0.010 A 
ATOM     29  C   UNL     1       1.027 -13.866   5.566  1.00  0.00    -0.014 A 
BRANCH  29  30
ATOM     30  C   UNL     1       0.523 -14.249   6.905  1.00  0.00     0.031 A 
ATOM     31  C   UNL     1      -0.675 -15.157   7.011  1.00  0.00     0.074 A 
ATOM     32  C   UNL     1       1.114 -13.748   8.007  1.00  0.00     0.049 A 
ATOM     33  N   UNL     1      -1.294 -15.586   8.080  1.00  0.00    -0.248 NA
ATOM     34  C   UNL     1      -1.288 -15.612   5.750  1.00  0.00     0.031 C 
ATOM     35  C   UNL     1       2.232 -12.801   8.014  1.00  0.00     0.029 A 
ATOM     36  N   UNL     1       0.857 -13.964   9.336  1.00  0.00    -0.354 N 
ATOM     37  C   UNL     1      -2.372 -16.333   7.618  1.00  0.00     0.074 A 
ATOM     38  C   UNL     1      -2.371 -16.240   6.178  1.00  0.00     0.031 C 
ATOM     39  C   UNL     1       2.589 -12.549   9.283  1.00  0.00     0.029 A 
ATOM     40  C   UNL     1       1.706 -13.286  10.179  1.00  0.00     0.049 A 
ATOM     41  H   UNL     1       0.134 -14.550   9.656  1.00  0.00     0.167 HD
ATOM     42  C   UNL     1      -3.261 -17.062   8.331  1.00  0.00     0.037 A 
ATOM     43  C   UNL     1       1.760 -13.267  11.524  1.00  0.00     0.037 A 
ATOM     44  C   UNL     1      -3.214 -17.184   9.762  1.00  0.00     0.049 A 
ATOM     45  C   UNL     1       0.792 -14.126  12.293  1.00  0.00     0.074 A 
ATOM     46  C   UNL     1      -4.013 -17.953  10.588  1.00  0.00     0.029 A 
ATOM     47  N   UNL     1      -2.311 -16.520  10.581  1.00  0.00    -0.354 N 
ATOM     48  N   UNL     1      -0.174 -14.890  11.836  1.00  0.00    -0.248 NA
ATOM     49  C   UNL     1       0.930 -14.137  13.753  1.00  0.00     0.031 C 
ATOM     50  C   UNL     1      -3.626 -17.715  11.910  1.00  0.00     0.029 A 
ATOM     51  C   UNL     1      -2.545 -16.847  11.904  1.00  0.00     0.049 A 
ATOM     52  H   UNL     1      -1.609 -15.906  10.266  1.00  0.00     0.167 HD
ATOM     53  C   UNL     1      -0.739 -15.496  12.953  1.00  0.00     0.074 A 
ATOM     54  C   UNL     1       0.008 -15.023  14.102  1.00  0.00     0.031 C 
ATOM     55  C   UNL     1      -1.779 -16.365  13.026  1.00  0.00     0.037 A 
BRANCH  42  56
ATOM     56  C   UNL     1      -4.342 -17.789   7.577  1.00  0.00     0.058 A 
ATOM     57  C   UNL     1      -4.059 -18.881   6.739  1.00  0.00     0.135 A 
ATOM     58  C   UNL     1      -5.687 -17.414   7.726  1.00  0.00     0.135 A 
ATOM     59  F   UNL     1      -2.790 -19.270   6.540  1.00  0.00    -0.206 F 
ATOM     60  C   UNL     1      -5.066 -19.558   6.059  1.00  0.00     0.059 A 
ATOM     61  C   UNL     1      -6.714 -18.098   7.081  1.00  0.00     0.059 A 
ATOM     62  F   UNL     1      -6.016 -16.373   8.507  1.00  0.00    -0.206 F 
ATOM     63  C   UNL     1      -6.392 -19.163   6.242  1.00  0.00     0.060 A 
BRANCH  63  64
ATOM     64  S   UNL     1      -7.688 -20.075   5.378  1.00  0.00     0.124 S 
ATOM     65  O   UNL     1      -7.476 -19.648   3.998  1.00  0.00    -0.237 OA
ATOM     66  O   UNL     1      -7.341 -21.462   5.672  1.00  0.00    -0.237 OA
ATOM     67  O   UNL     1      -8.917 -19.593   6.001  1.00  0.00    -0.744 OA
ENDBRANCH  63  64
ENDBRANCH  42  56
BRANCH  43  68
ATOM     68  C   UNL     1       2.781 -12.438  12.221  1.00  0.00     0.058 A 
ATOM     69  C   UNL     1       3.840 -13.028  12.928  1.00  0.00     0.135 A 
ATOM     70  C   UNL     1       2.724 -11.036  12.187  1.00  0.00     0.135 A 
ATOM     71  F   UNL     1       3.943 -14.365  12.989  1.00  0.00    -0.206 F 
ATOM     72  C   UNL     1       4.787 -12.262  13.601  1.00  0.00     0.059 A 
ATOM     73  C   UNL     1       3.675 -10.247  12.827  1.00  0.00     0.059 A 
ATOM     74  F   UNL     1       1.746 -10.419  11.505  1.00  0.00    -0.206 F 
ATOM     75  C   UNL     1       4.695 -10.870  13.544  1.00  0.00     0.060 A 
BRANCH  75  76
ATOM     76  S   UNL     1       5.946  -9.884  14.395  1.00  0.00     0.124 S 
ATOM     77  O   UNL     1       5.582 -10.090  15.792  1.00  0.00    -0.237 OA
ATOM     78  O   UNL     1       7.186 -10.517  13.957  1.00  0.00    -0.237 OA
ATOM     79  O   UNL     1       5.721  -8.538  13.876  1.00  0.00    -0.744 OA
ENDBRANCH  75  76
ENDBRANCH  43  68
BRANCH  55  80
ATOM     80  C   UNL     1      -2.135 -16.892  14.388  1.00  0.00     0.058 A 
ATOM     81  C   UNL     1      -2.726 -16.079  15.367  1.00  0.00     0.135 A 
ATOM     82  C   UNL     1      -1.907 -18.242  14.703  1.00  0.00     0.135 A 
ATOM     83  F   UNL     1      -2.965 -14.782  15.116  1.00  0.00    -0.206 F 
ATOM     84  C   UNL     1      -3.035 -16.575  16.629  1.00  0.00     0.059 A 
ATOM     85  C   UNL     1      -2.242 -18.767  15.945  1.00  0.00     0.059 A 
ATOM     86  F   UNL     1      -1.361 -19.067  13.794  1.00  0.00    -0.206 F 
ATOM     87  C   UNL     1      -2.786 -17.920  16.909  1.00  0.00     0.060 A 
BRANCH  87  88
ATOM     88  S   UNL     1      -3.191 -18.551  18.549  1.00  0.00     0.124 S 
ATOM     89  O   UNL     1      -2.128 -17.964  19.358  1.00  0.00    -0.237 OA
ATOM     90  O   UNL     1      -4.529 -18.011  18.770  1.00  0.00    -0.237 OA
ATOM     91  O   UNL     1      -3.127 -20.000  18.382  1.00  0.00    -0.744 OA
ENDBRANCH  87  88
ENDBRANCH  55  80
ENDBRANCH  29  30
ENDBRANCH  21  24
ENDBRANCH  19  20
ENDBRANCH  18  19
ENDBRANCH   1  18
TORSDOF 19
