REMARK SMILES Cc1ccc(S(=O)(=O)N2CCCC2)cc1C(=O)N[C@H](CC1=c2ccccc2=NC1)C(=O)NCCCCNC(=O)c1ccc(-c2c3nc(c(-c4c(F)cc(S(=O)(=O)[O-])cc4F)c4ccc([nH]4)c(-c4c(F)cc(S(=O)(=O)[O-])cc4F)c4nc(c(-c5c(F)cc(S(=O)(=O)[O-])cc5F)c5ccc2[nH]5)C=C4)C=C3)cc1
REMARK SMILES IDX 34 1 33 2 32 3 30 4 31 5 19 7 18 8 16 9 17 10 15 12 1 13
REMARK SMILES IDX 2 14 3 15 4 16 14 17 5 18 6 19 7 20 8 21 9 22 10 23 13 24
REMARK SMILES IDX 11 25 12 26 20 27 21 28 22 29 29 30 23 31 27 32 28 33 24 34
REMARK SMILES IDX 26 35 25 36 35 37 36 38 37 39 38 40 39 42 40 43 41 44 105 45
REMARK SMILES IDX 42 46 104 47 43 48 44 49 45 50 98 51 46 52 103 53 97 54
REMARK SMILES IDX 99 55 47 56 102 57 96 58 95 59 48 61 82 62 61 63 81 64 62 65
REMARK SMILES IDX 65 66 80 67 100 68 63 69 64 70 79 72 101 73 66 74 49 75
REMARK SMILES IDX 50 76 59 77 51 78 52 79 58 80 60 81 53 82 54 83 55 84 56 85
REMARK SMILES IDX 57 86 83 87 84 88 93 89 85 90 86 91 92 92 94 93 87 94 88 95
REMARK SMILES IDX 89 96 90 97 91 98 67 99 68 100 77 101 69 102 70 103 76 104
REMARK SMILES IDX 78 105 71 106 72 107 73 108 74 109 75 110
REMARK H PARENT 32 6 18 11 37 41 99 60 65 71
REMARK Flexibility Score: inf
ROOT
ATOM      1  C   UNL     1       5.469   4.447   1.400  1.00  0.00     0.023 C 
ENDROOT
BRANCH   1   2
ATOM      2  C   UNL     1       5.899   3.073   0.880  1.00  0.00     0.116 C 
BRANCH   2   3
ATOM      3  N   UNL     1       5.206   1.988   1.542  1.00  0.00    -0.354 N 
ATOM      4  C   UNL     1       4.168   1.195   1.195  1.00  0.00     0.242 C 
ATOM      5  O   UNL     1       3.958   0.257   1.976  1.00  0.00    -0.273 OA
ATOM      6  H   UNL     1       5.567   1.784   2.435  1.00  0.00     0.163 HD
BRANCH   4   7
ATOM      7  C   UNL     1       3.244   1.375  -0.048  1.00  0.00     0.175 C 
BRANCH   7   8
ATOM      8  N   UNL     1       3.659   2.079  -1.302  1.00  0.00    -0.340 N 
ATOM      9  C   UNL     1       3.824   3.261  -1.970  1.00  0.00     0.252 C 
ATOM     10  O   UNL     1       4.209   3.076  -3.137  1.00  0.00    -0.269 OA
ATOM     11  H   UNL     1       3.940   1.374  -1.928  1.00  0.00     0.164 HD
BRANCH   9  12
ATOM     12  C   UNL     1       3.669   4.700  -1.550  1.00  0.00     0.044 A 
ATOM     13  C   UNL     1       2.114   4.429   0.437  1.00  0.00     0.045 C 
ATOM     14  C   UNL     1       2.938   5.229  -0.483  1.00  0.00    -0.038 A 
ATOM     15  C   UNL     1       2.906   6.619  -0.227  1.00  0.00     0.005 A 
ATOM     16  C   UNL     1       3.503   7.518  -1.083  1.00  0.00     0.022 A 
ATOM     17  C   UNL     1       4.292   5.646  -2.403  1.00  0.00     0.035 A 
ATOM     18  C   UNL     1       4.141   7.030  -2.212  1.00  0.00     0.083 A 
BRANCH  18  19
ATOM     19  S   UNL     1       4.619   8.253  -3.413  1.00  0.00     0.243 S 
ATOM     20  O   UNL     1       3.421   8.508  -4.208  1.00  0.00    -0.207 OA
ATOM     21  O   UNL     1       5.263   9.313  -2.699  1.00  0.00    -0.207 OA
BRANCH  19  22
ATOM     22  N   UNL     1       5.722   7.466  -4.396  1.00  0.00    -0.198 NA
ATOM     23  C   UNL     1       5.228   6.703  -5.549  1.00  0.00     0.102 C 
ATOM     24  C   UNL     1       6.902   8.226  -4.857  1.00  0.00     0.102 C 
ATOM     25  C   UNL     1       6.526   6.174  -6.122  1.00  0.00     0.018 C 
ATOM     26  C   UNL     1       7.478   7.359  -5.985  1.00  0.00     0.018 C 
ENDBRANCH  19  22
ENDBRANCH  18  19
ENDBRANCH   9  12
ENDBRANCH   7   8
BRANCH   7  27
ATOM     27  C   UNL     1       1.684   1.302   0.212  1.00  0.00     0.068 C 
BRANCH  27  28
ATOM     28  C   UNL     1       1.107   1.357   1.617  1.00  0.00    -0.037 C 
ATOM     29  C   UNL     1       0.981   0.369   2.503  1.00  0.00     0.001 A 
ATOM     30  C   UNL     1       0.474   2.595   2.193  1.00  0.00     0.174 C 
ATOM     31  C   UNL     1       1.317  -1.017   2.537  1.00  0.00     0.010 A 
ATOM     32  C   UNL     1       0.357   1.022   3.667  1.00  0.00     0.065 A 
ATOM     33  N   UNL     1      -0.037   2.249   3.536  1.00  0.00    -0.280 NA
ATOM     34  C   UNL     1       1.151  -1.694   3.685  1.00  0.00     0.001 A 
ATOM     35  C   UNL     1       0.243   0.231   4.905  1.00  0.00     0.028 A 
ATOM     36  C   UNL     1       0.648  -1.048   4.887  1.00  0.00     0.002 A 
ENDBRANCH  27  28
ENDBRANCH   7  27
ENDBRANCH   4   7
ENDBRANCH   2   3
ENDBRANCH   1   2
BRANCH   1  37
ATOM     37  C   UNL     1       5.917   4.820   2.806  1.00  0.00     0.023 C 
BRANCH  37  38
ATOM     38  C   UNL     1       7.391   5.154   2.867  1.00  0.00     0.116 C 
BRANCH  38  39
ATOM     39  N   UNL     1       7.736   6.566   2.837  1.00  0.00    -0.352 N 
ATOM     40  C   UNL     1       8.998   7.109   3.059  1.00  0.00     0.251 C 
ATOM     41  H   UNL     1       7.007   7.198   2.642  1.00  0.00     0.163 HD
ATOM     42  O   UNL     1       9.162   8.272   3.403  1.00  0.00    -0.269 OA
BRANCH  40  43
ATOM     43  C   UNL     1      10.158   6.252   2.711  1.00  0.00     0.039 A 
ATOM     44  C   UNL     1      10.947   6.646   1.624  1.00  0.00     0.014 A 
ATOM     45  C   UNL     1      10.194   4.944   3.173  1.00  0.00     0.014 A 
ATOM     46  C   UNL     1      11.573   5.678   0.845  1.00  0.00     0.010 A 
ATOM     47  C   UNL     1      10.657   3.977   2.314  1.00  0.00     0.010 A 
ATOM     48  C   UNL     1      11.324   4.343   1.137  1.00  0.00    -0.014 A 
BRANCH  48  49
ATOM     49  C   UNL     1      11.816   3.209   0.376  1.00  0.00     0.031 A 
ATOM     50  C   UNL     1      12.979   2.489   0.921  1.00  0.00     0.074 A 
ATOM     51  C   UNL     1      11.095   2.713  -0.650  1.00  0.00     0.049 A 
ATOM     52  N   UNL     1      13.653   1.595   0.293  1.00  0.00    -0.248 NA
ATOM     53  C   UNL     1      13.474   2.744   2.268  1.00  0.00     0.031 C 
ATOM     54  C   UNL     1      11.243   1.427  -1.324  1.00  0.00     0.029 A 
ATOM     55  N   UNL     1      10.238   3.433  -1.481  1.00  0.00    -0.354 N 
ATOM     56  C   UNL     1      14.437   0.944   1.220  1.00  0.00     0.074 A 
ATOM     57  C   UNL     1      14.342   1.745   2.415  1.00  0.00     0.031 C 
ATOM     58  C   UNL     1      10.816   1.559  -2.592  1.00  0.00     0.029 A 
ATOM     59  C   UNL     1      10.529   2.970  -2.787  1.00  0.00     0.049 A 
ATOM     60  H   UNL     1       9.576   4.113  -1.218  1.00  0.00     0.167 HD
ATOM     61  C   UNL     1      14.949  -0.274   0.885  1.00  0.00     0.037 A 
ATOM     62  C   UNL     1      11.164   3.809  -3.663  1.00  0.00     0.037 A 
ATOM     63  C   UNL     1      14.737  -0.538  -0.543  1.00  0.00     0.049 A 
ATOM     64  C   UNL     1      12.529   3.311  -4.099  1.00  0.00     0.074 A 
ATOM     65  C   UNL     1      13.807  -1.260  -1.273  1.00  0.00     0.029 A 
ATOM     66  N   UNL     1      15.373   0.287  -1.454  1.00  0.00    -0.354 N 
ATOM     67  N   UNL     1      13.120   2.269  -3.580  1.00  0.00    -0.248 NA
ATOM     68  C   UNL     1      13.361   3.963  -5.112  1.00  0.00     0.031 C 
ATOM     69  C   UNL     1      13.834  -0.781  -2.618  1.00  0.00     0.029 A 
ATOM     70  C   UNL     1      14.791   0.216  -2.704  1.00  0.00     0.049 A 
ATOM     71  H   UNL     1      16.146   0.856  -1.237  1.00  0.00     0.167 HD
ATOM     72  C   UNL     1      14.366   2.123  -4.122  1.00  0.00     0.074 A 
ATOM     73  C   UNL     1      14.475   3.210  -5.079  1.00  0.00     0.031 C 
ATOM     74  C   UNL     1      15.231   1.143  -3.734  1.00  0.00     0.037 A 
BRANCH  61  75
ATOM     75  C   UNL     1      15.419  -1.315   1.880  1.00  0.00     0.058 A 
ATOM     76  C   UNL     1      15.421  -2.680   1.519  1.00  0.00     0.135 A 
ATOM     77  C   UNL     1      15.814  -1.069   3.212  1.00  0.00     0.135 A 
ATOM     78  F   UNL     1      15.141  -3.076   0.270  1.00  0.00    -0.206 F 
ATOM     79  C   UNL     1      15.704  -3.708   2.420  1.00  0.00     0.059 A 
ATOM     80  C   UNL     1      16.052  -2.080   4.146  1.00  0.00     0.059 A 
ATOM     81  F   UNL     1      16.054   0.163   3.667  1.00  0.00    -0.206 F 
ATOM     82  C   UNL     1      15.992  -3.401   3.741  1.00  0.00     0.060 A 
BRANCH  82  83
ATOM     83  S   UNL     1      16.324  -4.739   4.897  1.00  0.00     0.124 S 
ATOM     84  O   UNL     1      15.097  -5.526   4.813  1.00  0.00    -0.237 OA
ATOM     85  O   UNL     1      17.514  -5.351   4.317  1.00  0.00    -0.237 OA
ATOM     86  O   UNL     1      16.532  -4.049   6.168  1.00  0.00    -0.744 OA
ENDBRANCH  82  83
ENDBRANCH  61  75
BRANCH  62  87
ATOM     87  C   UNL     1      10.750   5.233  -3.453  1.00  0.00     0.058 A 
ATOM     88  C   UNL     1       9.360   5.482  -3.372  1.00  0.00     0.135 A 
ATOM     89  C   UNL     1      11.602   6.218  -2.939  1.00  0.00     0.135 A 
ATOM     90  F   UNL     1       8.486   4.592  -3.873  1.00  0.00    -0.206 F 
ATOM     91  C   UNL     1       8.845   6.536  -2.635  1.00  0.00     0.059 A 
ATOM     92  C   UNL     1      11.098   7.338  -2.267  1.00  0.00     0.059 A 
ATOM     93  F   UNL     1      12.932   6.058  -2.984  1.00  0.00    -0.206 F 
ATOM     94  C   UNL     1       9.720   7.456  -2.073  1.00  0.00     0.060 A 
BRANCH  94  95
ATOM     95  S   UNL     1       9.025   8.739  -1.006  1.00  0.00     0.124 S 
ATOM     96  O   UNL     1       8.488   9.663  -1.995  1.00  0.00    -0.237 OA
ATOM     97  O   UNL     1       8.049   7.984  -0.219  1.00  0.00    -0.237 OA
ATOM     98  O   UNL     1      10.191   9.222  -0.274  1.00  0.00    -0.744 OA
ENDBRANCH  94  95
ENDBRANCH  62  87
BRANCH  74  99
ATOM     99  C   UNL     1      16.596   0.998  -4.327  1.00  0.00     0.058 A 
ATOM    100  C   UNL     1      16.791   0.897  -5.712  1.00  0.00     0.135 A 
ATOM    101  C   UNL     1      17.734   0.838  -3.511  1.00  0.00     0.135 A 
ATOM    102  F   UNL     1      15.754   1.000  -6.558  1.00  0.00    -0.206 F 
ATOM    103  C   UNL     1      18.054   0.685  -6.261  1.00  0.00     0.059 A 
ATOM    104  C   UNL     1      18.994   0.573  -4.033  1.00  0.00     0.059 A 
ATOM    105  F   UNL     1      17.658   0.966  -2.177  1.00  0.00    -0.206 F 
ATOM    106  C   UNL     1      19.149   0.526  -5.412  1.00  0.00     0.060 A 
BRANCH 106 107
ATOM    107  S   UNL     1      20.785   0.254  -6.115  1.00  0.00     0.124 S 
ATOM    108  O   UNL     1      20.497  -0.551  -7.299  1.00  0.00    -0.237 OA
ATOM    109  O   UNL     1      21.218   1.623  -6.372  1.00  0.00    -0.237 OA
ATOM    110  O   UNL     1      21.497  -0.444  -5.049  1.00  0.00    -0.744 OA
ENDBRANCH 106 107
ENDBRANCH  74  99
ENDBRANCH  48  49
ENDBRANCH  40  43
ENDBRANCH  38  39
ENDBRANCH  37  38
ENDBRANCH   1  37
TORSDOF 20
