REMARK SMILES Cc1ncc(CC(=O)N2CCc3c(c(C(=O)NCCCCNC(=O)c4ccc(-c5c6nc(c(-c7c(F)cc(S(=O)(=O)[O-])cc7F)c7ccc([nH]7)c(-c7c(F)cc(S(=O)(=O)[O-])cc7F)c7nc(c(-c8c(F)cc(S(=O)(=O)[O-])cc8F)c8ccc5[nH]8)C=C7)C=C6)cc4)nn3CC3CC3)C2)c(=O)[nH]1
REMARK SMILES IDX 19 1 18 2 17 3 15 4 16 5 14 7 9 8 10 9 97 10 11 11 13 12
REMARK SMILES IDX 12 13 92 14 91 15 7 16 8 17 6 18 5 19 1 20 2 21 3 22 100 23
REMARK SMILES IDX 4 24 98 25 99 27 93 28 94 29 95 30 96 31 20 32 21 33 22 34
REMARK SMILES IDX 23 35 24 37 25 38 26 39 90 40 27 41 89 42 28 43 29 44 30 45
REMARK SMILES IDX 83 46 31 47 88 48 82 49 84 50 32 51 87 52 81 53 80 54 33 56
REMARK SMILES IDX 67 57 46 58 66 59 47 60 50 61 65 62 85 63 48 64 49 65 64 67
REMARK SMILES IDX 86 68 51 69 34 70 35 71 44 72 36 73 37 74 43 75 45 76 38 77
REMARK SMILES IDX 39 78 40 79 41 80 42 81 68 82 69 83 78 84 70 85 71 86 77 87
REMARK SMILES IDX 79 88 72 89 73 90 74 91 75 92 76 93 52 94 53 95 62 96 54 97
REMARK SMILES IDX 55 98 61 99 63 100 56 101 57 102 58 103 59 104 60 105
REMARK H PARENT 17 6 100 26 22 36 84 55 50 66
REMARK Flexibility Score: inf
ROOT
ATOM      1  C   UNL     1       1.225   6.512   9.090  1.00  0.00     0.023 C 
ENDROOT
BRANCH   1   2
ATOM      2  C   UNL     1       1.675   6.940   7.684  1.00  0.00     0.116 C 
BRANCH   2   3
ATOM      3  N   UNL     1       2.828   6.190   7.203  1.00  0.00    -0.351 N 
ATOM      4  C   UNL     1       2.953   5.199   6.245  1.00  0.00     0.272 C 
ATOM      5  O   UNL     1       4.077   4.722   6.077  1.00  0.00    -0.267 OA
ATOM      6  H   UNL     1       3.676   6.434   7.641  1.00  0.00     0.163 HD
BRANCH   4   7
ATOM      7  C   UNL     1       1.795   4.688   5.485  1.00  0.00     0.155 A 
ATOM      8  N   UNL     1       2.323   2.010   2.815  1.00  0.00    -0.338 N 
ATOM      9  C   UNL     1       1.044   1.355   3.119  1.00  0.00     0.126 C 
ATOM     10  C   UNL     1       2.910   2.809   3.924  1.00  0.00     0.159 C 
ATOM     11  C   UNL     1      -0.071   2.394   3.304  1.00  0.00     0.078 C 
ATOM     12  C   UNL     1       1.796   3.636   4.514  1.00  0.00     0.026 A 
ATOM     13  C   UNL     1       0.459   3.441   4.208  1.00  0.00     0.046 A 
ATOM     14  N   UNL     1      -0.241   4.388   4.876  1.00  0.00    -0.268 N 
ATOM     15  N   UNL     1       0.542   5.155   5.646  1.00  0.00    -0.167 NA
BRANCH   8  16
ATOM     16  C   UNL     1       3.040   1.879   1.638  1.00  0.00     0.227 C 
ATOM     17  O   UNL     1       4.274   1.888   1.652  1.00  0.00    -0.275 OA
BRANCH  16  18
ATOM     18  C   UNL     1       2.305   2.006   0.285  1.00  0.00     0.143 C 
BRANCH  18  19
ATOM     19  C   UNL     1       1.095   1.170   0.033  1.00  0.00     0.045 A 
ATOM     20  C   UNL     1      -2.348  -1.279  -0.106  1.00  0.00     0.087 C 
ATOM     21  C   UNL     1      -1.153  -0.373  -0.127  1.00  0.00     0.105 A 
ATOM     22  N   UNL     1      -1.293   0.911  -0.187  1.00  0.00    -0.243 NA
ATOM     23  N   UNL     1       0.061  -0.993  -0.054  1.00  0.00    -0.311 N 
ATOM     24  C   UNL     1      -0.145   1.658  -0.127  1.00  0.00     0.123 A 
ATOM     25  C   UNL     1       1.236  -0.300  -0.005  1.00  0.00     0.254 A 
ATOM     26  H   UNL     1       0.090  -1.977  -0.036  1.00  0.00     0.171 HD
ATOM     27  O   UNL     1       2.318  -0.870   0.043  1.00  0.00    -0.269 OA
ENDBRANCH  18  19
ENDBRANCH  16  18
ENDBRANCH   8  16
BRANCH  14  28
ATOM     28  C   UNL     1      -1.675   4.637   4.846  1.00  0.00     0.148 C 
BRANCH  28  29
ATOM     29  C   UNL     1      -2.425   4.158   6.062  1.00  0.00     0.011 C 
ATOM     30  C   UNL     1      -1.779   3.621   7.323  1.00  0.00     0.006 C 
ATOM     31  C   UNL     1      -2.389   4.992   7.322  1.00  0.00     0.006 C 
ENDBRANCH  28  29
ENDBRANCH  14  28
ENDBRANCH   4   7
ENDBRANCH   2   3
ENDBRANCH   1   2
BRANCH   1  32
ATOM     32  C   UNL     1       2.121   6.966  10.256  1.00  0.00     0.023 C 
BRANCH  32  33
ATOM     33  C   UNL     1       2.234   8.476  10.427  1.00  0.00     0.116 C 
BRANCH  33  34
ATOM     34  N   UNL     1       0.969   9.145  10.776  1.00  0.00    -0.352 N 
ATOM     35  C   UNL     1       0.732  10.513  10.922  1.00  0.00     0.251 C 
ATOM     36  H   UNL     1       0.196   8.555  10.924  1.00  0.00     0.163 HD
ATOM     37  O   UNL     1      -0.217  10.933  11.557  1.00  0.00    -0.269 OA
BRANCH  35  38
ATOM     38  C   UNL     1       1.663  11.440  10.249  1.00  0.00     0.039 A 
ATOM     39  C   UNL     1       2.143  12.629  10.809  1.00  0.00     0.014 A 
ATOM     40  C   UNL     1       2.120  11.007   9.018  1.00  0.00     0.014 A 
ATOM     41  C   UNL     1       3.146  13.325  10.129  1.00  0.00     0.010 A 
ATOM     42  C   UNL     1       3.301  11.489   8.556  1.00  0.00     0.010 A 
ATOM     43  C   UNL     1       3.721  12.732   8.998  1.00  0.00    -0.014 A 
BRANCH  43  44
ATOM     44  C   UNL     1       4.783  13.331   8.206  1.00  0.00     0.031 A 
ATOM     45  C   UNL     1       6.050  13.594   8.932  1.00  0.00     0.074 A 
ATOM     46  C   UNL     1       4.708  13.328   6.854  1.00  0.00     0.049 A 
ATOM     47  N   UNL     1       6.575  14.741   9.208  1.00  0.00    -0.248 NA
ATOM     48  C   UNL     1       6.748  12.457   9.555  1.00  0.00     0.031 C 
ATOM     49  C   UNL     1       3.653  12.777   5.984  1.00  0.00     0.029 A 
ATOM     50  N   UNL     1       5.660  13.682   5.956  1.00  0.00    -0.354 N 
ATOM     51  C   UNL     1       7.794  14.462   9.818  1.00  0.00     0.074 A 
ATOM     52  C   UNL     1       7.741  13.074  10.199  1.00  0.00     0.031 C 
ATOM     53  C   UNL     1       4.136  12.597   4.736  1.00  0.00     0.029 A 
ATOM     54  C   UNL     1       5.456  13.187   4.670  1.00  0.00     0.049 A 
ATOM     55  H   UNL     1       6.433  14.244   6.194  1.00  0.00     0.167 HD
ATOM     56  C   UNL     1       8.846  15.326   9.735  1.00  0.00     0.037 A 
ATOM     57  C   UNL     1       6.358  13.219   3.657  1.00  0.00     0.037 A 
ATOM     58  C   UNL     1       8.430  16.609   9.220  1.00  0.00     0.049 A 
ATOM     59  C   UNL     1       7.324  14.305   4.000  1.00  0.00     0.074 A 
ATOM     60  C   UNL     1       7.488  17.544   9.611  1.00  0.00     0.029 A 
ATOM     61  N   UNL     1       8.702  16.892   7.900  1.00  0.00    -0.354 N 
ATOM     62  N   UNL     1       6.981  15.566   4.090  1.00  0.00    -0.248 NA
ATOM     63  C   UNL     1       8.511  13.932   4.758  1.00  0.00     0.031 C 
ATOM     64  C   UNL     1       6.868  17.962   8.396  1.00  0.00     0.029 A 
ATOM     65  C   UNL     1       7.527  17.333   7.338  1.00  0.00     0.049 A 
ATOM     66  H   UNL     1       9.570  16.796   7.446  1.00  0.00     0.167 HD
ATOM     67  C   UNL     1       7.641  16.044   5.217  1.00  0.00     0.074 A 
ATOM     68  C   UNL     1       8.615  15.003   5.551  1.00  0.00     0.031 C 
ATOM     69  C   UNL     1       7.144  17.079   5.964  1.00  0.00     0.037 A 
BRANCH  56  70
ATOM     70  C   UNL     1      10.298  14.918   9.774  1.00  0.00     0.058 A 
ATOM     71  C   UNL     1      11.288  15.908   9.931  1.00  0.00     0.135 A 
ATOM     72  C   UNL     1      10.766  13.640   9.396  1.00  0.00     0.135 A 
ATOM     73  F   UNL     1      10.953  17.160  10.281  1.00  0.00    -0.206 F 
ATOM     74  C   UNL     1      12.635  15.665   9.661  1.00  0.00     0.059 A 
ATOM     75  C   UNL     1      12.110  13.361   9.179  1.00  0.00     0.059 A 
ATOM     76  F   UNL     1       9.935  12.628   9.118  1.00  0.00    -0.206 F 
ATOM     77  C   UNL     1      13.032  14.390   9.269  1.00  0.00     0.060 A 
BRANCH  77  78
ATOM     78  S   UNL     1      14.749  14.104   8.806  1.00  0.00     0.124 S 
ATOM     79  O   UNL     1      14.844  14.865   7.566  1.00  0.00    -0.237 OA
ATOM     80  O   UNL     1      15.466  14.653   9.951  1.00  0.00    -0.237 OA
ATOM     81  O   UNL     1      14.821  12.653   8.665  1.00  0.00    -0.744 OA
ENDBRANCH  77  78
ENDBRANCH  56  70
BRANCH  57  82
ATOM     82  C   UNL     1       6.632  12.120   2.688  1.00  0.00     0.058 A 
ATOM     83  C   UNL     1       7.433  12.319   1.549  1.00  0.00     0.135 A 
ATOM     84  C   UNL     1       6.315  10.775   2.986  1.00  0.00     0.135 A 
ATOM     85  F   UNL     1       7.806  13.560   1.200  1.00  0.00    -0.206 F 
ATOM     86  C   UNL     1       7.916  11.254   0.776  1.00  0.00     0.059 A 
ATOM     87  C   UNL     1       6.774   9.700   2.226  1.00  0.00     0.059 A 
ATOM     88  F   UNL     1       5.615  10.454   4.084  1.00  0.00    -0.206 F 
ATOM     89  C   UNL     1       7.594   9.944   1.134  1.00  0.00     0.060 A 
BRANCH  89  90
ATOM     90  S   UNL     1       8.341   8.559   0.241  1.00  0.00     0.124 S 
ATOM     91  O   UNL     1       7.698   8.660  -1.065  1.00  0.00    -0.237 OA
ATOM     92  O   UNL     1       9.760   8.896   0.280  1.00  0.00    -0.237 OA
ATOM     93  O   UNL     1       7.958   7.396   1.037  1.00  0.00    -0.744 OA
ENDBRANCH  89  90
ENDBRANCH  57  82
BRANCH  69  94
ATOM     94  C   UNL     1       5.957  17.862   5.447  1.00  0.00     0.058 A 
ATOM     95  C   UNL     1       4.679  17.314   5.226  1.00  0.00     0.135 A 
ATOM     96  C   UNL     1       6.062  19.258   5.363  1.00  0.00     0.135 A 
ATOM     97  F   UNL     1       4.453  16.006   5.394  1.00  0.00    -0.206 F 
ATOM     98  C   UNL     1       3.574  18.104   4.900  1.00  0.00     0.059 A 
ATOM     99  C   UNL     1       4.968  20.071   5.070  1.00  0.00     0.059 A 
ATOM    100  F   UNL     1       7.233  19.860   5.630  1.00  0.00    -0.206 F 
ATOM    101  C   UNL     1       3.728  19.485   4.827  1.00  0.00     0.060 A 
BRANCH 101 102
ATOM    102  S   UNL     1       2.284  20.512   4.475  1.00  0.00     0.124 S 
ATOM    103  O   UNL     1       2.018  20.197   3.075  1.00  0.00    -0.237 OA
ATOM    104  O   UNL     1       1.300  20.017   5.433  1.00  0.00    -0.237 OA
ATOM    105  O   UNL     1       2.759  21.869   4.729  1.00  0.00    -0.744 OA
ENDBRANCH 101 102
ENDBRANCH  69  94
ENDBRANCH  43  44
ENDBRANCH  35  38
ENDBRANCH  33  34
ENDBRANCH  32  33
ENDBRANCH   1  32
TORSDOF 19
