REMARK SMILES CC(C)(C)OC(=O)N[C@@H](CC(=O)NCCCCNC(=O)c1ccc(-c2c3nc(c(-c4c(F)cc(S(=O)(=O)[O-])cc4F)c4ccc([nH]4)c(-c4c(F)cc(S(=O)(=O)[O-])cc4F)c4nc(c(-c5c(F)cc(S(=O)(=O)[O-])cc5F)c5ccc2[nH]5)C=C4)C=C3)cc1)c1cccnc1
REMARK SMILES IDX 15 1 14 2 13 3 11 4 12 5 10 7 9 8 8 9 6 10 7 11 5 13 2 14
REMARK SMILES IDX 1 15 3 16 4 17 87 18 88 19 92 20 89 21 91 22 90 23 16 24
REMARK SMILES IDX 17 25 18 26 19 27 20 29 21 30 22 31 86 32 23 33 85 34 24 35
REMARK SMILES IDX 25 36 26 37 79 38 27 39 84 40 78 41 80 42 28 43 83 44 77 45
REMARK SMILES IDX 76 46 29 48 63 49 42 50 62 51 43 52 46 53 61 54 81 55 44 56
REMARK SMILES IDX 45 57 60 59 82 60 47 61 30 62 31 63 40 64 32 65 33 66 39 67
REMARK SMILES IDX 41 68 34 69 35 70 36 71 37 72 38 73 64 74 65 75 74 76 66 77
REMARK SMILES IDX 67 78 73 79 75 80 68 81 69 82 70 83 71 84 72 85 48 86 49 87
REMARK SMILES IDX 58 88 50 89 51 90 57 91 59 92 52 93 53 94 54 95 55 96 56 97
REMARK H PARENT 13 6 8 12 18 28 80 47 46 58
REMARK Flexibility Score: inf
ROOT
ATOM      1  C   UNL     1       0.229  -4.957   4.879  1.00  0.00     0.023 C 
ENDROOT
BRANCH   1   2
ATOM      2  C   UNL     1       1.716  -4.610   4.834  1.00  0.00     0.116 C 
BRANCH   2   3
ATOM      3  N   UNL     1       2.508  -5.734   4.387  1.00  0.00    -0.356 N 
ATOM      4  C   UNL     1       3.236  -5.894   3.253  1.00  0.00     0.222 C 
ATOM      5  O   UNL     1       3.976  -6.881   3.198  1.00  0.00    -0.275 OA
ATOM      6  H   UNL     1       2.522  -6.504   5.001  1.00  0.00     0.163 HD
BRANCH   4   7
ATOM      7  C   UNL     1       3.210  -4.889   2.106  1.00  0.00     0.130 C 
BRANCH   7   8
ATOM      8  C   UNL     1       1.965  -4.805   1.190  1.00  0.00     0.126 C 
BRANCH   8   9
ATOM      9  N   UNL     1       0.852  -4.169   1.879  1.00  0.00    -0.314 N 
ATOM     10  C   UNL     1       0.472  -2.878   2.023  1.00  0.00     0.408 C 
ATOM     11  O   UNL     1      -0.388  -2.603   2.851  1.00  0.00    -0.225 OA
ATOM     12  H   UNL     1       0.255  -4.807   2.333  1.00  0.00     0.167 HD
BRANCH  10  13
ATOM     13  O   UNL     1       1.065  -2.004   1.184  1.00  0.00    -0.444 OA
BRANCH  13  14
ATOM     14  C   UNL     1       0.586  -0.626   1.194  1.00  0.00     0.106 C 
ATOM     15  C   UNL     1       1.190   0.024  -0.059  1.00  0.00     0.056 C 
ATOM     16  C   UNL     1       1.103   0.107   2.438  1.00  0.00     0.056 C 
ATOM     17  C   UNL     1      -0.947  -0.516   1.076  1.00  0.00     0.056 C 
ENDBRANCH  13  14
ENDBRANCH  10  13
ENDBRANCH   8   9
BRANCH   8  18
ATOM     18  C   UNL     1       1.423  -6.081   0.561  1.00  0.00    -0.007 A 
ATOM     19  C   UNL     1       1.899  -7.375   0.781  1.00  0.00     0.009 A 
ATOM     20  C   UNL     1       0.288  -5.984  -0.254  1.00  0.00     0.116 A 
ATOM     21  C   UNL     1       1.203  -8.478   0.285  1.00  0.00     0.020 A 
ATOM     22  N   UNL     1      -0.398  -7.031  -0.768  1.00  0.00    -0.264 NA
ATOM     23  C   UNL     1       0.063  -8.259  -0.464  1.00  0.00     0.111 A 
ENDBRANCH   8  18
ENDBRANCH   7   8
ENDBRANCH   4   7
ENDBRANCH   2   3
ENDBRANCH   1   2
BRANCH   1  24
ATOM     24  C   UNL     1      -0.222  -5.795   6.062  1.00  0.00     0.023 C 
BRANCH  24  25
ATOM     25  C   UNL     1       0.109  -5.200   7.414  1.00  0.00     0.116 C 
BRANCH  25  26
ATOM     26  N   UNL     1      -0.347  -3.826   7.572  1.00  0.00    -0.352 N 
ATOM     27  C   UNL     1      -1.000  -3.255   8.638  1.00  0.00     0.251 C 
ATOM     28  H   UNL     1      -0.164  -3.226   6.814  1.00  0.00     0.163 HD
ATOM     29  O   UNL     1      -1.419  -2.105   8.567  1.00  0.00    -0.269 OA
BRANCH  27  30
ATOM     30  C   UNL     1      -1.222  -4.063   9.854  1.00  0.00     0.039 A 
ATOM     31  C   UNL     1      -2.481  -4.053  10.453  1.00  0.00     0.014 A 
ATOM     32  C   UNL     1      -0.202  -4.875  10.357  1.00  0.00     0.014 A 
ATOM     33  C   UNL     1      -2.729  -4.904  11.529  1.00  0.00     0.010 A 
ATOM     34  C   UNL     1      -0.490  -5.809  11.340  1.00  0.00     0.010 A 
ATOM     35  C   UNL     1      -1.746  -5.813  11.959  1.00  0.00    -0.014 A 
BRANCH  35  36
ATOM     36  C   UNL     1      -2.004  -6.742  13.086  1.00  0.00     0.031 A 
ATOM     37  C   UNL     1      -1.158  -6.662  14.329  1.00  0.00     0.074 A 
ATOM     38  C   UNL     1      -2.967  -7.676  12.973  1.00  0.00     0.049 A 
ATOM     39  N   UNL     1      -1.227  -7.378  15.421  1.00  0.00    -0.248 NA
ATOM     40  C   UNL     1      -0.066  -5.673  14.334  1.00  0.00     0.031 C 
ATOM     41  C   UNL     1      -3.797  -7.899  11.786  1.00  0.00     0.029 A 
ATOM     42  N   UNL     1      -3.415  -8.612  13.869  1.00  0.00    -0.354 N 
ATOM     43  C   UNL     1      -0.185  -6.936  16.229  1.00  0.00     0.074 A 
ATOM     44  C   UNL     1       0.548  -5.947  15.474  1.00  0.00     0.031 C 
ATOM     45  C   UNL     1      -4.680  -8.877  12.043  1.00  0.00     0.029 A 
ATOM     46  C   UNL     1      -4.459  -9.373  13.398  1.00  0.00     0.049 A 
ATOM     47  H   UNL     1      -3.026  -8.728  14.766  1.00  0.00     0.167 HD
ATOM     48  C   UNL     1       0.113  -7.295  17.500  1.00  0.00     0.037 A 
ATOM     49  C   UNL     1      -5.161 -10.354  13.995  1.00  0.00     0.037 A 
ATOM     50  C   UNL     1      -0.644  -8.260  18.252  1.00  0.00     0.049 A 
ATOM     51  C   UNL     1      -4.835 -10.714  15.419  1.00  0.00     0.074 A 
ATOM     52  C   UNL     1      -0.474  -8.652  19.568  1.00  0.00     0.029 A 
ATOM     53  N   UNL     1      -1.713  -8.990  17.752  1.00  0.00    -0.354 N 
ATOM     54  N   UNL     1      -3.899 -10.227  16.200  1.00  0.00    -0.248 NA
ATOM     55  C   UNL     1      -5.672 -11.742  16.049  1.00  0.00     0.031 C 
ATOM     56  C   UNL     1      -1.406  -9.657  19.846  1.00  0.00     0.029 A 
ATOM     57  C   UNL     1      -2.199  -9.847  18.725  1.00  0.00     0.049 A 
ATOM     58  H   UNL     1      -2.074  -8.910  16.839  1.00  0.00     0.167 HD
ATOM     59  C   UNL     1      -4.050 -10.872  17.423  1.00  0.00     0.074 A 
ATOM     60  C   UNL     1      -5.182 -11.767  17.281  1.00  0.00     0.031 C 
ATOM     61  C   UNL     1      -3.322 -10.737  18.561  1.00  0.00     0.037 A 
BRANCH  48  62
ATOM     62  C   UNL     1       1.303  -6.638  18.148  1.00  0.00     0.058 A 
ATOM     63  C   UNL     1       1.316  -5.269  18.465  1.00  0.00     0.135 A 
ATOM     64  C   UNL     1       2.445  -7.391  18.467  1.00  0.00     0.135 A 
ATOM     65  F   UNL     1       0.260  -4.495  18.166  1.00  0.00    -0.206 F 
ATOM     66  C   UNL     1       2.429  -4.663  19.038  1.00  0.00     0.059 A 
ATOM     67  C   UNL     1       3.557  -6.812  19.072  1.00  0.00     0.059 A 
ATOM     68  F   UNL     1       2.492  -8.702  18.184  1.00  0.00    -0.206 F 
ATOM     69  C   UNL     1       3.546  -5.444  19.337  1.00  0.00     0.060 A 
BRANCH  69  70
ATOM     70  S   UNL     1       4.983  -4.643  20.080  1.00  0.00     0.124 S 
ATOM     71  O   UNL     1       5.506  -3.878  18.952  1.00  0.00    -0.237 OA
ATOM     72  O   UNL     1       4.381  -3.858  21.153  1.00  0.00    -0.237 OA
ATOM     73  O   UNL     1       5.811  -5.763  20.515  1.00  0.00    -0.744 OA
ENDBRANCH  69  70
ENDBRANCH  48  62
BRANCH  49  74
ATOM     74  C   UNL     1      -6.263 -11.031  13.259  1.00  0.00     0.058 A 
ATOM     75  C   UNL     1      -7.605 -10.829  13.614  1.00  0.00     0.135 A 
ATOM     76  C   UNL     1      -5.997 -11.872  12.167  1.00  0.00     0.135 A 
ATOM     77  F   UNL     1      -7.913 -10.037  14.652  1.00  0.00    -0.206 F 
ATOM     78  C   UNL     1      -8.643 -11.448  12.925  1.00  0.00     0.059 A 
ATOM     79  C   UNL     1      -7.019 -12.479  11.444  1.00  0.00     0.059 A 
ATOM     80  F   UNL     1      -4.731 -12.083  11.774  1.00  0.00    -0.206 F 
ATOM     81  C   UNL     1      -8.339 -12.268  11.836  1.00  0.00     0.060 A 
BRANCH  81  82
ATOM     82  S   UNL     1      -9.697 -13.020  10.913  1.00  0.00     0.124 S 
ATOM     83  O   UNL     1     -10.172 -14.027  11.854  1.00  0.00    -0.237 OA
ATOM     84  O   UNL     1     -10.584 -11.882  10.692  1.00  0.00    -0.237 OA
ATOM     85  O   UNL     1      -9.042 -13.536   9.714  1.00  0.00    -0.744 OA
ENDBRANCH  81  82
ENDBRANCH  49  74
BRANCH  61  86
ATOM     86  C   UNL     1      -3.752 -11.554  19.749  1.00  0.00     0.058 A 
ATOM     87  C   UNL     1      -3.608 -12.950  19.782  1.00  0.00     0.135 A 
ATOM     88  C   UNL     1      -4.306 -10.927  20.877  1.00  0.00     0.135 A 
ATOM     89  F   UNL     1      -3.084 -13.601  18.730  1.00  0.00    -0.206 F 
ATOM     90  C   UNL     1      -4.045 -13.700  20.868  1.00  0.00     0.059 A 
ATOM     91  C   UNL     1      -4.716 -11.653  21.990  1.00  0.00     0.059 A 
ATOM     92  F   UNL     1      -4.450  -9.592  20.908  1.00  0.00    -0.206 F 
ATOM     93  C   UNL     1      -4.604 -13.042  21.965  1.00  0.00     0.060 A 
BRANCH  93  94
ATOM     94  S   UNL     1      -5.182 -14.027  23.363  1.00  0.00     0.124 S 
ATOM     95  O   UNL     1      -6.404 -14.613  22.822  1.00  0.00    -0.237 OA
ATOM     96  O   UNL     1      -4.074 -14.953  23.573  1.00  0.00    -0.237 OA
ATOM     97  O   UNL     1      -5.373 -13.038  24.419  1.00  0.00    -0.744 OA
ENDBRANCH  93  94
ENDBRANCH  61  86
ENDBRANCH  35  36
ENDBRANCH  27  30
ENDBRANCH  25  26
ENDBRANCH  24  25
ENDBRANCH   1  24
TORSDOF 19
