REMARK SMILES C/C(=N/N=c1\[nH]c(O)c(C(=O)NCCCCNC(=O)c2ccc(-c3c4nc(c(-c5c(F)cc(S(=O)(=O)[O-])cc5F)c5ccc([nH]5)c(-c5c(F)cc(S(=O)(=O)[O-])cc5F)c5nc(c(-c6c(F)cc(S(=O)(=O)[O-])cc6F)c6ccc3[nH]6)C=C5)C=C4)cc2)s1)c1ccc2c(c1)OCO2
REMARK SMILES IDX 15 1 14 2 13 3 12 4 10 5 11 6 9 8 4 9 5 10 6 11 86 12 7 13
REMARK SMILES IDX 3 15 1 16 2 17 87 18 88 19 92 20 89 21 91 22 90 23 93 24
REMARK SMILES IDX 95 25 94 26 8 27 16 29 17 30 18 31 19 33 20 34 21 35 85 36
REMARK SMILES IDX 22 37 84 38 23 39 24 40 25 41 78 42 26 43 83 44 77 45 79 46
REMARK SMILES IDX 27 47 82 48 76 49 75 50 28 52 62 53 41 54 61 55 42 56 45 57
REMARK SMILES IDX 60 58 80 59 43 60 44 61 59 63 81 64 46 65 29 66 30 67 39 68
REMARK SMILES IDX 31 69 32 70 38 71 40 72 33 73 34 74 35 75 36 76 37 77 63 78
REMARK SMILES IDX 64 79 73 80 65 81 66 82 72 83 74 84 67 85 68 86 69 87 70 88
REMARK SMILES IDX 71 89 47 90 48 91 57 92 49 93 50 94 56 95 58 96 51 97 52 98
REMARK SMILES IDX 53 99 54 100 55 101
REMARK H PARENT 12 7 6 14 8 28 17 32 79 51 45 62
REMARK Flexibility Score: inf
ROOT
ATOM      1  C   UNL     1      -1.676   2.492   9.831  1.00  0.00     0.023 C 
ENDROOT
BRANCH   1   2
ATOM      2  C   UNL     1      -1.594   2.041   8.366  1.00  0.00     0.023 C 
BRANCH   2   3
ATOM      3  C   UNL     1      -2.930   1.960   7.608  1.00  0.00     0.116 C 
BRANCH   3   4
ATOM      4  N   UNL     1      -3.458   3.275   7.271  1.00  0.00    -0.351 N 
ATOM      5  C   UNL     1      -3.351   4.058   6.152  1.00  0.00     0.266 C 
ATOM      6  O   UNL     1      -3.932   5.145   6.171  1.00  0.00    -0.268 OA
ATOM      7  H   UNL     1      -3.998   3.680   7.987  1.00  0.00     0.163 HD
BRANCH   5   8
ATOM      8  C   UNL     1      -2.578   3.633   4.955  1.00  0.00     0.155 A 
ATOM      9  N   UNL     1      -0.278   1.599   2.852  1.00  0.00    -0.121 NA
ATOM     10  C   UNL     1      -1.077   2.489   3.309  1.00  0.00     0.211 A 
ATOM     11  N   UNL     1      -1.996   3.340   2.758  1.00  0.00    -0.300 N 
ATOM     12  S   UNL     1      -1.118   2.679   5.066  1.00  0.00    -0.086 S 
ATOM     13  C   UNL     1      -2.830   3.953   3.667  1.00  0.00     0.214 A 
ATOM     14  H   UNL     1      -2.057   3.501   1.789  1.00  0.00     0.172 HD
BRANCH   9  15
ATOM     15  N   UNL     1      -0.300   1.389   1.484  1.00  0.00    -0.152 NA
ATOM     16  C   UNL     1       0.628  -0.011  -0.276  1.00  0.00     0.069 C 
ATOM     17  C   UNL     1       0.401   0.333   1.175  1.00  0.00     0.067 C 
BRANCH  17  18
ATOM     18  C   UNL     1       1.040  -0.584   2.159  1.00  0.00     0.001 A 
ATOM     19  C   UNL     1       0.241  -1.388   3.002  1.00  0.00     0.014 A 
ATOM     20  C   UNL     1       2.435  -0.645   2.210  1.00  0.00     0.060 A 
ATOM     21  C   UNL     1       0.840  -2.286   3.892  1.00  0.00     0.051 A 
ATOM     22  C   UNL     1       2.989  -1.561   3.073  1.00  0.00     0.166 A 
ATOM     23  C   UNL     1       2.216  -2.364   3.885  1.00  0.00     0.165 A 
ATOM     24  O   UNL     1       4.319  -1.813   3.212  1.00  0.00    -0.454 OA
ATOM     25  O   UNL     1       2.972  -3.221   4.624  1.00  0.00    -0.454 OA
ATOM     26  C   UNL     1       4.271  -2.991   4.043  1.00  0.00     0.468 C 
ENDBRANCH  17  18
ENDBRANCH   9  15
BRANCH  13  27
ATOM     27  O   UNL     1      -3.833   4.762   3.228  1.00  0.00    -0.493 OA
ATOM     28  H   UNL     1      -3.933   4.929   2.312  1.00  0.00     0.295 HD
ENDBRANCH  13  27
ENDBRANCH   5   8
ENDBRANCH   3   4
ENDBRANCH   2   3
ENDBRANCH   1   2
BRANCH   1  29
ATOM     29  C   UNL     1      -2.315   1.488  10.780  1.00  0.00     0.116 C 
BRANCH  29  30
ATOM     30  N   UNL     1      -1.582   0.218  10.870  1.00  0.00    -0.352 N 
ATOM     31  C   UNL     1      -2.013  -0.990  11.407  1.00  0.00     0.251 C 
ATOM     32  H   UNL     1      -0.668   0.223  10.503  1.00  0.00     0.163 HD
ATOM     33  O   UNL     1      -1.227  -1.843  11.772  1.00  0.00    -0.269 OA
BRANCH  31  34
ATOM     34  C   UNL     1      -3.468  -1.214  11.494  1.00  0.00     0.039 A 
ATOM     35  C   UNL     1      -4.093  -1.785  12.607  1.00  0.00     0.014 A 
ATOM     36  C   UNL     1      -4.209  -0.751  10.418  1.00  0.00     0.014 A 
ATOM     37  C   UNL     1      -5.488  -1.807  12.653  1.00  0.00     0.010 A 
ATOM     38  C   UNL     1      -5.546  -0.549  10.576  1.00  0.00     0.010 A 
ATOM     39  C   UNL     1      -6.204  -1.175  11.630  1.00  0.00    -0.014 A 
BRANCH  39  40
ATOM     40  C   UNL     1      -7.659  -1.129  11.582  1.00  0.00     0.031 A 
ATOM     41  C   UNL     1      -8.340  -0.370  12.668  1.00  0.00     0.074 A 
ATOM     42  C   UNL     1      -8.288  -1.463  10.431  1.00  0.00     0.049 A 
ATOM     43  N   UNL     1      -9.208  -0.806  13.521  1.00  0.00    -0.248 NA
ATOM     44  C   UNL     1      -7.933   1.025  12.907  1.00  0.00     0.031 C 
ATOM     45  C   UNL     1      -7.697  -1.892   9.151  1.00  0.00     0.029 A 
ATOM     46  N   UNL     1      -9.596  -1.317  10.109  1.00  0.00    -0.354 N 
ATOM     47  C   UNL     1      -9.608   0.297  14.275  1.00  0.00     0.074 A 
ATOM     48  C   UNL     1      -8.667   1.345  13.976  1.00  0.00     0.031 C 
ATOM     49  C   UNL     1      -8.587  -1.702   8.155  1.00  0.00     0.029 A 
ATOM     50  C   UNL     1      -9.856  -1.327   8.744  1.00  0.00     0.049 A 
ATOM     51  H   UNL     1     -10.303  -1.212  10.786  1.00  0.00     0.167 HD
ATOM     52  C   UNL     1     -10.801   0.326  14.939  1.00  0.00     0.037 A 
ATOM     53  C   UNL     1     -11.026  -0.981   8.153  1.00  0.00     0.037 A 
ATOM     54  C   UNL     1     -11.401  -0.985  14.982  1.00  0.00     0.049 A 
ATOM     55  C   UNL     1     -12.075  -1.088   9.209  1.00  0.00     0.074 A 
ATOM     56  C   UNL     1     -11.012  -2.204  15.503  1.00  0.00     0.029 A 
ATOM     57  N   UNL     1     -12.394  -1.270  14.073  1.00  0.00    -0.354 N 
ATOM     58  N   UNL     1     -12.401  -2.217   9.788  1.00  0.00    -0.248 NA
ATOM     59  C   UNL     1     -12.385   0.110   9.977  1.00  0.00     0.031 C 
ATOM     60  C   UNL     1     -11.403  -3.160  14.520  1.00  0.00     0.029 A 
ATOM     61  C   UNL     1     -12.078  -2.480  13.503  1.00  0.00     0.049 A 
ATOM     62  H   UNL     1     -13.181  -0.713  13.870  1.00  0.00     0.167 HD
ATOM     63  C   UNL     1     -12.569  -1.904  11.133  1.00  0.00     0.074 A 
ATOM     64  C   UNL     1     -12.616  -0.442  11.173  1.00  0.00     0.031 C 
ATOM     65  C   UNL     1     -12.354  -2.826  12.123  1.00  0.00     0.037 A 
BRANCH  52  66
ATOM     66  C   UNL     1     -11.584   1.569  15.291  1.00  0.00     0.058 A 
ATOM     67  C   UNL     1     -12.680   1.474  16.177  1.00  0.00     0.135 A 
ATOM     68  C   UNL     1     -11.468   2.795  14.601  1.00  0.00     0.135 A 
ATOM     69  F   UNL     1     -12.891   0.354  16.887  1.00  0.00    -0.206 F 
ATOM     70  C   UNL     1     -13.627   2.491  16.309  1.00  0.00     0.059 A 
ATOM     71  C   UNL     1     -12.369   3.844  14.761  1.00  0.00     0.059 A 
ATOM     72  F   UNL     1     -10.534   2.998  13.664  1.00  0.00    -0.206 F 
ATOM     73  C   UNL     1     -13.472   3.666  15.581  1.00  0.00     0.060 A 
BRANCH  73  74
ATOM     74  S   UNL     1     -14.758   4.926  15.649  1.00  0.00     0.124 S 
ATOM     75  O   UNL     1     -15.849   4.266  14.943  1.00  0.00    -0.237 OA
ATOM     76  O   UNL     1     -14.938   5.100  17.087  1.00  0.00    -0.237 OA
ATOM     77  O   UNL     1     -14.153   6.061  14.958  1.00  0.00    -0.744 OA
ENDBRANCH  73  74
ENDBRANCH  52  66
BRANCH  53  78
ATOM     78  C   UNL     1     -11.175  -0.216   6.885  1.00  0.00     0.058 A 
ATOM     79  C   UNL     1     -12.404  -0.133   6.212  1.00  0.00     0.135 A 
ATOM     80  C   UNL     1     -10.159   0.651   6.420  1.00  0.00     0.135 A 
ATOM     81  F   UNL     1     -13.436  -0.897   6.601  1.00  0.00    -0.206 F 
ATOM     82  C   UNL     1     -12.622   0.770   5.162  1.00  0.00     0.059 A 
ATOM     83  C   UNL     1     -10.347   1.548   5.370  1.00  0.00     0.059 A 
ATOM     84  F   UNL     1      -8.966   0.714   7.032  1.00  0.00    -0.206 F 
ATOM     85  C   UNL     1     -11.590   1.618   4.757  1.00  0.00     0.060 A 
BRANCH  85  86
ATOM     86  S   UNL     1     -11.908   2.885   3.505  1.00  0.00     0.124 S 
ATOM     87  O   UNL     1     -12.121   2.080   2.307  1.00  0.00    -0.237 OA
ATOM     88  O   UNL     1     -13.088   3.556   4.041  1.00  0.00    -0.237 OA
ATOM     89  O   UNL     1     -10.685   3.683   3.510  1.00  0.00    -0.744 OA
ENDBRANCH  85  86
ENDBRANCH  53  78
BRANCH  65  90
ATOM     90  C   UNL     1     -12.131  -4.274  11.744  1.00  0.00     0.058 A 
ATOM     91  C   UNL     1     -11.043  -4.733  10.978  1.00  0.00     0.135 A 
ATOM     92  C   UNL     1     -12.929  -5.257  12.349  1.00  0.00     0.135 A 
ATOM     93  F   UNL     1     -10.160  -3.877  10.456  1.00  0.00    -0.206 F 
ATOM     94  C   UNL     1     -10.781  -6.091  10.791  1.00  0.00     0.059 A 
ATOM     95  C   UNL     1     -12.669  -6.620  12.203  1.00  0.00     0.059 A 
ATOM     96  F   UNL     1     -13.944  -4.897  13.152  1.00  0.00    -0.206 F 
ATOM     97  C   UNL     1     -11.599  -7.030  11.412  1.00  0.00     0.060 A 
BRANCH  97  98
ATOM     98  S   UNL     1     -11.209  -8.785  11.235  1.00  0.00     0.124 S 
ATOM     99  O   UNL     1     -11.567  -9.039   9.844  1.00  0.00    -0.237 OA
ATOM    100  O   UNL     1      -9.781  -8.826  11.539  1.00  0.00    -0.237 OA
ATOM    101  O   UNL     1     -12.067  -9.427  12.227  1.00  0.00    -0.744 OA
ENDBRANCH  97  98
ENDBRANCH  65  90
ENDBRANCH  39  40
ENDBRANCH  31  34
ENDBRANCH  29  30
ENDBRANCH   1  29
TORSDOF 17
