REMARK SMILES O=C(NCCCCNC(=O)[C@H](CO)NC(=O)[C@H](Cc1c[nH]c2ccccc12)NC(=O)[C@H](Cc1ccc(O)cc1)NC(=O)c1ccc(F)cc1)c1ccc(-c2c3nc(c(-c4c(F)cc(S(=O)(=O)[O-])cc4F)c4ccc([nH]4)c(-c4c(F)cc(S(=O)(=O)[O-])cc4F)c4nc(c(-c5c(F)cc(S(=O)(=O)[O-])cc5F)c5ccc2[nH]5)C=C4)C=C3)cc1
REMARK SMILES IDX 8 1 9 2 10 3 7 5 6 6 5 7 4 8 3 9 1 10 2 11 50 13 51 14
REMARK SMILES IDX 115 15 52 16 114 17 53 18 54 19 55 20 108 21 56 22 113 23
REMARK SMILES IDX 107 24 109 25 57 26 112 27 106 28 105 29 58 31 92 32 71 33
REMARK SMILES IDX 91 34 72 35 75 36 90 37 110 38 73 39 74 40 89 42 111 43
REMARK SMILES IDX 76 44 59 45 60 46 69 47 61 48 62 49 68 50 70 51 63 52 64 53
REMARK SMILES IDX 65 54 66 55 67 56 93 57 94 58 103 59 95 60 96 61 102 62
REMARK SMILES IDX 104 63 97 64 98 65 99 66 100 67 101 68 77 69 78 70 87 71
REMARK SMILES IDX 79 72 80 73 86 74 88 75 81 76 82 77 83 78 84 79 85 80 11 81
REMARK SMILES IDX 14 82 15 83 16 85 17 86 28 87 29 88 30 90 31 91 40 92 41 93
REMARK SMILES IDX 42 95 43 96 44 97 49 98 45 99 48 100 46 101 47 102 32 103
REMARK SMILES IDX 33 104 34 105 39 106 35 107 38 108 36 109 37 110 18 112
REMARK SMILES IDX 19 113 20 114 27 115 21 116 22 117 26 118 23 120 25 121
REMARK SMILES IDX 24 122 12 123 13 124
REMARK H PARENT 8 4 3 12 109 30 75 41 14 84 28 89 40 94 37 111 21 119 13 125
REMARK Flexibility Score: inf
ROOT
ATOM      1  N   UNL     1       9.265  -2.093   5.986  1.00  0.00    -0.354 N 
ATOM      2  C   UNL     1       9.277  -3.129   5.134  1.00  0.00     0.244 C 
ATOM      3  O   UNL     1      10.352  -2.949   4.500  1.00  0.00    -0.273 OA
ATOM      4  H   UNL     1      10.165  -1.701   5.901  1.00  0.00     0.163 HD
ENDROOT
BRANCH   1   5
ATOM      5  C   UNL     1       8.597  -1.249   6.977  1.00  0.00     0.116 C 
BRANCH   5   6
ATOM      6  C   UNL     1       9.027  -1.573   8.416  1.00  0.00     0.023 C 
BRANCH   6   7
ATOM      7  C   UNL     1       8.685  -0.520   9.478  1.00  0.00     0.023 C 
BRANCH   7   8
ATOM      8  C   UNL     1       7.336   0.183   9.400  1.00  0.00     0.116 C 
BRANCH   8   9
ATOM      9  N   UNL     1       6.247  -0.431  10.152  1.00  0.00    -0.352 N 
ATOM     10  O   UNL     1       4.417  -0.436  11.517  1.00  0.00    -0.269 OA
ATOM     11  C   UNL     1       5.317   0.185  10.967  1.00  0.00     0.251 C 
ATOM     12  H   UNL     1       6.164  -1.409  10.069  1.00  0.00     0.163 HD
BRANCH  11  13
ATOM     13  C   UNL     1       5.495   1.626  11.214  1.00  0.00     0.039 A 
ATOM     14  C   UNL     1       5.598   2.488  10.123  1.00  0.00     0.014 A 
ATOM     15  C   UNL     1       5.806   2.051  12.507  1.00  0.00     0.014 A 
ATOM     16  C   UNL     1       6.244   3.701  10.297  1.00  0.00     0.010 A 
ATOM     17  C   UNL     1       6.325   3.332  12.693  1.00  0.00     0.010 A 
ATOM     18  C   UNL     1       6.598   4.147  11.584  1.00  0.00    -0.014 A 
BRANCH  18  19
ATOM     19  C   UNL     1       7.177   5.504  11.753  1.00  0.00     0.031 A 
ATOM     20  C   UNL     1       8.521   5.723  12.392  1.00  0.00     0.074 A 
ATOM     21  C   UNL     1       6.448   6.551  11.320  1.00  0.00     0.049 A 
ATOM     22  N   UNL     1       9.116   6.852  12.682  1.00  0.00    -0.248 NA
ATOM     23  C   UNL     1       9.298   4.529  12.765  1.00  0.00     0.031 C 
ATOM     24  C   UNL     1       5.131   6.448  10.683  1.00  0.00     0.029 A 
ATOM     25  N   UNL     1       6.701   7.897  11.338  1.00  0.00    -0.354 N 
ATOM     26  C   UNL     1      10.311   6.512  13.305  1.00  0.00     0.074 A 
ATOM     27  C   UNL     1      10.357   5.066  13.358  1.00  0.00     0.031 C 
ATOM     28  C   UNL     1       4.716   7.668  10.328  1.00  0.00     0.029 A 
ATOM     29  C   UNL     1       5.678   8.647  10.811  1.00  0.00     0.049 A 
ATOM     30  H   UNL     1       7.531   8.287  11.694  1.00  0.00     0.167 HD
ATOM     31  C   UNL     1      11.272   7.338  13.789  1.00  0.00     0.037 A 
ATOM     32  C   UNL     1       5.496   9.979  10.763  1.00  0.00     0.037 A 
ATOM     33  C   UNL     1      11.206   8.777  13.705  1.00  0.00     0.049 A 
ATOM     34  C   UNL     1       6.550  10.869  11.339  1.00  0.00     0.074 A 
ATOM     35  C   UNL     1      12.149   9.704  14.114  1.00  0.00     0.029 A 
ATOM     36  N   UNL     1      10.136   9.499  13.191  1.00  0.00    -0.354 N 
ATOM     37  N   UNL     1       7.684  10.532  11.904  1.00  0.00    -0.248 NA
ATOM     38  C   UNL     1       6.303  12.313  11.285  1.00  0.00     0.031 C 
ATOM     39  C   UNL     1      11.620  10.983  13.915  1.00  0.00     0.029 A 
ATOM     40  C   UNL     1      10.378  10.859  13.312  1.00  0.00     0.049 A 
ATOM     41  H   UNL     1       9.324   9.103  12.799  1.00  0.00     0.167 HD
ATOM     42  C   UNL     1       8.296  11.724  12.266  1.00  0.00     0.074 A 
ATOM     43  C   UNL     1       7.409  12.790  11.842  1.00  0.00     0.031 C 
ATOM     44  C   UNL     1       9.484  11.912  12.889  1.00  0.00     0.037 A 
BRANCH  31  45
ATOM     45  C   UNL     1      12.461   6.726  14.487  1.00  0.00     0.058 A 
ATOM     46  C   UNL     1      12.655   6.932  15.864  1.00  0.00     0.135 A 
ATOM     47  C   UNL     1      13.443   5.996  13.798  1.00  0.00     0.135 A 
ATOM     48  F   UNL     1      11.754   7.624  16.578  1.00  0.00    -0.206 F 
ATOM     49  C   UNL     1      13.777   6.444  16.529  1.00  0.00     0.059 A 
ATOM     50  C   UNL     1      14.559   5.472  14.448  1.00  0.00     0.059 A 
ATOM     51  F   UNL     1      13.309   5.756  12.483  1.00  0.00    -0.206 F 
ATOM     52  C   UNL     1      14.722   5.710  15.813  1.00  0.00     0.060 A 
BRANCH  52  53
ATOM     53  S   UNL     1      16.139   5.030  16.704  1.00  0.00     0.124 S 
ATOM     54  O   UNL     1      16.893   6.233  17.038  1.00  0.00    -0.237 OA
ATOM     55  O   UNL     1      15.496   4.349  17.824  1.00  0.00    -0.237 OA
ATOM     56  O   UNL     1      16.763   4.148  15.722  1.00  0.00    -0.744 OA
ENDBRANCH  52  53
ENDBRANCH  31  45
BRANCH  32  57
ATOM     57  C   UNL     1       4.247  10.502  10.154  1.00  0.00     0.058 A 
ATOM     58  C   UNL     1       2.998  10.274  10.759  1.00  0.00     0.135 A 
ATOM     59  C   UNL     1       4.263  11.105   8.890  1.00  0.00     0.135 A 
ATOM     60  F   UNL     1       2.930   9.676  11.959  1.00  0.00    -0.206 F 
ATOM     61  C   UNL     1       1.809  10.573  10.107  1.00  0.00     0.059 A 
ATOM     62  C   UNL     1       3.086  11.442   8.230  1.00  0.00     0.059 A 
ATOM     63  F   UNL     1       5.432  11.343   8.277  1.00  0.00    -0.206 F 
ATOM     64  C   UNL     1       1.864  11.146   8.836  1.00  0.00     0.060 A 
BRANCH  64  65
ATOM     65  S   UNL     1       0.309  11.463   7.977  1.00  0.00     0.124 S 
ATOM     66  O   UNL     1      -0.178  10.106   7.745  1.00  0.00    -0.237 OA
ATOM     67  O   UNL     1      -0.430  12.243   8.964  1.00  0.00    -0.237 OA
ATOM     68  O   UNL     1       0.724  12.192   6.784  1.00  0.00    -0.744 OA
ENDBRANCH  64  65
ENDBRANCH  32  57
BRANCH  44  69
ATOM     69  C   UNL     1       9.919  13.327  13.146  1.00  0.00     0.058 A 
ATOM     70  C   UNL     1      11.013  13.867  12.450  1.00  0.00     0.135 A 
ATOM     71  C   UNL     1       9.328  14.108  14.150  1.00  0.00     0.135 A 
ATOM     72  F   UNL     1      11.614  13.161  11.479  1.00  0.00    -0.206 F 
ATOM     73  C   UNL     1      11.530  15.116  12.769  1.00  0.00     0.059 A 
ATOM     74  C   UNL     1       9.810  15.374  14.466  1.00  0.00     0.059 A 
ATOM     75  F   UNL     1       8.267  13.643  14.830  1.00  0.00    -0.206 F 
ATOM     76  C   UNL     1      10.928  15.859  13.785  1.00  0.00     0.060 A 
BRANCH  76  77
ATOM     77  S   UNL     1      11.635  17.465  14.205  1.00  0.00     0.124 S 
ATOM     78  O   UNL     1      12.923  17.084  14.775  1.00  0.00    -0.237 OA
ATOM     79  O   UNL     1      11.687  18.125  12.905  1.00  0.00    -0.237 OA
ATOM     80  O   UNL     1      10.672  18.025  15.148  1.00  0.00    -0.744 OA
ENDBRANCH  76  77
ENDBRANCH  44  69
ENDBRANCH  18  19
ENDBRANCH  11  13
ENDBRANCH   8   9
ENDBRANCH   7   8
ENDBRANCH   6   7
ENDBRANCH   5   6
ENDBRANCH   1   5
BRANCH   2  81
ATOM     81  C   UNL     1       8.326  -4.725   4.951  1.00  0.00     0.197 C 
BRANCH  81  82
ATOM     82  N   UNL     1       6.857  -4.356   5.710  1.00  0.00    -0.340 N 
ATOM     83  C   UNL     1       5.966  -5.223   6.360  1.00  0.00     0.243 C 
ATOM     84  H   UNL     1       6.594  -3.407   5.693  1.00  0.00     0.164 HD
ATOM     85  O   UNL     1       4.746  -5.059   6.259  1.00  0.00    -0.273 OA
BRANCH  83  86
ATOM     86  C   UNL     1       6.545  -6.450   7.099  1.00  0.00     0.175 C 
BRANCH  86  87
ATOM     87  N   UNL     1       5.498  -7.087   7.938  1.00  0.00    -0.342 N 
ATOM     88  C   UNL     1       5.075  -7.018   9.228  1.00  0.00     0.243 C 
ATOM     89  H   UNL     1       4.967  -7.734   7.419  1.00  0.00     0.164 HD
ATOM     90  O   UNL     1       3.913  -7.409   9.422  1.00  0.00    -0.273 OA
BRANCH  88  91
ATOM     91  C   UNL     1       5.869  -6.482  10.447  1.00  0.00     0.176 C 
BRANCH  91  92
ATOM     92  N   UNL     1       7.322  -6.688  10.387  1.00  0.00    -0.340 N 
ATOM     93  C   UNL     1       8.236  -7.034  11.352  1.00  0.00     0.251 C 
ATOM     94  H   UNL     1       7.711  -6.554   9.493  1.00  0.00     0.164 HD
ATOM     95  O   UNL     1       9.414  -7.160  11.020  1.00  0.00    -0.269 OA
BRANCH  93  96
ATOM     96  C   UNL     1       7.869  -7.198  12.782  1.00  0.00     0.040 A 
ATOM     97  C   UNL     1       6.755  -7.931  13.209  1.00  0.00     0.017 A 
ATOM     98  C   UNL     1       8.718  -6.624  13.741  1.00  0.00     0.017 A 
ATOM     99  C   UNL     1       6.410  -7.962  14.562  1.00  0.00     0.040 A 
ATOM    100  C   UNL     1       8.395  -6.693  15.100  1.00  0.00     0.040 A 
ATOM    101  C   UNL     1       7.227  -7.333  15.493  1.00  0.00     0.123 A 
ATOM    102  F   UNL     1       6.891  -7.365  16.789  1.00  0.00    -0.207 F 
ENDBRANCH  93  96
ENDBRANCH  91  92
BRANCH  91 103
ATOM    103  C   UNL     1       5.403  -5.096  10.963  1.00  0.00     0.070 C 
BRANCH 103 104
ATOM    104  C   UNL     1       5.203  -4.081   9.882  1.00  0.00    -0.045 A 
ATOM    105  C   UNL     1       3.945  -3.554   9.533  1.00  0.00     0.007 A 
ATOM    106  C   UNL     1       6.308  -3.716   9.151  1.00  0.00     0.007 A 
ATOM    107  C   UNL     1       3.786  -2.732   8.407  1.00  0.00     0.046 A 
ATOM    108  C   UNL     1       6.125  -2.919   8.041  1.00  0.00     0.046 A 
ATOM    109  C   UNL     1       4.892  -2.442   7.641  1.00  0.00     0.115 A 
BRANCH 109 110
ATOM    110  O   UNL     1       4.827  -1.802   6.440  1.00  0.00    -0.508 OA
ATOM    111  H   UNL     1       4.008  -1.464   6.133  1.00  0.00     0.293 HD
ENDBRANCH 109 110
ENDBRANCH 103 104
ENDBRANCH  91 103
ENDBRANCH  88  91
ENDBRANCH  86  87
BRANCH  86 112
ATOM    112  C   UNL     1       7.022  -7.400   5.987  1.00  0.00     0.072 C 
BRANCH 112 113
ATOM    113  C   UNL     1       7.764  -6.607   4.957  1.00  0.00    -0.020 A 
ATOM    114  C   UNL     1       9.521  -6.286   4.898  1.00  0.00     0.087 A 
ATOM    115  C   UNL     1       6.890  -5.354   3.706  1.00  0.00     0.003 A 
ATOM    116  N   UNL     1       9.788  -4.916   3.678  1.00  0.00    -0.361 N 
ATOM    117  C   UNL     1       8.156  -4.268   3.090  1.00  0.00     0.046 A 
ATOM    118  C   UNL     1       5.576  -5.077   3.290  1.00  0.00     0.010 A 
ATOM    119  H   UNL     1      10.667  -4.582   3.386  1.00  0.00     0.166 HD
ATOM    120  C   UNL     1       7.777  -3.117   2.404  1.00  0.00     0.026 A 
ATOM    121  C   UNL     1       5.372  -3.878   2.577  1.00  0.00     0.001 A 
ATOM    122  C   UNL     1       6.391  -2.955   2.196  1.00  0.00     0.002 A 
ENDBRANCH 112 113
ENDBRANCH  86 112
ENDBRANCH  83  86
ENDBRANCH  81  82
BRANCH  81 123
ATOM    123  C   UNL     1       8.524  -6.200   3.229  1.00  0.00     0.191 C 
BRANCH 123 124
ATOM    124  O   UNL     1       8.598  -5.910   1.675  1.00  0.00    -0.394 OA
ATOM    125  H   UNL     1       7.724  -5.638   1.355  1.00  0.00     0.210 HD
ENDBRANCH 123 124
ENDBRANCH  81 123
ENDBRANCH   2  81
TORSDOF 27
