REMARK SMILES CCc1cccc(CC)c1N1/C(=[NH+]/C(=O)CCCC(=O)NCCCCNC(=O)c2ccc(-c3c4nc(c(-c5c(F)cc(S(=O)(=O)[O-])cc5F)c5ccc([nH]5)c(-c5c(F)cc(S(=O)(=O)[O-])cc5F)c5nc(c(-c6c(F)cc(S(=O)(=O)[O-])cc6F)c6ccc3[nH]6)C=C5)C=C4)cc2)S[C@@H]2CS(=O)(=O)C[C@@H]21
REMARK SMILES IDX 22 1 21 2 19 3 20 4 18 6 17 7 16 8 14 9 11 10 12 11 102 12
REMARK SMILES IDX 13 13 95 14 96 15 101 16 97 18 98 19 15 20 99 21 100 22
REMARK SMILES IDX 10 23 3 24 4 25 5 26 7 27 6 28 2 29 1 30 8 31 9 32 23 33
REMARK SMILES IDX 24 34 25 35 26 36 27 37 28 39 29 40 30 41 94 42 31 43 93 44
REMARK SMILES IDX 32 45 33 46 34 47 87 48 35 49 92 50 86 51 88 52 36 53 91 54
REMARK SMILES IDX 85 55 84 56 37 58 71 59 50 60 70 61 51 62 54 63 69 64 89 65
REMARK SMILES IDX 52 66 53 67 68 69 90 70 55 71 38 72 39 73 48 74 40 75 41 76
REMARK SMILES IDX 47 77 49 78 42 79 43 80 44 81 45 82 46 83 72 84 73 85 82 86
REMARK SMILES IDX 74 87 75 88 81 89 83 90 76 91 77 92 78 93 79 94 80 95 56 96
REMARK SMILES IDX 57 97 66 98 58 99 59 100 65 101 67 102 60 103 61 104 62 105
REMARK SMILES IDX 63 106 64 107
REMARK H PARENT 21 5 13 17 26 38 88 57 54 68
REMARK Flexibility Score: inf
ROOT
ATOM      1  C   UNL     1       5.579   1.673  -0.468  1.00  0.00     0.116 C 
ENDROOT
BRANCH   1   2
ATOM      2  N   UNL     1       5.434   0.600   0.487  1.00  0.00    -0.356 N 
ATOM      3  C   UNL     1       4.449   0.393   1.401  1.00  0.00     0.220 C 
ATOM      4  O   UNL     1       4.567  -0.545   2.191  1.00  0.00    -0.275 OA
ATOM      5  H   UNL     1       6.149  -0.076   0.475  1.00  0.00     0.163 HD
BRANCH   3   6
ATOM      6  C   UNL     1       3.197   1.247   1.394  1.00  0.00     0.100 C 
BRANCH   6   7
ATOM      7  C   UNL     1       3.241   2.592   2.111  1.00  0.00     0.022 C 
BRANCH   7   8
ATOM      8  C   UNL     1       3.654   3.831   1.320  1.00  0.00     0.128 C 
BRANCH   8   9
ATOM      9  C   UNL     1       2.805   4.239   0.118  1.00  0.00     0.307 C 
ATOM     10  N   UNL     1       1.727   2.756  -3.059  1.00  0.00    -0.216 N 
ATOM     11  C   UNL     1       2.303   3.555  -2.064  1.00  0.00     0.319 C 
ATOM     12  C   UNL     1       1.051   3.512  -4.149  1.00  0.00     0.212 C 
ATOM     13  N   UNL     1       2.566   3.266  -0.833  1.00  0.00    -0.204 N 
ATOM     14  S   UNL     1       2.506   5.187  -2.767  1.00  0.00    -0.029 SA
ATOM     15  C   UNL     1       0.966   4.974  -3.683  1.00  0.00     0.120 C 
ATOM     16  C   UNL     1      -0.369   3.062  -4.473  1.00  0.00     0.188 C 
ATOM     17  H   UNL     1       2.597   2.320  -0.563  1.00  0.00     0.316 HD
ATOM     18  C   UNL     1      -0.229   5.101  -2.749  1.00  0.00     0.156 C 
ATOM     19  S   UNL     1      -1.459   4.066  -3.494  1.00  0.00     0.155 S 
ATOM     20  O   UNL     1       2.330   5.374   0.100  1.00  0.00    -0.247 OA
ATOM     21  O   UNL     1      -2.073   3.252  -2.470  1.00  0.00    -0.229 OA
ATOM     22  O   UNL     1      -2.243   4.889  -4.397  1.00  0.00    -0.229 OA
BRANCH  10  23
ATOM     23  C   UNL     1       1.771   1.342  -3.222  1.00  0.00     0.134 A 
ATOM     24  C   UNL     1       1.008   0.471  -2.394  1.00  0.00    -0.001 A 
ATOM     25  C   UNL     1       0.808  -0.873  -2.794  1.00  0.00     0.008 A 
ATOM     26  C   UNL     1       1.356  -1.383  -3.957  1.00  0.00     0.001 A 
ATOM     27  C   UNL     1       2.407   0.773  -4.378  1.00  0.00    -0.001 A 
ATOM     28  C   UNL     1       2.153  -0.568  -4.737  1.00  0.00     0.008 A 
BRANCH  24  29
ATOM     29  C   UNL     1       0.274   0.900  -1.138  1.00  0.00     0.036 C 
ATOM     30  C   UNL     1       0.438  -0.091   0.018  1.00  0.00     0.009 C 
ENDBRANCH  24  29
BRANCH  27  31
ATOM     31  C   UNL     1       3.322   1.556  -5.309  1.00  0.00     0.036 C 
ATOM     32  C   UNL     1       4.628   0.849  -5.670  1.00  0.00     0.009 C 
ENDBRANCH  27  31
ENDBRANCH  10  23
ENDBRANCH   8   9
ENDBRANCH   7   8
ENDBRANCH   6   7
ENDBRANCH   3   6
ENDBRANCH   1   2
BRANCH   1  33
ATOM     33  C   UNL     1       6.635   2.672   0.001  1.00  0.00     0.023 C 
BRANCH  33  34
ATOM     34  C   UNL     1       8.046   2.317  -0.436  1.00  0.00     0.023 C 
BRANCH  34  35
ATOM     35  C   UNL     1       8.244   2.371  -1.942  1.00  0.00     0.116 C 
BRANCH  35  36
ATOM     36  N   UNL     1       8.038   3.698  -2.512  1.00  0.00    -0.352 N 
ATOM     37  C   UNL     1       8.798   4.324  -3.475  1.00  0.00     0.251 C 
ATOM     38  H   UNL     1       7.267   4.205  -2.168  1.00  0.00     0.163 HD
ATOM     39  O   UNL     1       8.577   5.484  -3.801  1.00  0.00    -0.269 OA
BRANCH  37  40
ATOM     40  C   UNL     1       9.916   3.567  -4.071  1.00  0.00     0.039 A 
ATOM     41  C   UNL     1      11.202   4.102  -4.015  1.00  0.00     0.014 A 
ATOM     42  C   UNL     1       9.697   2.272  -4.550  1.00  0.00     0.014 A 
ATOM     43  C   UNL     1      12.287   3.298  -4.366  1.00  0.00     0.010 A 
ATOM     44  C   UNL     1      10.784   1.445  -4.795  1.00  0.00     0.010 A 
ATOM     45  C   UNL     1      12.091   1.949  -4.708  1.00  0.00    -0.014 A 
BRANCH  45  46
ATOM     46  C   UNL     1      13.239   1.046  -4.980  1.00  0.00     0.031 A 
ATOM     47  C   UNL     1      13.369   0.389  -6.327  1.00  0.00     0.074 A 
ATOM     48  C   UNL     1      14.122   0.769  -3.998  1.00  0.00     0.049 A 
ATOM     49  N   UNL     1      14.259  -0.475  -6.741  1.00  0.00    -0.248 NA
ATOM     50  C   UNL     1      12.344   0.719  -7.332  1.00  0.00     0.031 C 
ATOM     51  C   UNL     1      14.066   1.297  -2.632  1.00  0.00     0.029 A 
ATOM     52  N   UNL     1      15.237  -0.032  -3.995  1.00  0.00    -0.354 N 
ATOM     53  C   UNL     1      13.896  -0.796  -8.043  1.00  0.00     0.074 A 
ATOM     54  C   UNL     1      12.668  -0.091  -8.329  1.00  0.00     0.031 C 
ATOM     55  C   UNL     1      15.116   0.833  -1.936  1.00  0.00     0.029 A 
ATOM     56  C   UNL     1      15.896  -0.060  -2.788  1.00  0.00     0.049 A 
ATOM     57  H   UNL     1      15.537  -0.539  -4.784  1.00  0.00     0.167 HD
ATOM     58  C   UNL     1      14.545  -1.584  -8.932  1.00  0.00     0.037 A 
ATOM     59  C   UNL     1      16.999  -0.735  -2.408  1.00  0.00     0.037 A 
ATOM     60  C   UNL     1      15.782  -2.261  -8.648  1.00  0.00     0.049 A 
ATOM     61  C   UNL     1      17.699  -1.610  -3.414  1.00  0.00     0.074 A 
ATOM     62  C   UNL     1      16.553  -3.033  -9.499  1.00  0.00     0.029 A 
ATOM     63  N   UNL     1      16.428  -2.251  -7.420  1.00  0.00    -0.354 N 
ATOM     64  N   UNL     1      17.384  -1.841  -4.666  1.00  0.00    -0.248 NA
ATOM     65  C   UNL     1      18.908  -2.310  -2.959  1.00  0.00     0.031 C 
ATOM     66  C   UNL     1      17.636  -3.535  -8.771  1.00  0.00     0.029 A 
ATOM     67  C   UNL     1      17.574  -3.026  -7.483  1.00  0.00     0.049 A 
ATOM     68  H   UNL     1      16.117  -1.765  -6.622  1.00  0.00     0.167 HD
ATOM     69  C   UNL     1      18.370  -2.691  -5.156  1.00  0.00     0.074 A 
ATOM     70  C   UNL     1      19.301  -2.918  -4.070  1.00  0.00     0.031 C 
ATOM     71  C   UNL     1      18.494  -3.235  -6.393  1.00  0.00     0.037 A 
BRANCH  58  72
ATOM     72  C   UNL     1      13.934  -1.750 -10.297  1.00  0.00     0.058 A 
ATOM     73  C   UNL     1      13.882  -0.690 -11.217  1.00  0.00     0.135 A 
ATOM     74  C   UNL     1      13.431  -2.995 -10.707  1.00  0.00     0.135 A 
ATOM     75  F   UNL     1      14.331   0.528 -10.873  1.00  0.00    -0.206 F 
ATOM     76  C   UNL     1      13.330  -0.851 -12.483  1.00  0.00     0.059 A 
ATOM     77  C   UNL     1      12.903  -3.188 -11.980  1.00  0.00     0.059 A 
ATOM     78  F   UNL     1      13.450  -4.042  -9.867  1.00  0.00    -0.206 F 
ATOM     79  C   UNL     1      12.846  -2.105 -12.857  1.00  0.00     0.060 A 
BRANCH  79  80
ATOM     80  S   UNL     1      12.148  -2.299 -14.510  1.00  0.00     0.124 S 
ATOM     81  O   UNL     1      10.900  -1.551 -14.388  1.00  0.00    -0.237 OA
ATOM     82  O   UNL     1      13.172  -1.690 -15.352  1.00  0.00    -0.237 OA
ATOM     83  O   UNL     1      12.001  -3.744 -14.651  1.00  0.00    -0.744 OA
ENDBRANCH  79  80
ENDBRANCH  58  72
BRANCH  59  84
ATOM     84  C   UNL     1      17.520  -0.599  -1.019  1.00  0.00     0.058 A 
ATOM     85  C   UNL     1      18.741   0.043  -0.763  1.00  0.00     0.135 A 
ATOM     86  C   UNL     1      16.810  -1.110   0.079  1.00  0.00     0.135 A 
ATOM     87  F   UNL     1      19.462   0.543  -1.778  1.00  0.00    -0.206 F 
ATOM     88  C   UNL     1      19.252   0.153   0.527  1.00  0.00     0.059 A 
ATOM     89  C   UNL     1      17.285  -0.985   1.381  1.00  0.00     0.059 A 
ATOM     90  F   UNL     1      15.629  -1.718  -0.107  1.00  0.00    -0.206 F 
ATOM     91  C   UNL     1      18.515  -0.363   1.593  1.00  0.00     0.060 A 
BRANCH  91  92
ATOM     92  S   UNL     1      19.170  -0.181   3.267  1.00  0.00     0.124 S 
ATOM     93  O   UNL     1      20.282  -1.124   3.251  1.00  0.00    -0.237 OA
ATOM     94  O   UNL     1      19.531   1.233   3.301  1.00  0.00    -0.237 OA
ATOM     95  O   UNL     1      18.038  -0.552   4.112  1.00  0.00    -0.744 OA
ENDBRANCH  91  92
ENDBRANCH  59  84
BRANCH  71  96
ATOM     96  C   UNL     1      19.697  -4.101  -6.653  1.00  0.00     0.058 A 
ATOM     97  C   UNL     1      19.826  -5.378  -6.085  1.00  0.00     0.135 A 
ATOM     98  C   UNL     1      20.706  -3.667  -7.529  1.00  0.00     0.135 A 
ATOM     99  F   UNL     1      18.893  -5.838  -5.237  1.00  0.00    -0.206 F 
ATOM    100  C   UNL     1      20.926  -6.185  -6.357  1.00  0.00     0.059 A 
ATOM    101  C   UNL     1      21.798  -4.471  -7.840  1.00  0.00     0.059 A 
ATOM    102  F   UNL     1      20.626  -2.459  -8.109  1.00  0.00    -0.206 F 
ATOM    103  C   UNL     1      21.905  -5.723  -7.239  1.00  0.00     0.060 A 
BRANCH 103 104
ATOM    104  S   UNL     1      23.308  -6.796  -7.610  1.00  0.00     0.124 S 
ATOM    105  O   UNL     1      24.061  -6.738  -6.361  1.00  0.00    -0.237 OA
ATOM    106  O   UNL     1      22.658  -8.070  -7.899  1.00  0.00    -0.237 OA
ATOM    107  O   UNL     1      23.940  -6.147  -8.755  1.00  0.00    -0.744 OA
ENDBRANCH 103 104
ENDBRANCH  71  96
ENDBRANCH  45  46
ENDBRANCH  37  40
ENDBRANCH  35  36
ENDBRANCH  34  35
ENDBRANCH  33  34
ENDBRANCH   1  33
TORSDOF 20
