REMARK SMILES O=C(NCCCCNC(=O)[C@H]1CC2=c3ccccc3=N[C@H]2[C@@H](c2ccccc2)[NH2+]1)c1ccc(-c2c3nc(c(-c4c(F)cc(S(=O)(=O)[O-])cc4F)c4ccc([nH]4)c(-c4c(F)cc(S(=O)(=O)[O-])cc4F)c4nc(c(-c5c(F)cc(S(=O)(=O)[O-])cc5F)c5ccc2[nH]5)C=C4)C=C3)cc1
REMARK SMILES IDX 4 1 3 2 1 3 2 4 30 6 31 7 95 8 32 9 94 10 33 11 34 12 35 13
REMARK SMILES IDX 88 14 36 15 93 16 87 17 89 18 37 19 92 20 86 21 85 22 38 24
REMARK SMILES IDX 72 25 51 26 71 27 52 28 55 29 70 30 90 31 53 32 54 33 69 35
REMARK SMILES IDX 91 36 56 37 39 38 40 39 49 40 41 41 42 42 48 43 50 44 43 45
REMARK SMILES IDX 44 46 45 47 46 48 47 49 73 50 74 51 83 52 75 53 76 54 82 55
REMARK SMILES IDX 84 56 77 57 78 58 79 59 80 60 81 61 57 62 58 63 67 64 59 65
REMARK SMILES IDX 60 66 66 67 68 68 61 69 62 70 63 71 64 72 65 73 5 74 6 75
REMARK SMILES IDX 7 76 8 77 9 78 10 80 11 81 12 82 29 83 13 84 22 85 14 88
REMARK SMILES IDX 21 89 15 90 19 91 20 92 16 93 18 94 17 95 23 96 24 97 28 98
REMARK SMILES IDX 25 99 27 100 26 101
REMARK H PARENT 3 5 89 23 55 34 8 79 29 86 29 87
REMARK Flexibility Score: inf
ROOT
ATOM      1  C   UNL     1       4.749   0.266  -0.946  1.00  0.00     0.116 C 
ENDROOT
BRANCH   1   2
ATOM      2  N   UNL     1       3.301   0.399  -0.845  1.00  0.00    -0.352 N 
ATOM      3  O   UNL     1       1.244   0.076   0.016  1.00  0.00    -0.269 OA
ATOM      4  C   UNL     1       2.460  -0.016   0.161  1.00  0.00     0.251 C 
ATOM      5  H   UNL     1       2.864   0.849  -1.603  1.00  0.00     0.163 HD
BRANCH   4   6
ATOM      6  C   UNL     1       3.028  -0.600   1.394  1.00  0.00     0.039 A 
ATOM      7  C   UNL     1       2.436  -1.739   1.944  1.00  0.00     0.014 A 
ATOM      8  C   UNL     1       4.160  -0.040   1.992  1.00  0.00     0.014 A 
ATOM      9  C   UNL     1       3.016  -2.347   3.060  1.00  0.00     0.010 A 
ATOM     10  C   UNL     1       4.796  -0.707   3.030  1.00  0.00     0.010 A 
ATOM     11  C   UNL     1       4.218  -1.853   3.594  1.00  0.00    -0.014 A 
BRANCH  11  12
ATOM     12  C   UNL     1       4.852  -2.472   4.785  1.00  0.00     0.031 A 
ATOM     13  C   UNL     1       5.024  -1.651   6.038  1.00  0.00     0.074 A 
ATOM     14  C   UNL     1       5.314  -3.737   4.731  1.00  0.00     0.049 A 
ATOM     15  N   UNL     1       5.629  -1.965   7.153  1.00  0.00    -0.248 NA
ATOM     16  C   UNL     1       4.478  -0.281   6.022  1.00  0.00     0.031 C 
ATOM     17  C   UNL     1       5.255  -4.614   3.558  1.00  0.00     0.029 A 
ATOM     18  N   UNL     1       5.926  -4.508   5.687  1.00  0.00    -0.354 N 
ATOM     19  C   UNL     1       5.557  -0.830   7.953  1.00  0.00     0.074 A 
ATOM     20  C   UNL     1       4.910   0.201   7.176  1.00  0.00     0.031 C 
ATOM     21  C   UNL     1       5.771  -5.813   3.877  1.00  0.00     0.029 A 
ATOM     22  C   UNL     1       6.229  -5.781   5.263  1.00  0.00     0.049 A 
ATOM     23  H   UNL     1       6.130  -4.180   6.593  1.00  0.00     0.167 HD
ATOM     24  C   UNL     1       5.954  -0.674   9.236  1.00  0.00     0.037 A 
ATOM     25  C   UNL     1       6.807  -6.806   5.921  1.00  0.00     0.037 A 
ATOM     26  C   UNL     1       6.523  -1.726  10.031  1.00  0.00     0.049 A 
ATOM     27  C   UNL     1       7.213  -6.616   7.358  1.00  0.00     0.074 A 
ATOM     28  C   UNL     1       6.891  -1.691  11.363  1.00  0.00     0.029 A 
ATOM     29  N   UNL     1       6.785  -3.008   9.572  1.00  0.00    -0.354 N 
ATOM     30  N   UNL     1       7.091  -5.550   8.113  1.00  0.00    -0.248 NA
ATOM     31  C   UNL     1       7.833  -7.764   8.037  1.00  0.00     0.031 C 
ATOM     32  C   UNL     1       7.400  -2.946  11.705  1.00  0.00     0.029 A 
ATOM     33  C   UNL     1       7.316  -3.772  10.595  1.00  0.00     0.049 A 
ATOM     34  H   UNL     1       6.617  -3.327   8.656  1.00  0.00     0.167 HD
ATOM     35  C   UNL     1       7.595  -5.906   9.358  1.00  0.00     0.074 A 
ATOM     36  C   UNL     1       8.016  -7.288   9.261  1.00  0.00     0.031 C 
ATOM     37  C   UNL     1       7.704  -5.155  10.480  1.00  0.00     0.037 A 
BRANCH  24  38
ATOM     38  C   UNL     1       5.743   0.666   9.882  1.00  0.00     0.058 A 
ATOM     39  C   UNL     1       4.460   1.107  10.242  1.00  0.00     0.135 A 
ATOM     40  C   UNL     1       6.836   1.484  10.210  1.00  0.00     0.135 A 
ATOM     41  F   UNL     1       3.380   0.373   9.932  1.00  0.00    -0.206 F 
ATOM     42  C   UNL     1       4.266   2.318  10.896  1.00  0.00     0.059 A 
ATOM     43  C   UNL     1       6.668   2.687  10.888  1.00  0.00     0.059 A 
ATOM     44  F   UNL     1       8.083   1.109   9.882  1.00  0.00    -0.206 F 
ATOM     45  C   UNL     1       5.377   3.098  11.223  1.00  0.00     0.060 A 
BRANCH  45  46
ATOM     46  S   UNL     1       5.106   4.643  12.114  1.00  0.00     0.124 S 
ATOM     47  O   UNL     1       4.498   5.474  11.079  1.00  0.00    -0.237 OA
ATOM     48  O   UNL     1       4.218   4.227  13.194  1.00  0.00    -0.237 OA
ATOM     49  O   UNL     1       6.449   5.039  12.526  1.00  0.00    -0.744 OA
ENDBRANCH  45  46
ENDBRANCH  24  38
BRANCH  25  50
ATOM     50  C   UNL     1       7.003  -8.115   5.242  1.00  0.00     0.058 A 
ATOM     51  C   UNL     1       6.231  -9.231   5.601  1.00  0.00     0.135 A 
ATOM     52  C   UNL     1       7.954  -8.280   4.224  1.00  0.00     0.135 A 
ATOM     53  F   UNL     1       5.312  -9.125   6.572  1.00  0.00    -0.206 F 
ATOM     54  C   UNL     1       6.407 -10.468   4.989  1.00  0.00     0.059 A 
ATOM     55  C   UNL     1       8.133  -9.501   3.581  1.00  0.00     0.059 A 
ATOM     56  F   UNL     1       8.706  -7.239   3.832  1.00  0.00    -0.206 F 
ATOM     57  C   UNL     1       7.362 -10.593   3.979  1.00  0.00     0.060 A 
BRANCH  57  58
ATOM     58  S   UNL     1       7.557 -12.194   3.167  1.00  0.00     0.124 S 
ATOM     59  O   UNL     1       8.220 -12.972   4.207  1.00  0.00    -0.237 OA
ATOM     60  O   UNL     1       6.174 -12.562   2.878  1.00  0.00    -0.237 OA
ATOM     61  O   UNL     1       8.371 -11.880   1.996  1.00  0.00    -0.744 OA
ENDBRANCH  57  58
ENDBRANCH  25  50
BRANCH  37  62
ATOM     62  C   UNL     1       8.273  -5.800  11.709  1.00  0.00     0.058 A 
ATOM     63  C   UNL     1       9.654  -5.998  11.852  1.00  0.00     0.135 A 
ATOM     64  C   UNL     1       7.444  -6.097  12.804  1.00  0.00     0.135 A 
ATOM     65  F   UNL     1      10.484  -5.734  10.831  1.00  0.00    -0.206 F 
ATOM     66  C   UNL     1      10.197  -6.461  13.045  1.00  0.00     0.059 A 
ATOM     67  C   UNL     1       7.968  -6.540  14.013  1.00  0.00     0.059 A 
ATOM     68  F   UNL     1       6.117  -5.913  12.716  1.00  0.00    -0.206 F 
ATOM     69  C   UNL     1       9.347  -6.716  14.124  1.00  0.00     0.060 A 
BRANCH  69  70
ATOM     70  S   UNL     1      10.079  -7.226  15.694  1.00  0.00     0.124 S 
ATOM     71  O   UNL     1      10.497  -8.591  15.395  1.00  0.00    -0.237 OA
ATOM     72  O   UNL     1      11.156  -6.255  15.864  1.00  0.00    -0.237 OA
ATOM     73  O   UNL     1       8.975  -7.101  16.641  1.00  0.00    -0.744 OA
ENDBRANCH  69  70
ENDBRANCH  37  62
ENDBRANCH  11  12
ENDBRANCH   4   6
ENDBRANCH   1   2
BRANCH   1  74
ATOM     74  C   UNL     1       5.222  -0.227  -2.305  1.00  0.00     0.023 C 
BRANCH  74  75
ATOM     75  C   UNL     1       4.739   0.606  -3.483  1.00  0.00     0.023 C 
BRANCH  75  76
ATOM     76  C   UNL     1       5.143   2.075  -3.451  1.00  0.00     0.116 C 
BRANCH  76  77
ATOM     77  N   UNL     1       6.541   2.251  -3.784  1.00  0.00    -0.351 N 
ATOM     78  C   UNL     1       7.134   2.829  -4.870  1.00  0.00     0.278 C 
ATOM     79  H   UNL     1       7.170   1.895  -3.115  1.00  0.00     0.163 HD
ATOM     80  O   UNL     1       8.364   2.757  -4.951  1.00  0.00    -0.268 OA
BRANCH  78  81
ATOM     81  C   UNL     1       6.308   3.519  -5.980  1.00  0.00     0.277 C 
ATOM     82  C   UNL     1       5.521   2.486  -6.827  1.00  0.00     0.109 C 
ATOM     83  N   UNL     1       5.566   4.675  -5.415  1.00  0.00    -0.327 N 
ATOM     84  C   UNL     1       4.064   2.802  -6.848  1.00  0.00    -0.024 C 
ATOM     85  C   UNL     1       4.591   5.262  -6.361  1.00  0.00     0.243 C 
ATOM     86  H   UNL     1       6.239   5.396  -5.154  1.00  0.00     0.347 HD
ATOM     87  H   UNL     1       5.040   4.334  -4.611  1.00  0.00     0.347 HD
ATOM     88  C   UNL     1       3.023   2.049  -6.509  1.00  0.00     0.002 A 
ATOM     89  C   UNL     1       3.658   4.229  -7.106  1.00  0.00     0.196 C 
ATOM     90  C   UNL     1       2.822   0.686  -6.144  1.00  0.00     0.010 A 
ATOM     91  C   UNL     1       1.955   3.050  -6.369  1.00  0.00     0.066 A 
ATOM     92  N   UNL     1       2.220   4.270  -6.715  1.00  0.00    -0.270 NA
ATOM     93  C   UNL     1       1.652   0.332  -5.586  1.00  0.00     0.001 A 
ATOM     94  C   UNL     1       0.696   2.587  -5.747  1.00  0.00     0.028 A 
ATOM     95  C   UNL     1       0.598   1.305  -5.357  1.00  0.00     0.002 A 
BRANCH  85  96
ATOM     96  C   UNL     1       3.898   6.449  -5.697  1.00  0.00     0.012 A 
ATOM     97  C   UNL     1       2.870   6.283  -4.753  1.00  0.00     0.010 A 
ATOM     98  C   UNL     1       4.309   7.758  -5.996  1.00  0.00     0.010 A 
ATOM     99  C   UNL     1       2.211   7.382  -4.201  1.00  0.00     0.001 A 
ATOM    100  C   UNL     1       3.665   8.860  -5.425  1.00  0.00     0.001 A 
ATOM    101  C   UNL     1       2.603   8.672  -4.544  1.00  0.00     0.000 A 
ENDBRANCH  85  96
ENDBRANCH  78  81
ENDBRANCH  76  77
ENDBRANCH  75  76
ENDBRANCH  74  75
ENDBRANCH   1  74
TORSDOF 15
