REMARK SMILES Cc1cc(OC(F)(F)F)cc2c1O[C@@H](C(F)(F)F)C(C(=O)NCCCCNC(=O)c1ccc(-c3c4nc(c(-c5c(F)cc(S(=O)(=O)[O-])cc5F)c5ccc([nH]5)c(-c5c(F)cc(S(=O)(=O)[O-])cc5F)c5nc(c(-c6c(F)cc(S(=O)(=O)[O-])cc6F)c6ccc3[nH]6)C=C5)C=C4)cc1)=C2
REMARK SMILES IDX 25 1 24 2 23 3 22 4 20 5 21 6 19 8 1 9 2 10 3 11 12 12 4 13
REMARK SMILES IDX 11 14 13 15 10 16 96 17 14 18 5 19 6 20 7 21 8 22 9 23 15 24
REMARK SMILES IDX 16 25 17 26 18 27 26 28 27 29 28 30 29 32 30 33 31 34 95 35
REMARK SMILES IDX 32 36 94 37 33 38 34 39 35 40 88 41 36 42 93 43 87 44 89 45
REMARK SMILES IDX 37 46 92 47 86 48 85 49 38 51 72 52 51 53 71 54 52 55 55 56
REMARK SMILES IDX 70 57 90 58 53 59 54 60 69 62 91 63 56 64 39 65 40 66 49 67
REMARK SMILES IDX 41 68 42 69 48 70 50 71 43 72 44 73 45 74 46 75 47 76 73 77
REMARK SMILES IDX 74 78 83 79 75 80 76 81 82 82 84 83 77 84 78 85 79 86 80 87
REMARK SMILES IDX 81 88 57 89 58 90 67 91 59 92 60 93 66 94 68 95 61 96 62 97
REMARK SMILES IDX 63 98 64 99 65 100
REMARK H PARENT 22 7 27 31 89 50 55 61
REMARK Flexibility Score: inf
ROOT
ATOM      1  C   UNL     1       5.639  -5.232   5.096  1.00  0.00     0.023 C 
ENDROOT
BRANCH   1   2
ATOM      2  C   UNL     1       4.993  -4.312   4.057  1.00  0.00     0.023 C 
BRANCH   2   3
ATOM      3  C   UNL     1       5.265  -4.716   2.608  1.00  0.00     0.116 C 
BRANCH   3   4
ATOM      4  N   UNL     1       4.325  -5.722   2.155  1.00  0.00    -0.352 N 
ATOM      5  C   UNL     1       3.188  -5.723   1.421  1.00  0.00     0.251 C 
ATOM      6  O   UNL     1       2.721  -6.836   1.160  1.00  0.00    -0.270 OA
ATOM      7  H   UNL     1       4.574  -6.626   2.455  1.00  0.00     0.163 HD
BRANCH   5   8
ATOM      8  C   UNL     1       2.490  -4.502   0.925  1.00  0.00     0.067 C 
ATOM      9  C   UNL     1       0.800   0.199  -0.283  1.00  0.00     0.048 C 
ATOM     10  C   UNL     1       0.433  -1.205  -0.674  1.00  0.00    -0.005 A 
ATOM     11  C   UNL     1      -0.680  -1.438  -1.501  1.00  0.00     0.054 A 
ATOM     12  C   UNL     1       1.156  -2.299  -0.183  1.00  0.00     0.131 A 
ATOM     13  C   UNL     1      -1.045  -2.738  -1.860  1.00  0.00     0.130 A 
ATOM     14  C   UNL     1       0.815  -3.600  -0.556  1.00  0.00     0.021 A 
ATOM     15  O   UNL     1       2.220  -2.048   0.643  1.00  0.00    -0.475 OA
ATOM     16  C   UNL     1      -0.284  -3.814  -1.391  1.00  0.00     0.058 A 
ATOM     17  C   UNL     1       1.624  -4.715  -0.082  1.00  0.00     0.025 C 
ATOM     18  C   UNL     1       2.588  -3.134   1.545  1.00  0.00     0.314 C 
BRANCH  13  19
ATOM     19  O   UNL     1      -2.101  -3.098  -2.647  1.00  0.00    -0.406 OA
BRANCH  19  20
ATOM     20  C   UNL     1      -2.909  -2.068  -3.186  1.00  0.00     0.573 C 
ATOM     21  F   UNL     1      -3.498  -1.344  -2.210  1.00  0.00    -0.132 F 
ATOM     22  F   UNL     1      -2.188  -1.248  -3.982  1.00  0.00    -0.132 F 
ATOM     23  F   UNL     1      -3.884  -2.628  -3.937  1.00  0.00    -0.132 F 
ENDBRANCH  19  20
ENDBRANCH  13  19
BRANCH  18  24
ATOM     24  C   UNL     1       1.829  -3.001   2.876  1.00  0.00     0.429 C 
ATOM     25  F   UNL     1       1.783  -4.162   3.567  1.00  0.00    -0.167 F 
ATOM     26  F   UNL     1       2.447  -2.093   3.675  1.00  0.00    -0.167 F 
ATOM     27  F   UNL     1       0.552  -2.586   2.715  1.00  0.00    -0.167 F 
ENDBRANCH  18  24
ENDBRANCH   5   8
ENDBRANCH   3   4
ENDBRANCH   2   3
ENDBRANCH   1   2
BRANCH   1  28
ATOM     28  C   UNL     1       7.163  -5.238   5.086  1.00  0.00     0.116 C 
BRANCH  28  29
ATOM     29  N   UNL     1       7.748  -3.917   5.274  1.00  0.00    -0.352 N 
ATOM     30  C   UNL     1       8.945  -3.617   5.879  1.00  0.00     0.251 C 
ATOM     31  H   UNL     1       7.229  -3.156   4.928  1.00  0.00     0.163 HD
ATOM     32  O   UNL     1       9.307  -2.456   6.032  1.00  0.00    -0.269 OA
BRANCH  30  33
ATOM     33  C   UNL     1       9.757  -4.739   6.379  1.00  0.00     0.039 A 
ATOM     34  C   UNL     1       9.965  -4.856   7.754  1.00  0.00     0.014 A 
ATOM     35  C   UNL     1      10.180  -5.735   5.494  1.00  0.00     0.014 A 
ATOM     36  C   UNL     1      10.544  -6.019   8.256  1.00  0.00     0.010 A 
ATOM     37  C   UNL     1      10.710  -6.914   6.002  1.00  0.00     0.010 A 
ATOM     38  C   UNL     1      10.886  -7.068   7.386  1.00  0.00    -0.014 A 
BRANCH  38  39
ATOM     39  C   UNL     1      11.438  -8.337   7.910  1.00  0.00     0.031 A 
ATOM     40  C   UNL     1      12.874  -8.681   7.652  1.00  0.00     0.074 A 
ATOM     41  C   UNL     1      10.634  -9.190   8.574  1.00  0.00     0.049 A 
ATOM     42  N   UNL     1      13.539  -9.752   7.998  1.00  0.00    -0.248 NA
ATOM     43  C   UNL     1      13.662  -7.702   6.885  1.00  0.00     0.031 C 
ATOM     44  C   UNL     1       9.211  -8.976   8.846  1.00  0.00     0.029 A 
ATOM     45  N   UNL     1      10.900 -10.411   9.140  1.00  0.00    -0.354 N 
ATOM     46  C   UNL     1      14.820  -9.576   7.495  1.00  0.00     0.074 A 
ATOM     47  C   UNL     1      14.826  -8.323   6.771  1.00  0.00     0.031 C 
ATOM     48  C   UNL     1       8.736 -10.017   9.550  1.00  0.00     0.029 A 
ATOM     49  C   UNL     1       9.813 -10.980   9.761  1.00  0.00     0.049 A 
ATOM     50  H   UNL     1      11.786 -10.839   9.105  1.00  0.00     0.167 HD
ATOM     51  C   UNL     1      15.903 -10.373   7.648  1.00  0.00     0.037 A 
ATOM     52  C   UNL     1       9.705 -12.143  10.432  1.00  0.00     0.037 A 
ATOM     53  C   UNL     1      15.895 -11.606   8.385  1.00  0.00     0.049 A 
ATOM     54  C   UNL     1      10.921 -13.014  10.588  1.00  0.00     0.074 A 
ATOM     55  C   UNL     1      16.945 -12.474   8.623  1.00  0.00     0.029 A 
ATOM     56  N   UNL     1      14.779 -12.142   9.011  1.00  0.00    -0.354 N 
ATOM     57  N   UNL     1      12.138 -12.813  10.141  1.00  0.00    -0.248 NA
ATOM     58  C   UNL     1      10.755 -14.264  11.343  1.00  0.00     0.031 C 
ATOM     59  C   UNL     1      16.459 -13.547   9.379  1.00  0.00     0.029 A 
ATOM     60  C   UNL     1      15.113 -13.332   9.633  1.00  0.00     0.049 A 
ATOM     61  H   UNL     1      13.882 -11.736   9.013  1.00  0.00     0.167 HD
ATOM     62  C   UNL     1      12.888 -13.896  10.582  1.00  0.00     0.074 A 
ATOM     63  C   UNL     1      11.989 -14.752  11.331  1.00  0.00     0.031 C 
ATOM     64  C   UNL     1      14.203 -14.157  10.388  1.00  0.00     0.037 A 
BRANCH  51  65
ATOM     65  C   UNL     1      17.185  -9.915   7.018  1.00  0.00     0.058 A 
ATOM     66  C   UNL     1      17.919  -8.849   7.562  1.00  0.00     0.135 A 
ATOM     67  C   UNL     1      17.688 -10.542   5.869  1.00  0.00     0.135 A 
ATOM     68  F   UNL     1      17.468  -8.203   8.649  1.00  0.00    -0.206 F 
ATOM     69  C   UNL     1      19.094  -8.401   6.971  1.00  0.00     0.059 A 
ATOM     70  C   UNL     1      18.874 -10.124   5.272  1.00  0.00     0.059 A 
ATOM     71  F   UNL     1      17.020 -11.562   5.307  1.00  0.00    -0.206 F 
ATOM     72  C   UNL     1      19.561  -9.042   5.822  1.00  0.00     0.060 A 
BRANCH  72  73
ATOM     73  S   UNL     1      21.081  -8.441   5.058  1.00  0.00     0.124 S 
ATOM     74  O   UNL     1      20.613  -7.224   4.400  1.00  0.00    -0.237 OA
ATOM     75  O   UNL     1      21.955  -8.241   6.210  1.00  0.00    -0.237 OA
ATOM     76  O   UNL     1      21.465  -9.530   4.165  1.00  0.00    -0.744 OA
ENDBRANCH  72  73
ENDBRANCH  51  65
BRANCH  52  77
ATOM     77  C   UNL     1       8.410 -12.519  11.053  1.00  0.00     0.058 A 
ATOM     78  C   UNL     1       8.224 -12.405  12.439  1.00  0.00     0.135 A 
ATOM     79  C   UNL     1       7.327 -12.963  10.280  1.00  0.00     0.135 A 
ATOM     80  F   UNL     1       9.233 -11.989  13.218  1.00  0.00    -0.206 F 
ATOM     81  C   UNL     1       7.011 -12.723  13.039  1.00  0.00     0.059 A 
ATOM     82  C   UNL     1       6.098 -13.272  10.856  1.00  0.00     0.059 A 
ATOM     83  F   UNL     1       7.452 -13.072   8.948  1.00  0.00    -0.206 F 
ATOM     84  C   UNL     1       5.951 -13.152  12.238  1.00  0.00     0.060 A 
BRANCH  84  85
ATOM     85  S   UNL     1       4.361 -13.501  13.021  1.00  0.00     0.124 S 
ATOM     86  O   UNL     1       4.631 -14.772  13.681  1.00  0.00    -0.237 OA
ATOM     87  O   UNL     1       4.193 -12.347  13.900  1.00  0.00    -0.237 OA
ATOM     88  O   UNL     1       3.438 -13.557  11.892  1.00  0.00    -0.744 OA
ENDBRANCH  84  85
ENDBRANCH  52  77
BRANCH  64  89
ATOM     89  C   UNL     1      14.769 -15.398  11.011  1.00  0.00     0.058 A 
ATOM     90  C   UNL     1      14.590 -16.656  10.419  1.00  0.00     0.135 A 
ATOM     91  C   UNL     1      15.590 -15.310  12.146  1.00  0.00     0.135 A 
ATOM     92  F   UNL     1      13.808 -16.789   9.337  1.00  0.00    -0.206 F 
ATOM     93  C   UNL     1      15.214 -17.789  10.929  1.00  0.00     0.059 A 
ATOM     94  C   UNL     1      16.237 -16.427  12.663  1.00  0.00     0.059 A 
ATOM     95  F   UNL     1      15.795 -14.124  12.741  1.00  0.00    -0.206 F 
ATOM     96  C   UNL     1      16.044 -17.663  12.046  1.00  0.00     0.060 A 
BRANCH  96  97
ATOM     97  S   UNL     1      16.917 -19.125  12.646  1.00  0.00     0.124 S 
ATOM     98  O   UNL     1      15.847 -19.849  13.323  1.00  0.00    -0.237 OA
ATOM     99  O   UNL     1      17.406 -19.727  11.409  1.00  0.00    -0.237 OA
ATOM    100  O   UNL     1      17.950 -18.570  13.515  1.00  0.00    -0.744 OA
ENDBRANCH  96  97
ENDBRANCH  64  89
ENDBRANCH  38  39
ENDBRANCH  30  33
ENDBRANCH  28  29
ENDBRANCH   1  28
TORSDOF 17
