REMARK SMILES COc1ccc(-c2nc(SCC(=O)NCCCCNC(=O)c3ccc(-c4c5nc(c(-c6c(F)cc(S(=O)(=O)[O-])cc6F)c6ccc([nH]6)c(-c6c(F)cc(S(=O)(=O)[O-])cc6F)c6nc(c(-c7c(F)cc(S(=O)(=O)[O-])cc7F)c7ccc4[nH]7)C=C6)C=C5)cc3)cc(-c3ccncc3)n2)cc1
REMARK SMILES IDX 16 1 15 2 14 3 12 4 13 5 11 7 10 8 9 9 7 10 8 11 96 12 89 13
REMARK SMILES IDX 88 14 6 15 3 16 4 17 98 18 5 19 97 20 2 21 1 22 90 23 91 24
REMARK SMILES IDX 95 25 92 26 94 27 93 28 17 29 18 30 19 31 20 32 21 34 22 35
REMARK SMILES IDX 23 36 87 37 24 38 86 39 25 40 26 41 27 42 80 43 28 44 85 45
REMARK SMILES IDX 79 46 81 47 29 48 84 49 78 50 77 51 30 53 64 54 43 55 63 56
REMARK SMILES IDX 44 57 47 58 62 59 82 60 45 61 46 62 61 64 83 65 48 66 31 67
REMARK SMILES IDX 32 68 41 69 33 70 34 71 40 72 42 73 35 74 36 75 37 76 38 77
REMARK SMILES IDX 39 78 65 79 66 80 75 81 67 82 68 83 74 84 76 85 69 86 70 87
REMARK SMILES IDX 71 88 72 89 73 90 49 91 50 92 59 93 51 94 52 95 58 96 60 97
REMARK SMILES IDX 53 98 54 99 55 100 56 101 57 102
REMARK H PARENT 14 6 19 33 81 52 47 63
REMARK Flexibility Score: inf
ROOT
ATOM      1  C   UNL     1       2.841   6.867   6.407  1.00  0.00     0.023 C 
ENDROOT
BRANCH   1   2
ATOM      2  C   UNL     1       2.689   8.366   6.663  1.00  0.00     0.116 C 
BRANCH   2   3
ATOM      3  N   UNL     1       3.589   9.135   5.825  1.00  0.00    -0.355 N 
ATOM      4  C   UNL     1       3.312   9.904   4.739  1.00  0.00     0.230 C 
ATOM      5  O   UNL     1       4.262  10.392   4.120  1.00  0.00    -0.274 OA
ATOM      6  H   UNL     1       4.539   9.093   6.079  1.00  0.00     0.163 HD
BRANCH   4   7
ATOM      7  C   UNL     1       1.883  10.221   4.339  1.00  0.00     0.176 C 
BRANCH   7   8
ATOM      8  S   UNL     1       0.937   8.815   3.679  1.00  0.00    -0.096 SA
BRANCH   8   9
ATOM      9  C   UNL     1       1.926   8.164   2.354  1.00  0.00     0.101 A 
ATOM     10  C   UNL     1       2.270   6.346   0.992  1.00  0.00     0.161 A 
ATOM     11  N   UNL     1       1.563   6.926   1.976  1.00  0.00    -0.222 NA
ATOM     12  N   UNL     1       3.307   6.912   0.354  1.00  0.00    -0.228 NA
ATOM     13  C   UNL     1       3.631   8.160   0.741  1.00  0.00     0.076 A 
ATOM     14  C   UNL     1       2.945   8.838   1.730  1.00  0.00     0.064 A 
BRANCH  10  15
ATOM     15  C   UNL     1       1.846   5.007   0.570  1.00  0.00     0.019 A 
ATOM     16  C   UNL     1       0.997   2.417  -0.194  1.00  0.00     0.118 A 
ATOM     17  C   UNL     1       0.095   3.480  -0.179  1.00  0.00     0.047 A 
ATOM     18  C   UNL     1       2.329   2.647   0.147  1.00  0.00     0.047 A 
ATOM     19  C   UNL     1       0.509   4.756   0.216  1.00  0.00     0.016 A 
ATOM     20  C   UNL     1       2.749   3.934   0.517  1.00  0.00     0.016 A 
BRANCH  16  21
ATOM     21  O   UNL     1       0.480   1.217  -0.600  1.00  0.00    -0.497 OA
ATOM     22  C   UNL     1       1.102   0.063  -0.043  1.00  0.00     0.278 C 
ENDBRANCH  16  21
ENDBRANCH  10  15
BRANCH  13  23
ATOM     23  C   UNL     1       4.741   8.802   0.035  1.00  0.00     0.003 A 
ATOM     24  C   UNL     1       5.901   9.193   0.716  1.00  0.00     0.030 A 
ATOM     25  C   UNL     1       4.646   9.099  -1.327  1.00  0.00     0.030 A 
ATOM     26  C   UNL     1       6.889   9.869   0.020  1.00  0.00     0.111 A 
ATOM     27  C   UNL     1       5.682   9.790  -1.933  1.00  0.00     0.111 A 
ATOM     28  N   UNL     1       6.798  10.189  -1.288  1.00  0.00    -0.265 NA
ENDBRANCH  13  23
ENDBRANCH   8   9
ENDBRANCH   7   8
ENDBRANCH   4   7
ENDBRANCH   2   3
ENDBRANCH   1   2
BRANCH   1  29
ATOM     29  C   UNL     1       4.217   6.292   6.763  1.00  0.00     0.023 C 
BRANCH  29  30
ATOM     30  C   UNL     1       4.675   6.529   8.199  1.00  0.00     0.116 C 
BRANCH  30  31
ATOM     31  N   UNL     1       3.760   5.974   9.184  1.00  0.00    -0.352 N 
ATOM     32  C   UNL     1       4.039   5.232  10.306  1.00  0.00     0.251 C 
ATOM     33  H   UNL     1       2.806   6.156   9.024  1.00  0.00     0.163 HD
ATOM     34  O   UNL     1       3.120   4.732  10.950  1.00  0.00    -0.269 OA
BRANCH  32  35
ATOM     35  C   UNL     1       5.443   5.009  10.718  1.00  0.00     0.039 A 
ATOM     36  C   UNL     1       5.843   3.719  11.077  1.00  0.00     0.014 A 
ATOM     37  C   UNL     1       6.364   6.060  10.742  1.00  0.00     0.014 A 
ATOM     38  C   UNL     1       7.181   3.470  11.394  1.00  0.00     0.010 A 
ATOM     39  C   UNL     1       7.709   5.797  10.989  1.00  0.00     0.010 A 
ATOM     40  C   UNL     1       8.133   4.500  11.316  1.00  0.00    -0.014 A 
BRANCH  40  41
ATOM     41  C   UNL     1       9.576   4.235  11.557  1.00  0.00     0.031 A 
ATOM     42  C   UNL     1      10.287   4.894  12.708  1.00  0.00     0.074 A 
ATOM     43  C   UNL     1      10.262   3.452  10.700  1.00  0.00     0.049 A 
ATOM     44  N   UNL     1      11.551   4.836  13.040  1.00  0.00    -0.248 NA
ATOM     45  C   UNL     1       9.477   5.754  13.585  1.00  0.00     0.031 C 
ATOM     46  C   UNL     1       9.697   2.791   9.521  1.00  0.00     0.029 A 
ATOM     47  N   UNL     1      11.585   3.085  10.682  1.00  0.00    -0.354 N 
ATOM     48  C   UNL     1      11.692   5.661  14.150  1.00  0.00     0.074 A 
ATOM     49  C   UNL     1      10.394   6.247  14.405  1.00  0.00     0.031 C 
ATOM     50  C   UNL     1      10.659   2.081   8.911  1.00  0.00     0.029 A 
ATOM     51  C   UNL     1      11.917   2.266   9.627  1.00  0.00     0.049 A 
ATOM     52  H   UNL     1      12.235   3.380  11.359  1.00  0.00     0.167 HD
ATOM     53  C   UNL     1      12.796   5.893  14.900  1.00  0.00     0.037 A 
ATOM     54  C   UNL     1      13.102   1.730   9.273  1.00  0.00     0.037 A 
ATOM     55  C   UNL     1      14.079   5.285  14.656  1.00  0.00     0.049 A 
ATOM     56  C   UNL     1      14.315   2.007  10.119  1.00  0.00     0.074 A 
ATOM     57  C   UNL     1      15.240   5.401  15.400  1.00  0.00     0.029 A 
ATOM     58  N   UNL     1      14.373   4.452  13.586  1.00  0.00    -0.354 N 
ATOM     59  N   UNL     1      14.413   2.733  11.208  1.00  0.00    -0.248 NA
ATOM     60  C   UNL     1      15.579   1.389   9.692  1.00  0.00     0.031 C 
ATOM     61  C   UNL     1      16.249   4.681  14.752  1.00  0.00     0.029 A 
ATOM     62  C   UNL     1      15.704   4.070  13.634  1.00  0.00     0.049 A 
ATOM     63  H   UNL     1      13.730   4.175  12.894  1.00  0.00     0.167 HD
ATOM     64  C   UNL     1      15.740   2.634  11.613  1.00  0.00     0.074 A 
ATOM     65  C   UNL     1      16.404   1.770  10.658  1.00  0.00     0.031 C 
ATOM     66  C   UNL     1      16.352   3.204  12.681  1.00  0.00     0.037 A 
BRANCH  53  67
ATOM     67  C   UNL     1      12.670   6.850  16.055  1.00  0.00     0.058 A 
ATOM     68  C   UNL     1      11.931   6.529  17.205  1.00  0.00     0.135 A 
ATOM     69  C   UNL     1      13.327   8.091  16.027  1.00  0.00     0.135 A 
ATOM     70  F   UNL     1      11.271   5.362  17.281  1.00  0.00    -0.206 F 
ATOM     71  C   UNL     1      11.821   7.415  18.271  1.00  0.00     0.059 A 
ATOM     72  C   UNL     1      13.256   8.981  17.095  1.00  0.00     0.059 A 
ATOM     73  F   UNL     1      14.049   8.450  14.954  1.00  0.00    -0.206 F 
ATOM     74  C   UNL     1      12.487   8.640  18.207  1.00  0.00     0.060 A 
BRANCH  74  75
ATOM     75  S   UNL     1      12.334   9.779  19.599  1.00  0.00     0.124 S 
ATOM     76  O   UNL     1      10.959  10.245  19.443  1.00  0.00    -0.237 OA
ATOM     77  O   UNL     1      12.581   8.908  20.743  1.00  0.00    -0.237 OA
ATOM     78  O   UNL     1      13.367  10.776  19.339  1.00  0.00    -0.744 OA
ENDBRANCH  74  75
ENDBRANCH  53  67
BRANCH  54  79
ATOM     79  C   UNL     1      13.194   0.853   8.075  1.00  0.00     0.058 A 
ATOM     80  C   UNL     1      13.421  -0.525   8.207  1.00  0.00     0.135 A 
ATOM     81  C   UNL     1      13.046   1.368   6.777  1.00  0.00     0.135 A 
ATOM     82  F   UNL     1      13.577  -1.064   9.426  1.00  0.00    -0.206 F 
ATOM     83  C   UNL     1      13.515  -1.359   7.099  1.00  0.00     0.059 A 
ATOM     84  C   UNL     1      13.109   0.550   5.654  1.00  0.00     0.059 A 
ATOM     85  F   UNL     1      12.810   2.677   6.596  1.00  0.00    -0.206 F 
ATOM     86  C   UNL     1      13.354  -0.812   5.825  1.00  0.00     0.060 A 
BRANCH  86  87
ATOM     87  S   UNL     1      13.428  -1.913   4.395  1.00  0.00     0.124 S 
ATOM     88  O   UNL     1      14.851  -2.221   4.335  1.00  0.00    -0.237 OA
ATOM     89  O   UNL     1      12.553  -3.008   4.807  1.00  0.00    -0.237 OA
ATOM     90  O   UNL     1      12.913  -1.086   3.308  1.00  0.00    -0.744 OA
ENDBRANCH  86  87
ENDBRANCH  54  79
BRANCH  66  91
ATOM     91  C   UNL     1      17.805   2.884  12.900  1.00  0.00     0.058 A 
ATOM     92  C   UNL     1      18.812   3.407  12.073  1.00  0.00     0.135 A 
ATOM     93  C   UNL     1      18.200   2.086  13.987  1.00  0.00     0.135 A 
ATOM     94  F   UNL     1      18.490   4.170  11.017  1.00  0.00    -0.206 F 
ATOM     95  C   UNL     1      20.156   3.130  12.301  1.00  0.00     0.059 A 
ATOM     96  C   UNL     1      19.539   1.821  14.251  1.00  0.00     0.059 A 
ATOM     97  F   UNL     1      17.279   1.569  14.816  1.00  0.00    -0.206 F 
ATOM     98  C   UNL     1      20.510   2.338  13.395  1.00  0.00     0.060 A 
BRANCH  98  99
ATOM     99  S   UNL     1      22.260   2.016  13.701  1.00  0.00     0.124 S 
ATOM    100  O   UNL     1      22.574   1.065  12.640  1.00  0.00    -0.237 OA
ATOM    101  O   UNL     1      22.851   3.343  13.558  1.00  0.00    -0.237 OA
ATOM    102  O   UNL     1      22.275   1.473  15.056  1.00  0.00    -0.744 OA
ENDBRANCH  98  99
ENDBRANCH  66  91
ENDBRANCH  40  41
ENDBRANCH  32  35
ENDBRANCH  30  31
ENDBRANCH  29  30
ENDBRANCH   1  29
TORSDOF 19
