REMARK SMILES O=C(CC[C@@H]1CN(c2ccncc2)CC[C@@H]1[NH+]1CCOCC1)NCCCCNC(=O)c1ccc(-c2c3nc(c(-c4c(F)cc(S(=O)(=O)[O-])cc4F)c4ccc([nH]4)c(-c4c(F)cc(S(=O)(=O)[O-])cc4F)c4nc(c(-c5c(F)cc(S(=O)(=O)[O-])cc5F)c5ccc2[nH]5)C=C4)C=C3)cc1
REMARK SMILES IDX 25 1 24 2 23 3 1 4 2 5 3 7 4 8 5 9 6 10 16 11 7 12 15 13
REMARK SMILES IDX 14 14 17 15 18 16 22 17 19 19 21 20 20 21 8 22 9 23 13 24
REMARK SMILES IDX 10 25 12 26 11 27 26 28 27 29 28 30 29 31 30 33 31 34 32 35
REMARK SMILES IDX 96 36 33 37 95 38 34 39 35 40 36 41 89 42 37 43 94 44 88 45
REMARK SMILES IDX 90 46 38 47 93 48 87 49 86 50 39 52 73 53 52 54 72 55 53 56
REMARK SMILES IDX 56 57 71 58 91 59 54 60 55 61 70 63 92 64 57 65 40 66 41 67
REMARK SMILES IDX 50 68 42 69 43 70 49 71 51 72 44 73 45 74 46 75 47 76 48 77
REMARK SMILES IDX 74 78 75 79 84 80 76 81 77 82 83 83 85 84 78 85 79 86 80 87
REMARK SMILES IDX 81 88 82 89 58 90 59 91 68 92 60 93 61 94 67 95 69 96 62 97
REMARK SMILES IDX 63 98 64 99 65 100 66 101
REMARK H PARENT 23 6 17 18 28 32 90 51 56 62
REMARK Flexibility Score: inf
ROOT
ATOM      1  C   UNL     1      10.006  -4.543   1.974  1.00  0.00     0.023 C 
ENDROOT
BRANCH   1   2
ATOM      2  C   UNL     1       8.636  -4.699   1.143  1.00  0.00     0.116 C 
BRANCH   2   3
ATOM      3  N   UNL     1       8.106  -3.722   0.147  1.00  0.00    -0.356 N 
ATOM      4  O   UNL     1       6.045  -4.741  -0.172  1.00  0.00    -0.275 OA
ATOM      5  C   UNL     1       6.757  -3.745  -0.323  1.00  0.00     0.220 C 
ATOM      6  H   UNL     1       8.713  -3.030  -0.202  1.00  0.00     0.163 HD
BRANCH   5   7
ATOM      7  C   UNL     1       6.198  -2.463  -1.117  1.00  0.00     0.100 C 
BRANCH   7   8
ATOM      8  C   UNL     1       4.835  -1.689  -0.744  1.00  0.00     0.021 C 
BRANCH   8   9
ATOM      9  C   UNL     1       4.572  -0.557   0.404  1.00  0.00     0.067 C 
ATOM     10  C   UNL     1       5.252   0.853   0.291  1.00  0.00     0.126 C 
ATOM     11  C   UNL     1       4.635  -1.177   1.805  1.00  0.00     0.190 C 
ATOM     12  N   UNL     1       5.376   1.574   1.583  1.00  0.00    -0.371 N 
ATOM     13  C   UNL     1       4.603  -0.227   3.001  1.00  0.00     0.087 C 
ATOM     14  C   UNL     1       5.563   0.923   2.874  1.00  0.00     0.122 C 
BRANCH  11  15
ATOM     15  N   UNL     1       5.807  -2.001   1.839  1.00  0.00    -0.328 N 
ATOM     16  C   UNL     1       5.716  -3.162   2.713  1.00  0.00     0.291 C 
ATOM     17  C   UNL     1       7.082  -1.356   1.584  1.00  0.00     0.291 C 
ATOM     18  H   UNL     1       5.812  -2.495   0.948  1.00  0.00     0.348 HD
ATOM     19  C   UNL     1       6.809  -3.190   3.752  1.00  0.00     0.221 C 
ATOM     20  C   UNL     1       8.128  -1.599   2.607  1.00  0.00     0.221 C 
ATOM     21  O   UNL     1       8.046  -2.921   3.122  1.00  0.00    -0.370 OA
ENDBRANCH  11  15
BRANCH  12  22
ATOM     22  C   UNL     1       5.664   2.935   1.705  1.00  0.00     0.040 A 
ATOM     23  C   UNL     1       6.972   3.419   1.820  1.00  0.00     0.046 A 
ATOM     24  C   UNL     1       4.619   3.777   2.092  1.00  0.00     0.046 A 
ATOM     25  C   UNL     1       7.168   4.694   2.339  1.00  0.00     0.113 A 
ATOM     26  C   UNL     1       4.913   5.027   2.608  1.00  0.00     0.113 A 
ATOM     27  N   UNL     1       6.165   5.508   2.731  1.00  0.00    -0.265 NA
ENDBRANCH  12  22
ENDBRANCH   8   9
ENDBRANCH   7   8
ENDBRANCH   5   7
ENDBRANCH   2   3
ENDBRANCH   1   2
BRANCH   1  28
ATOM     28  C   UNL     1      10.693  -3.427   2.891  1.00  0.00     0.023 C 
BRANCH  28  29
ATOM     29  C   UNL     1      10.361  -2.768   4.298  1.00  0.00     0.116 C 
BRANCH  29  30
ATOM     30  N   UNL     1      10.105  -3.551   5.487  1.00  0.00    -0.352 N 
ATOM     31  C   UNL     1       9.863  -3.054   6.767  1.00  0.00     0.251 C 
ATOM     32  H   UNL     1      10.102  -4.530   5.382  1.00  0.00     0.163 HD
ATOM     33  O   UNL     1       9.766  -3.834   7.713  1.00  0.00    -0.269 OA
BRANCH  31  34
ATOM     34  C   UNL     1       9.735  -1.584   7.051  1.00  0.00     0.039 A 
ATOM     35  C   UNL     1      10.720  -0.937   7.807  1.00  0.00     0.014 A 
ATOM     36  C   UNL     1       8.570  -0.870   6.740  1.00  0.00     0.014 A 
ATOM     37  C   UNL     1      10.566   0.413   8.195  1.00  0.00     0.010 A 
ATOM     38  C   UNL     1       8.426   0.490   7.112  1.00  0.00     0.010 A 
ATOM     39  C   UNL     1       9.424   1.157   7.843  1.00  0.00    -0.014 A 
BRANCH  39  40
ATOM     40  C   UNL     1       9.316   2.615   8.213  1.00  0.00     0.031 A 
ATOM     41  C   UNL     1       8.315   3.118   9.234  1.00  0.00     0.074 A 
ATOM     42  C   UNL     1      10.134   3.520   7.630  1.00  0.00     0.049 A 
ATOM     43  N   UNL     1       8.143   4.334   9.699  1.00  0.00    -0.248 NA
ATOM     44  C   UNL     1       7.387   2.131   9.800  1.00  0.00     0.031 C 
ATOM     45  C   UNL     1      11.134   3.209   6.608  1.00  0.00     0.029 A 
ATOM     46  N   UNL     1      10.262   4.880   7.810  1.00  0.00    -0.354 N 
ATOM     47  C   UNL     1       7.090   4.262  10.609  1.00  0.00     0.074 A 
ATOM     48  C   UNL     1       6.640   2.884  10.600  1.00  0.00     0.031 C 
ATOM     49  C   UNL     1      11.787   4.333   6.272  1.00  0.00     0.029 A 
ATOM     50  C   UNL     1      11.238   5.458   7.028  1.00  0.00     0.049 A 
ATOM     51  H   UNL     1       9.707   5.393   8.441  1.00  0.00     0.167 HD
ATOM     52  C   UNL     1       6.556   5.238  11.391  1.00  0.00     0.037 A 
ATOM     53  C   UNL     1      11.654   6.739   6.921  1.00  0.00     0.037 A 
ATOM     54  C   UNL     1       7.001   6.613  11.416  1.00  0.00     0.049 A 
ATOM     55  C   UNL     1      11.033   7.809   7.782  1.00  0.00     0.074 A 
ATOM     56  C   UNL     1       6.553   7.647  12.224  1.00  0.00     0.029 A 
ATOM     57  N   UNL     1       7.978   7.153  10.594  1.00  0.00    -0.354 N 
ATOM     58  N   UNL     1      10.098   7.695   8.694  1.00  0.00    -0.248 NA
ATOM     59  C   UNL     1      11.532   9.182   7.606  1.00  0.00     0.031 C 
ATOM     60  C   UNL     1       7.220   8.821  11.854  1.00  0.00     0.029 A 
ATOM     61  C   UNL     1       8.126   8.509  10.855  1.00  0.00     0.049 A 
ATOM     62  H   UNL     1       8.493   6.649   9.923  1.00  0.00     0.167 HD
ATOM     63  C   UNL     1       9.918   8.973   9.217  1.00  0.00     0.074 A 
ATOM     64  C   UNL     1      10.850   9.842   8.533  1.00  0.00     0.031 C 
ATOM     65  C   UNL     1       9.057   9.382  10.182  1.00  0.00     0.037 A 
BRANCH  52  66
ATOM     66  C   UNL     1       5.410   4.866  12.301  1.00  0.00     0.058 A 
ATOM     67  C   UNL     1       5.600   4.062  13.437  1.00  0.00     0.135 A 
ATOM     68  C   UNL     1       4.119   5.374  12.075  1.00  0.00     0.135 A 
ATOM     69  F   UNL     1       6.811   3.550  13.708  1.00  0.00    -0.206 F 
ATOM     70  C   UNL     1       4.547   3.745  14.292  1.00  0.00     0.059 A 
ATOM     71  C   UNL     1       3.057   5.093  12.932  1.00  0.00     0.059 A 
ATOM     72  F   UNL     1       3.879   6.162  11.014  1.00  0.00    -0.206 F 
ATOM     73  C   UNL     1       3.277   4.263  14.029  1.00  0.00     0.060 A 
BRANCH  73  74
ATOM     74  S   UNL     1       1.923   3.831  15.143  1.00  0.00     0.124 S 
ATOM     75  O   UNL     1       1.697   2.432  14.797  1.00  0.00    -0.237 OA
ATOM     76  O   UNL     1       2.506   4.074  16.456  1.00  0.00    -0.237 OA
ATOM     77  O   UNL     1       0.855   4.751  14.753  1.00  0.00    -0.744 OA
ENDBRANCH  73  74
ENDBRANCH  52  66
BRANCH  53  78
ATOM     78  C   UNL     1      12.743   7.089   5.964  1.00  0.00     0.058 A 
ATOM     79  C   UNL     1      14.008   7.491   6.418  1.00  0.00     0.135 A 
ATOM     80  C   UNL     1      12.538   7.031   4.576  1.00  0.00     0.135 A 
ATOM     81  F   UNL     1      14.252   7.577   7.735  1.00  0.00    -0.206 F 
ATOM     82  C   UNL     1      15.028   7.834   5.535  1.00  0.00     0.059 A 
ATOM     83  C   UNL     1      13.550   7.343   3.672  1.00  0.00     0.059 A 
ATOM     84  F   UNL     1      11.351   6.640   4.086  1.00  0.00    -0.206 F 
ATOM     85  C   UNL     1      14.790   7.752   4.162  1.00  0.00     0.060 A 
BRANCH  85  86
ATOM     86  S   UNL     1      16.137   8.139   3.022  1.00  0.00     0.124 S 
ATOM     87  O   UNL     1      16.221   9.589   3.146  1.00  0.00    -0.237 OA
ATOM     88  O   UNL     1      17.247   7.382   3.593  1.00  0.00    -0.237 OA
ATOM     89  O   UNL     1      15.644   7.641   1.741  1.00  0.00    -0.744 OA
ENDBRANCH  85  86
ENDBRANCH  53  78
BRANCH  65  90
ATOM     90  C   UNL     1       9.097  10.832  10.593  1.00  0.00     0.058 A 
ATOM     91  C   UNL     1       8.621  11.855   9.757  1.00  0.00     0.135 A 
ATOM     92  C   UNL     1       9.575  11.200  11.862  1.00  0.00     0.135 A 
ATOM     93  F   UNL     1       8.158  11.564   8.530  1.00  0.00    -0.206 F 
ATOM     94  C   UNL     1       8.638  13.190  10.153  1.00  0.00     0.059 A 
ATOM     95  C   UNL     1       9.576  12.526  12.290  1.00  0.00     0.059 A 
ATOM     96  F   UNL     1      10.036  10.266  12.708  1.00  0.00    -0.206 F 
ATOM     97  C   UNL     1       9.116  13.516  11.424  1.00  0.00     0.060 A 
BRANCH  97  98
ATOM     98  S   UNL     1       9.102  15.247  11.939  1.00  0.00     0.124 S 
ATOM     99  O   UNL     1      10.196  15.800  11.147  1.00  0.00    -0.237 OA
ATOM    100  O   UNL     1       7.761  15.678  11.554  1.00  0.00    -0.237 OA
ATOM    101  O   UNL     1       9.342  15.177  13.377  1.00  0.00    -0.744 OA
ENDBRANCH  97  98
ENDBRANCH  65  90
ENDBRANCH  39  40
ENDBRANCH  31  34
ENDBRANCH  29  30
ENDBRANCH  28  29
ENDBRANCH   1  28
TORSDOF 18
