REMARK SMILES Nc1c(Cl)ccc2c1C=C(C(=O)NCCCCNC(=O)c1ccc(-c3c4nc(c(-c5c(F)cc(S(=O)(=O)[O-])cc5F)c5ccc([nH]5)c(-c5c(F)cc(S(=O)(=O)[O-])cc5F)c5nc(c(-c6c(F)cc(S(=O)(=O)[O-])cc6F)c6ccc3[nH]6)C=C5)C=C4)cc1)[C@@H](C(F)(F)F)O2
REMARK SMILES IDX 16 1 15 2 14 3 13 4 11 5 12 6 10 8 2 9 3 10 8 11 4 12 5 13
REMARK SMILES IDX 7 14 9 15 6 16 92 17 87 18 1 19 88 22 89 23 90 24 91 25
REMARK SMILES IDX 17 26 18 27 19 28 20 30 21 31 22 32 86 33 23 34 85 35 24 36
REMARK SMILES IDX 25 37 26 38 79 39 27 40 84 41 78 42 80 43 28 44 83 45 77 46
REMARK SMILES IDX 76 47 29 49 63 50 42 51 62 52 43 53 46 54 61 55 81 56 44 57
REMARK SMILES IDX 45 58 60 60 82 61 47 62 30 63 31 64 40 65 32 66 33 67 39 68
REMARK SMILES IDX 41 69 34 70 35 71 36 72 37 73 38 74 64 75 65 76 74 77 66 78
REMARK SMILES IDX 67 79 73 80 75 81 68 82 69 83 70 84 71 85 72 86 48 87 49 88
REMARK SMILES IDX 58 89 50 90 51 91 57 92 59 93 52 94 53 95 54 96 55 97 56 98
REMARK H PARENT 13 7 1 20 1 21 18 29 80 48 46 59
REMARK Flexibility Score: inf
ROOT
ATOM      1  C   UNL     1      -7.008  -4.068   1.698  1.00  0.00     0.023 C 
ENDROOT
BRANCH   1   2
ATOM      2  C   UNL     1      -6.236  -2.800   2.070  1.00  0.00     0.023 C 
BRANCH   2   3
ATOM      3  C   UNL     1      -4.933  -3.063   2.818  1.00  0.00     0.116 C 
BRANCH   3   4
ATOM      4  N   UNL     1      -3.852  -3.407   1.913  1.00  0.00    -0.352 N 
ATOM      5  C   UNL     1      -2.748  -2.804   1.416  1.00  0.00     0.251 C 
ATOM      6  O   UNL     1      -2.089  -3.485   0.623  1.00  0.00    -0.270 OA
ATOM      7  H   UNL     1      -3.947  -4.325   1.569  1.00  0.00     0.163 HD
BRANCH   5   8
ATOM      8  C   UNL     1      -2.289  -1.422   1.754  1.00  0.00     0.067 C 
ATOM      9  C   UNL     1       0.519   0.817   0.721  1.00  0.00     0.061 A 
ATOM     10  C   UNL     1       0.975   2.109   1.072  1.00  0.00     0.064 A 
ATOM     11  C   UNL     1      -0.684   0.356   1.303  1.00  0.00     0.042 A 
ATOM     12  Cl  UNL     1       2.461   2.727   0.426  1.00  0.00    -0.082 Cl
ATOM     13  C   UNL     1       0.246   2.937   1.928  1.00  0.00     0.026 A 
ATOM     14  C   UNL     1      -1.398   1.197   2.169  1.00  0.00     0.130 A 
ATOM     15  C   UNL     1      -1.259  -0.963   1.019  1.00  0.00     0.027 C 
ATOM     16  C   UNL     1      -0.948   2.481   2.470  1.00  0.00     0.049 A 
ATOM     17  O   UNL     1      -2.588   0.843   2.742  1.00  0.00    -0.475 OA
ATOM     18  C   UNL     1      -2.860  -0.580   2.855  1.00  0.00     0.314 C 
BRANCH   9  19
ATOM     19  N   UNL     1       1.309  -0.001  -0.092  1.00  0.00    -0.397 N 
ATOM     20  H   UNL     1       2.142   0.351  -0.482  1.00  0.00     0.156 HD
ATOM     21  H   UNL     1       1.033  -0.928  -0.275  1.00  0.00     0.156 HD
ENDBRANCH   9  19
BRANCH  18  22
ATOM     22  C   UNL     1      -2.446  -1.064   4.258  1.00  0.00     0.429 C 
ATOM     23  F   UNL     1      -3.220  -0.478   5.206  1.00  0.00    -0.167 F 
ATOM     24  F   UNL     1      -2.594  -2.400   4.414  1.00  0.00    -0.167 F 
ATOM     25  F   UNL     1      -1.159  -0.770   4.550  1.00  0.00    -0.167 F 
ENDBRANCH  18  22
ENDBRANCH   5   8
ENDBRANCH   3   4
ENDBRANCH   2   3
ENDBRANCH   1   2
BRANCH   1  26
ATOM     26  C   UNL     1      -7.334  -4.998   2.865  1.00  0.00     0.116 C 
BRANCH  26  27
ATOM     27  N   UNL     1      -7.986  -4.319   3.976  1.00  0.00    -0.352 N 
ATOM     28  C   UNL     1      -8.997  -4.793   4.775  1.00  0.00     0.251 C 
ATOM     29  H   UNL     1      -7.662  -3.411   4.178  1.00  0.00     0.163 HD
ATOM     30  O   UNL     1      -9.516  -4.079   5.625  1.00  0.00    -0.269 OA
BRANCH  28  31
ATOM     31  C   UNL     1      -9.461  -6.173   4.560  1.00  0.00     0.039 A 
ATOM     32  C   UNL     1     -10.786  -6.388   4.177  1.00  0.00     0.014 A 
ATOM     33  C   UNL     1      -8.554  -7.232   4.658  1.00  0.00     0.014 A 
ATOM     34  C   UNL     1     -11.194  -7.675   3.835  1.00  0.00     0.010 A 
ATOM     35  C   UNL     1      -8.953  -8.508   4.276  1.00  0.00     0.010 A 
ATOM     36  C   UNL     1     -10.275  -8.736   3.862  1.00  0.00    -0.014 A 
BRANCH  36  37
ATOM     37  C   UNL     1     -10.689 -10.111   3.503  1.00  0.00     0.031 A 
ATOM     38  C   UNL     1     -10.804 -11.145   4.584  1.00  0.00     0.074 A 
ATOM     39  C   UNL     1     -10.912 -10.432   2.215  1.00  0.00     0.049 A 
ATOM     40  N   UNL     1     -11.073 -12.419   4.481  1.00  0.00    -0.248 NA
ATOM     41  C   UNL     1     -10.565 -10.687   5.964  1.00  0.00     0.031 C 
ATOM     42  C   UNL     1     -10.807  -9.511   1.080  1.00  0.00     0.029 A 
ATOM     43  N   UNL     1     -11.264 -11.627   1.642  1.00  0.00    -0.354 N 
ATOM     44  C   UNL     1     -11.034 -12.916   5.777  1.00  0.00     0.074 A 
ATOM     45  C   UNL     1     -10.668 -11.818   6.645  1.00  0.00     0.031 C 
ATOM     46  C   UNL     1     -11.102 -10.175  -0.051  1.00  0.00     0.029 A 
ATOM     47  C   UNL     1     -11.390 -11.568   0.275  1.00  0.00     0.049 A 
ATOM     48  H   UNL     1     -11.412 -12.450   2.162  1.00  0.00     0.167 HD
ATOM     49  C   UNL     1     -11.306 -14.170   6.207  1.00  0.00     0.037 A 
ATOM     50  C   UNL     1     -11.700 -12.535  -0.611  1.00  0.00     0.037 A 
ATOM     51  C   UNL     1     -11.689 -15.252   5.342  1.00  0.00     0.049 A 
ATOM     52  C   UNL     1     -11.972 -13.927  -0.109  1.00  0.00     0.074 A 
ATOM     53  C   UNL     1     -12.015 -16.552   5.682  1.00  0.00     0.029 A 
ATOM     54  N   UNL     1     -11.804 -15.155   3.963  1.00  0.00    -0.354 N 
ATOM     55  N   UNL     1     -11.958 -14.376   1.123  1.00  0.00    -0.248 NA
ATOM     56  C   UNL     1     -12.300 -14.945  -1.117  1.00  0.00     0.031 C 
ATOM     57  C   UNL     1     -12.306 -17.250   4.504  1.00  0.00     0.029 A 
ATOM     58  C   UNL     1     -12.187 -16.375   3.435  1.00  0.00     0.049 A 
ATOM     59  H   UNL     1     -11.637 -14.339   3.438  1.00  0.00     0.167 HD
ATOM     60  C   UNL     1     -12.291 -15.723   1.041  1.00  0.00     0.074 A 
ATOM     61  C   UNL     1     -12.512 -16.014  -0.361  1.00  0.00     0.031 C 
ATOM     62  C   UNL     1     -12.402 -16.638   2.035  1.00  0.00     0.037 A 
BRANCH  49  63
ATOM     63  C   UNL     1     -11.213 -14.426   7.683  1.00  0.00     0.058 A 
ATOM     64  C   UNL     1     -12.196 -13.949   8.565  1.00  0.00     0.135 A 
ATOM     65  C   UNL     1     -10.150 -15.167   8.219  1.00  0.00     0.135 A 
ATOM     66  F   UNL     1     -13.221 -13.215   8.102  1.00  0.00    -0.206 F 
ATOM     67  C   UNL     1     -12.117 -14.183   9.933  1.00  0.00     0.059 A 
ATOM     68  C   UNL     1     -10.062 -15.430   9.583  1.00  0.00     0.059 A 
ATOM     69  F   UNL     1      -9.181 -15.637   7.418  1.00  0.00    -0.206 F 
ATOM     70  C   UNL     1     -11.045 -14.924  10.433  1.00  0.00     0.060 A 
BRANCH  70  71
ATOM     71  S   UNL     1     -10.963 -15.224  12.210  1.00  0.00     0.124 S 
ATOM     72  O   UNL     1     -10.558 -13.913  12.708  1.00  0.00    -0.237 OA
ATOM     73  O   UNL     1     -12.330 -15.626  12.524  1.00  0.00    -0.237 OA
ATOM     74  O   UNL     1      -9.960 -16.278  12.330  1.00  0.00    -0.744 OA
ENDBRANCH  70  71
ENDBRANCH  49  63
BRANCH  50  75
ATOM     75  C   UNL     1     -11.791 -12.220  -2.059  1.00  0.00     0.058 A 
ATOM     76  C   UNL     1     -13.036 -12.152  -2.701  1.00  0.00     0.135 A 
ATOM     77  C   UNL     1     -10.642 -11.983  -2.830  1.00  0.00     0.135 A 
ATOM     78  F   UNL     1     -14.161 -12.379  -2.005  1.00  0.00    -0.206 F 
ATOM     79  C   UNL     1     -13.141 -11.875  -4.060  1.00  0.00     0.059 A 
ATOM     80  C   UNL     1     -10.723 -11.687  -4.187  1.00  0.00     0.059 A 
ATOM     81  F   UNL     1      -9.429 -12.023  -2.258  1.00  0.00    -0.206 F 
ATOM     82  C   UNL     1     -11.977 -11.644  -4.795  1.00  0.00     0.060 A 
BRANCH  82  83
ATOM     83  S   UNL     1     -12.127 -11.245  -6.550  1.00  0.00     0.124 S 
ATOM     84  O   UNL     1     -12.449 -12.547  -7.121  1.00  0.00    -0.237 OA
ATOM     85  O   UNL     1     -13.207 -10.262  -6.551  1.00  0.00    -0.237 OA
ATOM     86  O   UNL     1     -10.809 -10.715  -6.886  1.00  0.00    -0.744 OA
ENDBRANCH  82  83
ENDBRANCH  50  75
BRANCH  62  87
ATOM     87  C   UNL     1     -12.791 -18.034   1.645  1.00  0.00     0.058 A 
ATOM     88  C   UNL     1     -11.862 -18.915   1.074  1.00  0.00     0.135 A 
ATOM     89  C   UNL     1     -14.084 -18.514   1.908  1.00  0.00     0.135 A 
ATOM     90  F   UNL     1     -10.616 -18.499   0.797  1.00  0.00    -0.206 F 
ATOM     91  C   UNL     1     -12.205 -20.227   0.766  1.00  0.00     0.059 A 
ATOM     92  C   UNL     1     -14.442 -19.827   1.627  1.00  0.00     0.059 A 
ATOM     93  F   UNL     1     -15.004 -17.708   2.462  1.00  0.00    -0.206 F 
ATOM     94  C   UNL     1     -13.497 -20.675   1.048  1.00  0.00     0.060 A 
BRANCH  94  95
ATOM     95  S   UNL     1     -13.916 -22.394   0.689  1.00  0.00     0.124 S 
ATOM     96  O   UNL     1     -14.081 -22.359  -0.760  1.00  0.00    -0.237 OA
ATOM     97  O   UNL     1     -12.742 -23.111   1.177  1.00  0.00    -0.237 OA
ATOM     98  O   UNL     1     -15.139 -22.612   1.457  1.00  0.00    -0.744 OA
ENDBRANCH  94  95
ENDBRANCH  62  87
ENDBRANCH  36  37
ENDBRANCH  28  31
ENDBRANCH  26  27
ENDBRANCH   1  26
TORSDOF 16
