REMARK SMILES CCS(=O)(=O)Nc1ccc(N2CC[NH+](C)CC2)cc1C(=O)NCCCCNC(=O)c1ccc(-c2c3nc(c(-c4c(F)cc(S(=O)(=O)[O-])cc4F)c4ccc([nH]4)c(-c4c(F)cc(S(=O)(=O)[O-])cc4F)c4nc(c(-c5c(F)cc(S(=O)(=O)[O-])cc5F)c5ccc2[nH]5)C=C4)C=C3)cc1
REMARK SMILES IDX 24 1 23 2 22 3 20 4 21 5 19 7 7 8 8 9 9 10 18 11 10 12 6 13
REMARK SMILES IDX 3 15 4 16 5 17 2 18 1 19 11 20 12 21 17 22 13 23 16 24 14 25
REMARK SMILES IDX 15 26 25 28 26 29 27 30 28 31 29 33 30 34 31 35 95 36 32 37
REMARK SMILES IDX 94 38 33 39 34 40 35 41 88 42 36 43 93 44 87 45 89 46 37 47
REMARK SMILES IDX 92 48 86 49 85 50 38 52 72 53 51 54 71 55 52 56 55 57 70 58
REMARK SMILES IDX 90 59 53 60 54 61 69 63 91 64 56 65 39 66 40 67 49 68 41 69
REMARK SMILES IDX 42 70 48 71 50 72 43 73 44 74 45 75 46 76 47 77 73 78 74 79
REMARK SMILES IDX 83 80 75 81 76 82 82 83 84 84 77 85 78 86 79 87 80 88 81 89
REMARK SMILES IDX 57 90 58 91 67 92 59 93 60 94 66 95 68 96 61 97 62 98 63 99
REMARK SMILES IDX 64 100 65 101
REMARK H PARENT 22 6 6 14 14 27 27 32 89 51 55 62
REMARK Flexibility Score: inf
ROOT
ATOM      1  C   UNL     1       2.261   4.335   1.617  1.00  0.00     0.023 C 
ENDROOT
BRANCH   1   2
ATOM      2  C   UNL     1       2.494   2.826   1.593  1.00  0.00     0.116 C 
BRANCH   2   3
ATOM      3  N   UNL     1       2.201   2.196   0.318  1.00  0.00    -0.352 N 
ATOM      4  C   UNL     1       2.577   0.979  -0.196  1.00  0.00     0.253 C 
ATOM      5  O   UNL     1       2.249   0.722  -1.357  1.00  0.00    -0.269 OA
ATOM      6  H   UNL     1       1.636   2.734  -0.282  1.00  0.00     0.163 HD
BRANCH   4   7
ATOM      7  C   UNL     1       3.387  -0.036   0.545  1.00  0.00     0.066 A 
ATOM      8  C   UNL     1       3.290  -0.322   1.910  1.00  0.00     0.061 A 
ATOM      9  C   UNL     1       4.202  -1.208   2.489  1.00  0.00     0.030 A 
ATOM     10  C   UNL     1       5.077  -1.944   1.696  1.00  0.00     0.028 A 
ATOM     11  C   UNL     1       4.243  -0.852  -0.247  1.00  0.00     0.042 A 
ATOM     12  C   UNL     1       5.039  -1.872   0.302  1.00  0.00     0.038 A 
BRANCH   8  13
ATOM     13  N   UNL     1       2.281   0.164   2.792  1.00  0.00    -0.283 N 
ATOM     14  H   UNL     1       2.523   0.865   3.438  1.00  0.00     0.180 HD
BRANCH  13  15
ATOM     15  S   UNL     1       0.705  -0.401   2.782  1.00  0.00     0.232 S 
ATOM     16  O   UNL     1      -0.147   0.685   2.349  1.00  0.00    -0.207 OA
ATOM     17  O   UNL     1       0.551  -0.935   4.122  1.00  0.00    -0.207 OA
BRANCH  15  18
ATOM     18  C   UNL     1       0.511  -1.781   1.654  1.00  0.00     0.156 C 
ATOM     19  C   UNL     1       0.339  -1.418   0.195  1.00  0.00     0.023 C 
ENDBRANCH  15  18
ENDBRANCH  13  15
ENDBRANCH   8  13
BRANCH  12  20
ATOM     20  N   UNL     1       5.672  -2.829  -0.468  1.00  0.00    -0.360 N 
ATOM     21  C   UNL     1       6.376  -2.538  -1.727  1.00  0.00     0.178 C 
ATOM     22  C   UNL     1       5.920  -4.176   0.080  1.00  0.00     0.178 C 
ATOM     23  C   UNL     1       6.187  -3.692  -2.751  1.00  0.00     0.283 C 
ATOM     24  C   UNL     1       5.697  -5.259  -0.994  1.00  0.00     0.283 C 
ATOM     25  N   UNL     1       6.511  -5.032  -2.204  1.00  0.00    -0.334 N 
ATOM     26  C   UNL     1       6.241  -6.077  -3.191  1.00  0.00     0.332 C 
ATOM     27  H   UNL     1       7.504  -5.070  -1.972  1.00  0.00     0.347 HD
ENDBRANCH  12  20
ENDBRANCH   4   7
ENDBRANCH   2   3
ENDBRANCH   1   2
BRANCH   1  28
ATOM     28  C   UNL     1       0.821   4.799   1.363  1.00  0.00     0.023 C 
BRANCH  28  29
ATOM     29  C   UNL     1      -0.283   4.151   2.197  1.00  0.00     0.116 C 
BRANCH  29  30
ATOM     30  N   UNL     1      -0.113   4.303   3.636  1.00  0.00    -0.352 N 
ATOM     31  C   UNL     1      -0.940   4.892   4.565  1.00  0.00     0.251 C 
ATOM     32  H   UNL     1       0.721   3.926   3.999  1.00  0.00     0.163 HD
ATOM     33  O   UNL     1      -0.587   4.978   5.738  1.00  0.00    -0.269 OA
BRANCH  31  34
ATOM     34  C   UNL     1      -2.234   5.470   4.141  1.00  0.00     0.039 A 
ATOM     35  C   UNL     1      -2.517   6.798   4.472  1.00  0.00     0.014 A 
ATOM     36  C   UNL     1      -3.146   4.725   3.389  1.00  0.00     0.014 A 
ATOM     37  C   UNL     1      -3.663   7.410   3.958  1.00  0.00     0.010 A 
ATOM     38  C   UNL     1      -4.253   5.357   2.822  1.00  0.00     0.010 A 
ATOM     39  C   UNL     1      -4.511   6.713   3.080  1.00  0.00    -0.014 A 
BRANCH  39  40
ATOM     40  C   UNL     1      -5.623   7.410   2.377  1.00  0.00     0.031 A 
ATOM     41  C   UNL     1      -7.053   7.004   2.603  1.00  0.00     0.074 A 
ATOM     42  C   UNL     1      -5.335   8.368   1.472  1.00  0.00     0.049 A 
ATOM     43  N   UNL     1      -8.141   7.471   2.044  1.00  0.00    -0.248 NA
ATOM     44  C   UNL     1      -7.291   5.917   3.564  1.00  0.00     0.031 C 
ATOM     45  C   UNL     1      -3.985   8.812   1.114  1.00  0.00     0.029 A 
ATOM     46  N   UNL     1      -6.154   9.131   0.675  1.00  0.00    -0.354 N 
ATOM     47  C   UNL     1      -9.190   6.728   2.573  1.00  0.00     0.074 A 
ATOM     48  C   UNL     1      -8.602   5.749   3.463  1.00  0.00     0.031 C 
ATOM     49  C   UNL     1      -4.069   9.777   0.185  1.00  0.00     0.029 A 
ATOM     50  C   UNL     1      -5.473   9.994  -0.153  1.00  0.00     0.049 A 
ATOM     51  H   UNL     1      -7.136   9.067   0.694  1.00  0.00     0.167 HD
ATOM     52  C   UNL     1     -10.521   6.860   2.349  1.00  0.00     0.037 A 
ATOM     53  C   UNL     1      -5.920  10.854  -1.090  1.00  0.00     0.037 A 
ATOM     54  C   UNL     1     -11.099   7.845   1.470  1.00  0.00     0.049 A 
ATOM     55  C   UNL     1      -7.401  10.983  -1.323  1.00  0.00     0.074 A 
ATOM     56  C   UNL     1     -12.438   8.109   1.239  1.00  0.00     0.029 A 
ATOM     57  N   UNL     1     -10.378   8.712   0.661  1.00  0.00    -0.354 N 
ATOM     58  N   UNL     1      -8.384  10.338  -0.742  1.00  0.00    -0.248 NA
ATOM     59  C   UNL     1      -7.834  11.958  -2.333  1.00  0.00     0.031 C 
ATOM     60  C   UNL     1     -12.527   9.092   0.248  1.00  0.00     0.029 A 
ATOM     61  C   UNL     1     -11.244   9.486  -0.096  1.00  0.00     0.049 A 
ATOM     62  H   UNL     1      -9.396   8.770   0.631  1.00  0.00     0.167 HD
ATOM     63  C   UNL     1      -9.553  10.841  -1.303  1.00  0.00     0.074 A 
ATOM     64  C   UNL     1      -9.155  11.857  -2.256  1.00  0.00     0.031 C 
ATOM     65  C   UNL     1     -10.839  10.491  -1.050  1.00  0.00     0.037 A 
BRANCH  52  66
ATOM     66  C   UNL     1     -11.446   5.907   3.059  1.00  0.00     0.058 A 
ATOM     67  C   UNL     1     -11.639   5.955   4.449  1.00  0.00     0.135 A 
ATOM     68  C   UNL     1     -12.176   4.950   2.333  1.00  0.00     0.135 A 
ATOM     69  F   UNL     1     -10.961   6.843   5.196  1.00  0.00    -0.206 F 
ATOM     70  C   UNL     1     -12.489   5.066   5.099  1.00  0.00     0.059 A 
ATOM     71  C   UNL     1     -13.057   4.072   2.959  1.00  0.00     0.059 A 
ATOM     72  F   UNL     1     -12.037   4.861   1.001  1.00  0.00    -0.206 F 
ATOM     73  C   UNL     1     -13.193   4.126   4.345  1.00  0.00     0.060 A 
BRANCH  73  74
ATOM     74  S   UNL     1     -14.286   2.975   5.204  1.00  0.00     0.124 S 
ATOM     75  O   UNL     1     -13.324   2.100   5.868  1.00  0.00    -0.237 OA
ATOM     76  O   UNL     1     -15.045   3.861   6.081  1.00  0.00    -0.237 OA
ATOM     77  O   UNL     1     -15.052   2.360   4.124  1.00  0.00    -0.744 OA
ENDBRANCH  73  74
ENDBRANCH  52  66
BRANCH  53  78
ATOM     78  C   UNL     1      -4.946  11.664  -1.871  1.00  0.00     0.058 A 
ATOM     79  C   UNL     1      -4.826  13.047  -1.672  1.00  0.00     0.135 A 
ATOM     80  C   UNL     1      -4.088  11.063  -2.806  1.00  0.00     0.135 A 
ATOM     81  F   UNL     1      -5.630  13.671  -0.798  1.00  0.00    -0.206 F 
ATOM     82  C   UNL     1      -3.895  13.807  -2.374  1.00  0.00     0.059 A 
ATOM     83  C   UNL     1      -3.131  11.796  -3.500  1.00  0.00     0.059 A 
ATOM     84  F   UNL     1      -4.152   9.740  -3.025  1.00  0.00    -0.206 F 
ATOM     85  C   UNL     1      -3.045  13.170  -3.280  1.00  0.00     0.060 A 
BRANCH  85  86
ATOM     86  S   UNL     1      -1.790  14.154  -4.129  1.00  0.00     0.124 S 
ATOM     87  O   UNL     1      -2.603  14.929  -5.059  1.00  0.00    -0.237 OA
ATOM     88  O   UNL     1      -1.192  14.902  -3.027  1.00  0.00    -0.237 OA
ATOM     89  O   UNL     1      -0.925  13.146  -4.734  1.00  0.00    -0.744 OA
ENDBRANCH  85  86
ENDBRANCH  53  78
BRANCH  65  90
ATOM     90  C   UNL     1     -11.921  11.221  -1.801  1.00  0.00     0.058 A 
ATOM     91  C   UNL     1     -12.144  11.005  -3.170  1.00  0.00     0.135 A 
ATOM     92  C   UNL     1     -12.784  12.104  -1.130  1.00  0.00     0.135 A 
ATOM     93  F   UNL     1     -11.345  10.179  -3.864  1.00  0.00    -0.206 F 
ATOM     94  C   UNL     1     -13.172  11.651  -3.851  1.00  0.00     0.059 A 
ATOM     95  C   UNL     1     -13.836  12.738  -1.784  1.00  0.00     0.059 A 
ATOM     96  F   UNL     1     -12.621  12.342   0.181  1.00  0.00    -0.206 F 
ATOM     97  C   UNL     1     -14.016  12.512  -3.148  1.00  0.00     0.060 A 
BRANCH  97  98
ATOM     98  S   UNL     1     -15.371  13.312  -4.035  1.00  0.00     0.124 S 
ATOM     99  O   UNL     1     -14.655  14.288  -4.849  1.00  0.00    -0.237 OA
ATOM    100  O   UNL     1     -15.968  12.196  -4.762  1.00  0.00    -0.237 OA
ATOM    101  O   UNL     1     -16.195  13.870  -2.967  1.00  0.00    -0.744 OA
ENDBRANCH  97  98
ENDBRANCH  65  90
ENDBRANCH  39  40
ENDBRANCH  31  34
ENDBRANCH  29  30
ENDBRANCH  28  29
ENDBRANCH   1  28
TORSDOF 18
