REMARK SMILES COc1ccc(CCNC(=O)[C@@]2(C)CC[C@@H](C(=O)NCCCCNC(=O)c3ccc(-c4c5nc(c(-c6c(F)cc(S(=O)(=O)[O-])cc6F)c6ccc([nH]6)c(-c6c(F)cc(S(=O)(=O)[O-])cc6F)c6nc(c(-c7c(F)cc(S(=O)(=O)[O-])cc7F)c7ccc4[nH]7)C=C6)C=C5)cc3)C2(C)C)cc1OC
REMARK SMILES IDX 20 1 19 2 17 3 18 4 16 6 12 7 13 8 14 9 93 10 15 11 94 12
REMARK SMILES IDX 95 13 10 14 9 15 11 17 8 18 7 19 6 20 3 21 4 22 97 23 5 24
REMARK SMILES IDX 96 25 2 26 1 27 98 28 99 29 21 30 22 31 23 32 24 33 25 34
REMARK SMILES IDX 26 36 27 37 28 38 92 39 29 40 91 41 30 42 31 43 32 44 85 45
REMARK SMILES IDX 33 46 90 47 84 48 86 49 34 50 89 51 83 52 82 53 35 55 69 56
REMARK SMILES IDX 48 57 68 58 49 59 52 60 67 61 87 62 50 63 51 64 66 66 88 67
REMARK SMILES IDX 53 68 36 69 37 70 46 71 38 72 39 73 45 74 47 75 40 76 41 77
REMARK SMILES IDX 42 78 43 79 44 80 70 81 71 82 80 83 72 84 73 85 79 86 81 87
REMARK SMILES IDX 74 88 75 89 76 90 77 91 78 92 54 93 55 94 64 95 56 96 57 97
REMARK SMILES IDX 63 98 65 99 58 100 59 101 60 102 61 103 62 104
REMARK H PARENT 19 5 9 16 24 35 86 54 52 65
REMARK Flexibility Score: inf
ROOT
ATOM      1  C   UNL     1      -1.715 -10.071   5.861  1.00  0.00     0.116 C 
ENDROOT
BRANCH   1   2
ATOM      2  N   UNL     1      -1.774 -11.484   5.559  1.00  0.00    -0.356 N 
ATOM      3  C   UNL     1      -1.095 -12.234   4.658  1.00  0.00     0.223 C 
ATOM      4  O   UNL     1      -1.368 -13.440   4.626  1.00  0.00    -0.275 OA
ATOM      5  H   UNL     1      -2.420 -11.989   6.104  1.00  0.00     0.163 HD
BRANCH   3   6
ATOM      6  C   UNL     1      -0.004 -11.692   3.723  1.00  0.00     0.085 C 
ATOM      7  C   UNL     1       0.565  -9.376   2.854  1.00  0.00     0.052 C 
ATOM      8  C   UNL     1       1.627  -9.231   1.745  1.00  0.00     0.022 C 
ATOM      9  C   UNL     1       1.314  -9.673   4.184  1.00  0.00     0.018 C 
ATOM     10  C   UNL     1      -0.354 -10.692   2.577  1.00  0.00    -0.010 C 
ATOM     11  C   UNL     1       1.232 -11.164   4.441  1.00  0.00     0.015 C 
ATOM     12  C   UNL     1      -1.870 -10.477   2.414  1.00  0.00     0.013 C 
ATOM     13  C   UNL     1      -0.015 -11.395   1.222  1.00  0.00     0.013 C 
BRANCH   7  14
ATOM     14  C   UNL     1      -0.221  -8.039   3.094  1.00  0.00     0.226 C 
ATOM     15  N   UNL     1       0.378  -6.834   3.287  1.00  0.00    -0.355 N 
ATOM     16  H   UNL     1      -0.226  -6.154   3.664  1.00  0.00     0.163 HD
ATOM     17  O   UNL     1      -1.444  -7.995   3.246  1.00  0.00    -0.274 OA
BRANCH  15  18
ATOM     18  C   UNL     1       1.722  -6.344   3.052  1.00  0.00     0.120 C 
BRANCH  18  19
ATOM     19  C   UNL     1       1.917  -5.950   1.579  1.00  0.00     0.057 C 
BRANCH  19  20
ATOM     20  C   UNL     1       1.581  -4.501   1.322  1.00  0.00    -0.042 A 
ATOM     21  C   UNL     1       1.053  -1.759   1.031  1.00  0.00     0.160 A 
ATOM     22  C   UNL     1       0.004  -2.666   1.235  1.00  0.00     0.051 A 
ATOM     23  C   UNL     1       2.372  -2.220   0.945  1.00  0.00     0.160 A 
ATOM     24  C   UNL     1       0.265  -4.033   1.363  1.00  0.00     0.008 A 
ATOM     25  C   UNL     1       2.619  -3.589   1.092  1.00  0.00     0.054 A 
BRANCH  21  26
ATOM     26  O   UNL     1       0.782  -0.417   1.056  1.00  0.00    -0.493 OA
ATOM     27  C   UNL     1       0.001   0.006  -0.059  1.00  0.00     0.278 C 
ENDBRANCH  21  26
BRANCH  23  28
ATOM     28  O   UNL     1       3.518  -1.494   0.765  1.00  0.00    -0.493 OA
ATOM     29  C   UNL     1       3.393  -0.181   0.245  1.00  0.00     0.278 C 
ENDBRANCH  23  28
ENDBRANCH  19  20
ENDBRANCH  18  19
ENDBRANCH  15  18
ENDBRANCH   7  14
ENDBRANCH   3   6
ENDBRANCH   1   2
BRANCH   1  30
ATOM     30  C   UNL     1      -3.061  -9.359   5.724  1.00  0.00     0.023 C 
BRANCH  30  31
ATOM     31  C   UNL     1      -4.127  -9.815   6.703  1.00  0.00     0.023 C 
BRANCH  31  32
ATOM     32  C   UNL     1      -3.716  -9.666   8.153  1.00  0.00     0.116 C 
BRANCH  32  33
ATOM     33  N   UNL     1      -3.347  -8.295   8.486  1.00  0.00    -0.352 N 
ATOM     34  C   UNL     1      -3.900  -7.461   9.426  1.00  0.00     0.251 C 
ATOM     35  H   UNL     1      -2.601  -7.916   7.967  1.00  0.00     0.163 HD
ATOM     36  O   UNL     1      -3.615  -6.268   9.449  1.00  0.00    -0.269 OA
BRANCH  34  37
ATOM     37  C   UNL     1      -4.856  -8.030  10.393  1.00  0.00     0.039 A 
ATOM     38  C   UNL     1      -6.058  -7.368  10.646  1.00  0.00     0.014 A 
ATOM     39  C   UNL     1      -4.579  -9.261  10.991  1.00  0.00     0.014 A 
ATOM     40  C   UNL     1      -7.009  -7.978  11.463  1.00  0.00     0.010 A 
ATOM     41  C   UNL     1      -5.574  -9.919  11.693  1.00  0.00     0.010 A 
ATOM     42  C   UNL     1      -6.786  -9.271  11.966  1.00  0.00    -0.014 A 
BRANCH  42  43
ATOM     43  C   UNL     1      -7.776  -9.950  12.835  1.00  0.00     0.031 A 
ATOM     44  C   UNL     1      -7.378 -10.342  14.235  1.00  0.00     0.074 A 
ATOM     45  C   UNL     1      -8.993 -10.266  12.352  1.00  0.00     0.049 A 
ATOM     46  N   UNL     1      -8.059 -11.005  15.132  1.00  0.00    -0.248 NA
ATOM     47  C   UNL     1      -6.017  -9.977  14.668  1.00  0.00     0.031 C 
ATOM     48  C   UNL     1      -9.464  -9.995  10.991  1.00  0.00     0.029 A 
ATOM     49  N   UNL     1     -10.056 -10.891  12.951  1.00  0.00    -0.354 N 
ATOM     50  C   UNL     1      -7.203 -11.154  16.218  1.00  0.00     0.074 A 
ATOM     51  C   UNL     1      -5.931 -10.584  15.840  1.00  0.00     0.031 C 
ATOM     52  C   UNL     1     -10.733 -10.419  10.872  1.00  0.00     0.029 A 
ATOM     53  C   UNL     1     -11.152 -11.024  12.132  1.00  0.00     0.049 A 
ATOM     54  H   UNL     1     -10.037 -11.215  13.880  1.00  0.00     0.167 HD
ATOM     55  C   UNL     1      -7.465 -11.684  17.435  1.00  0.00     0.037 A 
ATOM     56  C   UNL     1     -12.359 -11.571  12.375  1.00  0.00     0.037 A 
ATOM     57  C   UNL     1      -8.749 -12.207  17.813  1.00  0.00     0.049 A 
ATOM     58  C   UNL     1     -12.638 -12.128  13.746  1.00  0.00     0.074 A 
ATOM     59  C   UNL     1      -9.146 -12.712  19.037  1.00  0.00     0.029 A 
ATOM     60  N   UNL     1      -9.848 -12.286  16.969  1.00  0.00    -0.354 N 
ATOM     61  N   UNL     1     -11.838 -12.203  14.784  1.00  0.00    -0.248 NA
ATOM     62  C   UNL     1     -13.985 -12.663  13.983  1.00  0.00     0.031 C 
ATOM     63  C   UNL     1     -10.475 -13.135  18.922  1.00  0.00     0.029 A 
ATOM     64  C   UNL     1     -10.921 -12.843  17.643  1.00  0.00     0.049 A 
ATOM     65  H   UNL     1      -9.862 -11.989  16.031  1.00  0.00     0.167 HD
ATOM     66  C   UNL     1     -12.596 -12.760  15.809  1.00  0.00     0.074 A 
ATOM     67  C   UNL     1     -13.919 -12.993  15.266  1.00  0.00     0.031 C 
ATOM     68  C   UNL     1     -12.234 -13.051  17.083  1.00  0.00     0.037 A 
BRANCH  55  69
ATOM     69  C   UNL     1      -6.346 -11.705  18.441  1.00  0.00     0.058 A 
ATOM     70  C   UNL     1      -5.837 -10.523  19.005  1.00  0.00     0.135 A 
ATOM     71  C   UNL     1      -5.785 -12.922  18.859  1.00  0.00     0.135 A 
ATOM     72  F   UNL     1      -6.321  -9.329  18.627  1.00  0.00    -0.206 F 
ATOM     73  C   UNL     1      -4.790 -10.544  19.921  1.00  0.00     0.059 A 
ATOM     74  C   UNL     1      -4.759 -12.969  19.800  1.00  0.00     0.059 A 
ATOM     75  F   UNL     1      -6.228 -14.082  18.351  1.00  0.00    -0.206 F 
ATOM     76  C   UNL     1      -4.258 -11.773  20.313  1.00  0.00     0.060 A 
BRANCH  76  77
ATOM     77  S   UNL     1      -2.907 -11.783  21.509  1.00  0.00     0.124 S 
ATOM     78  O   UNL     1      -1.797 -11.291  20.699  1.00  0.00    -0.237 OA
ATOM     79  O   UNL     1      -3.394 -10.869  22.537  1.00  0.00    -0.237 OA
ATOM     80  O   UNL     1      -2.818 -13.183  21.911  1.00  0.00    -0.744 OA
ENDBRANCH  76  77
ENDBRANCH  55  69
BRANCH  56  81
ATOM     81  C   UNL     1     -13.403 -11.577  11.316  1.00  0.00     0.058 A 
ATOM     82  C   UNL     1     -14.544 -10.766  11.421  1.00  0.00     0.135 A 
ATOM     83  C   UNL     1     -13.280 -12.382  10.172  1.00  0.00     0.135 A 
ATOM     84  F   UNL     1     -14.710  -9.980  12.496  1.00  0.00    -0.206 F 
ATOM     85  C   UNL     1     -15.535 -10.769  10.445  1.00  0.00     0.059 A 
ATOM     86  C   UNL     1     -14.244 -12.382   9.169  1.00  0.00     0.059 A 
ATOM     87  F   UNL     1     -12.198 -13.161  10.012  1.00  0.00    -0.206 F 
ATOM     88  C   UNL     1     -15.375 -11.581   9.320  1.00  0.00     0.060 A 
BRANCH  88  89
ATOM     89  S   UNL     1     -16.649 -11.546   8.041  1.00  0.00     0.124 S 
ATOM     90  O   UNL     1     -17.740 -12.261   8.693  1.00  0.00    -0.237 OA
ATOM     91  O   UNL     1     -16.850 -10.114   7.847  1.00  0.00    -0.237 OA
ATOM     92  O   UNL     1     -16.020 -12.241   6.922  1.00  0.00    -0.744 OA
ENDBRANCH  88  89
ENDBRANCH  56  81
BRANCH  68  93
ATOM     93  C   UNL     1     -13.296 -13.602  17.994  1.00  0.00     0.058 A 
ATOM     94  C   UNL     1     -13.791 -14.907  17.851  1.00  0.00     0.135 A 
ATOM     95  C   UNL     1     -13.789 -12.824  19.054  1.00  0.00     0.135 A 
ATOM     96  F   UNL     1     -13.354 -15.691  16.853  1.00  0.00    -0.206 F 
ATOM     97  C   UNL     1     -14.764 -15.411  18.708  1.00  0.00     0.059 A 
ATOM     98  C   UNL     1     -14.738 -13.318  19.942  1.00  0.00     0.059 A 
ATOM     99  F   UNL     1     -13.337 -11.574  19.243  1.00  0.00    -0.206 F 
ATOM    100  C   UNL     1     -15.231 -14.607  19.751  1.00  0.00     0.060 A 
BRANCH 100 101
ATOM    101  S   UNL     1     -16.479 -15.279  20.868  1.00  0.00     0.124 S 
ATOM    102  O   UNL     1     -17.673 -15.242  20.029  1.00  0.00    -0.237 OA
ATOM    103  O   UNL     1     -15.952 -16.608  21.163  1.00  0.00    -0.237 OA
ATOM    104  O   UNL     1     -16.470 -14.344  21.989  1.00  0.00    -0.744 OA
ENDBRANCH 100 101
ENDBRANCH  68  93
ENDBRANCH  42  43
ENDBRANCH  34  37
ENDBRANCH  32  33
ENDBRANCH  31  32
ENDBRANCH  30  31
ENDBRANCH   1  30
TORSDOF 20
