REMARK SMILES COc1ccccc1[C@@H]1C[N@@H+](Cc2cn3cc(C)ccc3n2)C[C@H]1C(=O)NCCCCNC(=O)c1ccc(-c2c3nc(c(-c4c(F)cc(S(=O)(=O)[O-])cc4F)c4ccc([nH]4)c(-c4c(F)cc(S(=O)(=O)[O-])cc4F)c4nc(c(-c5c(F)cc(S(=O)(=O)[O-])cc5F)c5ccc2[nH]5)C=C4)C=C3)cc1
REMARK SMILES IDX 30 1 29 2 28 3 27 4 25 5 26 6 24 8 9 9 10 10 11 11 23 12
REMARK SMILES IDX 8 14 3 15 4 16 5 17 7 18 6 19 2 20 1 21 12 22 13 23 14 24
REMARK SMILES IDX 22 25 15 26 21 27 16 28 20 29 17 30 19 31 18 32 31 33 32 34
REMARK SMILES IDX 33 35 34 37 35 38 36 39 100 40 37 41 99 42 38 43 39 44 40 45
REMARK SMILES IDX 93 46 41 47 98 48 92 49 94 50 42 51 97 52 91 53 90 54 43 56
REMARK SMILES IDX 77 57 56 58 76 59 57 60 60 61 75 62 95 63 58 64 59 65 74 67
REMARK SMILES IDX 96 68 61 69 44 70 45 71 54 72 46 73 47 74 53 75 55 76 48 77
REMARK SMILES IDX 49 78 50 79 51 80 52 81 78 82 79 83 88 84 80 85 81 86 87 87
REMARK SMILES IDX 89 88 82 89 83 90 84 91 85 92 86 93 62 94 63 95 72 96 64 97
REMARK SMILES IDX 65 98 71 99 73 100 66 101 67 102 68 103 69 104 70 105
REMARK H PARENT 27 7 11 13 32 36 94 55 60 66
REMARK Flexibility Score: inf
ROOT
ATOM      1  C   UNL     1       7.173   1.360  -3.915  1.00  0.00     0.023 C 
ENDROOT
BRANCH   1   2
ATOM      2  C   UNL     1       7.020   1.335  -2.389  1.00  0.00     0.023 C 
BRANCH   2   3
ATOM      3  C   UNL     1       5.732   1.964  -1.807  1.00  0.00     0.116 C 
BRANCH   3   4
ATOM      4  N   UNL     1       4.466   1.590  -2.429  1.00  0.00    -0.356 N 
ATOM      5  C   UNL     1       3.332   0.912  -2.118  1.00  0.00     0.229 C 
ATOM      6  O   UNL     1       2.497   0.915  -3.042  1.00  0.00    -0.275 OA
ATOM      7  H   UNL     1       4.421   1.933  -3.351  1.00  0.00     0.163 HD
BRANCH   5   8
ATOM      8  C   UNL     1       2.928   0.203  -0.808  1.00  0.00     0.146 C 
ATOM      9  C   UNL     1       2.535  -1.293  -1.017  1.00  0.00     0.096 C 
ATOM     10  C   UNL     1       2.984  -2.002   0.267  1.00  0.00     0.272 C 
ATOM     11  N   UNL     1       4.170  -1.264   0.718  1.00  0.00    -0.329 N 
ATOM     12  C   UNL     1       3.877   0.142   0.391  1.00  0.00     0.276 C 
ATOM     13  H   UNL     1       4.312  -1.399   1.718  1.00  0.00     0.348 HD
BRANCH   9  14
ATOM     14  C   UNL     1       1.236  -1.769  -1.636  1.00  0.00     0.004 A 
ATOM     15  C   UNL     1       0.006  -1.903  -0.990  1.00  0.00     0.122 A 
ATOM     16  C   UNL     1      -1.058  -2.571  -1.618  1.00  0.00     0.047 A 
ATOM     17  C   UNL     1      -0.919  -3.100  -2.903  1.00  0.00     0.004 A 
ATOM     18  C   UNL     1       1.332  -2.282  -2.956  1.00  0.00     0.008 A 
ATOM     19  C   UNL     1       0.282  -2.950  -3.578  1.00  0.00     0.001 A 
BRANCH  15  20
ATOM     20  O   UNL     1      -0.198  -1.532   0.309  1.00  0.00    -0.496 OA
ATOM     21  C   UNL     1      -0.340  -0.119   0.441  1.00  0.00     0.278 C 
ENDBRANCH  15  20
ENDBRANCH   9  14
BRANCH  11  22
ATOM     22  C   UNL     1       5.490  -1.768   0.256  1.00  0.00     0.321 C 
BRANCH  22  23
ATOM     23  C   UNL     1       5.712  -1.985  -1.223  1.00  0.00     0.114 A 
ATOM     24  C   UNL     1       6.497  -2.904  -1.905  1.00  0.00     0.122 A 
ATOM     25  N   UNL     1       5.143  -1.147  -2.139  1.00  0.00    -0.228 NA
ATOM     26  N   UNL     1       6.339  -2.626  -3.252  1.00  0.00    -0.306 N 
ATOM     27  C   UNL     1       5.376  -1.641  -3.327  1.00  0.00     0.137 A 
ATOM     28  C   UNL     1       6.996  -3.109  -4.384  1.00  0.00     0.096 A 
ATOM     29  C   UNL     1       4.893  -1.258  -4.606  1.00  0.00     0.048 A 
ATOM     30  C   UNL     1       6.641  -2.645  -5.604  1.00  0.00    -0.034 A 
ATOM     31  C   UNL     1       5.498  -1.736  -5.705  1.00  0.00     0.009 A 
ATOM     32  C   UNL     1       7.370  -2.943  -6.874  1.00  0.00     0.046 C 
ENDBRANCH  22  23
ENDBRANCH  11  22
ENDBRANCH   5   8
ENDBRANCH   3   4
ENDBRANCH   2   3
ENDBRANCH   1   2
BRANCH   1  33
ATOM     33  C   UNL     1       8.579   1.662  -4.444  1.00  0.00     0.116 C 
BRANCH  33  34
ATOM     34  N   UNL     1       9.609   0.686  -4.087  1.00  0.00    -0.352 N 
ATOM     35  C   UNL     1      10.895   0.949  -3.621  1.00  0.00     0.251 C 
ATOM     36  H   UNL     1       9.366  -0.263  -4.188  1.00  0.00     0.163 HD
ATOM     37  O   UNL     1      11.769   0.118  -3.614  1.00  0.00    -0.269 OA
BRANCH  35  38
ATOM     38  C   UNL     1      11.119   2.317  -3.107  1.00  0.00     0.039 A 
ATOM     39  C   UNL     1      11.746   3.268  -3.906  1.00  0.00     0.014 A 
ATOM     40  C   UNL     1      10.368   2.682  -1.995  1.00  0.00     0.014 A 
ATOM     41  C   UNL     1      11.477   4.617  -3.668  1.00  0.00     0.010 A 
ATOM     42  C   UNL     1      10.016   4.013  -1.840  1.00  0.00     0.010 A 
ATOM     43  C   UNL     1      10.539   4.997  -2.688  1.00  0.00    -0.014 A 
BRANCH  43  44
ATOM     44  C   UNL     1      10.022   6.380  -2.692  1.00  0.00     0.031 A 
ATOM     45  C   UNL     1       9.771   7.019  -4.030  1.00  0.00     0.074 A 
ATOM     46  C   UNL     1       9.562   7.076  -1.629  1.00  0.00     0.049 A 
ATOM     47  N   UNL     1      10.403   8.014  -4.569  1.00  0.00    -0.248 NA
ATOM     48  C   UNL     1       8.710   6.467  -4.885  1.00  0.00     0.031 C 
ATOM     49  C   UNL     1       9.360   6.643  -0.243  1.00  0.00     0.029 A 
ATOM     50  N   UNL     1       9.088   8.359  -1.617  1.00  0.00    -0.354 N 
ATOM     51  C   UNL     1       9.726   8.333  -5.748  1.00  0.00     0.074 A 
ATOM     52  C   UNL     1       8.757   7.283  -5.942  1.00  0.00     0.031 C 
ATOM     53  C   UNL     1       8.607   7.554   0.410  1.00  0.00     0.029 A 
ATOM     54  C   UNL     1       8.450   8.716  -0.444  1.00  0.00     0.049 A 
ATOM     55  H   UNL     1       9.193   8.975  -2.378  1.00  0.00     0.167 HD
ATOM     56  C   UNL     1       9.913   9.518  -6.401  1.00  0.00     0.037 A 
ATOM     57  C   UNL     1       7.846   9.891  -0.159  1.00  0.00     0.037 A 
ATOM     58  C   UNL     1      11.060  10.229  -5.899  1.00  0.00     0.049 A 
ATOM     59  C   UNL     1       8.455  10.930  -1.023  1.00  0.00     0.074 A 
ATOM     60  C   UNL     1      12.415   9.977  -5.808  1.00  0.00     0.029 A 
ATOM     61  N   UNL     1      10.835  11.317  -5.093  1.00  0.00    -0.354 N 
ATOM     62  N   UNL     1       9.700  11.314  -0.937  1.00  0.00    -0.248 NA
ATOM     63  C   UNL     1       7.763  11.338  -2.235  1.00  0.00     0.031 C 
ATOM     64  C   UNL     1      12.830  10.607  -4.597  1.00  0.00     0.029 A 
ATOM     65  C   UNL     1      11.705  11.216  -4.038  1.00  0.00     0.049 A 
ATOM     66  H   UNL     1      10.175  12.032  -5.244  1.00  0.00     0.167 HD
ATOM     67  C   UNL     1      10.062  11.648  -2.231  1.00  0.00     0.074 A 
ATOM     68  C   UNL     1       8.800  11.784  -2.948  1.00  0.00     0.031 C 
ATOM     69  C   UNL     1      11.350  11.515  -2.667  1.00  0.00     0.037 A 
BRANCH  56  70
ATOM     70  C   UNL     1       8.912  10.211  -7.304  1.00  0.00     0.058 A 
ATOM     71  C   UNL     1       9.331  11.300  -8.103  1.00  0.00     0.135 A 
ATOM     72  C   UNL     1       7.517  10.040  -7.196  1.00  0.00     0.135 A 
ATOM     73  F   UNL     1      10.637  11.558  -8.278  1.00  0.00    -0.206 F 
ATOM     74  C   UNL     1       8.433  12.201  -8.678  1.00  0.00     0.059 A 
ATOM     75  C   UNL     1       6.601  10.898  -7.805  1.00  0.00     0.059 A 
ATOM     76  F   UNL     1       6.982   9.092  -6.416  1.00  0.00    -0.206 F 
ATOM     77  C   UNL     1       7.068  12.005  -8.499  1.00  0.00     0.060 A 
BRANCH  77  78
ATOM     78  S   UNL     1       5.908  13.244  -9.113  1.00  0.00     0.124 S 
ATOM     79  O   UNL     1       6.074  14.304  -8.125  1.00  0.00    -0.237 OA
ATOM     80  O   UNL     1       6.431  13.525 -10.446  1.00  0.00    -0.237 OA
ATOM     81  O   UNL     1       4.628  12.543  -9.083  1.00  0.00    -0.744 OA
ENDBRANCH  77  78
ENDBRANCH  56  70
BRANCH  57  82
ATOM     82  C   UNL     1       6.643  10.104   0.674  1.00  0.00     0.058 A 
ATOM     83  C   UNL     1       6.315  11.369   1.183  1.00  0.00     0.135 A 
ATOM     84  C   UNL     1       5.650   9.107   0.775  1.00  0.00     0.135 A 
ATOM     85  F   UNL     1       7.195  12.378   1.104  1.00  0.00    -0.206 F 
ATOM     86  C   UNL     1       5.057  11.643   1.726  1.00  0.00     0.059 A 
ATOM     87  C   UNL     1       4.394   9.354   1.322  1.00  0.00     0.059 A 
ATOM     88  F   UNL     1       5.844   7.882   0.260  1.00  0.00    -0.206 F 
ATOM     89  C   UNL     1       4.096  10.633   1.773  1.00  0.00     0.060 A 
BRANCH  89  90
ATOM     90  S   UNL     1       2.416  11.033   2.304  1.00  0.00     0.124 S 
ATOM     91  O   UNL     1       2.597  11.255   3.734  1.00  0.00    -0.237 OA
ATOM     92  O   UNL     1       2.115  12.217   1.507  1.00  0.00    -0.237 OA
ATOM     93  O   UNL     1       1.655   9.837   1.949  1.00  0.00    -0.744 OA
ENDBRANCH  89  90
ENDBRANCH  57  82
BRANCH  69  94
ATOM     94  C   UNL     1      12.444  11.374  -1.641  1.00  0.00     0.058 A 
ATOM     95  C   UNL     1      12.567  10.282  -0.765  1.00  0.00     0.135 A 
ATOM     96  C   UNL     1      13.496  12.304  -1.654  1.00  0.00     0.135 A 
ATOM     97  F   UNL     1      11.663   9.293  -0.765  1.00  0.00    -0.206 F 
ATOM     98  C   UNL     1      13.665  10.140   0.085  1.00  0.00     0.059 A 
ATOM     99  C   UNL     1      14.615  12.167  -0.836  1.00  0.00     0.059 A 
ATOM    100  F   UNL     1      13.470  13.336  -2.514  1.00  0.00    -0.206 F 
ATOM    101  C   UNL     1      14.687  11.087   0.041  1.00  0.00     0.060 A 
BRANCH 101 102
ATOM    102  S   UNL     1      16.152  10.846   1.070  1.00  0.00     0.124 S 
ATOM    103  O   UNL     1      15.666  11.233   2.390  1.00  0.00    -0.237 OA
ATOM    104  O   UNL     1      16.439   9.425   0.893  1.00  0.00    -0.237 OA
ATOM    105  O   UNL     1      17.136  11.748   0.477  1.00  0.00    -0.744 OA
ENDBRANCH 101 102
ENDBRANCH  69  94
ENDBRANCH  43  44
ENDBRANCH  35  38
ENDBRANCH  33  34
ENDBRANCH   1  33
TORSDOF 18
