REMARK SMILES O=C(NCCCCNC(=O)c1ccc(F)cc1NC(=O)[C@H]1CCS(=O)(=O)C1)c1ccc(-c2c3nc(c(-c4c(F)cc(S(=O)(=O)[O-])cc4F)c4ccc([nH]4)c(-c4c(F)cc(S(=O)(=O)[O-])cc4F)c4nc(c(-c5c(F)cc(S(=O)(=O)[O-])cc5F)c5ccc2[nH]5)C=C4)C=C3)cc1
REMARK SMILES IDX 5 1 4 2 3 3 1 4 2 5 28 7 29 8 93 9 30 10 92 11 31 12 32 13
REMARK SMILES IDX 33 14 86 15 34 16 91 17 85 18 87 19 35 20 90 21 84 22 83 23
REMARK SMILES IDX 36 25 70 26 49 27 69 28 50 29 53 30 68 31 88 32 51 33 52 34
REMARK SMILES IDX 67 36 89 37 54 38 37 39 38 40 47 41 39 42 40 43 46 44 48 45
REMARK SMILES IDX 41 46 42 47 43 48 44 49 45 50 71 51 72 52 81 53 73 54 74 55
REMARK SMILES IDX 80 56 82 57 75 58 76 59 77 60 78 61 79 62 55 63 56 64 65 65
REMARK SMILES IDX 57 66 58 67 64 68 66 69 59 70 60 71 61 72 62 73 63 74 6 75
REMARK SMILES IDX 7 76 8 77 9 78 10 80 11 81 12 82 17 83 13 84 16 85 14 86
REMARK SMILES IDX 15 87 18 88 19 89 20 91 21 92 22 93 27 94 23 95 24 96 25 97
REMARK SMILES IDX 26 98
REMARK H PARENT 3 6 87 24 53 35 8 79 18 90
REMARK Flexibility Score: inf
ROOT
ATOM      1  C   UNL     1      15.179   0.643  13.284  1.00  0.00     0.023 C 
ENDROOT
BRANCH   1   2
ATOM      2  C   UNL     1      16.498   0.918  12.573  1.00  0.00     0.116 C 
BRANCH   2   3
ATOM      3  N   UNL     1      16.706   2.332  12.302  1.00  0.00    -0.352 N 
ATOM      4  O   UNL     1      17.645   4.368  12.534  1.00  0.00    -0.269 OA
ATOM      5  C   UNL     1      17.719   3.158  12.729  1.00  0.00     0.251 C 
ATOM      6  H   UNL     1      16.026   2.758  11.732  1.00  0.00     0.163 HD
BRANCH   5   7
ATOM      7  C   UNL     1      18.879   2.584  13.442  1.00  0.00     0.039 A 
ATOM      8  C   UNL     1      19.510   1.433  12.963  1.00  0.00     0.014 A 
ATOM      9  C   UNL     1      19.335   3.204  14.608  1.00  0.00     0.014 A 
ATOM     10  C   UNL     1      20.501   0.821  13.722  1.00  0.00     0.010 A 
ATOM     11  C   UNL     1      20.392   2.635  15.323  1.00  0.00     0.010 A 
ATOM     12  C   UNL     1      20.965   1.426  14.900  1.00  0.00    -0.014 A 
BRANCH  12  13
ATOM     13  C   UNL     1      22.105   0.826  15.639  1.00  0.00     0.031 A 
ATOM     14  C   UNL     1      21.939   0.317  17.042  1.00  0.00     0.074 A 
ATOM     15  C   UNL     1      23.305   0.766  15.032  1.00  0.00     0.049 A 
ATOM     16  N   UNL     1      22.843  -0.179  17.847  1.00  0.00    -0.248 NA
ATOM     17  C   UNL     1      20.588   0.377  17.620  1.00  0.00     0.031 C 
ATOM     18  C   UNL     1      23.581   1.233  13.670  1.00  0.00     0.029 A 
ATOM     19  N   UNL     1      24.516   0.296  15.472  1.00  0.00    -0.354 N 
ATOM     20  C   UNL     1      22.181  -0.466  19.035  1.00  0.00     0.074 A 
ATOM     21  C   UNL     1      20.801  -0.071  18.851  1.00  0.00     0.031 C 
ATOM     22  C   UNL     1      24.868   1.004  13.379  1.00  0.00     0.029 A 
ATOM     23  C   UNL     1      25.527   0.444  14.554  1.00  0.00     0.049 A 
ATOM     24  H   UNL     1      24.647  -0.108  16.360  1.00  0.00     0.167 HD
ATOM     25  C   UNL     1      22.685  -1.009  20.169  1.00  0.00     0.037 A 
ATOM     26  C   UNL     1      26.847   0.194  14.650  1.00  0.00     0.037 A 
ATOM     27  C   UNL     1      24.062  -1.405  20.328  1.00  0.00     0.049 A 
ATOM     28  C   UNL     1      27.392  -0.367  15.929  1.00  0.00     0.074 A 
ATOM     29  C   UNL     1      24.657  -2.017  21.417  1.00  0.00     0.029 A 
ATOM     30  N   UNL     1      25.061  -1.214  19.383  1.00  0.00    -0.354 N 
ATOM     31  N   UNL     1      26.746  -0.673  17.028  1.00  0.00    -0.248 NA
ATOM     32  C   UNL     1      28.838  -0.613  15.990  1.00  0.00     0.031 C 
ATOM     33  C   UNL     1      26.025  -2.134  21.158  1.00  0.00     0.029 A 
ATOM     34  C   UNL     1      26.275  -1.659  19.880  1.00  0.00     0.049 A 
ATOM     35  H   UNL     1      24.927  -0.821  18.490  1.00  0.00     0.167 HD
ATOM     36  C   UNL     1      27.703  -1.161  17.909  1.00  0.00     0.074 A 
ATOM     37  C   UNL     1      28.972  -1.116  17.212  1.00  0.00     0.031 C 
ATOM     38  C   UNL     1      27.537  -1.609  19.177  1.00  0.00     0.037 A 
BRANCH  25  39
ATOM     39  C   UNL     1      21.759  -1.179  21.344  1.00  0.00     0.058 A 
ATOM     40  C   UNL     1      21.941  -0.411  22.506  1.00  0.00     0.135 A 
ATOM     41  C   UNL     1      20.724  -2.129  21.348  1.00  0.00     0.135 A 
ATOM     42  F   UNL     1      22.914   0.512  22.561  1.00  0.00    -0.206 F 
ATOM     43  C   UNL     1      21.135  -0.577  23.627  1.00  0.00     0.059 A 
ATOM     44  C   UNL     1      19.886  -2.292  22.448  1.00  0.00     0.059 A 
ATOM     45  F   UNL     1      20.494  -2.882  20.260  1.00  0.00    -0.206 F 
ATOM     46  C   UNL     1      20.105  -1.517  23.587  1.00  0.00     0.060 A 
BRANCH  46  47
ATOM     47  S   UNL     1      19.022  -1.669  25.024  1.00  0.00     0.124 S 
ATOM     48  O   UNL     1      19.906  -2.287  26.005  1.00  0.00    -0.237 OA
ATOM     49  O   UNL     1      18.657  -0.279  25.280  1.00  0.00    -0.237 OA
ATOM     50  O   UNL     1      17.933  -2.512  24.537  1.00  0.00    -0.744 OA
ENDBRANCH  46  47
ENDBRANCH  25  39
BRANCH  26  51
ATOM     51  C   UNL     1      27.713   0.484  13.478  1.00  0.00     0.058 A 
ATOM     52  C   UNL     1      27.945   1.806  13.062  1.00  0.00     0.135 A 
ATOM     53  C   UNL     1      28.215  -0.552  12.680  1.00  0.00     0.135 A 
ATOM     54  F   UNL     1      27.472   2.833  13.785  1.00  0.00    -0.206 F 
ATOM     55  C   UNL     1      28.593   2.088  11.865  1.00  0.00     0.059 A 
ATOM     56  C   UNL     1      28.890  -0.294  11.491  1.00  0.00     0.059 A 
ATOM     57  F   UNL     1      28.025  -1.830  13.044  1.00  0.00    -0.206 F 
ATOM     58  C   UNL     1      29.048   1.029  11.078  1.00  0.00     0.060 A 
BRANCH  58  59
ATOM     59  S   UNL     1      29.810   1.415   9.488  1.00  0.00     0.124 S 
ATOM     60  O   UNL     1      28.677   1.960   8.746  1.00  0.00    -0.237 OA
ATOM     61  O   UNL     1      30.842   2.373   9.869  1.00  0.00    -0.237 OA
ATOM     62  O   UNL     1      30.297   0.120   9.024  1.00  0.00    -0.744 OA
ENDBRANCH  58  59
ENDBRANCH  26  51
BRANCH  38  63
ATOM     63  C   UNL     1      28.747  -2.109  19.915  1.00  0.00     0.058 A 
ATOM     64  C   UNL     1      28.879  -3.476  20.212  1.00  0.00     0.135 A 
ATOM     65  C   UNL     1      29.701  -1.227  20.444  1.00  0.00     0.135 A 
ATOM     66  F   UNL     1      27.993  -4.361  19.730  1.00  0.00    -0.206 F 
ATOM     67  C   UNL     1      29.888  -3.944  21.045  1.00  0.00     0.059 A 
ATOM     68  C   UNL     1      30.736  -1.677  21.259  1.00  0.00     0.059 A 
ATOM     69  F   UNL     1      29.629   0.086  20.175  1.00  0.00    -0.206 F 
ATOM     70  C   UNL     1      30.804  -3.035  21.576  1.00  0.00     0.060 A 
BRANCH  70  71
ATOM     71  S   UNL     1      32.075  -3.656  22.698  1.00  0.00     0.124 S 
ATOM     72  O   UNL     1      31.282  -4.056  23.855  1.00  0.00    -0.237 OA
ATOM     73  O   UNL     1      32.661  -4.745  21.923  1.00  0.00    -0.237 OA
ATOM     74  O   UNL     1      32.944  -2.501  22.900  1.00  0.00    -0.744 OA
ENDBRANCH  70  71
ENDBRANCH  38  63
ENDBRANCH  12  13
ENDBRANCH   5   7
ENDBRANCH   2   3
ENDBRANCH   1   2
BRANCH   1  75
ATOM     75  C   UNL     1      13.932   1.058  12.510  1.00  0.00     0.023 C 
BRANCH  75  76
ATOM     76  C   UNL     1      13.833   0.492  11.098  1.00  0.00     0.116 C 
BRANCH  76  77
ATOM     77  N   UNL     1      13.726  -0.961  11.078  1.00  0.00    -0.352 N 
ATOM     78  C   UNL     1      12.774  -1.736  10.461  1.00  0.00     0.253 C 
ATOM     79  H   UNL     1      14.425  -1.450  11.570  1.00  0.00     0.163 HD
ATOM     80  O   UNL     1      12.687  -2.938  10.686  1.00  0.00    -0.269 OA
BRANCH  78  81
ATOM     81  C   UNL     1      11.796  -1.086   9.562  1.00  0.00     0.063 A 
ATOM     82  C   UNL     1      12.304  -0.291   8.514  1.00  0.00     0.019 A 
ATOM     83  C   UNL     1      10.408  -1.220   9.782  1.00  0.00     0.056 A 
ATOM     84  C   UNL     1      11.445   0.498   7.763  1.00  0.00     0.040 A 
ATOM     85  C   UNL     1       9.582  -0.350   9.064  1.00  0.00     0.066 A 
ATOM     86  C   UNL     1      10.098   0.488   8.074  1.00  0.00     0.125 A 
ATOM     87  F   UNL     1       9.264   1.296   7.408  1.00  0.00    -0.207 F 
BRANCH  83  88
ATOM     88  N   UNL     1       9.948  -2.215  10.690  1.00  0.00    -0.325 N 
ATOM     89  C   UNL     1       8.736  -2.803  10.934  1.00  0.00     0.228 C 
ATOM     90  H   UNL     1      10.663  -2.557  11.275  1.00  0.00     0.169 HD
ATOM     91  O   UNL     1       8.659  -3.693  11.783  1.00  0.00    -0.274 OA
BRANCH  89  92
ATOM     92  C   UNL     1       7.505  -2.374  10.186  1.00  0.00     0.095 C 
ATOM     93  C   UNL     1       6.433  -3.450   9.965  1.00  0.00     0.030 C 
ATOM     94  C   UNL     1       6.774  -1.292  10.976  1.00  0.00     0.150 C 
ATOM     95  C   UNL     1       5.272  -2.700   9.303  1.00  0.00     0.138 C 
ATOM     96  S   UNL     1       5.273  -1.070  10.050  1.00  0.00     0.151 S 
ATOM     97  O   UNL     1       5.534  -0.089   9.020  1.00  0.00    -0.229 OA
ATOM     98  O   UNL     1       4.159  -0.955  10.969  1.00  0.00    -0.229 OA
ENDBRANCH  89  92
ENDBRANCH  83  88
ENDBRANCH  78  81
ENDBRANCH  76  77
ENDBRANCH  75  76
ENDBRANCH   1  75
TORSDOF 16
