REMARK SMILES O=C(NCCCCNC(=O)[C@@H]1CCCN1S(=O)(=O)c1ccc2[nH]c(=O)c(=O)[nH]c2c1)c1ccc(-c2c3nc(c(-c4c(F)cc(S(=O)(=O)[O-])cc4F)c4ccc([nH]4)c(-c4c(F)cc(S(=O)(=O)[O-])cc4F)c4nc(c(-c5c(F)cc(S(=O)(=O)[O-])cc5F)c5ccc2[nH]5)C=C4)C=C3)cc1
REMARK SMILES IDX 5 1 4 2 3 3 1 4 2 5 31 7 32 8 96 9 33 10 95 11 34 12 35 13
REMARK SMILES IDX 36 14 89 15 37 16 94 17 88 18 90 19 38 20 93 21 87 22 86 23
REMARK SMILES IDX 39 25 73 26 52 27 72 28 53 29 56 30 71 31 91 32 54 33 55 34
REMARK SMILES IDX 70 36 92 37 57 38 40 39 41 40 50 41 42 42 43 43 49 44 51 45
REMARK SMILES IDX 44 46 45 47 46 48 47 49 48 50 74 51 75 52 84 53 76 54 77 55
REMARK SMILES IDX 83 56 85 57 78 58 79 59 80 60 81 61 82 62 58 63 59 64 68 65
REMARK SMILES IDX 60 66 61 67 67 68 69 69 62 70 63 71 64 72 65 73 66 74 6 75
REMARK SMILES IDX 7 76 8 77 9 78 10 80 11 81 12 82 15 83 13 84 14 85 16 86
REMARK SMILES IDX 17 87 18 88 19 89 20 90 30 91 21 92 29 93 22 94 28 95 23 96
REMARK SMILES IDX 26 97 24 99 27 101 25 102
REMARK H PARENT 3 6 90 24 56 35 8 79 28 98 23 100
REMARK Flexibility Score: inf
ROOT
ATOM      1  C   UNL     1       4.994  -2.639   0.072  1.00  0.00     0.023 C 
ENDROOT
BRANCH   1   2
ATOM      2  C   UNL     1       4.626  -1.195  -0.237  1.00  0.00     0.116 C 
BRANCH   2   3
ATOM      3  N   UNL     1       3.199  -0.975  -0.411  1.00  0.00    -0.352 N 
ATOM      4  O   UNL     1       1.227   0.099  -0.196  1.00  0.00    -0.269 OA
ATOM      5  C   UNL     1       2.442   0.107  -0.026  1.00  0.00     0.251 C 
ATOM      6  H   UNL     1       2.708  -1.698  -0.865  1.00  0.00     0.163 HD
BRANCH   5   7
ATOM      7  C   UNL     1       3.102   1.252   0.636  1.00  0.00     0.039 A 
ATOM      8  C   UNL     1       4.282   1.788   0.119  1.00  0.00     0.014 A 
ATOM      9  C   UNL     1       2.562   1.751   1.825  1.00  0.00     0.014 A 
ATOM     10  C   UNL     1       5.012   2.696   0.877  1.00  0.00     0.010 A 
ATOM     11  C   UNL     1       3.254   2.731   2.541  1.00  0.00     0.010 A 
ATOM     12  C   UNL     1       4.510   3.174   2.099  1.00  0.00    -0.014 A 
BRANCH  12  13
ATOM     13  C   UNL     1       5.316   4.144   2.884  1.00  0.00     0.031 A 
ATOM     14  C   UNL     1       5.856   3.785   4.244  1.00  0.00     0.074 A 
ATOM     15  C   UNL     1       5.601   5.343   2.338  1.00  0.00     0.049 A 
ATOM     16  N   UNL     1       6.612   4.494   5.043  1.00  0.00    -0.248 NA
ATOM     17  C   UNL     1       5.495   2.464   4.782  1.00  0.00     0.031 C 
ATOM     18  C   UNL     1       5.126   5.805   1.031  1.00  0.00     0.029 A 
ATOM     19  N   UNL     1       6.374   6.378   2.795  1.00  0.00    -0.354 N 
ATOM     20  C   UNL     1       6.792   3.724   6.186  1.00  0.00     0.074 A 
ATOM     21  C   UNL     1       6.050   2.498   5.986  1.00  0.00     0.031 C 
ATOM     22  C   UNL     1       5.665   7.004   0.766  1.00  0.00     0.029 A 
ATOM     23  C   UNL     1       6.472   7.422   1.907  1.00  0.00     0.049 A 
ATOM     24  H   UNL     1       6.817   6.373   3.674  1.00  0.00     0.167 HD
ATOM     25  C   UNL     1       7.513   4.012   7.298  1.00  0.00     0.037 A 
ATOM     26  C   UNL     1       7.133   8.591   2.000  1.00  0.00     0.037 A 
ATOM     27  C   UNL     1       8.273   5.224   7.476  1.00  0.00     0.049 A 
ATOM     28  C   UNL     1       7.930   8.882   3.238  1.00  0.00     0.074 A 
ATOM     29  C   UNL     1       9.069   5.592   8.548  1.00  0.00     0.029 A 
ATOM     30  N   UNL     1       8.330   6.267   6.563  1.00  0.00    -0.354 N 
ATOM     31  N   UNL     1       8.109   8.129   4.297  1.00  0.00    -0.248 NA
ATOM     32  C   UNL     1       8.614  10.179   3.295  1.00  0.00     0.031 C 
ATOM     33  C   UNL     1       9.576   6.873   8.299  1.00  0.00     0.029 A 
ATOM     34  C   UNL     1       9.134   7.284   7.052  1.00  0.00     0.049 A 
ATOM     35  H   UNL     1       7.867   6.282   5.694  1.00  0.00     0.167 HD
ATOM     36  C   UNL     1       8.948   8.851   5.137  1.00  0.00     0.074 A 
ATOM     37  C   UNL     1       9.248  10.095   4.456  1.00  0.00     0.031 C 
ATOM     38  C   UNL     1       9.428   8.514   6.359  1.00  0.00     0.037 A 
BRANCH  25  39
ATOM     39  C   UNL     1       7.497   3.011   8.422  1.00  0.00     0.058 A 
ATOM     40  C   UNL     1       8.168   1.781   8.334  1.00  0.00     0.135 A 
ATOM     41  C   UNL     1       6.823   3.303   9.620  1.00  0.00     0.135 A 
ATOM     42  F   UNL     1       8.816   1.444   7.208  1.00  0.00    -0.206 F 
ATOM     43  C   UNL     1       8.145   0.863   9.380  1.00  0.00     0.059 A 
ATOM     44  C   UNL     1       6.807   2.410  10.688  1.00  0.00     0.059 A 
ATOM     45  F   UNL     1       6.166   4.465   9.760  1.00  0.00    -0.206 F 
ATOM     46  C   UNL     1       7.457   1.185  10.552  1.00  0.00     0.060 A 
BRANCH  46  47
ATOM     47  S   UNL     1       7.422  -0.021  11.896  1.00  0.00     0.124 S 
ATOM     48  O   UNL     1       6.476  -1.005  11.377  1.00  0.00    -0.237 OA
ATOM     49  O   UNL     1       8.814  -0.456  11.963  1.00  0.00    -0.237 OA
ATOM     50  O   UNL     1       6.955   0.756  13.039  1.00  0.00    -0.744 OA
ENDBRANCH  46  47
ENDBRANCH  25  39
BRANCH  26  51
ATOM     51  C   UNL     1       7.077   9.559   0.874  1.00  0.00     0.058 A 
ATOM     52  C   UNL     1       8.201   9.791   0.068  1.00  0.00     0.135 A 
ATOM     53  C   UNL     1       5.891  10.239   0.559  1.00  0.00     0.135 A 
ATOM     54  F   UNL     1       9.357   9.164   0.332  1.00  0.00    -0.206 F 
ATOM     55  C   UNL     1       8.155  10.672  -1.007  1.00  0.00     0.059 A 
ATOM     56  C   UNL     1       5.813  11.105  -0.527  1.00  0.00     0.059 A 
ATOM     57  F   UNL     1       4.783  10.034   1.288  1.00  0.00    -0.206 F 
ATOM     58  C   UNL     1       6.953  11.321  -1.299  1.00  0.00     0.060 A 
BRANCH  58  59
ATOM     59  S   UNL     1       6.885  12.415  -2.734  1.00  0.00     0.124 S 
ATOM     60  O   UNL     1       7.598  13.588  -2.242  1.00  0.00    -0.237 OA
ATOM     61  O   UNL     1       7.572  11.628  -3.753  1.00  0.00    -0.237 OA
ATOM     62  O   UNL     1       5.452  12.590  -2.951  1.00  0.00    -0.744 OA
ENDBRANCH  58  59
ENDBRANCH  26  51
BRANCH  38  63
ATOM     63  C   UNL     1      10.364   9.488   7.018  1.00  0.00     0.058 A 
ATOM     64  C   UNL     1       9.909  10.697   7.566  1.00  0.00     0.135 A 
ATOM     65  C   UNL     1      11.733   9.194   7.120  1.00  0.00     0.135 A 
ATOM     66  F   UNL     1       8.610  11.028   7.487  1.00  0.00    -0.206 F 
ATOM     67  C   UNL     1      10.785  11.597   8.163  1.00  0.00     0.059 A 
ATOM     68  C   UNL     1      12.623  10.067   7.736  1.00  0.00     0.059 A 
ATOM     69  F   UNL     1      12.217   8.045   6.621  1.00  0.00    -0.206 F 
ATOM     70  C   UNL     1      12.141  11.275   8.241  1.00  0.00     0.060 A 
BRANCH  70  71
ATOM     71  S   UNL     1      13.268  12.444   9.028  1.00  0.00     0.124 S 
ATOM     72  O   UNL     1      13.417  13.455   7.987  1.00  0.00    -0.237 OA
ATOM     73  O   UNL     1      12.518  12.857  10.210  1.00  0.00    -0.237 OA
ATOM     74  O   UNL     1      14.456  11.639   9.298  1.00  0.00    -0.744 OA
ENDBRANCH  70  71
ENDBRANCH  38  63
ENDBRANCH  12  13
ENDBRANCH   5   7
ENDBRANCH   2   3
ENDBRANCH   1   2
BRANCH   1  75
ATOM     75  C   UNL     1       4.439  -3.687  -0.892  1.00  0.00     0.023 C 
BRANCH  75  76
ATOM     76  C   UNL     1       4.739  -3.454  -2.370  1.00  0.00     0.116 C 
BRANCH  76  77
ATOM     77  N   UNL     1       6.138  -3.616  -2.716  1.00  0.00    -0.355 N 
ATOM     78  C   UNL     1       6.874  -4.664  -3.167  1.00  0.00     0.238 C 
ATOM     79  H   UNL     1       6.665  -2.793  -2.600  1.00  0.00     0.163 HD
ATOM     80  O   UNL     1       8.033  -4.387  -3.508  1.00  0.00    -0.273 OA
BRANCH  78  81
ATOM     81  C   UNL     1       6.399  -6.104  -3.296  1.00  0.00     0.162 C 
ATOM     82  C   UNL     1       4.943  -6.488  -3.108  1.00  0.00     0.032 C 
ATOM     83  N   UNL     1       7.151  -7.196  -2.576  1.00  0.00    -0.185 NA
ATOM     84  C   UNL     1       4.964  -7.993  -3.296  1.00  0.00     0.019 C 
ATOM     85  C   UNL     1       6.337  -8.441  -2.805  1.00  0.00     0.103 C 
BRANCH  83  86
ATOM     86  S   UNL     1       7.582  -7.006  -0.930  1.00  0.00     0.243 S 
ATOM     87  O   UNL     1       6.442  -6.424  -0.248  1.00  0.00    -0.207 OA
ATOM     88  O   UNL     1       8.110  -8.279  -0.487  1.00  0.00    -0.207 OA
BRANCH  86  89
ATOM     89  C   UNL     1       8.931  -5.855  -0.834  1.00  0.00     0.084 A 
ATOM     90  C   UNL     1       8.679  -4.498  -0.614  1.00  0.00     0.024 A 
ATOM     91  C   UNL     1      10.245  -6.336  -0.782  1.00  0.00     0.050 A 
ATOM     92  C   UNL     1       9.732  -3.589  -0.506  1.00  0.00     0.030 A 
ATOM     93  C   UNL     1      11.293  -5.434  -0.596  1.00  0.00     0.066 A 
ATOM     94  C   UNL     1      11.041  -4.061  -0.505  1.00  0.00     0.065 A 
ATOM     95  N   UNL     1      12.601  -5.906  -0.466  1.00  0.00    -0.316 N 
ATOM     96  N   UNL     1      12.102  -3.159  -0.396  1.00  0.00    -0.316 N 
ATOM     97  C   UNL     1      13.689  -5.077  -0.287  1.00  0.00     0.314 A 
ATOM     98  H   UNL     1      12.755  -6.878  -0.503  1.00  0.00     0.170 HD
ATOM     99  C   UNL     1      13.420  -3.553  -0.330  1.00  0.00     0.314 A 
ATOM    100  H   UNL     1      11.898  -2.197  -0.366  1.00  0.00     0.170 HD
ATOM    101  O   UNL     1      14.814  -5.526  -0.112  1.00  0.00    -0.263 OA
ATOM    102  O   UNL     1      14.337  -2.744  -0.308  1.00  0.00    -0.263 OA
ENDBRANCH  86  89
ENDBRANCH  83  86
ENDBRANCH  78  81
ENDBRANCH  76  77
ENDBRANCH  75  76
ENDBRANCH   1  75
TORSDOF 16
