REMARK SMILES CCC[C@]1(C(=O)NCCCCNC(=O)c2ccc(-c3c4nc(c(-c5c(F)cc(S(=O)(=O)[O-])cc5F)c5ccc([nH]5)c(-c5c(F)cc(S(=O)(=O)[O-])cc5F)c5nc(c(-c6c(F)cc(S(=O)(=O)[O-])cc6F)c6ccc3[nH]6)C=C5)C=C4)cc2)CCCN(C(=O)N[C@H]2CCOC2)C1
REMARK SMILES IDX 10 1 9 2 8 3 7 4 5 5 6 6 4 8 81 9 93 10 82 11 84 12 83 13
REMARK SMILES IDX 3 14 2 15 1 16 85 17 86 18 87 19 88 21 89 22 92 23 90 24
REMARK SMILES IDX 91 25 11 26 12 27 13 28 14 30 15 31 16 32 80 33 17 34 79 35
REMARK SMILES IDX 18 36 19 37 20 38 73 39 21 40 78 41 72 42 74 43 22 44 77 45
REMARK SMILES IDX 71 46 70 47 23 49 57 50 36 51 56 52 37 53 40 54 55 55 75 56
REMARK SMILES IDX 38 57 39 58 54 60 76 61 41 62 24 63 25 64 34 65 26 66 27 67
REMARK SMILES IDX 33 68 35 69 28 70 29 71 30 72 31 73 32 74 58 75 59 76 68 77
REMARK SMILES IDX 60 78 61 79 67 80 69 81 62 82 63 83 64 84 65 85 66 86 42 87
REMARK SMILES IDX 43 88 52 89 44 90 45 91 51 92 53 93 46 94 47 95 48 96 49 97
REMARK SMILES IDX 50 98
REMARK H PARENT 7 7 87 20 12 29 74 48 40 59
REMARK Flexibility Score: inf
ROOT
ATOM      1  C   UNL     1       5.047  -5.459  -6.956  1.00  0.00     0.023 C 
ENDROOT
BRANCH   1   2
ATOM      2  C   UNL     1       4.895  -5.313  -5.444  1.00  0.00     0.023 C 
BRANCH   2   3
ATOM      3  C   UNL     1       3.602  -4.633  -5.000  1.00  0.00     0.116 C 
BRANCH   3   4
ATOM      4  N   UNL     1       2.437  -5.468  -5.220  1.00  0.00    -0.356 N 
ATOM      5  C   UNL     1       1.514  -6.001  -4.369  1.00  0.00     0.228 C 
ATOM      6  O   UNL     1       0.588  -6.610  -4.912  1.00  0.00    -0.274 OA
ATOM      7  H   UNL     1       2.282  -5.694  -6.166  1.00  0.00     0.163 HD
BRANCH   5   8
ATOM      8  C   UNL     1       1.585  -5.826  -2.818  1.00  0.00     0.067 C 
ATOM      9  C   UNL     1       2.950  -6.344  -2.300  1.00  0.00     0.020 C 
ATOM     10  C   UNL     1       1.314  -4.320  -2.557  1.00  0.00     0.138 C 
ATOM     11  C   UNL     1       3.501  -5.611  -1.081  1.00  0.00     0.023 C 
ATOM     12  N   UNL     1       1.910  -3.756  -1.340  1.00  0.00    -0.324 N 
ATOM     13  C   UNL     1       3.308  -4.104  -1.147  1.00  0.00     0.121 C 
BRANCH   8  14
ATOM     14  C   UNL     1       0.411  -6.701  -2.226  1.00  0.00     0.018 C 
BRANCH  14  15
ATOM     15  C   UNL     1       0.414  -7.147  -0.758  1.00  0.00    -0.002 C 
ATOM     16  C   UNL     1       0.067  -6.076   0.253  1.00  0.00     0.004 C 
ENDBRANCH  14  15
ENDBRANCH   8  14
BRANCH  12  17
ATOM     17  C   UNL     1       1.208  -2.743  -0.743  1.00  0.00     0.317 C 
ATOM     18  O   UNL     1       0.186  -2.268  -1.250  1.00  0.00    -0.249 OA
ATOM     19  N   UNL     1       1.529  -2.213   0.448  1.00  0.00    -0.333 N 
ATOM     20  H   UNL     1       0.961  -1.439   0.668  1.00  0.00     0.165 HD
BRANCH  19  21
ATOM     21  C   UNL     1       2.496  -2.483   1.494  1.00  0.00     0.112 C 
ATOM     22  C   UNL     1       2.320  -1.557   2.685  1.00  0.00     0.056 C 
ATOM     23  C   UNL     1       2.366  -3.836   2.185  1.00  0.00     0.185 C 
ATOM     24  C   UNL     1       3.098  -2.288   3.756  1.00  0.00     0.162 C 
ATOM     25  O   UNL     1       2.918  -3.688   3.506  1.00  0.00    -0.379 OA
ENDBRANCH  19  21
ENDBRANCH  12  17
ENDBRANCH   5   8
ENDBRANCH   3   4
ENDBRANCH   2   3
ENDBRANCH   1   2
BRANCH   1  26
ATOM     26  C   UNL     1       4.911  -4.163  -7.747  1.00  0.00     0.116 C 
BRANCH  26  27
ATOM     27  N   UNL     1       5.844  -3.131  -7.315  1.00  0.00    -0.352 N 
ATOM     28  C   UNL     1       6.638  -2.315  -8.088  1.00  0.00     0.251 C 
ATOM     29  H   UNL     1       5.916  -3.000  -6.342  1.00  0.00     0.163 HD
ATOM     30  O   UNL     1       7.465  -1.579  -7.565  1.00  0.00    -0.269 OA
BRANCH  28  31
ATOM     31  C   UNL     1       6.500  -2.373  -9.557  1.00  0.00     0.039 A 
ATOM     32  C   UNL     1       7.640  -2.579 -10.337  1.00  0.00     0.014 A 
ATOM     33  C   UNL     1       5.237  -2.292 -10.149  1.00  0.00     0.014 A 
ATOM     34  C   UNL     1       7.502  -2.789 -11.710  1.00  0.00     0.010 A 
ATOM     35  C   UNL     1       5.096  -2.574 -11.503  1.00  0.00     0.010 A 
ATOM     36  C   UNL     1       6.225  -2.833 -12.295  1.00  0.00    -0.014 A 
BRANCH  36  37
ATOM     37  C   UNL     1       6.041  -3.163 -13.730  1.00  0.00     0.031 A 
ATOM     38  C   UNL     1       5.442  -2.147 -14.662  1.00  0.00     0.074 A 
ATOM     39  C   UNL     1       6.332  -4.403 -14.173  1.00  0.00     0.049 A 
ATOM     40  N   UNL     1       5.099  -2.278 -15.917  1.00  0.00    -0.248 NA
ATOM     41  C   UNL     1       5.163  -0.816 -14.098  1.00  0.00     0.031 C 
ATOM     42  C   UNL     1       6.872  -5.491 -13.354  1.00  0.00     0.029 A 
ATOM     43  N   UNL     1       6.199  -4.963 -15.418  1.00  0.00    -0.354 N 
ATOM     44  C   UNL     1       4.549  -1.058 -16.288  1.00  0.00     0.074 A 
ATOM     45  C   UNL     1       4.558  -0.214 -15.112  1.00  0.00     0.031 C 
ATOM     46  C   UNL     1       7.039  -6.580 -14.122  1.00  0.00     0.029 A 
ATOM     47  C   UNL     1       6.583  -6.283 -15.476  1.00  0.00     0.049 A 
ATOM     48  H   UNL     1       5.859  -4.467 -16.198  1.00  0.00     0.167 HD
ATOM     49  C   UNL     1       4.098  -0.668 -17.504  1.00  0.00     0.037 A 
ATOM     50  C   UNL     1       6.559  -7.157 -16.501  1.00  0.00     0.037 A 
ATOM     51  C   UNL     1       4.120  -1.502 -18.676  1.00  0.00     0.049 A 
ATOM     52  C   UNL     1       6.055  -6.700 -17.842  1.00  0.00     0.074 A 
ATOM     53  C   UNL     1       3.746  -1.179 -19.968  1.00  0.00     0.029 A 
ATOM     54  N   UNL     1       4.541  -2.823 -18.700  1.00  0.00    -0.354 N 
ATOM     55  N   UNL     1       5.594  -5.522 -18.191  1.00  0.00    -0.248 NA
ATOM     56  C   UNL     1       6.069  -7.687 -18.930  1.00  0.00     0.031 C 
ATOM     57  C   UNL     1       3.906  -2.317 -20.767  1.00  0.00     0.029 A 
ATOM     58  C   UNL     1       4.419  -3.336 -19.980  1.00  0.00     0.049 A 
ATOM     59  H   UNL     1       4.877  -3.323 -17.921  1.00  0.00     0.167 HD
ATOM     60  C   UNL     1       5.284  -5.621 -19.542  1.00  0.00     0.074 A 
ATOM     61  C   UNL     1       5.620  -6.969 -19.951  1.00  0.00     0.031 C 
ATOM     62  C   UNL     1       4.766  -4.680 -20.370  1.00  0.00     0.037 A 
BRANCH  49  63
ATOM     63  C   UNL     1       3.551   0.727 -17.626  1.00  0.00     0.058 A 
ATOM     64  C   UNL     1       4.390   1.852 -17.568  1.00  0.00     0.135 A 
ATOM     65  C   UNL     1       2.179   0.943 -17.829  1.00  0.00     0.135 A 
ATOM     66  F   UNL     1       5.708   1.703 -17.359  1.00  0.00    -0.206 F 
ATOM     67  C   UNL     1       3.884   3.143 -17.676  1.00  0.00     0.059 A 
ATOM     68  C   UNL     1       1.654   2.225 -17.967  1.00  0.00     0.059 A 
ATOM     69  F   UNL     1       1.333  -0.097 -17.891  1.00  0.00    -0.206 F 
ATOM     70  C   UNL     1       2.513   3.319 -17.873  1.00  0.00     0.060 A 
BRANCH  70  71
ATOM     71  S   UNL     1       1.872   5.000 -18.012  1.00  0.00     0.124 S 
ATOM     72  O   UNL     1       1.931   5.449 -16.625  1.00  0.00    -0.237 OA
ATOM     73  O   UNL     1       2.828   5.626 -18.921  1.00  0.00    -0.237 OA
ATOM     74  O   UNL     1       0.530   4.809 -18.554  1.00  0.00    -0.744 OA
ENDBRANCH  70  71
ENDBRANCH  49  63
BRANCH  50  75
ATOM     75  C   UNL     1       7.045  -8.548 -16.303  1.00  0.00     0.058 A 
ATOM     76  C   UNL     1       8.255  -8.974 -16.869  1.00  0.00     0.135 A 
ATOM     77  C   UNL     1       6.320  -9.473 -15.536  1.00  0.00     0.135 A 
ATOM     78  F   UNL     1       8.980  -8.127 -17.615  1.00  0.00    -0.206 F 
ATOM     79  C   UNL     1       8.725 -10.271 -16.695  1.00  0.00     0.059 A 
ATOM     80  C   UNL     1       6.780 -10.770 -15.329  1.00  0.00     0.059 A 
ATOM     81  F   UNL     1       5.164  -9.110 -14.959  1.00  0.00    -0.206 F 
ATOM     82  C   UNL     1       7.980 -11.163 -15.921  1.00  0.00     0.060 A 
BRANCH  82  83
ATOM     83  S   UNL     1       8.624 -12.830 -15.659  1.00  0.00     0.124 S 
ATOM     84  O   UNL     1       8.362 -13.452 -16.952  1.00  0.00    -0.237 OA
ATOM     85  O   UNL     1      10.026 -12.573 -15.346  1.00  0.00    -0.237 OA
ATOM     86  O   UNL     1       7.823 -13.326 -14.544  1.00  0.00    -0.744 OA
ENDBRANCH  82  83
ENDBRANCH  50  75
BRANCH  62  87
ATOM     87  C   UNL     1       4.556  -5.063 -21.808  1.00  0.00     0.058 A 
ATOM     88  C   UNL     1       3.499  -5.900 -22.198  1.00  0.00     0.135 A 
ATOM     89  C   UNL     1       5.385  -4.538 -22.812  1.00  0.00     0.135 A 
ATOM     90  F   UNL     1       2.684  -6.434 -21.275  1.00  0.00    -0.206 F 
ATOM     91  C   UNL     1       3.280  -6.215 -23.535  1.00  0.00     0.059 A 
ATOM     92  C   UNL     1       5.169  -4.820 -24.157  1.00  0.00     0.059 A 
ATOM     93  F   UNL     1       6.404  -3.725 -22.491  1.00  0.00    -0.206 F 
ATOM     94  C   UNL     1       4.119  -5.667 -24.507  1.00  0.00     0.060 A 
BRANCH  94  95
ATOM     95  S   UNL     1       3.796  -6.047 -26.243  1.00  0.00     0.124 S 
ATOM     96  O   UNL     1       4.290  -7.416 -26.340  1.00  0.00    -0.237 OA
ATOM     97  O   UNL     1       2.348  -5.886 -26.335  1.00  0.00    -0.237 OA
ATOM     98  O   UNL     1       4.578  -5.044 -26.960  1.00  0.00    -0.744 OA
ENDBRANCH  94  95
ENDBRANCH  62  87
ENDBRANCH  36  37
ENDBRANCH  28  31
ENDBRANCH  26  27
ENDBRANCH   1  26
TORSDOF 18
