REMARK SMILES CCC[C@@H](C(=O)N1CC[C@@](C)(C(=O)NCCCCNC(=O)c2ccc(-c3c4nc(c(-c5c(F)cc(S(=O)(=O)[O-])cc5F)c5ccc([nH]5)c(-c5c(F)cc(S(=O)(=O)[O-])cc5F)c5nc(c(-c6c(F)cc(S(=O)(=O)[O-])cc6F)c6ccc3[nH]6)C=C5)C=C4)cc2)C1)c1ccccc1
REMARK SMILES IDX 16 1 15 2 14 3 12 4 13 5 10 7 7 8 8 9 88 10 9 11 11 12 5 13
REMARK SMILES IDX 6 14 4 15 3 16 2 17 1 18 89 19 90 20 94 21 91 22 93 23 92 24
REMARK SMILES IDX 17 25 18 26 19 27 20 28 21 30 22 31 23 32 87 33 24 34 86 35
REMARK SMILES IDX 25 36 26 37 27 38 80 39 28 40 85 41 79 42 81 43 29 44 84 45
REMARK SMILES IDX 78 46 77 47 30 49 64 50 43 51 63 52 44 53 47 54 62 55 82 56
REMARK SMILES IDX 45 57 46 58 61 60 83 61 48 62 31 63 32 64 41 65 33 66 34 67
REMARK SMILES IDX 40 68 42 69 35 70 36 71 37 72 38 73 39 74 65 75 66 76 75 77
REMARK SMILES IDX 67 78 68 79 74 80 76 81 69 82 70 83 71 84 72 85 73 86 49 87
REMARK SMILES IDX 50 88 59 89 51 90 52 91 58 92 60 93 53 94 54 95 55 96 56 97
REMARK SMILES IDX 57 98
REMARK H PARENT 14 6 19 29 81 48 47 59
REMARK Flexibility Score: inf
ROOT
ATOM      1  C   UNL     1      -6.450   0.632  -2.939  1.00  0.00     0.023 C 
ENDROOT
BRANCH   1   2
ATOM      2  C   UNL     1      -5.166  -0.181  -2.846  1.00  0.00     0.116 C 
BRANCH   2   3
ATOM      3  N   UNL     1      -3.999   0.616  -2.507  1.00  0.00    -0.356 N 
ATOM      4  C   UNL     1      -2.897   0.294  -1.768  1.00  0.00     0.227 C 
ATOM      5  O   UNL     1      -1.972   1.108  -1.764  1.00  0.00    -0.274 OA
ATOM      6  H   UNL     1      -4.004   1.532  -2.867  1.00  0.00     0.163 HD
BRANCH   4   7
ATOM      7  C   UNL     1      -2.839  -1.016  -0.969  1.00  0.00     0.066 C 
ATOM      8  N   UNL     1      -1.853  -1.168   1.227  1.00  0.00    -0.341 N 
ATOM      9  C   UNL     1      -3.188  -0.642   1.413  1.00  0.00     0.120 C 
ATOM     10  C   UNL     1      -1.515  -1.130  -0.172  1.00  0.00     0.136 C 
ATOM     11  C   UNL     1      -3.922  -1.016   0.136  1.00  0.00     0.040 C 
ATOM     12  C   UNL     1      -2.925  -2.240  -1.905  1.00  0.00     0.024 C 
BRANCH   8  13
ATOM     13  C   UNL     1      -1.105  -1.605   2.292  1.00  0.00     0.230 C 
ATOM     14  O   UNL     1      -1.673  -1.709   3.390  1.00  0.00    -0.274 OA
BRANCH  13  15
ATOM     15  C   UNL     1       0.449  -1.831   2.211  1.00  0.00     0.108 C 
BRANCH  15  16
ATOM     16  C   UNL     1       1.168  -2.385   0.952  1.00  0.00     0.018 C 
BRANCH  16  17
ATOM     17  C   UNL     1       1.631  -1.441  -0.177  1.00  0.00    -0.002 C 
ATOM     18  C   UNL     1       1.941  -0.005   0.205  1.00  0.00     0.004 C 
ENDBRANCH  16  17
ENDBRANCH  15  16
BRANCH  15  19
ATOM     19  C   UNL     1       0.856  -2.737   3.400  1.00  0.00    -0.036 A 
ATOM     20  C   UNL     1       0.725  -4.136   3.335  1.00  0.00     0.004 A 
ATOM     21  C   UNL     1       1.311  -2.162   4.596  1.00  0.00     0.004 A 
ATOM     22  C   UNL     1       1.070  -4.936   4.425  1.00  0.00     0.000 A 
ATOM     23  C   UNL     1       1.643  -2.964   5.690  1.00  0.00     0.000 A 
ATOM     24  C   UNL     1       1.529  -4.351   5.602  1.00  0.00     0.000 A 
ENDBRANCH  15  19
ENDBRANCH  13  15
ENDBRANCH   8  13
ENDBRANCH   4   7
ENDBRANCH   2   3
ENDBRANCH   1   2
BRANCH   1  25
ATOM     25  C   UNL     1      -6.441   1.746  -3.985  1.00  0.00     0.023 C 
BRANCH  25  26
ATOM     26  C   UNL     1      -5.986   1.331  -5.380  1.00  0.00     0.116 C 
BRANCH  26  27
ATOM     27  N   UNL     1      -6.841   0.316  -5.979  1.00  0.00    -0.352 N 
ATOM     28  C   UNL     1      -7.577   0.376  -7.143  1.00  0.00     0.251 C 
ATOM     29  H   UNL     1      -6.901  -0.533  -5.483  1.00  0.00     0.163 HD
ATOM     30  O   UNL     1      -8.350  -0.522  -7.434  1.00  0.00    -0.269 OA
BRANCH  28  31
ATOM     31  C   UNL     1      -7.441   1.563  -8.015  1.00  0.00     0.039 A 
ATOM     32  C   UNL     1      -8.587   2.264  -8.395  1.00  0.00     0.014 A 
ATOM     33  C   UNL     1      -6.175   2.010  -8.401  1.00  0.00     0.014 A 
ATOM     34  C   UNL     1      -8.458   3.472  -9.087  1.00  0.00     0.010 A 
ATOM     35  C   UNL     1      -6.047   3.245  -9.025  1.00  0.00     0.010 A 
ATOM     36  C   UNL     1      -7.186   3.996  -9.363  1.00  0.00    -0.014 A 
BRANCH  36  37
ATOM     37  C   UNL     1      -6.995   5.320 -10.010  1.00  0.00     0.031 A 
ATOM     38  C   UNL     1      -6.292   5.394 -11.337  1.00  0.00     0.074 A 
ATOM     39  C   UNL     1      -7.347   6.450  -9.364  1.00  0.00     0.049 A 
ATOM     40  N   UNL     1      -5.811   6.436 -11.962  1.00  0.00    -0.248 NA
ATOM     41  C   UNL     1      -6.071   4.117 -12.037  1.00  0.00     0.031 C 
ATOM     42  C   UNL     1      -8.017   6.514  -8.062  1.00  0.00     0.029 A 
ATOM     43  N   UNL     1      -7.162   7.769  -9.703  1.00  0.00    -0.354 N 
ATOM     44  C   UNL     1      -5.212   5.941 -13.114  1.00  0.00     0.074 A 
ATOM     45  C   UNL     1      -5.351   4.501 -13.081  1.00  0.00     0.031 C 
ATOM     46  C   UNL     1      -8.184   7.801  -7.714  1.00  0.00     0.029 A 
ATOM     47  C   UNL     1      -7.591   8.653  -8.740  1.00  0.00     0.049 A 
ATOM     48  H   UNL     1      -6.760   8.054 -10.555  1.00  0.00     0.167 HD
ATOM     49  C   UNL     1      -4.616   6.626 -14.118  1.00  0.00     0.037 A 
ATOM     50  C   UNL     1      -7.490   9.996  -8.678  1.00  0.00     0.037 A 
ATOM     51  C   UNL     1      -4.511   8.060 -14.162  1.00  0.00     0.049 A 
ATOM     52  C   UNL     1      -6.819  10.736  -9.807  1.00  0.00     0.074 A 
ATOM     53  C   UNL     1      -3.930   8.851 -15.137  1.00  0.00     0.029 A 
ATOM     54  N   UNL     1      -5.019   8.918 -13.199  1.00  0.00    -0.354 N 
ATOM     55  N   UNL     1      -6.258  10.251 -10.889  1.00  0.00    -0.248 NA
ATOM     56  C   UNL     1      -6.766  12.202  -9.710  1.00  0.00     0.031 C 
ATOM     57  C   UNL     1      -4.072  10.188 -14.756  1.00  0.00     0.029 A 
ATOM     58  C   UNL     1      -4.774  10.230 -13.562  1.00  0.00     0.049 A 
ATOM     59  H   UNL     1      -5.484   8.636 -12.378  1.00  0.00     0.167 HD
ATOM     60  C   UNL     1      -5.827  11.354 -11.619  1.00  0.00     0.074 A 
ATOM     61  C   UNL     1      -6.186  12.530 -10.856  1.00  0.00     0.031 C 
ATOM     62  C   UNL     1      -5.189  11.388 -12.813  1.00  0.00     0.037 A 
BRANCH  49  63
ATOM     63  C   UNL     1      -4.051   5.837 -15.264  1.00  0.00     0.058 A 
ATOM     64  C   UNL     1      -4.888   5.219 -16.205  1.00  0.00     0.135 A 
ATOM     65  C   UNL     1      -2.663   5.741 -15.456  1.00  0.00     0.135 A 
ATOM     66  F   UNL     1      -6.222   5.264 -16.056  1.00  0.00    -0.206 F 
ATOM     67  C   UNL     1      -4.371   4.518 -17.288  1.00  0.00     0.059 A 
ATOM     68  C   UNL     1      -2.123   5.066 -16.547  1.00  0.00     0.059 A 
ATOM     69  F   UNL     1      -1.818   6.311 -14.582  1.00  0.00    -0.206 F 
ATOM     70  C   UNL     1      -2.986   4.449 -17.452  1.00  0.00     0.060 A 
BRANCH  70  71
ATOM     71  S   UNL     1      -2.333   3.556 -18.878  1.00  0.00     0.124 S 
ATOM     72  O   UNL     1      -2.566   2.170 -18.483  1.00  0.00    -0.237 OA
ATOM     73  O   UNL     1      -3.167   4.053 -19.967  1.00  0.00    -0.237 OA
ATOM     74  O   UNL     1      -0.933   3.968 -18.924  1.00  0.00    -0.744 OA
ENDBRANCH  70  71
ENDBRANCH  49  63
BRANCH  50  75
ATOM     75  C   UNL     1      -8.028  10.742  -7.507  1.00  0.00     0.058 A 
ATOM     76  C   UNL     1      -9.151  11.573  -7.636  1.00  0.00     0.135 A 
ATOM     77  C   UNL     1      -7.411  10.669  -6.249  1.00  0.00     0.135 A 
ATOM     78  F   UNL     1      -9.773  11.679  -8.821  1.00  0.00    -0.206 F 
ATOM     79  C   UNL     1      -9.621  12.335  -6.572  1.00  0.00     0.059 A 
ATOM     80  C   UNL     1      -7.878  11.402  -5.162  1.00  0.00     0.059 A 
ATOM     81  F   UNL     1      -6.346   9.873  -6.066  1.00  0.00    -0.206 F 
ATOM     82  C   UNL     1      -8.972  12.249  -5.340  1.00  0.00     0.060 A 
BRANCH  82  83
ATOM     83  S   UNL     1      -9.586  13.242  -3.962  1.00  0.00     0.124 S 
ATOM     84  O   UNL     1      -9.071  14.563  -4.302  1.00  0.00    -0.237 OA
ATOM     85  O   UNL     1     -11.031  13.070  -4.076  1.00  0.00    -0.237 OA
ATOM     86  O   UNL     1      -8.978  12.606  -2.797  1.00  0.00    -0.744 OA
ENDBRANCH  82  83
ENDBRANCH  50  75
BRANCH  62  87
ATOM     87  C   UNL     1      -4.907  12.732 -13.421  1.00  0.00     0.058 A 
ATOM     88  C   UNL     1      -3.852  13.539 -12.973  1.00  0.00     0.135 A 
ATOM     89  C   UNL     1      -5.643  13.164 -14.537  1.00  0.00     0.135 A 
ATOM     90  F   UNL     1      -3.125  13.171 -11.907  1.00  0.00    -0.206 F 
ATOM     91  C   UNL     1      -3.533  14.732 -13.614  1.00  0.00     0.059 A 
ATOM     92  C   UNL     1      -5.328  14.342 -15.204  1.00  0.00     0.059 A 
ATOM     93  F   UNL     1      -6.658  12.421 -15.006  1.00  0.00    -0.206 F 
ATOM     94  C   UNL     1      -4.271  15.121 -14.734  1.00  0.00     0.060 A 
BRANCH  94  95
ATOM     95  S   UNL     1      -3.794  16.628 -15.606  1.00  0.00     0.124 S 
ATOM     96  O   UNL     1      -4.297  17.660 -14.706  1.00  0.00    -0.237 OA
ATOM     97  O   UNL     1      -2.342  16.502 -15.678  1.00  0.00    -0.237 OA
ATOM     98  O   UNL     1      -4.490  16.516 -16.884  1.00  0.00    -0.744 OA
ENDBRANCH  94  95
ENDBRANCH  62  87
ENDBRANCH  36  37
ENDBRANCH  28  31
ENDBRANCH  26  27
ENDBRANCH  25  26
ENDBRANCH   1  25
TORSDOF 19
