REMARK SMILES O=C(NCCCCNC(=O)c1ccc(-c2c3nc(c(-c4c(F)cc(S(=O)(=O)[O-])cc4F)c4ccc([nH]4)c(-c4c(F)cc(S(=O)(=O)[O-])cc4F)c4nc(c(-c5c(F)cc(S(=O)(=O)[O-])cc5F)c5ccc2[nH]5)C=C4)C=C3)cc1)C1=Cc2cc(Cl)c(Cl)cc2O[C@@H]1C(F)(F)F
REMARK SMILES IDX 6 1 5 2 4 3 3 4 1 5 2 6 77 8 78 9 88 10 79 11 87 12 80 13
REMARK SMILES IDX 86 14 81 15 85 16 82 17 83 18 84 19 89 20 90 21 91 22 92 23
REMARK SMILES IDX 7 24 8 25 9 26 10 28 11 29 12 30 76 31 13 32 75 33 14 34
REMARK SMILES IDX 15 35 16 36 69 37 17 38 74 39 68 40 70 41 18 42 73 43 67 44
REMARK SMILES IDX 66 45 19 47 53 48 32 49 52 50 33 51 36 52 51 53 71 54 34 55
REMARK SMILES IDX 35 56 50 58 72 59 37 60 20 61 21 62 30 63 22 64 23 65 29 66
REMARK SMILES IDX 31 67 24 68 25 69 26 70 27 71 28 72 54 73 55 74 64 75 56 76
REMARK SMILES IDX 57 77 63 78 65 79 58 80 59 81 60 82 61 83 62 84 38 85 39 86
REMARK SMILES IDX 48 87 40 88 41 89 47 90 49 91 42 92 43 93 44 94 45 95 46 96
REMARK H PARENT 3 7 8 27 70 46 36 57
REMARK Flexibility Score: inf
ROOT
ATOM      1  C   UNL     1       4.141  -2.601   3.535  1.00  0.00     0.023 C 
ENDROOT
BRANCH   1   2
ATOM      2  C   UNL     1       4.354  -1.211   2.936  1.00  0.00     0.023 C 
BRANCH   2   3
ATOM      3  C   UNL     1       3.774  -1.039   1.531  1.00  0.00     0.116 C 
BRANCH   3   4
ATOM      4  N   UNL     1       2.635  -0.119   1.468  1.00  0.00    -0.352 N 
ATOM      5  O   UNL     1       1.221   1.362   0.479  1.00  0.00    -0.270 OA
ATOM      6  C   UNL     1       2.326   0.839   0.528  1.00  0.00     0.251 C 
ATOM      7  H   UNL     1       1.993  -0.197   2.211  1.00  0.00     0.163 HD
BRANCH   6   8
ATOM      8  C   UNL     1       3.352   1.153  -0.485  1.00  0.00     0.067 C 
ATOM      9  C   UNL     1       4.524   1.644  -0.062  1.00  0.00     0.025 C 
ATOM     10  C   UNL     1       3.170   0.572  -1.855  1.00  0.00     0.314 C 
ATOM     11  C   UNL     1       5.675   0.938  -0.647  1.00  0.00     0.019 A 
ATOM     12  O   UNL     1       4.256  -0.322  -2.205  1.00  0.00    -0.475 OA
ATOM     13  C   UNL     1       6.882   0.988   0.058  1.00  0.00     0.034 A 
ATOM     14  C   UNL     1       5.457  -0.098  -1.576  1.00  0.00     0.129 A 
ATOM     15  C   UNL     1       7.818  -0.041  -0.087  1.00  0.00     0.060 A 
ATOM     16  C   UNL     1       6.413  -1.097  -1.754  1.00  0.00     0.069 A 
ATOM     17  Cl  UNL     1       9.186  -0.018   0.968  1.00  0.00    -0.083 Cl
ATOM     18  C   UNL     1       7.577  -1.090  -0.984  1.00  0.00     0.063 A 
ATOM     19  Cl  UNL     1       8.631  -2.450  -1.117  1.00  0.00    -0.083 Cl
BRANCH  10  20
ATOM     20  C   UNL     1       3.003   1.668  -2.921  1.00  0.00     0.429 C 
ATOM     21  F   UNL     1       2.705   1.133  -4.131  1.00  0.00    -0.167 F 
ATOM     22  F   UNL     1       2.003   2.528  -2.617  1.00  0.00    -0.167 F 
ATOM     23  F   UNL     1       4.129   2.406  -3.082  1.00  0.00    -0.167 F 
ENDBRANCH  10  20
ENDBRANCH   6   8
ENDBRANCH   3   4
ENDBRANCH   2   3
ENDBRANCH   1   2
BRANCH   1  24
ATOM     24  C   UNL     1       4.723  -3.774   2.747  1.00  0.00     0.116 C 
BRANCH  24  25
ATOM     25  N   UNL     1       6.171  -3.745   2.592  1.00  0.00    -0.352 N 
ATOM     26  C   UNL     1       7.063  -4.792   2.707  1.00  0.00     0.251 C 
ATOM     27  H   UNL     1       6.562  -2.868   2.378  1.00  0.00     0.163 HD
ATOM     28  O   UNL     1       8.270  -4.591   2.606  1.00  0.00    -0.269 OA
BRANCH  26  29
ATOM     29  C   UNL     1       6.555  -6.148   3.013  1.00  0.00     0.039 A 
ATOM     30  C   UNL     1       7.103  -6.846   4.093  1.00  0.00     0.014 A 
ATOM     31  C   UNL     1       5.491  -6.692   2.290  1.00  0.00     0.014 A 
ATOM     32  C   UNL     1       6.515  -8.044   4.509  1.00  0.00     0.010 A 
ATOM     33  C   UNL     1       4.859  -7.841   2.756  1.00  0.00     0.010 A 
ATOM     34  C   UNL     1       5.356  -8.524   3.877  1.00  0.00    -0.014 A 
BRANCH  34  35
ATOM     35  C   UNL     1       4.649  -9.736   4.371  1.00  0.00     0.031 A 
ATOM     36  C   UNL     1       4.525 -10.944   3.482  1.00  0.00     0.074 A 
ATOM     37  C   UNL     1       4.059  -9.723   5.585  1.00  0.00     0.049 A 
ATOM     38  N   UNL     1       3.862 -12.053   3.683  1.00  0.00    -0.248 NA
ATOM     39  C   UNL     1       5.210 -10.883   2.180  1.00  0.00     0.031 C 
ATOM     40  C   UNL     1       4.056  -8.592   6.517  1.00  0.00     0.029 A 
ATOM     41  N   UNL     1       3.336 -10.689   6.241  1.00  0.00    -0.354 N 
ATOM     42  C   UNL     1       4.039 -12.814   2.533  1.00  0.00     0.074 A 
ATOM     43  C   UNL     1       4.821 -12.016   1.614  1.00  0.00     0.031 C 
ATOM     44  C   UNL     1       3.384  -8.936   7.628  1.00  0.00     0.029 A 
ATOM     45  C   UNL     1       2.881 -10.297   7.479  1.00  0.00     0.049 A 
ATOM     46  H   UNL     1       3.159 -11.579   5.860  1.00  0.00     0.167 HD
ATOM     47  C   UNL     1       3.616 -14.074   2.276  1.00  0.00     0.037 A 
ATOM     48  C   UNL     1       2.139 -10.960   8.389  1.00  0.00     0.037 A 
ATOM     49  C   UNL     1       2.873 -14.880   3.208  1.00  0.00     0.049 A 
ATOM     50  C   UNL     1       1.713 -12.374   8.092  1.00  0.00     0.074 A 
ATOM     51  C   UNL     1       2.418 -16.178   3.055  1.00  0.00     0.029 A 
ATOM     52  N   UNL     1       2.490 -14.469   4.476  1.00  0.00    -0.354 N 
ATOM     53  N   UNL     1       1.922 -13.088   7.012  1.00  0.00    -0.248 NA
ATOM     54  C   UNL     1       0.962 -13.078   9.142  1.00  0.00     0.031 C 
ATOM     55  C   UNL     1       1.747 -16.547   4.225  1.00  0.00     0.029 A 
ATOM     56  C   UNL     1       1.814 -15.491   5.119  1.00  0.00     0.049 A 
ATOM     57  H   UNL     1       2.673 -13.582   4.862  1.00  0.00     0.167 HD
ATOM     58  C   UNL     1       1.361 -14.335   7.266  1.00  0.00     0.074 A 
ATOM     59  C   UNL     1       0.812 -14.281   8.605  1.00  0.00     0.031 C 
ATOM     60  C   UNL     1       1.304 -15.426   6.465  1.00  0.00     0.037 A 
BRANCH  47  61
ATOM     61  C   UNL     1       3.977 -14.672   0.945  1.00  0.00     0.058 A 
ATOM     62  C   UNL     1       5.297 -15.051   0.650  1.00  0.00     0.135 A 
ATOM     63  C   UNL     1       2.994 -14.910  -0.028  1.00  0.00     0.135 A 
ATOM     64  F   UNL     1       6.279 -14.828   1.537  1.00  0.00    -0.206 F 
ATOM     65  C   UNL     1       5.633 -15.624  -0.571  1.00  0.00     0.059 A 
ATOM     66  C   UNL     1       3.303 -15.507  -1.247  1.00  0.00     0.059 A 
ATOM     67  F   UNL     1       1.717 -14.564   0.201  1.00  0.00    -0.206 F 
ATOM     68  C   UNL     1       4.628 -15.851  -1.513  1.00  0.00     0.060 A 
BRANCH  68  69
ATOM     69  S   UNL     1       5.079 -16.617  -3.084  1.00  0.00     0.124 S 
ATOM     70  O   UNL     1       5.754 -15.514  -3.762  1.00  0.00    -0.237 OA
ATOM     71  O   UNL     1       5.936 -17.719  -2.660  1.00  0.00    -0.237 OA
ATOM     72  O   UNL     1       3.793 -17.009  -3.652  1.00  0.00    -0.744 OA
ENDBRANCH  68  69
ENDBRANCH  47  61
BRANCH  48  73
ATOM     73  C   UNL     1       1.768 -10.314   9.678  1.00  0.00     0.058 A 
ATOM     74  C   UNL     1       2.327 -10.747  10.890  1.00  0.00     0.135 A 
ATOM     75  C   UNL     1       0.828  -9.274   9.728  1.00  0.00     0.135 A 
ATOM     76  F   UNL     1       3.228 -11.741  10.895  1.00  0.00    -0.206 F 
ATOM     77  C   UNL     1       1.940 -10.200  12.110  1.00  0.00     0.059 A 
ATOM     78  C   UNL     1       0.445  -8.692  10.933  1.00  0.00     0.059 A 
ATOM     79  F   UNL     1       0.280  -8.807   8.596  1.00  0.00    -0.206 F 
ATOM     80  C   UNL     1       0.992  -9.176  12.121  1.00  0.00     0.060 A 
BRANCH  80  81
ATOM     81  S   UNL     1       0.501  -8.463  13.706  1.00  0.00     0.124 S 
ATOM     82  O   UNL     1      -0.389  -9.493  14.227  1.00  0.00    -0.237 OA
ATOM     83  O   UNL     1       1.781  -8.318  14.391  1.00  0.00    -0.237 OA
ATOM     84  O   UNL     1      -0.140  -7.208  13.322  1.00  0.00    -0.744 OA
ENDBRANCH  80  81
ENDBRANCH  48  73
BRANCH  60  85
ATOM     85  C   UNL     1       0.682 -16.669   7.033  1.00  0.00     0.058 A 
ATOM     86  C   UNL     1      -0.706 -16.793   7.197  1.00  0.00     0.135 A 
ATOM     87  C   UNL     1       1.486 -17.771   7.369  1.00  0.00     0.135 A 
ATOM     88  F   UNL     1      -1.516 -15.767   6.894  1.00  0.00    -0.206 F 
ATOM     89  C   UNL     1      -1.274 -17.959   7.698  1.00  0.00     0.059 A 
ATOM     90  C   UNL     1       0.937 -18.955   7.848  1.00  0.00     0.059 A 
ATOM     91  F   UNL     1       2.819 -17.706   7.219  1.00  0.00    -0.206 F 
ATOM     92  C   UNL     1      -0.445 -19.035   8.021  1.00  0.00     0.060 A 
BRANCH  92  93
ATOM     93  S   UNL     1      -1.196 -20.555   8.640  1.00  0.00     0.124 S 
ATOM     94  O   UNL     1      -1.507 -20.188  10.018  1.00  0.00    -0.237 OA
ATOM     95  O   UNL     1      -2.344 -20.722   7.754  1.00  0.00    -0.237 OA
ATOM     96  O   UNL     1      -0.137 -21.547   8.477  1.00  0.00    -0.744 OA
ENDBRANCH  92  93
ENDBRANCH  60  85
ENDBRANCH  34  35
ENDBRANCH  26  29
ENDBRANCH  24  25
ENDBRANCH   1  24
TORSDOF 15
