REMARK SMILES C[C@H]1[C@@H](C(=O)NCCCCNC(=O)c2ccc(-c3c4nc(c(-c5c(F)cc(S(=O)(=O)[O-])cc5F)c5ccc([nH]5)c(-c5c(F)cc(S(=O)(=O)[O-])cc5F)c5nc(c(-c6c(F)cc(S(=O)(=O)[O-])cc6F)c6ccc3[nH]6)C=C5)C=C4)cc2)CCN1C(=O)NCC(C1CC1)C1CC1
REMARK SMILES IDX 8 1 7 2 6 3 4 4 5 5 3 7 1 8 2 9 82 10 80 11 81 12 83 13
REMARK SMILES IDX 84 14 85 15 86 17 87 18 88 19 89 20 90 21 91 22 92 23 93 24
REMARK SMILES IDX 9 25 10 26 11 27 12 28 13 30 14 31 15 32 79 33 16 34 78 35
REMARK SMILES IDX 17 36 18 37 19 38 72 39 20 40 77 41 71 42 73 43 21 44 76 45
REMARK SMILES IDX 70 46 69 47 22 49 56 50 35 51 55 52 36 53 39 54 54 55 74 56
REMARK SMILES IDX 37 57 38 58 53 60 75 61 40 62 23 63 24 64 33 65 25 66 26 67
REMARK SMILES IDX 32 68 34 69 27 70 28 71 29 72 30 73 31 74 57 75 58 76 67 77
REMARK SMILES IDX 59 78 60 79 66 80 68 81 61 82 62 83 63 84 64 85 65 86 41 87
REMARK SMILES IDX 42 88 51 89 43 90 44 91 50 92 52 93 45 94 46 95 47 96 48 97
REMARK SMILES IDX 49 98
REMARK H PARENT 6 6 85 16 11 29 73 48 39 59
REMARK Flexibility Score: inf
ROOT
ATOM      1  C   UNL     1       3.362   0.614  -2.001  1.00  0.00     0.023 C 
ENDROOT
BRANCH   1   2
ATOM      2  C   UNL     1       2.610   1.757  -1.315  1.00  0.00     0.116 C 
BRANCH   2   3
ATOM      3  N   UNL     1       1.342   2.006  -1.978  1.00  0.00    -0.356 N 
ATOM      4  C   UNL     1       0.070   1.625  -1.667  1.00  0.00     0.225 C 
ATOM      5  O   UNL     1      -0.809   1.898  -2.486  1.00  0.00    -0.275 OA
ATOM      6  H   UNL     1       1.414   2.545  -2.799  1.00  0.00     0.163 HD
BRANCH   4   7
ATOM      7  C   UNL     1      -0.265   0.998  -0.316  1.00  0.00     0.102 C 
ATOM      8  C   UNL     1       0.950  -1.228  -0.995  1.00  0.00     0.032 C 
ATOM      9  C   UNL     1       0.448  -0.298   0.106  1.00  0.00     0.096 C 
ATOM     10  N   UNL     1      -0.524  -1.039   0.893  1.00  0.00    -0.321 N 
ATOM     11  C   UNL     1      -1.764   0.699  -0.112  1.00  0.00     0.037 C 
ATOM     12  C   UNL     1      -1.842  -0.742   0.366  1.00  0.00     0.122 C 
BRANCH  10  13
ATOM     13  C   UNL     1      -0.352  -2.101   1.728  1.00  0.00     0.317 C 
ATOM     14  O   UNL     1      -1.316  -2.762   2.127  1.00  0.00    -0.249 OA
ATOM     15  N   UNL     1       0.858  -2.521   2.150  1.00  0.00    -0.338 N 
ATOM     16  H   UNL     1       0.784  -3.335   2.700  1.00  0.00     0.165 HD
BRANCH  15  17
ATOM     17  C   UNL     1       2.252  -2.095   2.014  1.00  0.00     0.121 C 
BRANCH  17  18
ATOM     18  C   UNL     1       2.970  -1.996   3.377  1.00  0.00     0.014 C 
BRANCH  18  19
ATOM     19  C   UNL     1       3.588  -3.302   3.854  1.00  0.00    -0.006 C 
ATOM     20  C   UNL     1       3.398  -4.658   3.212  1.00  0.00     0.004 C 
ATOM     21  C   UNL     1       4.710  -3.939   3.067  1.00  0.00     0.004 C 
ENDBRANCH  18  19
BRANCH  18  22
ATOM     22  C   UNL     1       4.021  -0.894   3.483  1.00  0.00    -0.006 C 
ATOM     23  C   UNL     1       4.832  -0.405   2.307  1.00  0.00     0.004 C 
ATOM     24  C   UNL     1       3.816   0.504   2.947  1.00  0.00     0.004 C 
ENDBRANCH  18  22
ENDBRANCH  17  18
ENDBRANCH  15  17
ENDBRANCH  10  13
ENDBRANCH   4   7
ENDBRANCH   2   3
ENDBRANCH   1   2
BRANCH   1  25
ATOM     25  C   UNL     1       4.237   1.014  -3.176  1.00  0.00     0.023 C 
BRANCH  25  26
ATOM     26  C   UNL     1       5.492   1.770  -2.792  1.00  0.00     0.116 C 
BRANCH  26  27
ATOM     27  N   UNL     1       6.392   1.017  -1.923  1.00  0.00    -0.352 N 
ATOM     28  C   UNL     1       7.748   0.816  -2.053  1.00  0.00     0.251 C 
ATOM     29  H   UNL     1       5.972   0.597  -1.138  1.00  0.00     0.163 HD
ATOM     30  O   UNL     1       8.346   0.082  -1.272  1.00  0.00    -0.269 OA
BRANCH  28  31
ATOM     31  C   UNL     1       8.456   1.459  -3.179  1.00  0.00     0.039 A 
ATOM     32  C   UNL     1       9.268   0.685  -4.011  1.00  0.00     0.014 A 
ATOM     33  C   UNL     1       8.204   2.798  -3.480  1.00  0.00     0.014 A 
ATOM     34  C   UNL     1       9.737   1.231  -5.207  1.00  0.00     0.010 A 
ATOM     35  C   UNL     1       8.562   3.292  -4.725  1.00  0.00     0.010 A 
ATOM     36  C   UNL     1       9.336   2.518  -5.603  1.00  0.00    -0.014 A 
BRANCH  36  37
ATOM     37  C   UNL     1       9.717   3.095  -6.917  1.00  0.00     0.031 A 
ATOM     38  C   UNL     1      10.475   4.395  -6.961  1.00  0.00     0.074 A 
ATOM     39  C   UNL     1       9.298   2.513  -8.060  1.00  0.00     0.049 A 
ATOM     40  N   UNL     1      10.780   5.141  -7.990  1.00  0.00    -0.248 NA
ATOM     41  C   UNL     1      10.898   4.960  -5.668  1.00  0.00     0.031 C 
ATOM     42  C   UNL     1       8.488   1.295  -8.150  1.00  0.00     0.029 A 
ATOM     43  N   UNL     1       9.486   2.879  -9.369  1.00  0.00    -0.354 N 
ATOM     44  C   UNL     1      11.390   6.274  -7.466  1.00  0.00     0.074 A 
ATOM     45  C   UNL     1      11.352   6.150  -6.026  1.00  0.00     0.031 C 
ATOM     46  C   UNL     1       8.281   0.997  -9.444  1.00  0.00     0.029 A 
ATOM     47  C   UNL     1       8.909   2.018 -10.274  1.00  0.00     0.049 A 
ATOM     48  H   UNL     1       9.988   3.683  -9.636  1.00  0.00     0.167 HD
ATOM     49  C   UNL     1      11.963   7.310  -8.122  1.00  0.00     0.037 A 
ATOM     50  C   UNL     1       8.893   2.050 -11.621  1.00  0.00     0.037 A 
ATOM     51  C   UNL     1      12.064   7.390  -9.553  1.00  0.00     0.049 A 
ATOM     52  C   UNL     1       9.600   3.172 -12.332  1.00  0.00     0.074 A 
ATOM     53  C   UNL     1      12.700   8.349 -10.320  1.00  0.00     0.029 A 
ATOM     54  N   UNL     1      11.529   6.460 -10.434  1.00  0.00    -0.354 N 
ATOM     55  N   UNL     1      10.226   4.205 -11.819  1.00  0.00    -0.248 NA
ATOM     56  C   UNL     1       9.607   3.131 -13.800  1.00  0.00     0.031 C 
ATOM     57  C   UNL     1      12.533   8.010 -11.667  1.00  0.00     0.029 A 
ATOM     58  C   UNL     1      11.819   6.824 -11.737  1.00  0.00     0.049 A 
ATOM     59  H   UNL     1      11.019   5.661 -10.170  1.00  0.00     0.167 HD
ATOM     60  C   UNL     1      10.721   4.924 -12.901  1.00  0.00     0.074 A 
ATOM     61  C   UNL     1      10.332   4.202 -14.095  1.00  0.00     0.031 C 
ATOM     62  C   UNL     1      11.432   6.079 -12.908  1.00  0.00     0.037 A 
BRANCH  49  63
ATOM     63  C   UNL     1      12.546   8.417  -7.290  1.00  0.00     0.058 A 
ATOM     64  C   UNL     1      13.705   8.225  -6.520  1.00  0.00     0.135 A 
ATOM     65  C   UNL     1      11.943   9.684  -7.260  1.00  0.00     0.135 A 
ATOM     66  F   UNL     1      14.310   7.027  -6.497  1.00  0.00    -0.206 F 
ATOM     67  C   UNL     1      14.222   9.236  -5.718  1.00  0.00     0.059 A 
ATOM     68  C   UNL     1      12.459  10.720  -6.487  1.00  0.00     0.059 A 
ATOM     69  F   UNL     1      10.832   9.922  -7.975  1.00  0.00    -0.206 F 
ATOM     70  C   UNL     1      13.588  10.479  -5.704  1.00  0.00     0.060 A 
BRANCH  70  71
ATOM     71  S   UNL     1      14.263  11.779  -4.649  1.00  0.00     0.124 S 
ATOM     72  O   UNL     1      13.799  11.353  -3.332  1.00  0.00    -0.237 OA
ATOM     73  O   UNL     1      15.699  11.660  -4.883  1.00  0.00    -0.237 OA
ATOM     74  O   UNL     1      13.644  12.993  -5.171  1.00  0.00    -0.744 OA
ENDBRANCH  70  71
ENDBRANCH  49  63
BRANCH  50  75
ATOM     75  C   UNL     1       8.227   0.963 -12.386  1.00  0.00     0.058 A 
ATOM     76  C   UNL     1       8.985   0.002 -13.072  1.00  0.00     0.135 A 
ATOM     77  C   UNL     1       6.829   0.851 -12.436  1.00  0.00     0.135 A 
ATOM     78  F   UNL     1      10.325   0.070 -13.056  1.00  0.00    -0.206 F 
ATOM     79  C   UNL     1       8.383  -1.022 -13.795  1.00  0.00     0.059 A 
ATOM     80  C   UNL     1       6.204  -0.177 -13.136  1.00  0.00     0.059 A 
ATOM     81  F   UNL     1       6.060   1.734 -11.781  1.00  0.00    -0.206 F 
ATOM     82  C   UNL     1       6.990  -1.104 -13.821  1.00  0.00     0.060 A 
BRANCH  82  83
ATOM     83  S   UNL     1       6.218  -2.468 -14.720  1.00  0.00     0.124 S 
ATOM     84  O   UNL     1       6.378  -2.034 -16.103  1.00  0.00    -0.237 OA
ATOM     85  O   UNL     1       7.032  -3.608 -14.310  1.00  0.00    -0.237 OA
ATOM     86  O   UNL     1       4.850  -2.470 -14.212  1.00  0.00    -0.744 OA
ENDBRANCH  82  83
ENDBRANCH  50  75
BRANCH  62  87
ATOM     87  C   UNL     1      11.863   6.615 -14.241  1.00  0.00     0.058 A 
ATOM     88  C   UNL     1      10.958   7.258 -15.099  1.00  0.00     0.135 A 
ATOM     89  C   UNL     1      13.208   6.540 -14.635  1.00  0.00     0.135 A 
ATOM     90  F   UNL     1       9.661   7.349 -14.768  1.00  0.00    -0.206 F 
ATOM     91  C   UNL     1      11.370   7.795 -16.314  1.00  0.00     0.059 A 
ATOM     92  C   UNL     1      13.646   7.089 -15.835  1.00  0.00     0.059 A 
ATOM     93  F   UNL     1      14.113   5.943 -13.842  1.00  0.00    -0.206 F 
ATOM     94  C   UNL     1      12.717   7.707 -16.672  1.00  0.00     0.060 A 
BRANCH  94  95
ATOM     95  S   UNL     1      13.250   8.445 -18.231  1.00  0.00     0.124 S 
ATOM     96  O   UNL     1      12.787   7.455 -19.197  1.00  0.00    -0.237 OA
ATOM     97  O   UNL     1      12.537   9.718 -18.236  1.00  0.00    -0.237 OA
ATOM     98  O   UNL     1      14.699   8.546 -18.079  1.00  0.00    -0.744 OA
ENDBRANCH  94  95
ENDBRANCH  62  87
ENDBRANCH  36  37
ENDBRANCH  28  31
ENDBRANCH  26  27
ENDBRANCH  25  26
ENDBRANCH   1  25
TORSDOF 19
