REMARK SMILES O=C(CNS(=O)(=O)c1ccccc1)N[C@@H](CO)C(=O)NCCCCNC(=O)c1ccc(-c2c3nc(c(-c4c(F)cc(S(=O)(=O)[O-])cc4F)c4ccc([nH]4)c(-c4c(F)cc(S(=O)(=O)[O-])cc4F)c4nc(c(-c5c(F)cc(S(=O)(=O)[O-])cc5F)c5ccc2[nH]5)C=C4)C=C3)cc1
REMARK SMILES IDX 21 1 20 2 18 3 19 4 15 6 14 7 1 8 2 9 3 11 4 12 5 14 6 15
REMARK SMILES IDX 7 16 8 17 9 18 13 19 10 20 12 21 11 22 16 23 17 24 22 26
REMARK SMILES IDX 23 27 24 28 25 29 26 30 27 32 28 33 29 34 93 35 30 36 92 37
REMARK SMILES IDX 31 38 32 39 33 40 86 41 34 42 91 43 85 44 87 45 35 46 90 47
REMARK SMILES IDX 84 48 83 49 36 51 70 52 49 53 69 54 50 55 53 56 68 57 88 58
REMARK SMILES IDX 51 59 52 60 67 62 89 63 54 64 37 65 38 66 47 67 39 68 40 69
REMARK SMILES IDX 46 70 48 71 41 72 42 73 43 74 44 75 45 76 71 77 72 78 81 79
REMARK SMILES IDX 73 80 74 81 80 82 82 83 75 84 76 85 77 86 78 87 79 88 55 89
REMARK SMILES IDX 56 90 65 91 57 92 58 93 64 94 66 95 59 96 60 97 61 98 62 99
REMARK SMILES IDX 63 100
REMARK H PARENT 20 5 14 10 4 13 17 25 25 31 87 50 53 61
REMARK Flexibility Score: inf
ROOT
ATOM      1  C   UNL     1       5.204   2.124   2.303  1.00  0.00     0.116 C 
ENDROOT
BRANCH   1   2
ATOM      2  N   UNL     1       4.051   2.990   2.158  1.00  0.00    -0.354 N 
ATOM      3  C   UNL     1       2.721   2.702   2.133  1.00  0.00     0.244 C 
ATOM      4  O   UNL     1       1.938   3.649   2.265  1.00  0.00    -0.273 OA
ATOM      5  H   UNL     1       4.266   3.946   2.062  1.00  0.00     0.163 HD
BRANCH   3   6
ATOM      6  C   UNL     1       2.184   1.265   2.035  1.00  0.00     0.197 C 
BRANCH   6   7
ATOM      7  N   UNL     1       2.792   0.495   0.946  1.00  0.00    -0.341 N 
ATOM      8  O   UNL     1       0.887  -0.666   0.436  1.00  0.00    -0.274 OA
ATOM      9  C   UNL     1       2.048  -0.365   0.171  1.00  0.00     0.235 C 
ATOM     10  H   UNL     1       3.754   0.596   0.765  1.00  0.00     0.164 HD
BRANCH   9  11
ATOM     11  C   UNL     1       2.792  -0.973  -1.008  1.00  0.00     0.198 C 
BRANCH  11  12
ATOM     12  N   UNL     1       3.854  -0.076  -1.518  1.00  0.00    -0.202 NA
ATOM     13  H   UNL     1       4.520   0.088  -0.763  1.00  0.00     0.141 HD
BRANCH  12  14
ATOM     14  S   UNL     1       4.710  -0.671  -2.858  1.00  0.00     0.241 S 
ATOM     15  O   UNL     1       3.745  -1.270  -3.752  1.00  0.00    -0.207 OA
ATOM     16  O   UNL     1       5.590   0.392  -3.283  1.00  0.00    -0.207 OA
BRANCH  14  17
ATOM     17  C   UNL     1       5.697  -1.948  -2.130  1.00  0.00     0.082 A 
ATOM     18  C   UNL     1       5.417  -3.288  -2.416  1.00  0.00     0.022 A 
ATOM     19  C   UNL     1       6.729  -1.599  -1.257  1.00  0.00     0.022 A 
ATOM     20  C   UNL     1       6.162  -4.289  -1.794  1.00  0.00     0.001 A 
ATOM     21  C   UNL     1       7.469  -2.606  -0.640  1.00  0.00     0.001 A 
ATOM     22  C   UNL     1       7.181  -3.947  -0.903  1.00  0.00     0.000 A 
ENDBRANCH  14  17
ENDBRANCH  12  14
ENDBRANCH  11  12
ENDBRANCH   9  11
ENDBRANCH   6   7
BRANCH   6  23
ATOM     23  C   UNL     1       2.187   0.554   3.398  1.00  0.00     0.191 C 
BRANCH  23  24
ATOM     24  O   UNL     1       3.459   0.023   3.768  1.00  0.00    -0.394 OA
ATOM     25  H   UNL     1       3.728  -0.649   3.123  1.00  0.00     0.210 HD
ENDBRANCH  23  24
ENDBRANCH   6  23
ENDBRANCH   3   6
ENDBRANCH   1   2
BRANCH   1  26
ATOM     26  C   UNL     1       6.226   2.338   1.191  1.00  0.00     0.023 C 
BRANCH  26  27
ATOM     27  C   UNL     1       6.881   3.719   1.175  1.00  0.00     0.023 C 
BRANCH  27  28
ATOM     28  C   UNL     1       7.523   4.155   2.489  1.00  0.00     0.116 C 
BRANCH  28  29
ATOM     29  N   UNL     1       8.527   3.218   2.971  1.00  0.00    -0.352 N 
ATOM     30  C   UNL     1       9.825   3.457   3.357  1.00  0.00     0.251 C 
ATOM     31  H   UNL     1       8.235   2.280   3.029  1.00  0.00     0.163 HD
ATOM     32  O   UNL     1      10.572   2.515   3.605  1.00  0.00    -0.269 OA
BRANCH  30  33
ATOM     33  C   UNL     1      10.320   4.847   3.439  1.00  0.00     0.039 A 
ATOM     34  C   UNL     1      11.542   5.167   2.843  1.00  0.00     0.014 A 
ATOM     35  C   UNL     1       9.565   5.837   4.074  1.00  0.00     0.014 A 
ATOM     36  C   UNL     1      11.968   6.497   2.814  1.00  0.00     0.010 A 
ATOM     37  C   UNL     1       9.954   7.170   3.977  1.00  0.00     0.010 A 
ATOM     38  C   UNL     1      11.157   7.515   3.343  1.00  0.00    -0.014 A 
BRANCH  38  39
ATOM     39  C   UNL     1      11.541   8.946   3.231  1.00  0.00     0.031 A 
ATOM     40  C   UNL     1      11.796   9.759   4.471  1.00  0.00     0.074 A 
ATOM     41  C   UNL     1      11.585   9.531   2.018  1.00  0.00     0.049 A 
ATOM     42  N   UNL     1      12.064  11.034   4.581  1.00  0.00    -0.248 NA
ATOM     43  C   UNL     1      11.711   9.051   5.758  1.00  0.00     0.031 C 
ATOM     44  C   UNL     1      11.302   8.864   0.744  1.00  0.00     0.029 A 
ATOM     45  N   UNL     1      11.872  10.823   1.655  1.00  0.00    -0.354 N 
ATOM     46  C   UNL     1      12.162  11.285   5.944  1.00  0.00     0.074 A 
ATOM     47  C   UNL     1      11.873  10.041   6.623  1.00  0.00     0.031 C 
ATOM     48  C   UNL     1      11.451   9.745  -0.258  1.00  0.00     0.029 A 
ATOM     49  C   UNL     1      11.803  11.047   0.300  1.00  0.00     0.049 A 
ATOM     50  H   UNL     1      12.106  11.525   2.305  1.00  0.00     0.167 HD
ATOM     51  C   UNL     1      12.487  12.440   6.573  1.00  0.00     0.037 A 
ATOM     52  C   UNL     1      11.994  12.174  -0.413  1.00  0.00     0.037 A 
ATOM     53  C   UNL     1      12.803  13.668   5.891  1.00  0.00     0.049 A 
ATOM     54  C   UNL     1      12.363  13.443   0.306  1.00  0.00     0.074 A 
ATOM     55  C   UNL     1      13.209  14.874   6.434  1.00  0.00     0.029 A 
ATOM     56  N   UNL     1      12.747  13.847   4.516  1.00  0.00    -0.354 N 
ATOM     57  N   UNL     1      12.518  13.645   1.593  1.00  0.00    -0.248 NA
ATOM     58  C   UNL     1      12.588  14.636  -0.522  1.00  0.00     0.031 C 
ATOM     59  C   UNL     1      13.360  15.794   5.391  1.00  0.00     0.029 A 
ATOM     60  C   UNL     1      13.092  15.150   4.194  1.00  0.00     0.049 A 
ATOM     61  H   UNL     1      12.499  13.152   3.865  1.00  0.00     0.167 HD
ATOM     62  C   UNL     1      12.881  14.981   1.727  1.00  0.00     0.074 A 
ATOM     63  C   UNL     1      12.935  15.534   0.390  1.00  0.00     0.031 C 
ATOM     64  C   UNL     1      13.145  15.685   2.856  1.00  0.00     0.037 A 
BRANCH  51  65
ATOM     65  C   UNL     1      12.525  12.425   8.076  1.00  0.00     0.058 A 
ATOM     66  C   UNL     1      13.527  11.738   8.780  1.00  0.00     0.135 A 
ATOM     67  C   UNL     1      11.565  13.126   8.823  1.00  0.00     0.135 A 
ATOM     68  F   UNL     1      14.462  11.039   8.117  1.00  0.00    -0.206 F 
ATOM     69  C   UNL     1      13.556  11.717  10.171  1.00  0.00     0.059 A 
ATOM     70  C   UNL     1      11.590  13.142  10.215  1.00  0.00     0.059 A 
ATOM     71  F   UNL     1      10.585  13.800   8.202  1.00  0.00    -0.206 F 
ATOM     72  C   UNL     1      12.581  12.420  10.880  1.00  0.00     0.060 A 
BRANCH  72  73
ATOM     73  S   UNL     1      12.630  12.379  12.684  1.00  0.00     0.124 S 
ATOM     74  O   UNL     1      12.151  11.027  12.956  1.00  0.00    -0.237 OA
ATOM     75  O   UNL     1      14.042  12.619  12.964  1.00  0.00    -0.237 OA
ATOM     76  O   UNL     1      11.725  13.456  13.073  1.00  0.00    -0.744 OA
ENDBRANCH  72  73
ENDBRANCH  51  65
BRANCH  52  77
ATOM     77  C   UNL     1      11.864  12.146  -1.894  1.00  0.00     0.058 A 
ATOM     78  C   UNL     1      12.995  12.255  -2.717  1.00  0.00     0.135 A 
ATOM     79  C   UNL     1      10.615  11.993  -2.515  1.00  0.00     0.135 A 
ATOM     80  F   UNL     1      14.210  12.409  -2.170  1.00  0.00    -0.206 F 
ATOM     81  C   UNL     1      12.892  12.226  -4.104  1.00  0.00     0.059 A 
ATOM     82  C   UNL     1      10.489  11.937  -3.900  1.00  0.00     0.059 A 
ATOM     83  F   UNL     1       9.505  11.868  -1.771  1.00  0.00    -0.206 F 
ATOM     84  C   UNL     1      11.634  12.064  -4.686  1.00  0.00     0.060 A 
BRANCH  84  85
ATOM     85  S   UNL     1      11.518  11.973  -6.487  1.00  0.00     0.124 S 
ATOM     86  O   UNL     1      11.734  13.365  -6.865  1.00  0.00    -0.237 OA
ATOM     87  O   UNL     1      12.597  11.047  -6.817  1.00  0.00    -0.237 OA
ATOM     88  O   UNL     1      10.171  11.459  -6.710  1.00  0.00    -0.744 OA
ENDBRANCH  84  85
ENDBRANCH  52  77
BRANCH  64  89
ATOM     89  C   UNL     1      13.542  17.125   2.695  1.00  0.00     0.058 A 
ATOM     90  C   UNL     1      12.608  18.113   2.346  1.00  0.00     0.135 A 
ATOM     91  C   UNL     1      14.864  17.530   2.943  1.00  0.00     0.135 A 
ATOM     92  F   UNL     1      11.333  17.776   2.091  1.00  0.00    -0.206 F 
ATOM     93  C   UNL     1      12.974  19.449   2.228  1.00  0.00     0.059 A 
ATOM     94  C   UNL     1      15.246  18.865   2.857  1.00  0.00     0.059 A 
ATOM     95  F   UNL     1      15.794  16.627   3.290  1.00  0.00    -0.206 F 
ATOM     96  C   UNL     1      14.296  19.816   2.488  1.00  0.00     0.060 A 
BRANCH  96  97
ATOM     97  S   UNL     1      14.751  21.559   2.368  1.00  0.00     0.124 S 
ATOM     98  O   UNL     1      14.789  21.754   0.922  1.00  0.00    -0.237 OA
ATOM     99  O   UNL     1      13.653  22.219   3.067  1.00  0.00    -0.237 OA
ATOM    100  O   UNL     1      16.043  21.620   3.044  1.00  0.00    -0.744 OA
ENDBRANCH  96  97
ENDBRANCH  64  89
ENDBRANCH  38  39
ENDBRANCH  30  33
ENDBRANCH  28  29
ENDBRANCH  27  28
ENDBRANCH  26  27
ENDBRANCH   1  26
TORSDOF 21
