REMARK SMILES Cc1c(CC(=O)NCCCCNC(=O)c2ccc(-c3c4nc(c(-c5c(F)cc(S(=O)(=O)[O-])cc5F)c5ccc([nH]5)c(-c5c(F)cc(S(=O)(=O)[O-])cc5F)c5nc(c(-c6c(F)cc(S(=O)(=O)[O-])cc6F)c6ccc3[nH]6)C=C5)C=C4)cc2)c2cc(O)ccc2n1C(=O)c1ccc(Cl)cc1
REMARK SMILES IDX 9 1 8 2 7 3 5 4 6 5 4 7 3 8 1 9 2 10 88 11 81 12 87 13 82 14
REMARK SMILES IDX 86 15 83 16 85 17 89 18 90 19 91 20 92 21 97 22 93 23 96 24
REMARK SMILES IDX 94 25 95 26 84 27 10 29 11 30 12 31 13 32 14 34 15 35 16 36
REMARK SMILES IDX 80 37 17 38 79 39 18 40 19 41 20 42 73 43 21 44 78 45 72 46
REMARK SMILES IDX 74 47 22 48 77 49 71 50 70 51 23 53 57 54 36 55 56 56 37 57
REMARK SMILES IDX 40 58 55 59 75 60 38 61 39 62 54 64 76 65 41 66 24 67 25 68
REMARK SMILES IDX 34 69 26 70 27 71 33 72 35 73 28 74 29 75 30 76 31 77 32 78
REMARK SMILES IDX 58 79 59 80 68 81 60 82 61 83 67 84 69 85 62 86 63 87 64 88
REMARK SMILES IDX 65 89 66 90 42 91 43 92 52 93 44 94 45 95 51 96 53 97 46 98
REMARK SMILES IDX 47 99 48 100 49 101 50 102
REMARK H PARENT 7 6 84 28 12 33 74 52 40 63
REMARK Flexibility Score: inf
ROOT
ATOM      1  C   UNL     1       3.490  -0.380   2.847  1.00  0.00     0.023 C 
ENDROOT
BRANCH   1   2
ATOM      2  C   UNL     1       2.611  -1.569   2.467  1.00  0.00     0.116 C 
BRANCH   2   3
ATOM      3  N   UNL     1       1.737  -1.976   3.548  1.00  0.00    -0.356 N 
ATOM      4  C   UNL     1       0.377  -1.872   3.624  1.00  0.00     0.224 C 
ATOM      5  O   UNL     1      -0.189  -2.327   4.621  1.00  0.00    -0.275 OA
ATOM      6  H   UNL     1       2.181  -2.378   4.329  1.00  0.00     0.163 HD
BRANCH   4   7
ATOM      7  C   UNL     1      -0.412  -1.281   2.466  1.00  0.00     0.138 C 
BRANCH   7   8
ATOM      8  C   UNL     1      -0.139   0.179   2.232  1.00  0.00    -0.009 A 
ATOM      9  C   UNL     1       0.624   0.142  -0.256  1.00  0.00     0.065 C 
ATOM     10  C   UNL     1       0.310   0.781   1.062  1.00  0.00     0.028 A 
ATOM     11  N   UNL     1       0.506   2.151   1.302  1.00  0.00    -0.280 N 
ATOM     12  C   UNL     1      -0.333   1.216   3.189  1.00  0.00     0.008 A 
ATOM     13  C   UNL     1       0.003   2.432   2.582  1.00  0.00     0.057 A 
ATOM     14  C   UNL     1      -0.790   1.211   4.527  1.00  0.00     0.056 A 
ATOM     15  C   UNL     1      -0.193   3.643   3.282  1.00  0.00     0.031 A 
ATOM     16  C   UNL     1      -0.899   2.409   5.225  1.00  0.00     0.116 A 
ATOM     17  C   UNL     1      -0.618   3.615   4.613  1.00  0.00     0.048 A 
BRANCH  11  18
ATOM     18  C   UNL     1       1.099   3.070   0.382  1.00  0.00     0.262 C 
ATOM     19  O   UNL     1       1.358   2.692  -0.750  1.00  0.00    -0.268 OA
BRANCH  18  20
ATOM     20  C   UNL     1       1.399   4.486   0.670  1.00  0.00     0.040 A 
ATOM     21  C   UNL     1       2.318   4.852   1.659  1.00  0.00     0.015 A 
ATOM     22  C   UNL     1       0.718   5.458  -0.071  1.00  0.00     0.015 A 
ATOM     23  C   UNL     1       2.488   6.206   1.965  1.00  0.00     0.021 A 
ATOM     24  C   UNL     1       0.897   6.806   0.233  1.00  0.00     0.021 A 
ATOM     25  C   UNL     1       1.766   7.174   1.262  1.00  0.00     0.041 A 
ATOM     26  Cl  UNL     1       1.925   8.835   1.675  1.00  0.00    -0.084 Cl
ENDBRANCH  18  20
ENDBRANCH  11  18
BRANCH  16  27
ATOM     27  O   UNL     1      -1.304   2.355   6.526  1.00  0.00    -0.508 OA
ATOM     28  H   UNL     1      -1.490   1.528   6.925  1.00  0.00     0.293 HD
ENDBRANCH  16  27
ENDBRANCH   7   8
ENDBRANCH   4   7
ENDBRANCH   2   3
ENDBRANCH   1   2
BRANCH   1  29
ATOM     29  C   UNL     1       4.595  -0.702   3.863  1.00  0.00     0.023 C 
BRANCH  29  30
ATOM     30  C   UNL     1       5.458  -1.915   3.504  1.00  0.00     0.116 C 
BRANCH  30  31
ATOM     31  N   UNL     1       6.030  -1.838   2.175  1.00  0.00    -0.352 N 
ATOM     32  C   UNL     1       7.193  -1.349   1.650  1.00  0.00     0.251 C 
ATOM     33  H   UNL     1       5.442  -2.229   1.489  1.00  0.00     0.163 HD
ATOM     34  O   UNL     1       7.364  -1.562   0.446  1.00  0.00    -0.269 OA
BRANCH  32  35
ATOM     35  C   UNL     1       8.222  -0.575   2.399  1.00  0.00     0.039 A 
ATOM     36  C   UNL     1       8.163  -0.240   3.752  1.00  0.00     0.014 A 
ATOM     37  C   UNL     1       9.318  -0.113   1.643  1.00  0.00     0.014 A 
ATOM     38  C   UNL     1       9.135   0.576   4.323  1.00  0.00     0.010 A 
ATOM     39  C   UNL     1      10.296   0.698   2.211  1.00  0.00     0.010 A 
ATOM     40  C   UNL     1      10.182   1.073   3.546  1.00  0.00    -0.014 A 
BRANCH  40  41
ATOM     41  C   UNL     1      11.146   1.954   4.198  1.00  0.00     0.031 A 
ATOM     42  C   UNL     1      11.952   1.354   5.303  1.00  0.00     0.074 A 
ATOM     43  C   UNL     1      11.386   3.213   3.783  1.00  0.00     0.049 A 
ATOM     44  N   UNL     1      12.014   1.713   6.545  1.00  0.00    -0.248 NA
ATOM     45  C   UNL     1      12.736   0.150   4.990  1.00  0.00     0.031 C 
ATOM     46  C   UNL     1      10.908   3.870   2.564  1.00  0.00     0.029 A 
ATOM     47  N   UNL     1      12.210   4.147   4.336  1.00  0.00    -0.354 N 
ATOM     48  C   UNL     1      12.977   0.897   7.139  1.00  0.00     0.074 A 
ATOM     49  C   UNL     1      13.302  -0.117   6.168  1.00  0.00     0.031 C 
ATOM     50  C   UNL     1      11.622   4.998   2.361  1.00  0.00     0.029 A 
ATOM     51  C   UNL     1      12.507   5.209   3.495  1.00  0.00     0.049 A 
ATOM     52  H   UNL     1      12.564   4.074   5.252  1.00  0.00     0.167 HD
ATOM     53  C   UNL     1      13.568   1.200   8.329  1.00  0.00     0.037 A 
ATOM     54  C   UNL     1      13.468   6.146   3.684  1.00  0.00     0.037 A 
ATOM     55  C   UNL     1      12.822   2.183   9.067  1.00  0.00     0.049 A 
ATOM     56  C   UNL     1      13.783   6.174   5.136  1.00  0.00     0.074 A 
ATOM     57  C   UNL     1      11.551   2.234   9.605  1.00  0.00     0.029 A 
ATOM     58  N   UNL     1      13.284   3.475   9.087  1.00  0.00    -0.354 N 
ATOM     59  N   UNL     1      12.960   6.586   6.061  1.00  0.00    -0.248 NA
ATOM     60  C   UNL     1      14.893   5.360   5.611  1.00  0.00     0.031 C 
ATOM     61  C   UNL     1      11.141   3.591   9.460  1.00  0.00     0.029 A 
ATOM     62  C   UNL     1      12.198   4.285   8.870  1.00  0.00     0.049 A 
ATOM     63  H   UNL     1      14.214   3.765   9.230  1.00  0.00     0.167 HD
ATOM     64  C   UNL     1      13.204   5.764   7.151  1.00  0.00     0.074 A 
ATOM     65  C   UNL     1      14.470   5.103   6.851  1.00  0.00     0.031 C 
ATOM     66  C   UNL     1      12.231   5.489   8.069  1.00  0.00     0.037 A 
BRANCH  53  67
ATOM     67  C   UNL     1      14.981   0.821   8.706  1.00  0.00     0.058 A 
ATOM     68  C   UNL     1      15.420   0.968  10.039  1.00  0.00     0.135 A 
ATOM     69  C   UNL     1      15.995   0.587   7.752  1.00  0.00     0.135 A 
ATOM     70  F   UNL     1      14.541   1.203  11.027  1.00  0.00    -0.206 F 
ATOM     71  C   UNL     1      16.772   0.956  10.386  1.00  0.00     0.059 A 
ATOM     72  C   UNL     1      17.345   0.517   8.085  1.00  0.00     0.059 A 
ATOM     73  F   UNL     1      15.732   0.515   6.441  1.00  0.00    -0.206 F 
ATOM     74  C   UNL     1      17.728   0.750   9.396  1.00  0.00     0.060 A 
BRANCH  74  75
ATOM     75  S   UNL     1      19.477   0.874   9.815  1.00  0.00     0.124 S 
ATOM     76  O   UNL     1      19.607   2.301  10.088  1.00  0.00    -0.237 OA
ATOM     77  O   UNL     1      19.577  -0.011  10.970  1.00  0.00    -0.237 OA
ATOM     78  O   UNL     1      20.145   0.399   8.607  1.00  0.00    -0.744 OA
ENDBRANCH  74  75
ENDBRANCH  53  67
BRANCH  54  79
ATOM     79  C   UNL     1      14.348   6.761   2.656  1.00  0.00     0.058 A 
ATOM     80  C   UNL     1      15.155   7.871   2.960  1.00  0.00     0.135 A 
ATOM     81  C   UNL     1      14.624   6.109   1.436  1.00  0.00     0.135 A 
ATOM     82  F   UNL     1      14.980   8.538   4.111  1.00  0.00    -0.206 F 
ATOM     83  C   UNL     1      16.206   8.278   2.131  1.00  0.00     0.059 A 
ATOM     84  C   UNL     1      15.653   6.507   0.586  1.00  0.00     0.059 A 
ATOM     85  F   UNL     1      13.962   5.001   1.072  1.00  0.00    -0.206 F 
ATOM     86  C   UNL     1      16.461   7.574   0.955  1.00  0.00     0.060 A 
BRANCH  86  87
ATOM     87  S   UNL     1      17.924   7.980  -0.026  1.00  0.00     0.124 S 
ATOM     88  O   UNL     1      17.591   9.308  -0.530  1.00  0.00    -0.237 OA
ATOM     89  O   UNL     1      18.986   7.923   0.973  1.00  0.00    -0.237 OA
ATOM     90  O   UNL     1      17.962   6.923  -1.033  1.00  0.00    -0.744 OA
ENDBRANCH  86  87
ENDBRANCH  54  79
BRANCH  66  91
ATOM     91  C   UNL     1      10.975   6.322   8.058  1.00  0.00     0.058 A 
ATOM     92  C   UNL     1      10.055   6.336   6.996  1.00  0.00     0.135 A 
ATOM     93  C   UNL     1      10.600   6.982   9.239  1.00  0.00     0.135 A 
ATOM     94  F   UNL     1      10.288   5.644   5.872  1.00  0.00    -0.206 F 
ATOM     95  C   UNL     1       8.831   6.999   7.092  1.00  0.00     0.059 A 
ATOM     96  C   UNL     1       9.370   7.623   9.369  1.00  0.00     0.059 A 
ATOM     97  F   UNL     1      11.408   6.952  10.312  1.00  0.00    -0.206 F 
ATOM     98  C   UNL     1       8.492   7.633   8.287  1.00  0.00     0.060 A 
BRANCH  98  99
ATOM     99  S   UNL     1       6.856   8.382   8.444  1.00  0.00     0.124 S 
ATOM    100  O   UNL     1       6.974   9.562   7.594  1.00  0.00    -0.237 OA
ATOM    101  O   UNL     1       5.974   7.329   7.945  1.00  0.00    -0.237 OA
ATOM    102  O   UNL     1       6.738   8.652   9.875  1.00  0.00    -0.744 OA
ENDBRANCH  98  99
ENDBRANCH  66  91
ENDBRANCH  40  41
ENDBRANCH  32  35
ENDBRANCH  30  31
ENDBRANCH  29  30
ENDBRANCH   1  29
TORSDOF 18
