REMARK SMILES CC1(C)CC[NH+](CC[C@H]2CCC[C@]2([NH3+])C(=O)NCCCCNC(=O)c2ccc(-c3c4nc(c(-c5c(F)cc(S(=O)(=O)[O-])cc5F)c5ccc([nH]5)c(-c5c(F)cc(S(=O)(=O)[O-])cc5F)c5nc(c(-c6c(F)cc(S(=O)(=O)[O-])cc6F)c6ccc3[nH]6)C=C5)C=C4)cc2)CC1
REMARK SMILES IDX 19 1 18 2 17 3 15 4 16 5 13 7 9 8 10 9 11 10 12 11 8 12 7 13
REMARK SMILES IDX 6 14 1 15 2 16 3 17 4 18 92 19 5 20 91 21 14 23 20 27 21 28
REMARK SMILES IDX 22 29 23 30 24 32 25 33 26 34 90 35 27 36 89 37 28 38 29 39
REMARK SMILES IDX 30 40 83 41 31 42 88 43 82 44 84 45 32 46 87 47 81 48 80 49
REMARK SMILES IDX 33 51 67 52 46 53 66 54 47 55 50 56 65 57 85 58 48 59 49 60
REMARK SMILES IDX 64 62 86 63 51 64 34 65 35 66 44 67 36 68 37 69 43 70 45 71
REMARK SMILES IDX 38 72 39 73 40 74 41 75 42 76 68 77 69 78 78 79 70 80 71 81
REMARK SMILES IDX 77 82 79 83 72 84 73 85 74 86 75 87 76 88 52 89 53 90 62 91
REMARK SMILES IDX 54 92 55 93 61 94 63 95 56 96 57 97 58 98 59 99 60 100
REMARK H PARENT 17 6 6 22 14 24 14 25 14 26 22 31 84 50 50 61
REMARK Flexibility Score: inf
ROOT
ATOM      1  C   UNL     1      -0.241  -4.294  -1.477  1.00  0.00     0.023 C 
ENDROOT
BRANCH   1   2
ATOM      2  C   UNL     1       0.920  -3.531  -0.817  1.00  0.00     0.116 C 
BRANCH   2   3
ATOM      3  N   UNL     1       1.147  -2.212  -1.377  1.00  0.00    -0.351 N 
ATOM      4  C   UNL     1       0.969  -0.974  -0.825  1.00  0.00     0.281 C 
ATOM      5  O   UNL     1       1.442  -0.016  -1.446  1.00  0.00    -0.268 OA
ATOM      6  H   UNL     1       1.482  -2.207  -2.303  1.00  0.00     0.163 HD
BRANCH   4   7
ATOM      7  C   UNL     1       0.188  -0.769   0.541  1.00  0.00     0.177 C 
ATOM      8  C   UNL     1      -1.184  -1.476   0.495  1.00  0.00     0.066 C 
ATOM      9  C   UNL     1      -1.877  -0.600  -0.566  1.00  0.00     0.011 C 
ATOM     10  C   UNL     1      -1.493   0.835  -0.225  1.00  0.00     0.008 C 
ATOM     11  C   UNL     1      -0.237   0.715   0.649  1.00  0.00     0.079 C 
BRANCH   8  12
ATOM     12  C   UNL     1      -1.834  -1.944   1.842  1.00  0.00     0.072 C 
BRANCH  12  13
ATOM     13  C   UNL     1      -2.187  -1.062   3.066  1.00  0.00     0.262 C 
BRANCH  13  14
ATOM     14  N   UNL     1      -3.561  -0.654   3.419  1.00  0.00    -0.335 N 
ATOM     15  C   UNL     1      -6.911  -1.071   1.145  1.00  0.00     0.011 C 
ATOM     16  C   UNL     1      -5.447  -1.512   1.272  1.00  0.00    -0.025 C 
ATOM     17  C   UNL     1      -5.133  -2.379   0.023  1.00  0.00     0.011 C 
ATOM     18  C   UNL     1      -4.578  -0.242   1.252  1.00  0.00     0.068 C 
ATOM     19  C   UNL     1      -5.203  -2.388   2.530  1.00  0.00     0.068 C 
ATOM     20  C   UNL     1      -4.173   0.359   2.578  1.00  0.00     0.262 C 
ATOM     21  C   UNL     1      -4.539  -1.696   3.727  1.00  0.00     0.262 C 
ATOM     22  H   UNL     1      -3.326  -0.226   4.314  1.00  0.00     0.348 HD
ENDBRANCH  13  14
ENDBRANCH  12  13
ENDBRANCH   8  12
BRANCH   7  23
ATOM     23  N   UNL     1       1.090  -1.163   1.631  1.00  0.00    -0.345 N 
ATOM     24  H   UNL     1       0.615  -1.042   2.525  1.00  0.00     0.345 HD
ATOM     25  H   UNL     1       1.927  -0.580   1.608  1.00  0.00     0.345 HD
ATOM     26  H   UNL     1       1.355  -2.142   1.516  1.00  0.00     0.345 HD
ENDBRANCH   7  23
ENDBRANCH   4   7
ENDBRANCH   2   3
ENDBRANCH   1   2
BRANCH   1  27
ATOM     27  C   UNL     1      -0.103  -4.558  -2.972  1.00  0.00     0.023 C 
BRANCH  27  28
ATOM     28  C   UNL     1       1.233  -5.139  -3.392  1.00  0.00     0.116 C 
BRANCH  28  29
ATOM     29  N   UNL     1       1.587  -6.341  -2.654  1.00  0.00    -0.352 N 
ATOM     30  C   UNL     1       2.245  -7.461  -3.112  1.00  0.00     0.251 C 
ATOM     31  H   UNL     1       1.323  -6.356  -1.706  1.00  0.00     0.163 HD
ATOM     32  O   UNL     1       2.384  -8.435  -2.400  1.00  0.00    -0.269 OA
BRANCH  30  33
ATOM     33  C   UNL     1       2.731  -7.459  -4.508  1.00  0.00     0.039 A 
ATOM     34  C   UNL     1       2.380  -8.522  -5.340  1.00  0.00     0.014 A 
ATOM     35  C   UNL     1       3.458  -6.373  -5.003  1.00  0.00     0.014 A 
ATOM     36  C   UNL     1       2.705  -8.463  -6.695  1.00  0.00     0.010 A 
ATOM     37  C   UNL     1       3.702  -6.277  -6.366  1.00  0.00     0.010 A 
ATOM     38  C   UNL     1       3.333  -7.324  -7.224  1.00  0.00    -0.014 A 
BRANCH  38  39
ATOM     39  C   UNL     1       3.623  -7.209  -8.675  1.00  0.00     0.031 A 
ATOM     40  C   UNL     1       5.047  -7.105  -9.145  1.00  0.00     0.074 A 
ATOM     41  C   UNL     1       2.605  -7.132  -9.554  1.00  0.00     0.049 A 
ATOM     42  N   UNL     1       5.505  -6.929 -10.357  1.00  0.00    -0.248 NA
ATOM     43  C   UNL     1       6.095  -7.177  -8.113  1.00  0.00     0.031 C 
ATOM     44  C   UNL     1       1.181  -7.167  -9.209  1.00  0.00     0.029 A 
ATOM     45  N   UNL     1       2.610  -6.999 -10.920  1.00  0.00    -0.354 N 
ATOM     46  C   UNL     1       6.887  -6.856 -10.231  1.00  0.00     0.074 A 
ATOM     47  C   UNL     1       7.190  -6.945  -8.820  1.00  0.00     0.031 C 
ATOM     48  C   UNL     1       0.453  -7.083 -10.334  1.00  0.00     0.029 A 
ATOM     49  C   UNL     1       1.353  -6.948 -11.475  1.00  0.00     0.049 A 
ATOM     50  H   UNL     1       3.436  -6.944 -11.452  1.00  0.00     0.167 HD
ATOM     51  C   UNL     1       7.820  -6.751 -11.206  1.00  0.00     0.037 A 
ATOM     52  C   UNL     1       0.970  -6.802 -12.759  1.00  0.00     0.037 A 
ATOM     53  C   UNL     1       7.508  -6.690 -12.610  1.00  0.00     0.049 A 
ATOM     54  C   UNL     1       2.025  -6.687 -13.825  1.00  0.00     0.074 A 
ATOM     55  C   UNL     1       8.380  -6.644 -13.683  1.00  0.00     0.029 A 
ATOM     56  N   UNL     1       6.224  -6.665 -13.136  1.00  0.00    -0.354 N 
ATOM     57  N   UNL     1       3.331  -6.689 -13.696  1.00  0.00    -0.248 NA
ATOM     58  C   UNL     1       1.559  -6.557 -15.212  1.00  0.00     0.031 C 
ATOM     59  C   UNL     1       7.623  -6.543 -14.855  1.00  0.00     0.029 A 
ATOM     60  C   UNL     1       6.280  -6.582 -14.517  1.00  0.00     0.049 A 
ATOM     61  H   UNL     1       5.395  -6.700 -12.605  1.00  0.00     0.167 HD
ATOM     62  C   UNL     1       3.842  -6.590 -14.986  1.00  0.00     0.074 A 
ATOM     63  C   UNL     1       2.704  -6.541 -15.881  1.00  0.00     0.031 C 
ATOM     64  C   UNL     1       5.135  -6.544 -15.392  1.00  0.00     0.037 A 
BRANCH  51  65
ATOM     65  C   UNL     1       9.264  -6.703 -10.788  1.00  0.00     0.058 A 
ATOM     66  C   UNL     1       9.912  -7.825 -10.244  1.00  0.00     0.135 A 
ATOM     67  C   UNL     1      10.018  -5.532 -10.959  1.00  0.00     0.135 A 
ATOM     68  F   UNL     1       9.234  -8.966 -10.041  1.00  0.00    -0.206 F 
ATOM     69  C   UNL     1      11.247  -7.777  -9.857  1.00  0.00     0.059 A 
ATOM     70  C   UNL     1      11.364  -5.471 -10.607  1.00  0.00     0.059 A 
ATOM     71  F   UNL     1       9.449  -4.429 -11.471  1.00  0.00    -0.206 F 
ATOM     72  C   UNL     1      11.965  -6.596 -10.043  1.00  0.00     0.060 A 
BRANCH  72  73
ATOM     73  S   UNL     1      13.699  -6.555  -9.543  1.00  0.00     0.124 S 
ATOM     74  O   UNL     1      13.582  -6.538  -8.089  1.00  0.00    -0.237 OA
ATOM     75  O   UNL     1      14.219  -7.789 -10.123  1.00  0.00    -0.237 OA
ATOM     76  O   UNL     1      14.198  -5.323 -10.147  1.00  0.00    -0.744 OA
ENDBRANCH  72  73
ENDBRANCH  51  65
BRANCH  52  77
ATOM     77  C   UNL     1      -0.476  -6.779 -13.106  1.00  0.00     0.058 A 
ATOM     78  C   UNL     1      -1.069  -7.844 -13.802  1.00  0.00     0.135 A 
ATOM     79  C   UNL     1      -1.298  -5.702 -12.740  1.00  0.00     0.135 A 
ATOM     80  F   UNL     1      -0.324  -8.895 -14.179  1.00  0.00    -0.206 F 
ATOM     81  C   UNL     1      -2.418  -7.835 -14.139  1.00  0.00     0.059 A 
ATOM     82  C   UNL     1      -2.657  -5.681 -13.042  1.00  0.00     0.059 A 
ATOM     83  F   UNL     1      -0.785  -4.666 -12.058  1.00  0.00    -0.206 F 
ATOM     84  C   UNL     1      -3.205  -6.749 -13.751  1.00  0.00     0.060 A 
BRANCH  84  85
ATOM     85  S   UNL     1      -4.966  -6.769 -14.153  1.00  0.00     0.124 S 
ATOM     86  O   UNL     1      -4.942  -6.531 -15.591  1.00  0.00    -0.237 OA
ATOM     87  O   UNL     1      -5.361  -8.110 -13.733  1.00  0.00    -0.237 OA
ATOM     88  O   UNL     1      -5.507  -5.683 -13.341  1.00  0.00    -0.744 OA
ENDBRANCH  84  85
ENDBRANCH  52  77
BRANCH  64  89
ATOM     89  C   UNL     1       5.394  -6.473 -16.872  1.00  0.00     0.058 A 
ATOM     90  C   UNL     1       5.151  -5.304 -17.610  1.00  0.00     0.135 A 
ATOM     91  C   UNL     1       5.951  -7.571 -17.547  1.00  0.00     0.135 A 
ATOM     92  F   UNL     1       4.613  -4.228 -17.014  1.00  0.00    -0.206 F 
ATOM     93  C   UNL     1       5.431  -5.234 -18.970  1.00  0.00     0.059 A 
ATOM     94  C   UNL     1       6.267  -7.513 -18.900  1.00  0.00     0.059 A 
ATOM     95  F   UNL     1       6.213  -8.710 -16.885  1.00  0.00    -0.206 F 
ATOM     96  C   UNL     1       5.993  -6.343 -19.606  1.00  0.00     0.060 A 
BRANCH  96  97
ATOM     97  S   UNL     1       6.390  -6.224 -21.363  1.00  0.00     0.124 S 
ATOM     98  O   UNL     1       5.063  -6.279 -21.968  1.00  0.00    -0.237 OA
ATOM     99  O   UNL     1       7.070  -4.936 -21.443  1.00  0.00    -0.237 OA
ATOM    100  O   UNL     1       7.237  -7.389 -21.600  1.00  0.00    -0.744 OA
ENDBRANCH  96  97
ENDBRANCH  64  89
ENDBRANCH  38  39
ENDBRANCH  30  33
ENDBRANCH  28  29
ENDBRANCH  27  28
ENDBRANCH   1  27
TORSDOF 18
