REMARK SMILES Cc1cccc2c(C(=O)NCCCCNC(=O)c3ccc(-c4c5nc(c(-c6c(F)cc(S(=O)(=O)[O-])cc6F)c6ccc([nH]6)c(-c6c(F)cc(S(=O)(=O)[O-])cc6F)c6nc(c(-c7c(F)cc(S(=O)(=O)[O-])cc7F)c7ccc4[nH]7)C=C6)C=C5)cc3)cc(=O)[nH]c12
REMARK SMILES IDX 14 1 13 2 12 3 11 4 10 5 8 6 9 7 7 9 1 10 2 11 3 12 88 13
REMARK SMILES IDX 4 14 6 15 87 16 5 17 85 18 84 20 86 21 15 22 16 23 17 25
REMARK SMILES IDX 18 26 19 27 83 28 20 29 82 30 21 31 22 32 23 33 76 34 24 35
REMARK SMILES IDX 81 36 75 37 77 38 25 39 80 40 74 41 73 42 26 44 60 45 39 46
REMARK SMILES IDX 59 47 40 48 43 49 58 50 78 51 41 52 42 53 57 55 79 56 44 57
REMARK SMILES IDX 27 58 28 59 37 60 29 61 30 62 36 63 38 64 31 65 32 66 33 67
REMARK SMILES IDX 34 68 35 69 61 70 62 71 71 72 63 73 64 74 70 75 72 76 65 77
REMARK SMILES IDX 66 78 67 79 68 80 69 81 45 82 46 83 55 84 47 85 48 86 54 87
REMARK SMILES IDX 56 88 49 89 50 90 51 91 52 92 53 93
REMARK H PARENT 10 8 87 19 15 24 77 43 43 54
REMARK Flexibility Score: inf
ROOT
ATOM      1  C   UNL     1      -1.195   0.444  10.593  1.00  0.00     0.116 C 
ENDROOT
BRANCH   1   2
ATOM      2  C   UNL     1      -1.961   0.173   9.305  1.00  0.00     0.023 C 
BRANCH   2   3
ATOM      3  C   UNL     1      -1.352   0.800   8.046  1.00  0.00     0.023 C 
BRANCH   3   4
ATOM      4  C   UNL     1       0.054   0.293   7.704  1.00  0.00     0.116 C 
BRANCH   4   5
ATOM      5  N   UNL     1      -0.016  -1.040   7.137  1.00  0.00    -0.352 N 
ATOM      6  C   UNL     1      -0.168  -1.546   5.882  1.00  0.00     0.252 C 
ATOM      7  O   UNL     1      -0.318  -2.769   5.844  1.00  0.00    -0.269 OA
ATOM      8  H   UNL     1       0.065  -1.745   7.819  1.00  0.00     0.163 HD
BRANCH   6   9
ATOM      9  C   UNL     1      -0.097  -0.727   4.611  1.00  0.00     0.054 A 
ATOM     10  C   UNL     1       0.952  -0.122  -0.324  1.00  0.00     0.046 C 
ATOM     11  C   UNL     1       0.683  -0.999   0.867  1.00  0.00    -0.027 A 
ATOM     12  C   UNL     1       0.758  -2.386   0.698  1.00  0.00     0.005 A 
ATOM     13  C   UNL     1       0.396  -0.488   2.152  1.00  0.00     0.052 A 
ATOM     14  C   UNL     1       0.547  -3.237   1.775  1.00  0.00     0.001 A 
ATOM     15  C   UNL     1       0.209  -1.333   3.271  1.00  0.00     0.011 A 
ATOM     16  N   UNL     1       0.245   0.894   2.318  1.00  0.00    -0.322 N 
ATOM     17  C   UNL     1       0.287  -2.715   3.044  1.00  0.00     0.011 A 
ATOM     18  C   UNL     1      -0.174   1.473   3.471  1.00  0.00     0.249 A 
ATOM     19  H   UNL     1       0.455   1.479   1.555  1.00  0.00     0.170 HD
ATOM     20  C   UNL     1      -0.380   0.586   4.627  1.00  0.00     0.086 A 
ATOM     21  O   UNL     1      -0.356   2.682   3.569  1.00  0.00    -0.270 OA
ENDBRANCH   6   9
ENDBRANCH   4   5
ENDBRANCH   3   4
ENDBRANCH   2   3
ENDBRANCH   1   2
BRANCH   1  22
ATOM     22  N   UNL     1      -1.011   1.860  10.883  1.00  0.00    -0.352 N 
ATOM     23  C   UNL     1      -0.839   2.454  12.116  1.00  0.00     0.251 C 
ATOM     24  H   UNL     1      -1.009   2.465  10.107  1.00  0.00     0.163 HD
ATOM     25  O   UNL     1      -0.777   3.671  12.225  1.00  0.00    -0.269 OA
BRANCH  23  26
ATOM     26  C   UNL     1      -0.789   1.583  13.309  1.00  0.00     0.039 A 
ATOM     27  C   UNL     1       0.062   0.478  13.328  1.00  0.00     0.014 A 
ATOM     28  C   UNL     1      -1.686   1.808  14.356  1.00  0.00     0.014 A 
ATOM     29  C   UNL     1      -0.125  -0.505  14.289  1.00  0.00     0.010 A 
ATOM     30  C   UNL     1      -1.805   0.858  15.375  1.00  0.00     0.010 A 
ATOM     31  C   UNL     1      -1.074  -0.339  15.312  1.00  0.00    -0.014 A 
BRANCH  31  32
ATOM     32  C   UNL     1      -1.305  -1.456  16.267  1.00  0.00     0.031 A 
ATOM     33  C   UNL     1      -2.632  -2.171  16.309  1.00  0.00     0.074 A 
ATOM     34  C   UNL     1      -0.280  -1.890  17.026  1.00  0.00     0.049 A 
ATOM     35  N   UNL     1      -2.981  -3.214  17.021  1.00  0.00    -0.248 NA
ATOM     36  C   UNL     1      -3.708  -1.653  15.449  1.00  0.00     0.031 C 
ATOM     37  C   UNL     1       1.054  -1.284  17.061  1.00  0.00     0.029 A 
ATOM     38  N   UNL     1      -0.180  -2.960  17.878  1.00  0.00    -0.354 N 
ATOM     39  C   UNL     1      -4.312  -3.465  16.707  1.00  0.00     0.074 A 
ATOM     40  C   UNL     1      -4.723  -2.445  15.767  1.00  0.00     0.031 C 
ATOM     41  C   UNL     1       1.856  -2.032  17.832  1.00  0.00     0.029 A 
ATOM     42  C   UNL     1       1.082  -3.132  18.398  1.00  0.00     0.049 A 
ATOM     43  H   UNL     1      -0.938  -3.549  18.095  1.00  0.00     0.167 HD
ATOM     44  C   UNL     1      -5.113  -4.465  17.147  1.00  0.00     0.037 A 
ATOM     45  C   UNL     1       1.564  -4.066  19.240  1.00  0.00     0.037 A 
ATOM     46  C   UNL     1      -4.690  -5.497  18.056  1.00  0.00     0.049 A 
ATOM     47  C   UNL     1       0.644  -5.140  19.746  1.00  0.00     0.074 A 
ATOM     48  C   UNL     1      -5.420  -6.571  18.537  1.00  0.00     0.029 A 
ATOM     49  N   UNL     1      -3.426  -5.590  18.620  1.00  0.00    -0.354 N 
ATOM     50  N   UNL     1      -0.608  -5.365  19.427  1.00  0.00    -0.248 NA
ATOM     51  C   UNL     1       1.192  -6.074  20.738  1.00  0.00     0.031 C 
ATOM     52  C   UNL     1      -4.611  -7.287  19.424  1.00  0.00     0.029 A 
ATOM     53  C   UNL     1      -3.363  -6.686  19.464  1.00  0.00     0.049 A 
ATOM     54  H   UNL     1      -2.683  -4.968  18.445  1.00  0.00     0.167 HD
ATOM     55  C   UNL     1      -0.997  -6.468  20.178  1.00  0.00     0.074 A 
ATOM     56  C   UNL     1       0.158  -6.878  20.949  1.00  0.00     0.031 C 
ATOM     57  C   UNL     1      -2.206  -7.078  20.229  1.00  0.00     0.037 A 
BRANCH  44  58
ATOM     58  C   UNL     1      -6.534  -4.500  16.654  1.00  0.00     0.058 A 
ATOM     59  C   UNL     1      -6.849  -4.884  15.341  1.00  0.00     0.135 A 
ATOM     60  C   UNL     1      -7.599  -4.208  17.523  1.00  0.00     0.135 A 
ATOM     61  F   UNL     1      -5.870  -5.159  14.464  1.00  0.00    -0.206 F 
ATOM     62  C   UNL     1      -8.167  -4.960  14.902  1.00  0.00     0.059 A 
ATOM     63  C   UNL     1      -8.926  -4.301  17.112  1.00  0.00     0.059 A 
ATOM     64  F   UNL     1      -7.354  -3.837  18.790  1.00  0.00    -0.206 F 
ATOM     65  C   UNL     1      -9.199  -4.668  15.795  1.00  0.00     0.060 A 
BRANCH  65  66
ATOM     66  S   UNL     1     -10.903  -4.785  15.209  1.00  0.00     0.124 S 
ATOM     67  O   UNL     1     -10.980  -3.636  14.311  1.00  0.00    -0.237 OA
ATOM     68  O   UNL     1     -10.921  -6.094  14.564  1.00  0.00    -0.237 OA
ATOM     69  O   UNL     1     -11.693  -4.679  16.431  1.00  0.00    -0.744 OA
ENDBRANCH  65  66
ENDBRANCH  44  58
BRANCH  45  70
ATOM     70  C   UNL     1       2.991  -4.016  19.652  1.00  0.00     0.058 A 
ATOM     71  C   UNL     1       3.906  -4.977  19.200  1.00  0.00     0.135 A 
ATOM     72  C   UNL     1       3.476  -2.981  20.466  1.00  0.00     0.135 A 
ATOM     73  F   UNL     1       3.489  -5.989  18.425  1.00  0.00    -0.206 F 
ATOM     74  C   UNL     1       5.254  -4.913  19.539  1.00  0.00     0.059 A 
ATOM     75  C   UNL     1       4.822  -2.881  20.798  1.00  0.00     0.059 A 
ATOM     76  F   UNL     1       2.641  -2.029  20.913  1.00  0.00    -0.206 F 
ATOM     77  C   UNL     1       5.703  -3.856  20.333  1.00  0.00     0.060 A 
BRANCH  77  78
ATOM     78  S   UNL     1       7.466  -3.745  20.709  1.00  0.00     0.124 S 
ATOM     79  O   UNL     1       7.633  -4.841  21.656  1.00  0.00    -0.237 OA
ATOM     80  O   UNL     1       8.071  -3.937  19.395  1.00  0.00    -0.237 OA
ATOM     81  O   UNL     1       7.607  -2.402  21.264  1.00  0.00    -0.744 OA
ENDBRANCH  77  78
ENDBRANCH  45  70
BRANCH  57  82
ATOM     82  C   UNL     1      -2.357  -8.251  21.154  1.00  0.00     0.058 A 
ATOM     83  C   UNL     1      -2.483  -8.070  22.539  1.00  0.00     0.135 A 
ATOM     84  C   UNL     1      -2.480  -9.554  20.645  1.00  0.00     0.135 A 
ATOM     85  F   UNL     1      -2.362  -6.845  23.075  1.00  0.00    -0.206 F 
ATOM     86  C   UNL     1      -2.730  -9.142  23.390  1.00  0.00     0.059 A 
ATOM     87  C   UNL     1      -2.749 -10.637  21.475  1.00  0.00     0.059 A 
ATOM     88  F   UNL     1      -2.373  -9.777  19.326  1.00  0.00    -0.206 F 
ATOM     89  C   UNL     1      -2.873 -10.420  22.847  1.00  0.00     0.060 A 
BRANCH  89  90
ATOM     90  S   UNL     1      -3.273 -11.786  23.958  1.00  0.00     0.124 S 
ATOM     91  O   UNL     1      -2.019 -11.953  24.685  1.00  0.00    -0.237 OA
ATOM     92  O   UNL     1      -4.386 -11.242  24.730  1.00  0.00    -0.237 OA
ATOM     93  O   UNL     1      -3.621 -12.874  23.049  1.00  0.00    -0.744 OA
ENDBRANCH  89  90
ENDBRANCH  57  82
ENDBRANCH  31  32
ENDBRANCH  23  26
ENDBRANCH   1  22
TORSDOF 14
