REMARK SMILES CCC(CC)([NH2+]Cc1ccc(I)cc1)C(=O)NCCCCNC(=O)c1ccc(-c2c3nc(c(-c4c(F)cc(S(=O)(=O)[O-])cc4F)c4ccc([nH]4)c(-c4c(F)cc(S(=O)(=O)[O-])cc4F)c4nc(c(-c5c(F)cc(S(=O)(=O)[O-])cc5F)c5ccc2[nH]5)C=C4)C=C3)cc1
REMARK SMILES IDX 19 1 18 2 17 3 15 4 16 5 3 7 2 8 1 9 4 10 5 11 6 12 7 15
REMARK SMILES IDX 8 16 9 17 14 18 10 19 13 20 11 21 12 22 20 23 21 24 22 25
REMARK SMILES IDX 23 26 24 28 25 29 26 30 90 31 27 32 89 33 28 34 29 35 30 36
REMARK SMILES IDX 83 37 31 38 88 39 82 40 84 41 32 42 87 43 81 44 80 45 33 47
REMARK SMILES IDX 67 48 46 49 66 50 47 51 50 52 65 53 85 54 48 55 49 56 64 58
REMARK SMILES IDX 86 59 51 60 34 61 35 62 44 63 36 64 37 65 43 66 45 67 38 68
REMARK SMILES IDX 39 69 40 70 41 71 42 72 68 73 69 74 78 75 70 76 71 77 77 78
REMARK SMILES IDX 79 79 72 80 73 81 74 82 75 83 76 84 52 85 53 86 62 87 54 88
REMARK SMILES IDX 55 89 61 90 63 91 56 92 57 93 58 94 59 95 60 96
REMARK H PARENT 17 6 6 13 6 14 22 27 84 46 50 57
REMARK Flexibility Score: inf
ROOT
ATOM      1  C   UNL     1       3.047  -5.635   1.054  1.00  0.00     0.023 C 
ENDROOT
BRANCH   1   2
ATOM      2  C   UNL     1       2.883  -4.217   1.620  1.00  0.00     0.116 C 
BRANCH   2   3
ATOM      3  N   UNL     1       3.080  -3.252   0.566  1.00  0.00    -0.351 N 
ATOM      4  C   UNL     1       2.212  -2.619  -0.266  1.00  0.00     0.281 C 
ATOM      5  O   UNL     1       2.746  -2.248  -1.322  1.00  0.00    -0.268 OA
ATOM      6  H   UNL     1       4.022  -3.005   0.421  1.00  0.00     0.163 HD
BRANCH   4   7
ATOM      7  C   UNL     1       0.708  -2.247   0.072  1.00  0.00     0.175 C 
BRANCH   7   8
ATOM      8  C   UNL     1       0.265  -1.283  -1.111  1.00  0.00     0.076 C 
ATOM      9  C   UNL     1       0.889   0.118  -1.121  1.00  0.00     0.011 C 
ENDBRANCH   7   8
BRANCH   7  10
ATOM     10  C   UNL     1       0.588  -1.472   1.408  1.00  0.00     0.076 C 
ATOM     11  C   UNL     1      -0.794  -0.854   1.679  1.00  0.00     0.011 C 
ENDBRANCH   7  10
BRANCH   7  12
ATOM     12  N   UNL     1      -0.286  -3.348  -0.052  1.00  0.00    -0.330 N 
ATOM     13  H   UNL     1      -0.448  -3.435  -1.056  1.00  0.00     0.347 HD
ATOM     14  H   UNL     1      -0.972  -3.009   0.622  1.00  0.00     0.347 HD
BRANCH  12  15
ATOM     15  C   UNL     1      -0.178  -4.712   0.420  1.00  0.00     0.298 C 
BRANCH  15  16
ATOM     16  C   UNL     1      -0.479  -5.086   1.865  1.00  0.00     0.006 A 
ATOM     17  C   UNL     1      -0.847  -4.193   2.874  1.00  0.00     0.010 A 
ATOM     18  C   UNL     1      -0.372  -6.442   2.234  1.00  0.00     0.010 A 
ATOM     19  C   UNL     1      -1.018  -4.598   4.205  1.00  0.00     0.015 A 
ATOM     20  C   UNL     1      -0.567  -6.867   3.557  1.00  0.00     0.015 A 
ATOM     21  C   UNL     1      -0.874  -5.937   4.543  1.00  0.00     0.013 A 
ATOM     22  I   UNL     1      -1.130  -6.536   6.514  1.00  0.00    -0.044 I 
ENDBRANCH  15  16
ENDBRANCH  12  15
ENDBRANCH   7  12
ENDBRANCH   4   7
ENDBRANCH   2   3
ENDBRANCH   1   2
BRANCH   1  23
ATOM     23  C   UNL     1       4.473  -6.173   1.036  1.00  0.00     0.023 C 
BRANCH  23  24
ATOM     24  C   UNL     1       5.078  -6.400   2.411  1.00  0.00     0.116 C 
BRANCH  24  25
ATOM     25  N   UNL     1       4.308  -7.315   3.246  1.00  0.00    -0.352 N 
ATOM     26  C   UNL     1       4.783  -8.249   4.138  1.00  0.00     0.251 C 
ATOM     27  H   UNL     1       3.329  -7.256   3.162  1.00  0.00     0.163 HD
ATOM     28  O   UNL     1       4.014  -9.020   4.704  1.00  0.00    -0.269 OA
BRANCH  26  29
ATOM     29  C   UNL     1       6.240  -8.334   4.360  1.00  0.00     0.039 A 
ATOM     30  C   UNL     1       6.878  -9.568   4.226  1.00  0.00     0.014 A 
ATOM     31  C   UNL     1       6.980  -7.173   4.600  1.00  0.00     0.014 A 
ATOM     32  C   UNL     1       8.272  -9.623   4.249  1.00  0.00     0.010 A 
ATOM     33  C   UNL     1       8.366  -7.218   4.531  1.00  0.00     0.010 A 
ATOM     34  C   UNL     1       9.027  -8.443   4.354  1.00  0.00    -0.014 A 
BRANCH  34  35
ATOM     35  C   UNL     1      10.510  -8.460   4.285  1.00  0.00     0.031 A 
ATOM     36  C   UNL     1      11.317  -7.981   5.460  1.00  0.00     0.074 A 
ATOM     37  C   UNL     1      11.123  -8.823   3.141  1.00  0.00     0.049 A 
ATOM     38  N   UNL     1      12.611  -7.826   5.565  1.00  0.00    -0.248 NA
ATOM     39  C   UNL     1      10.566  -7.588   6.664  1.00  0.00     0.031 C 
ATOM     40  C   UNL     1      10.447  -9.242   1.910  1.00  0.00     0.029 A 
ATOM     41  N   UNL     1      12.457  -8.886   2.822  1.00  0.00    -0.354 N 
ATOM     42  C   UNL     1      12.826  -7.301   6.834  1.00  0.00     0.074 A 
ATOM     43  C   UNL     1      11.526  -7.106   7.437  1.00  0.00     0.031 C 
ATOM     44  C   UNL     1      11.369  -9.540   0.980  1.00  0.00     0.029 A 
ATOM     45  C   UNL     1      12.699  -9.302   1.534  1.00  0.00     0.049 A 
ATOM     46  H   UNL     1      13.173  -8.655   3.456  1.00  0.00     0.167 HD
ATOM     47  C   UNL     1      14.000  -7.034   7.452  1.00  0.00     0.037 A 
ATOM     48  C   UNL     1      13.861  -9.469   0.873  1.00  0.00     0.037 A 
ATOM     49  C   UNL     1      15.290  -7.267   6.860  1.00  0.00     0.049 A 
ATOM     50  C   UNL     1      15.155  -9.196   1.590  1.00  0.00     0.074 A 
ATOM     51  C   UNL     1      16.541  -7.089   7.424  1.00  0.00     0.029 A 
ATOM     52  N   UNL     1      15.495  -7.735   5.570  1.00  0.00    -0.354 N 
ATOM     53  N   UNL     1      15.342  -8.760   2.813  1.00  0.00    -0.248 NA
ATOM     54  C   UNL     1      16.395  -9.446   0.843  1.00  0.00     0.031 C 
ATOM     55  C   UNL     1      17.503  -7.420   6.463  1.00  0.00     0.029 A 
ATOM     56  C   UNL     1      16.851  -7.843   5.315  1.00  0.00     0.049 A 
ATOM     57  H   UNL     1      14.780  -7.957   4.930  1.00  0.00     0.167 HD
ATOM     58  C   UNL     1      16.720  -8.705   2.991  1.00  0.00     0.074 A 
ATOM     59  C   UNL     1      17.318  -9.164   1.754  1.00  0.00     0.031 C 
ATOM     60  C   UNL     1      17.426  -8.311   4.079  1.00  0.00     0.037 A 
BRANCH  47  61
ATOM     61  C   UNL     1      13.935  -6.476   8.847  1.00  0.00     0.058 A 
ATOM     62  C   UNL     1      13.507  -7.260   9.932  1.00  0.00     0.135 A 
ATOM     63  C   UNL     1      14.313  -5.150   9.107  1.00  0.00     0.135 A 
ATOM     64  F   UNL     1      13.117  -8.529   9.736  1.00  0.00    -0.206 F 
ATOM     65  C   UNL     1      13.419  -6.737  11.217  1.00  0.00     0.059 A 
ATOM     66  C   UNL     1      14.261  -4.614  10.391  1.00  0.00     0.059 A 
ATOM     67  F   UNL     1      14.730  -4.356   8.108  1.00  0.00    -0.206 F 
ATOM     68  C   UNL     1      13.795  -5.411  11.436  1.00  0.00     0.060 A 
BRANCH  68  69
ATOM     69  S   UNL     1      13.668  -4.745  13.109  1.00  0.00     0.124 S 
ATOM     70  O   UNL     1      12.226  -4.556  13.237  1.00  0.00    -0.237 OA
ATOM     71  O   UNL     1      14.241  -5.816  13.918  1.00  0.00    -0.237 OA
ATOM     72  O   UNL     1      14.459  -3.520  13.047  1.00  0.00    -0.744 OA
ENDBRANCH  68  69
ENDBRANCH  47  61
BRANCH  48  73
ATOM     73  C   UNL     1      13.852  -9.949  -0.534  1.00  0.00     0.058 A 
ATOM     74  C   UNL     1      14.263 -11.251  -0.853  1.00  0.00     0.135 A 
ATOM     75  C   UNL     1      13.414  -9.126  -1.584  1.00  0.00     0.135 A 
ATOM     76  F   UNL     1      14.696 -12.073   0.115  1.00  0.00    -0.206 F 
ATOM     77  C   UNL     1      14.254 -11.719  -2.163  1.00  0.00     0.059 A 
ATOM     78  C   UNL     1      13.374  -9.579  -2.899  1.00  0.00     0.059 A 
ATOM     79  F   UNL     1      12.993  -7.878  -1.329  1.00  0.00    -0.206 F 
ATOM     80  C   UNL     1      13.805 -10.875  -3.180  1.00  0.00     0.060 A 
BRANCH  80  81
ATOM     81  S   UNL     1      13.744 -11.511  -4.870  1.00  0.00     0.124 S 
ATOM     82  O   UNL     1      15.155 -11.506  -5.236  1.00  0.00    -0.237 OA
ATOM     83  O   UNL     1      13.137 -12.825  -4.683  1.00  0.00    -0.237 OA
ATOM     84  O   UNL     1      12.907 -10.536  -5.564  1.00  0.00    -0.744 OA
ENDBRANCH  80  81
ENDBRANCH  48  73
BRANCH  60  85
ATOM     85  C   UNL     1      18.924  -8.386   3.995  1.00  0.00     0.058 A 
ATOM     86  C   UNL     1      19.667  -7.462   3.245  1.00  0.00     0.135 A 
ATOM     87  C   UNL     1      19.627  -9.361   4.721  1.00  0.00     0.135 A 
ATOM     88  F   UNL     1      19.041  -6.514   2.529  1.00  0.00    -0.206 F 
ATOM     89  C   UNL     1      21.056  -7.512   3.203  1.00  0.00     0.059 A 
ATOM     90  C   UNL     1      21.017  -9.415   4.713  1.00  0.00     0.059 A 
ATOM     91  F   UNL     1      18.963 -10.262   5.462  1.00  0.00    -0.206 F 
ATOM     92  C   UNL     1      21.723  -8.492   3.942  1.00  0.00     0.060 A 
BRANCH  92  93
ATOM     93  S   UNL     1      23.527  -8.523   3.910  1.00  0.00     0.124 S 
ATOM     94  O   UNL     1      23.788  -9.098   2.595  1.00  0.00    -0.237 OA
ATOM     95  O   UNL     1      23.868  -7.112   4.065  1.00  0.00    -0.237 OA
ATOM     96  O   UNL     1      23.872  -9.372   5.047  1.00  0.00    -0.744 OA
ENDBRANCH  92  93
ENDBRANCH  60  85
ENDBRANCH  34  35
ENDBRANCH  26  29
ENDBRANCH  24  25
ENDBRANCH  23  24
ENDBRANCH   1  23
TORSDOF 19
