REMARK SMILES O=C(CSC(=S)N1CCCCC1)NCCCCNC(=O)c1ccc(-c2c3nc(c(-c4c(F)cc(S(=O)(=O)[O-])cc4F)c4ccc([nH]4)c(-c4c(F)cc(S(=O)(=O)[O-])cc4F)c4nc(c(-c5c(F)cc(S(=O)(=O)[O-])cc5F)c5ccc2[nH]5)C=C4)C=C3)cc1
REMARK SMILES IDX 15 1 14 2 13 3 1 4 2 5 3 7 4 8 5 9 6 10 7 11 8 12 12 13 9 14
REMARK SMILES IDX 11 15 10 16 16 17 17 18 18 19 19 20 20 22 21 23 22 24 86 25
REMARK SMILES IDX 23 26 85 27 24 28 25 29 26 30 79 31 27 32 84 33 78 34 80 35
REMARK SMILES IDX 28 36 83 37 77 38 76 39 29 41 63 42 42 43 62 44 43 45 46 46
REMARK SMILES IDX 61 47 81 48 44 49 45 50 60 52 82 53 47 54 30 55 31 56 40 57
REMARK SMILES IDX 32 58 33 59 39 60 41 61 34 62 35 63 36 64 37 65 38 66 64 67
REMARK SMILES IDX 65 68 74 69 66 70 67 71 73 72 75 73 68 74 69 75 70 76 71 77
REMARK SMILES IDX 72 78 48 79 49 80 58 81 50 82 51 83 57 84 59 85 52 86 53 87
REMARK SMILES IDX 54 88 55 89 56 90
REMARK H PARENT 13 6 18 21 80 40 46 51
REMARK Flexibility Score: inf
ROOT
ATOM      1  C   UNL     1       2.546   1.190  -3.144  1.00  0.00     0.023 C 
ENDROOT
BRANCH   1   2
ATOM      2  C   UNL     1       2.165  -0.081  -2.388  1.00  0.00     0.116 C 
BRANCH   2   3
ATOM      3  N   UNL     1       2.832  -0.203  -1.108  1.00  0.00    -0.355 N 
ATOM      4  O   UNL     1       1.045   0.494   0.146  1.00  0.00    -0.274 OA
ATOM      5  C   UNL     1       2.181   0.024   0.087  1.00  0.00     0.230 C 
ATOM      6  H   UNL     1       3.783  -0.456  -1.090  1.00  0.00     0.163 HD
BRANCH   5   7
ATOM      7  C   UNL     1       2.986  -0.247   1.350  1.00  0.00     0.177 C 
BRANCH   7   8
ATOM      8  S   UNL     1       4.120  -1.655   1.236  1.00  0.00    -0.087 SA
BRANCH   8   9
ATOM      9  C   UNL     1       3.100  -3.096   1.255  1.00  0.00     0.136 C 
ATOM     10  S   UNL     1       1.442  -3.145   1.016  1.00  0.00    -0.053 S 
BRANCH   9  11
ATOM     11  N   UNL     1       3.852  -4.259   1.409  1.00  0.00    -0.358 N 
ATOM     12  C   UNL     1       3.769  -5.360   0.447  1.00  0.00     0.118 C 
ATOM     13  C   UNL     1       4.844  -4.426   2.475  1.00  0.00     0.118 C 
ATOM     14  C   UNL     1       3.546  -6.698   1.139  1.00  0.00     0.021 C 
ATOM     15  C   UNL     1       4.624  -5.752   3.206  1.00  0.00     0.021 C 
ATOM     16  C   UNL     1       4.587  -6.930   2.233  1.00  0.00     0.004 C 
ENDBRANCH   9  11
ENDBRANCH   8   9
ENDBRANCH   7   8
ENDBRANCH   5   7
ENDBRANCH   2   3
ENDBRANCH   1   2
BRANCH   1  17
ATOM     17  C   UNL     1       4.028   1.312  -3.506  1.00  0.00     0.023 C 
BRANCH  17  18
ATOM     18  C   UNL     1       4.615   0.151  -4.304  1.00  0.00     0.116 C 
BRANCH  18  19
ATOM     19  N   UNL     1       3.996  -0.021  -5.609  1.00  0.00    -0.352 N 
ATOM     20  C   UNL     1       4.584  -0.160  -6.845  1.00  0.00     0.251 C 
ATOM     21  H   UNL     1       3.012  -0.039  -5.608  1.00  0.00     0.163 HD
ATOM     22  O   UNL     1       3.883  -0.168  -7.855  1.00  0.00    -0.269 OA
BRANCH  20  23
ATOM     23  C   UNL     1       6.057  -0.267  -6.969  1.00  0.00     0.039 A 
ATOM     24  C   UNL     1       6.706   0.474  -7.961  1.00  0.00     0.014 A 
ATOM     25  C   UNL     1       6.800  -1.088  -6.117  1.00  0.00     0.014 A 
ATOM     26  C   UNL     1       8.101   0.450  -8.049  1.00  0.00     0.010 A 
ATOM     27  C   UNL     1       8.194  -1.052  -6.156  1.00  0.00     0.010 A 
ATOM     28  C   UNL     1       8.861  -0.279  -7.119  1.00  0.00    -0.014 A 
BRANCH  28  29
ATOM     29  C   UNL     1      10.349  -0.232  -7.130  1.00  0.00     0.031 A 
ATOM     30  C   UNL     1      11.150  -1.482  -7.378  1.00  0.00     0.074 A 
ATOM     31  C   UNL     1      10.982   0.926  -6.852  1.00  0.00     0.049 A 
ATOM     32  N   UNL     1      12.448  -1.651  -7.353  1.00  0.00    -0.248 NA
ATOM     33  C   UNL     1      10.393  -2.710  -7.667  1.00  0.00     0.031 C 
ATOM     34  C   UNL     1      10.322   2.199  -6.548  1.00  0.00     0.029 A 
ATOM     35  N   UNL     1      12.320   1.221  -6.766  1.00  0.00    -0.354 N 
ATOM     36  C   UNL     1      12.662  -3.000  -7.613  1.00  0.00     0.074 A 
ATOM     37  C   UNL     1      11.358  -3.616  -7.736  1.00  0.00     0.031 C 
ATOM     38  C   UNL     1      11.256   3.138  -6.329  1.00  0.00     0.029 A 
ATOM     39  C   UNL     1      12.579   2.531  -6.433  1.00  0.00     0.049 A 
ATOM     40  H   UNL     1      13.029   0.557  -6.927  1.00  0.00     0.167 HD
ATOM     41  C   UNL     1      13.836  -3.661  -7.760  1.00  0.00     0.037 A 
ATOM     42  C   UNL     1      13.746   3.171  -6.222  1.00  0.00     0.037 A 
ATOM     43  C   UNL     1      15.131  -3.039  -7.653  1.00  0.00     0.049 A 
ATOM     44  C   UNL     1      15.038   2.413  -6.376  1.00  0.00     0.074 A 
ATOM     45  C   UNL     1      16.378  -3.614  -7.834  1.00  0.00     0.029 A 
ATOM     46  N   UNL     1      15.350  -1.707  -7.332  1.00  0.00    -0.354 N 
ATOM     47  N   UNL     1      15.221   1.150  -6.683  1.00  0.00    -0.248 NA
ATOM     48  C   UNL     1      16.282   3.165  -6.162  1.00  0.00     0.031 C 
ATOM     49  C   UNL     1      17.350  -2.643  -7.573  1.00  0.00     0.029 A 
ATOM     50  C   UNL     1      16.711  -1.448  -7.287  1.00  0.00     0.049 A 
ATOM     51  H   UNL     1      14.643  -1.044  -7.161  1.00  0.00     0.167 HD
ATOM     52  C   UNL     1      16.599   0.966  -6.728  1.00  0.00     0.074 A 
ATOM     53  C   UNL     1      17.201   2.248  -6.429  1.00  0.00     0.031 C 
ATOM     54  C   UNL     1      17.301  -0.164  -6.995  1.00  0.00     0.037 A 
BRANCH  41  55
ATOM     55  C   UNL     1      13.776  -5.136  -8.056  1.00  0.00     0.058 A 
ATOM     56  C   UNL     1      13.310  -5.623  -9.288  1.00  0.00     0.135 A 
ATOM     57  C   UNL     1      14.226  -6.074  -7.112  1.00  0.00     0.135 A 
ATOM     58  F   UNL     1      12.854  -4.774 -10.223  1.00  0.00    -0.206 F 
ATOM     59  C   UNL     1      13.262  -6.986  -9.562  1.00  0.00     0.059 A 
ATOM     60  C   UNL     1      14.217  -7.441  -7.377  1.00  0.00     0.059 A 
ATOM     61  F   UNL     1      14.683  -5.666  -5.918  1.00  0.00    -0.206 F 
ATOM     62  C   UNL     1      13.718  -7.888  -8.599  1.00  0.00     0.060 A 
BRANCH  62  63
ATOM     63  S   UNL     1      13.650  -9.653  -8.973  1.00  0.00     0.124 S 
ATOM     64  O   UNL     1      12.215  -9.908  -8.907  1.00  0.00    -0.237 OA
ATOM     65  O   UNL     1      14.244  -9.713 -10.304  1.00  0.00    -0.237 OA
ATOM     66  O   UNL     1      14.444 -10.257  -7.907  1.00  0.00    -0.744 OA
ENDBRANCH  62  63
ENDBRANCH  41  55
BRANCH  42  67
ATOM     67  C   UNL     1      13.748   4.613  -5.854  1.00  0.00     0.058 A 
ATOM     68  C   UNL     1      14.218   5.588  -6.747  1.00  0.00     0.135 A 
ATOM     69  C   UNL     1      13.272   5.047  -4.606  1.00  0.00     0.135 A 
ATOM     70  F   UNL     1      14.691   5.224  -7.949  1.00  0.00    -0.206 F 
ATOM     71  C   UNL     1      14.233   6.938  -6.411  1.00  0.00     0.059 A 
ATOM     72  C   UNL     1      13.250   6.394  -4.259  1.00  0.00     0.059 A 
ATOM     73  F   UNL     1      12.797   4.157  -3.721  1.00  0.00    -0.206 F 
ATOM     74  C   UNL     1      13.744   7.332  -5.165  1.00  0.00     0.060 A 
BRANCH  74  75
ATOM     75  S   UNL     1      13.725   9.091  -4.758  1.00  0.00     0.124 S 
ATOM     76  O   UNL     1      15.143   9.360  -4.554  1.00  0.00    -0.237 OA
ATOM     77  O   UNL     1      13.129   9.675  -5.955  1.00  0.00    -0.237 OA
ATOM     78  O   UNL     1      12.893   9.149  -3.560  1.00  0.00    -0.744 OA
ENDBRANCH  74  75
ENDBRANCH  42  67
BRANCH  54  79
ATOM     79  C   UNL     1      18.802  -0.062  -7.014  1.00  0.00     0.058 A 
ATOM     80  C   UNL     1      19.549   0.108  -5.838  1.00  0.00     0.135 A 
ATOM     81  C   UNL     1      19.506  -0.191  -8.223  1.00  0.00     0.135 A 
ATOM     82  F   UNL     1      18.928   0.243  -4.656  1.00  0.00    -0.206 F 
ATOM     83  C   UNL     1      20.939   0.172  -5.863  1.00  0.00     0.059 A 
ATOM     84  C   UNL     1      20.896  -0.162  -8.268  1.00  0.00     0.059 A 
ATOM     85  F   UNL     1      18.842  -0.367  -9.377  1.00  0.00    -0.206 F 
ATOM     86  C   UNL     1      21.604   0.032  -7.083  1.00  0.00     0.060 A 
BRANCH  86  87
ATOM     87  S   UNL     1      23.409   0.081  -7.095  1.00  0.00     0.124 S 
ATOM     88  O   UNL     1      23.667   1.496  -6.851  1.00  0.00    -0.237 OA
ATOM     89  O   UNL     1      23.752  -0.824  -6.002  1.00  0.00    -0.237 OA
ATOM     90  O   UNL     1      23.754  -0.400  -8.430  1.00  0.00    -0.744 OA
ENDBRANCH  86  87
ENDBRANCH  54  79
ENDBRANCH  28  29
ENDBRANCH  20  23
ENDBRANCH  18  19
ENDBRANCH  17  18
ENDBRANCH   1  17
TORSDOF 17
