REMARK SMILES O=C(NCCCCNC(=O)[C@@H]1C[NH2+]CCN1C(=O)N[C@@H]1CCOC1)c1ccc(-c2c3nc(c(-c4c(F)cc(S(=O)(=O)[O-])cc4F)c4ccc([nH]4)c(-c4c(F)cc(S(=O)(=O)[O-])cc4F)c4nc(c(-c5c(F)cc(S(=O)(=O)[O-])cc5F)c5ccc2[nH]5)C=C4)C=C3)cc1
REMARK SMILES IDX 5 1 4 2 3 3 1 4 2 5 25 7 26 8 90 9 27 10 89 11 28 12 29 13
REMARK SMILES IDX 30 14 83 15 31 16 88 17 82 18 84 19 32 20 87 21 81 22 80 23
REMARK SMILES IDX 33 25 67 26 46 27 66 28 47 29 50 30 65 31 85 32 48 33 49 34
REMARK SMILES IDX 64 36 86 37 51 38 34 39 35 40 44 41 36 42 37 43 43 44 45 45
REMARK SMILES IDX 38 46 39 47 40 48 41 49 42 50 68 51 69 52 78 53 70 54 71 55
REMARK SMILES IDX 77 56 79 57 72 58 73 59 74 60 75 61 76 62 52 63 53 64 62 65
REMARK SMILES IDX 54 66 55 67 61 68 63 69 56 70 57 71 58 72 59 73 60 74 6 75
REMARK SMILES IDX 7 76 8 77 9 78 10 80 11 81 12 82 16 83 13 84 15 85 14 86
REMARK SMILES IDX 17 89 18 90 19 91 20 93 21 94 24 95 22 96 23 97
REMARK H PARENT 3 6 84 24 50 35 8 79 13 87 13 88 19 92
REMARK Flexibility Score: inf
ROOT
ATOM      1  C   UNL     1       4.264  -0.286  -2.711  1.00  0.00     0.023 C 
ENDROOT
BRANCH   1   2
ATOM      2  C   UNL     1       4.144   0.265  -1.297  1.00  0.00     0.116 C 
BRANCH   2   3
ATOM      3  N   UNL     1       2.761   0.412  -0.873  1.00  0.00    -0.352 N 
ATOM      4  O   UNL     1       0.921   0.010   0.363  1.00  0.00    -0.269 OA
ATOM      5  C   UNL     1       2.142  -0.076   0.250  1.00  0.00     0.251 C 
ATOM      6  H   UNL     1       2.188   0.936  -1.477  1.00  0.00     0.163 HD
BRANCH   5   7
ATOM      7  C   UNL     1       2.950  -0.719   1.305  1.00  0.00     0.039 A 
ATOM      8  C   UNL     1       4.146  -0.137   1.726  1.00  0.00     0.014 A 
ATOM      9  C   UNL     1       2.510  -1.919   1.871  1.00  0.00     0.014 A 
ATOM     10  C   UNL     1       4.972  -0.824   2.604  1.00  0.00     0.010 A 
ATOM     11  C   UNL     1       3.297  -2.561   2.831  1.00  0.00     0.010 A 
ATOM     12  C   UNL     1       4.546  -2.030   3.187  1.00  0.00    -0.014 A 
BRANCH  12  13
ATOM     13  C   UNL     1       5.400  -2.655   4.227  1.00  0.00     0.031 A 
ATOM     14  C   UNL     1       6.031  -4.003   4.022  1.00  0.00     0.074 A 
ATOM     15  C   UNL     1       5.643  -1.950   5.350  1.00  0.00     0.049 A 
ATOM     16  N   UNL     1       6.843  -4.656   4.814  1.00  0.00    -0.248 NA
ATOM     17  C   UNL     1       5.706  -4.718   2.777  1.00  0.00     0.031 C 
ATOM     18  C   UNL     1       5.056  -0.642   5.663  1.00  0.00     0.029 A 
ATOM     19  N   UNL     1       6.459  -2.208   6.419  1.00  0.00    -0.354 N 
ATOM     20  C   UNL     1       7.124  -5.856   4.171  1.00  0.00     0.074 A 
ATOM     21  C   UNL     1       6.367  -5.857   2.937  1.00  0.00     0.031 C 
ATOM     22  C   UNL     1       5.573  -0.189   6.813  1.00  0.00     0.029 A 
ATOM     23  C   UNL     1       6.475  -1.198   7.352  1.00  0.00     0.049 A 
ATOM     24  H   UNL     1       6.984  -3.036   6.510  1.00  0.00     0.167 HD
ATOM     25  C   UNL     1       7.948  -6.855   4.571  1.00  0.00     0.037 A 
ATOM     26  C   UNL     1       7.130  -1.100   8.523  1.00  0.00     0.037 A 
ATOM     27  C   UNL     1       8.698  -6.838   5.803  1.00  0.00     0.049 A 
ATOM     28  C   UNL     1       8.034  -2.222   8.940  1.00  0.00     0.074 A 
ATOM     29  C   UNL     1       9.560  -7.800   6.301  1.00  0.00     0.029 A 
ATOM     30  N   UNL     1       8.678  -5.805   6.731  1.00  0.00    -0.354 N 
ATOM     31  N   UNL     1       8.296  -3.343   8.310  1.00  0.00    -0.248 NA
ATOM     32  C   UNL     1       8.731  -2.070  10.222  1.00  0.00     0.031 C 
ATOM     33  C   UNL     1      10.035  -7.365   7.544  1.00  0.00     0.029 A 
ATOM     34  C   UNL     1       9.505  -6.110   7.800  1.00  0.00     0.049 A 
ATOM     35  H   UNL     1       8.154  -4.977   6.641  1.00  0.00     0.167 HD
ATOM     36  C   UNL     1       9.193  -4.029   9.119  1.00  0.00     0.074 A 
ATOM     37  C   UNL     1       9.453  -3.180  10.265  1.00  0.00     0.031 C 
ATOM     38  C   UNL     1       9.743  -5.255   8.936  1.00  0.00     0.037 A 
BRANCH  25  39
ATOM     39  C   UNL     1       8.085  -8.056   3.673  1.00  0.00     0.058 A 
ATOM     40  C   UNL     1       8.791  -7.989   2.461  1.00  0.00     0.135 A 
ATOM     41  C   UNL     1       7.556  -9.300   4.053  1.00  0.00     0.135 A 
ATOM     42  F   UNL     1       9.303  -6.822   2.041  1.00  0.00    -0.206 F 
ATOM     43  C   UNL     1       8.955  -9.109   1.651  1.00  0.00     0.059 A 
ATOM     44  C   UNL     1       7.728 -10.439   3.269  1.00  0.00     0.059 A 
ATOM     45  F   UNL     1       6.871  -9.422   5.200  1.00  0.00    -0.206 F 
ATOM     46  C   UNL     1       8.421 -10.331   2.064  1.00  0.00     0.060 A 
BRANCH  46  47
ATOM     47  S   UNL     1       8.660 -11.777   1.010  1.00  0.00     0.124 S 
ATOM     48  O   UNL     1       7.754 -11.482  -0.097  1.00  0.00    -0.237 OA
ATOM     49  O   UNL     1      10.084 -11.705   0.698  1.00  0.00    -0.237 OA
ATOM     50  O   UNL     1       8.264 -12.891   1.865  1.00  0.00    -0.744 OA
ENDBRANCH  46  47
ENDBRANCH  25  39
BRANCH  26  51
ATOM     51  C   UNL     1       6.930   0.096   9.382  1.00  0.00     0.058 A 
ATOM     52  C   UNL     1       7.957   1.027   9.588  1.00  0.00     0.135 A 
ATOM     53  C   UNL     1       5.691   0.341   9.997  1.00  0.00     0.135 A 
ATOM     54  F   UNL     1       9.158   0.839   9.021  1.00  0.00    -0.206 F 
ATOM     55  C   UNL     1       7.772   2.148  10.392  1.00  0.00     0.059 A 
ATOM     56  C   UNL     1       5.472   1.469  10.778  1.00  0.00     0.059 A 
ATOM     57  F   UNL     1       4.668  -0.508   9.811  1.00  0.00    -0.206 F 
ATOM     58  C   UNL     1       6.524   2.359  10.982  1.00  0.00     0.060 A 
BRANCH  58  59
ATOM     59  S   UNL     1       6.277   3.834  11.993  1.00  0.00     0.124 S 
ATOM     60  O   UNL     1       6.963   3.462  13.225  1.00  0.00    -0.237 OA
ATOM     61  O   UNL     1       6.920   4.870  11.191  1.00  0.00    -0.237 OA
ATOM     62  O   UNL     1       4.824   3.936  12.085  1.00  0.00    -0.744 OA
ENDBRANCH  58  59
ENDBRANCH  26  51
BRANCH  38  63
ATOM     63  C   UNL     1      10.692  -5.734   9.998  1.00  0.00     0.058 A 
ATOM     64  C   UNL     1      10.235  -6.131  11.265  1.00  0.00     0.135 A 
ATOM     65  C   UNL     1      12.071  -5.800   9.745  1.00  0.00     0.135 A 
ATOM     66  F   UNL     1       8.926  -6.078  11.559  1.00  0.00    -0.206 F 
ATOM     67  C   UNL     1      11.117  -6.541  12.258  1.00  0.00     0.059 A 
ATOM     68  C   UNL     1      12.968  -6.234  10.715  1.00  0.00     0.059 A 
ATOM     69  F   UNL     1      12.557  -5.441   8.547  1.00  0.00    -0.206 F 
ATOM     70  C   UNL     1      12.483  -6.584  11.975  1.00  0.00     0.060 A 
BRANCH  70  71
ATOM     71  S   UNL     1      13.620  -7.117  13.271  1.00  0.00     0.124 S 
ATOM     72  O   UNL     1      13.663  -5.936  14.127  1.00  0.00    -0.237 OA
ATOM     73  O   UNL     1      12.937  -8.280  13.829  1.00  0.00    -0.237 OA
ATOM     74  O   UNL     1      14.851  -7.410  12.543  1.00  0.00    -0.744 OA
ENDBRANCH  70  71
ENDBRANCH  38  63
ENDBRANCH  12  13
ENDBRANCH   5   7
ENDBRANCH   2   3
ENDBRANCH   1   2
BRANCH   1  75
ATOM     75  C   UNL     1       3.515   0.516  -3.781  1.00  0.00     0.023 C 
BRANCH  75  76
ATOM     76  C   UNL     1       3.817   2.020  -3.783  1.00  0.00     0.116 C 
BRANCH  76  77
ATOM     77  N   UNL     1       5.238   2.270  -3.904  1.00  0.00    -0.354 N 
ATOM     78  C   UNL     1       5.851   2.035  -5.114  1.00  0.00     0.248 C 
ATOM     79  H   UNL     1       5.756   2.601  -3.135  1.00  0.00     0.163 HD
ATOM     80  O   UNL     1       6.460   0.985  -5.300  1.00  0.00    -0.272 OA
BRANCH  78  81
ATOM     81  C   UNL     1       5.790   3.195  -6.108  1.00  0.00     0.231 C 
ATOM     82  C   UNL     1       5.923   2.554  -7.521  1.00  0.00     0.296 C 
ATOM     83  N   UNL     1       6.766   4.322  -6.021  1.00  0.00    -0.302 N 
ATOM     84  N   UNL     1       5.659   3.501  -8.626  1.00  0.00    -0.343 N 
ATOM     85  C   UNL     1       6.508   5.304  -7.085  1.00  0.00     0.183 C 
ATOM     86  C   UNL     1       6.546   4.670  -8.484  1.00  0.00     0.282 C 
ATOM     87  H   UNL     1       4.686   3.804  -8.590  1.00  0.00     0.346 HD
ATOM     88  H   UNL     1       5.836   3.043  -9.520  1.00  0.00     0.346 HD
BRANCH  83  89
ATOM     89  C   UNL     1       7.210   4.885  -4.848  1.00  0.00     0.318 C 
ATOM     90  O   UNL     1       6.971   6.055  -4.544  1.00  0.00    -0.249 OA
ATOM     91  N   UNL     1       8.109   4.216  -4.080  1.00  0.00    -0.333 N 
ATOM     92  H   UNL     1       8.402   4.705  -3.278  1.00  0.00     0.165 HD
BRANCH  91  93
ATOM     93  C   UNL     1       8.711   2.913  -4.236  1.00  0.00     0.112 C 
ATOM     94  C   UNL     1       9.602   2.454  -3.103  1.00  0.00     0.056 C 
ATOM     95  C   UNL     1       9.607   2.683  -5.441  1.00  0.00     0.185 C 
ATOM     96  C   UNL     1      10.179   1.202  -3.737  1.00  0.00     0.162 C 
ATOM     97  O   UNL     1      10.436   1.548  -5.110  1.00  0.00    -0.379 OA
ENDBRANCH  91  93
ENDBRANCH  83  89
ENDBRANCH  78  81
ENDBRANCH  76  77
ENDBRANCH  75  76
ENDBRANCH   1  75
TORSDOF 16
