REMARK SMILES CCN1C(=O)C[C@@H](C(=O)Nc2cccc(C(=O)NCCCCNC(=O)c3ccc(-c4c5nc(c(-c6c(F)cc(S(=O)(=O)[O-])cc6F)c6ccc([nH]6)c(-c6c(F)cc(S(=O)(=O)[O-])cc6F)c6nc(c(-c7c(F)cc(S(=O)(=O)[O-])cc7F)c7ccc4[nH]7)C=C6)C=C5)cc3)c2)S/C1=[NH+]/c1ccccc1
REMARK SMILES IDX 20 1 19 2 18 3 16 4 17 5 15 7 11 8 12 9 92 10 13 11 14 12
REMARK SMILES IDX 10 13 8 14 9 15 7 17 3 18 4 19 94 20 5 21 6 22 93 23 95 24
REMARK SMILES IDX 2 26 1 27 96 28 97 29 101 30 98 31 100 32 99 33 21 34 22 35
REMARK SMILES IDX 23 36 24 37 25 39 26 40 27 41 91 42 28 43 90 44 29 45 30 46
REMARK SMILES IDX 31 47 84 48 32 49 89 50 83 51 85 52 33 53 88 54 82 55 81 56
REMARK SMILES IDX 34 58 68 59 47 60 67 61 48 62 51 63 66 64 86 65 49 66 50 67
REMARK SMILES IDX 65 69 87 70 52 71 35 72 36 73 45 74 37 75 38 76 44 77 46 78
REMARK SMILES IDX 39 79 40 80 41 81 42 82 43 83 69 84 70 85 79 86 71 87 72 88
REMARK SMILES IDX 78 89 80 90 73 91 74 92 75 93 76 94 77 95 53 96 54 97 63 98
REMARK SMILES IDX 55 99 56 100 62 101 64 102 57 103 58 104 59 105 60 106
REMARK SMILES IDX 61 107
REMARK H PARENT 18 6 10 16 95 25 23 38 85 57 51 68
REMARK Flexibility Score: inf
ROOT
ATOM      1  C   UNL     1      -1.969   2.902  -6.258  1.00  0.00     0.023 C 
ENDROOT
BRANCH   1   2
ATOM      2  C   UNL     1      -1.702   1.919  -5.127  1.00  0.00     0.116 C 
BRANCH   2   3
ATOM      3  N   UNL     1      -2.264   2.249  -3.828  1.00  0.00    -0.352 N 
ATOM      4  C   UNL     1      -2.708   1.419  -2.817  1.00  0.00     0.251 C 
ATOM      5  O   UNL     1      -3.091   1.910  -1.757  1.00  0.00    -0.269 OA
ATOM      6  H   UNL     1      -2.341   3.212  -3.640  1.00  0.00     0.163 HD
BRANCH   4   7
ATOM      7  C   UNL     1      -2.782  -0.062  -2.981  1.00  0.00     0.041 A 
ATOM      8  C   UNL     1      -2.024  -2.128  -4.015  1.00  0.00     0.041 A 
ATOM      9  C   UNL     1      -3.144  -2.781  -3.492  1.00  0.00     0.026 A 
ATOM     10  C   UNL     1      -1.830  -0.787  -3.704  1.00  0.00     0.040 A 
ATOM     11  C   UNL     1      -4.032  -2.106  -2.649  1.00  0.00     0.003 A 
ATOM     12  C   UNL     1      -3.857  -0.744  -2.402  1.00  0.00     0.014 A 
BRANCH   8  13
ATOM     13  N   UNL     1      -1.226  -2.830  -4.934  1.00  0.00    -0.325 N 
ATOM     14  C   UNL     1       0.039  -2.666  -5.429  1.00  0.00     0.238 C 
ATOM     15  O   UNL     1       0.271  -3.217  -6.514  1.00  0.00    -0.273 OA
ATOM     16  H   UNL     1      -1.680  -3.620  -5.306  1.00  0.00     0.169 HD
BRANCH  14  17
ATOM     17  C   UNL     1       1.184  -1.984  -4.667  1.00  0.00     0.160 C 
ATOM     18  N   UNL     1       1.686  -0.087  -2.478  1.00  0.00    -0.191 N 
ATOM     19  C   UNL     1       2.046  -1.413  -2.398  1.00  0.00     0.311 C 
ATOM     20  C   UNL     1       1.782   0.596  -3.676  1.00  0.00     0.319 C 
ATOM     21  O   UNL     1       2.921  -1.844  -1.652  1.00  0.00    -0.247 OA
ATOM     22  C   UNL     1       1.196  -2.338  -3.202  1.00  0.00     0.153 C 
ATOM     23  S   UNL     1       1.379  -0.264  -5.156  1.00  0.00    -0.024 SA
ATOM     24  N   UNL     1       2.093   1.838  -3.865  1.00  0.00    -0.235 N 
ATOM     25  H   UNL     1       1.860   2.250  -4.728  1.00  0.00     0.313 HD
BRANCH  18  26
ATOM     26  C   UNL     1       1.067   0.545  -1.306  1.00  0.00     0.243 C 
ATOM     27  C   UNL     1       1.322  -0.097   0.048  1.00  0.00     0.054 C 
ENDBRANCH  18  26
BRANCH  24  28
ATOM     28  C   UNL     1       2.744   2.628  -2.908  1.00  0.00     0.125 A 
ATOM     29  C   UNL     1       2.203   3.859  -2.522  1.00  0.00     0.051 A 
ATOM     30  C   UNL     1       4.007   2.271  -2.421  1.00  0.00     0.051 A 
ATOM     31  C   UNL     1       2.905   4.717  -1.671  1.00  0.00     0.004 A 
ATOM     32  C   UNL     1       4.707   3.119  -1.558  1.00  0.00     0.004 A 
ATOM     33  C   UNL     1       4.158   4.346  -1.190  1.00  0.00     0.000 A 
ENDBRANCH  24  28
ENDBRANCH  14  17
ENDBRANCH   8  13
ENDBRANCH   4   7
ENDBRANCH   2   3
ENDBRANCH   1   2
BRANCH   1  34
ATOM     34  C   UNL     1      -1.329   4.282  -6.147  1.00  0.00     0.023 C 
BRANCH  34  35
ATOM     35  C   UNL     1       0.161   4.334  -5.825  1.00  0.00     0.116 C 
BRANCH  35  36
ATOM     36  N   UNL     1       1.027   3.659  -6.777  1.00  0.00    -0.352 N 
ATOM     37  C   UNL     1       2.186   4.106  -7.380  1.00  0.00     0.251 C 
ATOM     38  H   UNL     1       0.746   2.750  -7.028  1.00  0.00     0.163 HD
ATOM     39  O   UNL     1       2.780   3.389  -8.175  1.00  0.00    -0.269 OA
BRANCH  37  40
ATOM     40  C   UNL     1       2.679   5.480  -7.118  1.00  0.00     0.039 A 
ATOM     41  C   UNL     1       2.986   6.300  -8.207  1.00  0.00     0.014 A 
ATOM     42  C   UNL     1       2.808   5.974  -5.819  1.00  0.00     0.014 A 
ATOM     43  C   UNL     1       3.317   7.643  -7.994  1.00  0.00     0.010 A 
ATOM     44  C   UNL     1       3.063   7.330  -5.611  1.00  0.00     0.010 A 
ATOM     45  C   UNL     1       3.303   8.184  -6.698  1.00  0.00    -0.014 A 
BRANCH  45  46
ATOM     46  C   UNL     1       3.497   9.644  -6.474  1.00  0.00     0.031 A 
ATOM     47  C   UNL     1       4.671  10.152  -5.682  1.00  0.00     0.074 A 
ATOM     48  C   UNL     1       2.576  10.516  -6.935  1.00  0.00     0.049 A 
ATOM     49  N   UNL     1       4.977  11.382  -5.356  1.00  0.00    -0.248 NA
ATOM     50  C   UNL     1       5.611   9.144  -5.167  1.00  0.00     0.031 C 
ATOM     51  C   UNL     1       1.358  10.154  -7.665  1.00  0.00     0.029 A 
ATOM     52  N   UNL     1       2.514  11.886  -6.854  1.00  0.00    -0.354 N 
ATOM     53  C   UNL     1       6.134  11.297  -4.591  1.00  0.00     0.074 A 
ATOM     54  C   UNL     1       6.446   9.890  -4.457  1.00  0.00     0.031 C 
ATOM     55  C   UNL     1       0.687  11.271  -7.987  1.00  0.00     0.029 A 
ATOM     56  C   UNL     1       1.405  12.428  -7.462  1.00  0.00     0.049 A 
ATOM     57  H   UNL     1       3.200  12.430  -6.403  1.00  0.00     0.167 HD
ATOM     58  C   UNL     1       6.883  12.299  -4.068  1.00  0.00     0.037 A 
ATOM     59  C   UNL     1       1.008  13.711  -7.584  1.00  0.00     0.037 A 
ATOM     60  C   UNL     1       6.588  13.700  -4.223  1.00  0.00     0.049 A 
ATOM     61  C   UNL     1       1.865  14.806  -7.010  1.00  0.00     0.074 A 
ATOM     62  C   UNL     1       7.321  14.788  -3.781  1.00  0.00     0.029 A 
ATOM     63  N   UNL     1       5.471  14.209  -4.870  1.00  0.00    -0.354 N 
ATOM     64  N   UNL     1       2.994  14.709  -6.349  1.00  0.00    -0.248 NA
ATOM     65  C   UNL     1       1.399  16.187  -7.204  1.00  0.00     0.031 C 
ATOM     66  C   UNL     1       6.629  15.954  -4.129  1.00  0.00     0.029 A 
ATOM     67  C   UNL     1       5.487  15.594  -4.825  1.00  0.00     0.049 A 
ATOM     68  H   UNL     1       4.770  13.665  -5.298  1.00  0.00     0.167 HD
ATOM     69  C   UNL     1       3.387  16.014  -6.073  1.00  0.00     0.074 A 
ATOM     70  C   UNL     1       2.381  16.884  -6.647  1.00  0.00     0.031 C 
ATOM     71  C   UNL     1       4.484  16.451  -5.407  1.00  0.00     0.037 A 
BRANCH  58  72
ATOM     72  C   UNL     1       8.107  11.911  -3.283  1.00  0.00     0.058 A 
ATOM     73  C   UNL     1       9.242  11.373  -3.911  1.00  0.00     0.135 A 
ATOM     74  C   UNL     1       8.157  12.103  -1.893  1.00  0.00     0.135 A 
ATOM     75  F   UNL     1       9.244  11.158  -5.236  1.00  0.00    -0.206 F 
ATOM     76  C   UNL     1      10.369  11.005  -3.184  1.00  0.00     0.059 A 
ATOM     77  C   UNL     1       9.285  11.767  -1.150  1.00  0.00     0.059 A 
ATOM     78  F   UNL     1       7.101  12.617  -1.242  1.00  0.00    -0.206 F 
ATOM     79  C   UNL     1      10.380  11.202  -1.802  1.00  0.00     0.060 A 
BRANCH  79  80
ATOM     80  S   UNL     1      11.846  10.711  -0.871  1.00  0.00     0.124 S 
ATOM     81  O   UNL     1      11.706   9.258  -0.854  1.00  0.00    -0.237 OA
ATOM     82  O   UNL     1      12.931  11.233  -1.696  1.00  0.00    -0.237 OA
ATOM     83  O   UNL     1      11.668  11.373   0.417  1.00  0.00    -0.744 OA
ENDBRANCH  79  80
ENDBRANCH  58  72
BRANCH  59  84
ATOM     84  C   UNL     1      -0.248  14.033  -8.312  1.00  0.00     0.058 A 
ATOM     85  C   UNL     1      -0.212  14.639  -9.577  1.00  0.00     0.135 A 
ATOM     86  C   UNL     1      -1.506  13.733  -7.767  1.00  0.00     0.135 A 
ATOM     87  F   UNL     1       0.967  14.952 -10.136  1.00  0.00    -0.206 F 
ATOM     88  C   UNL     1      -1.377  14.951 -10.270  1.00  0.00     0.059 A 
ATOM     89  C   UNL     1      -2.685  14.014  -8.451  1.00  0.00     0.059 A 
ATOM     90  F   UNL     1      -1.594  13.139  -6.567  1.00  0.00    -0.206 F 
ATOM     91  C   UNL     1      -2.610  14.633  -9.698  1.00  0.00     0.060 A 
BRANCH  91  92
ATOM     92  S   UNL     1      -4.116  14.995 -10.627  1.00  0.00     0.124 S 
ATOM     93  O   UNL     1      -4.213  16.442 -10.477  1.00  0.00    -0.237 OA
ATOM     94  O   UNL     1      -3.777  14.513 -11.963  1.00  0.00    -0.237 OA
ATOM     95  O   UNL     1      -5.135  14.217  -9.929  1.00  0.00    -0.744 OA
ENDBRANCH  91  92
ENDBRANCH  59  84
BRANCH  71  96
ATOM     96  C   UNL     1       4.676  17.937  -5.288  1.00  0.00     0.058 A 
ATOM     97  C   UNL     1       3.896  18.715  -4.419  1.00  0.00     0.135 A 
ATOM     98  C   UNL     1       5.689  18.583  -6.016  1.00  0.00     0.135 A 
ATOM     99  F   UNL     1       2.910  18.148  -3.705  1.00  0.00    -0.206 F 
ATOM    100  C   UNL     1       4.098  20.086  -4.292  1.00  0.00     0.059 A 
ATOM    101  C   UNL     1       5.925  19.948  -5.886  1.00  0.00     0.059 A 
ATOM    102  F   UNL     1       6.470  17.883  -6.854  1.00  0.00    -0.206 F 
ATOM    103  C   UNL     1       5.116  20.694  -5.030  1.00  0.00     0.060 A 
BRANCH 103 104
ATOM    104  S   UNL     1       5.392  22.467  -4.831  1.00  0.00     0.124 S 
ATOM    105  O   UNL     1       4.279  23.025  -5.593  1.00  0.00    -0.237 OA
ATOM    106  O   UNL     1       5.316  22.636  -3.383  1.00  0.00    -0.237 OA
ATOM    107  O   UNL     1       6.716  22.671  -5.411  1.00  0.00    -0.744 OA
ENDBRANCH 103 104
ENDBRANCH  71  96
ENDBRANCH  45  46
ENDBRANCH  37  40
ENDBRANCH  35  36
ENDBRANCH  34  35
ENDBRANCH   1  34
TORSDOF 18
