REMARK SMILES CCN(CC)S(=O)(=O)c1cccc(C(=O)N2C[C@H](O)C[C@H]2C(=O)NCCCCNC(=O)c2ccc(-c3c4nc(c(-c5c(F)cc(S(=O)(=O)[O-])cc5F)c5ccc([nH]5)c(-c5c(F)cc(S(=O)(=O)[O-])cc5F)c5nc(c(-c6c(F)cc(S(=O)(=O)[O-])cc6F)c6ccc3[nH]6)C=C5)C=C4)cc2)c1
REMARK SMILES IDX 25 1 24 2 22 3 23 4 21 6 16 7 17 8 18 9 20 10 14 11 15 12
REMARK SMILES IDX 13 13 9 14 10 15 98 16 11 17 12 18 6 19 7 20 8 21 3 22 2 23
REMARK SMILES IDX 1 24 4 25 5 26 19 27 26 29 27 30 28 31 29 32 30 33 31 35
REMARK SMILES IDX 32 36 33 37 97 38 34 39 96 40 35 41 36 42 37 43 90 44 38 45
REMARK SMILES IDX 95 46 89 47 91 48 39 49 94 50 88 51 87 52 40 54 74 55 53 56
REMARK SMILES IDX 73 57 54 58 57 59 72 60 92 61 55 62 56 63 71 65 93 66 58 67
REMARK SMILES IDX 41 68 42 69 51 70 43 71 44 72 50 73 52 74 45 75 46 76 47 77
REMARK SMILES IDX 48 78 49 79 75 80 76 81 85 82 77 83 78 84 84 85 86 86 79 87
REMARK SMILES IDX 80 88 81 89 82 90 83 91 59 92 60 93 69 94 61 95 62 96 68 97
REMARK SMILES IDX 70 98 63 99 64 100 65 101 66 102 67 103
REMARK H PARENT 24 5 19 28 29 34 91 53 57 64
REMARK Flexibility Score: inf
ROOT
ATOM      1  C   UNL     1       2.438  10.648  -1.325  1.00  0.00     0.116 C 
ENDROOT
BRANCH   1   2
ATOM      2  N   UNL     1       1.437  10.547  -2.358  1.00  0.00    -0.354 N 
ATOM      3  C   UNL     1       0.540   9.556  -2.609  1.00  0.00     0.242 C 
ATOM      4  O   UNL     1      -0.373   9.812  -3.404  1.00  0.00    -0.273 OA
ATOM      5  H   UNL     1       1.397  11.313  -2.976  1.00  0.00     0.163 HD
BRANCH   3   6
ATOM      6  C   UNL     1       0.493   8.257  -1.784  1.00  0.00     0.177 C 
ATOM      7  N   UNL     1       1.724   7.483  -1.539  1.00  0.00    -0.324 N 
ATOM      8  C   UNL     1       1.942   7.291  -0.105  1.00  0.00     0.152 C 
ATOM      9  C   UNL     1       0.544   7.460   0.488  1.00  0.00     0.136 C 
ATOM     10  C   UNL     1      -0.099   8.527  -0.390  1.00  0.00     0.069 C 
BRANCH   7  11
ATOM     11  C   UNL     1       2.319   6.887  -2.641  1.00  0.00     0.254 C 
ATOM     12  O   UNL     1       2.183   7.388  -3.759  1.00  0.00    -0.269 OA
BRANCH  11  13
ATOM     13  C   UNL     1       3.024   5.570  -2.585  1.00  0.00     0.041 A 
ATOM     14  C   UNL     1       3.197   3.269  -1.801  1.00  0.00     0.083 A 
ATOM     15  C   UNL     1       4.051   2.963  -2.866  1.00  0.00     0.022 A 
ATOM     16  C   UNL     1       2.697   4.569  -1.665  1.00  0.00     0.035 A 
ATOM     17  C   UNL     1       4.401   3.955  -3.783  1.00  0.00     0.002 A 
ATOM     18  C   UNL     1       3.888   5.248  -3.644  1.00  0.00     0.014 A 
BRANCH  14  19
ATOM     19  S   UNL     1       2.883   2.028  -0.551  1.00  0.00     0.243 S 
ATOM     20  O   UNL     1       3.414   2.542   0.692  1.00  0.00    -0.207 OA
ATOM     21  O   UNL     1       3.397   0.784  -1.093  1.00  0.00    -0.207 OA
BRANCH  19  22
ATOM     22  N   UNL     1       1.173   1.839  -0.385  1.00  0.00    -0.198 NA
BRANCH  22  23
ATOM     23  C   UNL     1       0.766   0.620   0.402  1.00  0.00     0.099 C 
ATOM     24  C   UNL     1       0.970  -0.681  -0.346  1.00  0.00     0.022 C 
ENDBRANCH  22  23
BRANCH  22  25
ATOM     25  C   UNL     1       0.352   3.007   0.077  1.00  0.00     0.099 C 
ATOM     26  C   UNL     1       0.770   3.561   1.433  1.00  0.00     0.022 C 
ENDBRANCH  22  25
ENDBRANCH  19  22
ENDBRANCH  14  19
ENDBRANCH  11  13
ENDBRANCH   7  11
BRANCH   9  27
ATOM     27  O   UNL     1      -0.196   6.245   0.374  1.00  0.00    -0.391 OA
ATOM     28  H   UNL     1      -0.239   5.979  -0.558  1.00  0.00     0.211 HD
ENDBRANCH   9  27
ENDBRANCH   3   6
ENDBRANCH   1   2
BRANCH   1  29
ATOM     29  C   UNL     1       3.854  10.504  -1.861  1.00  0.00     0.023 C 
BRANCH  29  30
ATOM     30  C   UNL     1       4.315  11.675  -2.729  1.00  0.00     0.023 C 
BRANCH  30  31
ATOM     31  C   UNL     1       4.090  13.058  -2.128  1.00  0.00     0.116 C 
BRANCH  31  32
ATOM     32  N   UNL     1       4.655  13.211  -0.794  1.00  0.00    -0.352 N 
ATOM     33  C   UNL     1       5.194  14.342  -0.229  1.00  0.00     0.251 C 
ATOM     34  H   UNL     1       4.650  12.406  -0.228  1.00  0.00     0.163 HD
ATOM     35  O   UNL     1       5.706  14.302   0.884  1.00  0.00    -0.269 OA
BRANCH  33  36
ATOM     36  C   UNL     1       5.183  15.593  -1.011  1.00  0.00     0.039 A 
ATOM     37  C   UNL     1       6.393  16.244  -1.256  1.00  0.00     0.014 A 
ATOM     38  C   UNL     1       3.990  16.064  -1.569  1.00  0.00     0.014 A 
ATOM     39  C   UNL     1       6.419  17.334  -2.127  1.00  0.00     0.010 A 
ATOM     40  C   UNL     1       4.030  17.108  -2.485  1.00  0.00     0.010 A 
ATOM     41  C   UNL     1       5.244  17.748  -2.777  1.00  0.00    -0.014 A 
BRANCH  41  42
ATOM     42  C   UNL     1       5.265  18.845  -3.775  1.00  0.00     0.031 A 
ATOM     43  C   UNL     1       4.532  20.126  -3.495  1.00  0.00     0.074 A 
ATOM     44  C   UNL     1       5.884  18.660  -4.957  1.00  0.00     0.049 A 
ATOM     45  N   UNL     1       4.373  21.171  -4.263  1.00  0.00    -0.248 NA
ATOM     46  C   UNL     1       3.865  20.231  -2.188  1.00  0.00     0.031 C 
ATOM     47  C   UNL     1       6.591  17.442  -5.361  1.00  0.00     0.029 A 
ATOM     48  N   UNL     1       6.013  19.493  -6.038  1.00  0.00    -0.354 N 
ATOM     49  C   UNL     1       3.578  22.052  -3.541  1.00  0.00     0.074 A 
ATOM     50  C   UNL     1       3.243  21.395  -2.296  1.00  0.00     0.031 C 
ATOM     51  C   UNL     1       7.105  17.620  -6.589  1.00  0.00     0.029 A 
ATOM     52  C   UNL     1       6.737  18.947  -7.072  1.00  0.00     0.049 A 
ATOM     53  H   UNL     1       5.624  20.397  -6.071  1.00  0.00     0.167 HD
ATOM     54  C   UNL     1       3.184  23.305  -3.874  1.00  0.00     0.037 A 
ATOM     55  C   UNL     1       7.068  19.462  -8.272  1.00  0.00     0.037 A 
ATOM     56  C   UNL     1       3.538  23.960  -5.104  1.00  0.00     0.049 A 
ATOM     57  C   UNL     1       6.618  20.853  -8.622  1.00  0.00     0.074 A 
ATOM     58  C   UNL     1       3.231  25.244  -5.518  1.00  0.00     0.029 A 
ATOM     59  N   UNL     1       4.281  23.379  -6.122  1.00  0.00    -0.354 N 
ATOM     60  N   UNL     1       5.909  21.693  -7.907  1.00  0.00    -0.248 NA
ATOM     61  C   UNL     1       7.015  21.366  -9.940  1.00  0.00     0.031 C 
ATOM     62  C   UNL     1       3.764  25.430  -6.799  1.00  0.00     0.029 A 
ATOM     63  C   UNL     1       4.432  24.273  -7.169  1.00  0.00     0.049 A 
ATOM     64  H   UNL     1       4.647  22.465  -6.103  1.00  0.00     0.167 HD
ATOM     65  C   UNL     1       5.794  22.844  -8.677  1.00  0.00     0.074 A 
ATOM     66  C   UNL     1       6.513  22.594  -9.911  1.00  0.00     0.031 C 
ATOM     67  C   UNL     1       5.154  24.005  -8.389  1.00  0.00     0.037 A 
BRANCH  54  68
ATOM     68  C   UNL     1       2.325  24.035  -2.880  1.00  0.00     0.058 A 
ATOM     69  C   UNL     1       2.845  24.493  -1.658  1.00  0.00     0.135 A 
ATOM     70  C   UNL     1       0.963  24.258  -3.136  1.00  0.00     0.135 A 
ATOM     71  F   UNL     1       4.137  24.290  -1.355  1.00  0.00    -0.206 F 
ATOM     72  C   UNL     1       2.035  25.100  -0.704  1.00  0.00     0.059 A 
ATOM     73  C   UNL     1       0.140  24.888  -2.208  1.00  0.00     0.059 A 
ATOM     74  F   UNL     1       0.415  23.842  -4.289  1.00  0.00    -0.206 F 
ATOM     75  C   UNL     1       0.680  25.283  -0.984  1.00  0.00     0.060 A 
BRANCH  75  76
ATOM     76  S   UNL     1      -0.371  26.032   0.278  1.00  0.00     0.124 S 
ATOM     77  O   UNL     1      -0.572  24.910   1.190  1.00  0.00    -0.237 OA
ATOM     78  O   UNL     1       0.466  27.116   0.783  1.00  0.00    -0.237 OA
ATOM     79  O   UNL     1      -1.550  26.453  -0.471  1.00  0.00    -0.744 OA
ENDBRANCH  75  76
ENDBRANCH  54  68
BRANCH  55  80
ATOM     80  C   UNL     1       7.909  18.671  -9.206  1.00  0.00     0.058 A 
ATOM     81  C   UNL     1       9.258  19.000  -9.402  1.00  0.00     0.135 A 
ATOM     82  C   UNL     1       7.401  17.555  -9.887  1.00  0.00     0.135 A 
ATOM     83  F   UNL     1       9.787  20.062  -8.775  1.00  0.00    -0.206 F 
ATOM     84  C   UNL     1      10.075  18.253 -10.244  1.00  0.00     0.059 A 
ATOM     85  C   UNL     1       8.203  16.781 -10.720  1.00  0.00     0.059 A 
ATOM     86  F   UNL     1       6.120  17.191  -9.720  1.00  0.00    -0.206 F 
ATOM     87  C   UNL     1       9.540  17.141 -10.895  1.00  0.00     0.060 A 
BRANCH  87  88
ATOM     88  S   UNL     1      10.629  16.136 -11.928  1.00  0.00     0.124 S 
ATOM     89  O   UNL     1      10.776  16.980 -13.108  1.00  0.00    -0.237 OA
ATOM     90  O   UNL     1      11.813  16.002 -11.086  1.00  0.00    -0.237 OA
ATOM     91  O   UNL     1       9.865  14.907 -12.121  1.00  0.00    -0.744 OA
ENDBRANCH  87  88
ENDBRANCH  55  80
BRANCH  67  92
ATOM     92  C   UNL     1       5.225  25.101  -9.413  1.00  0.00     0.058 A 
ATOM     93  C   UNL     1       4.464  25.057 -10.591  1.00  0.00     0.135 A 
ATOM     94  C   UNL     1       6.027  26.231  -9.189  1.00  0.00     0.135 A 
ATOM     95  F   UNL     1       3.688  23.994 -10.854  1.00  0.00    -0.206 F 
ATOM     96  C   UNL     1       4.510  26.088 -11.522  1.00  0.00     0.059 A 
ATOM     97  C   UNL     1       6.071  27.285 -10.096  1.00  0.00     0.059 A 
ATOM     98  F   UNL     1       6.768  26.325  -8.073  1.00  0.00    -0.206 F 
ATOM     99  C   UNL     1       5.317  27.199 -11.266  1.00  0.00     0.060 A 
BRANCH  99 100
ATOM    100  S   UNL     1       5.340  28.550 -12.463  1.00  0.00     0.124 S 
ATOM    101  O   UNL     1       6.195  28.000 -13.510  1.00  0.00    -0.237 OA
ATOM    102  O   UNL     1       3.929  28.692 -12.806  1.00  0.00    -0.237 OA
ATOM    103  O   UNL     1       5.909  29.662 -11.707  1.00  0.00    -0.744 OA
ENDBRANCH  99 100
ENDBRANCH  67  92
ENDBRANCH  41  42
ENDBRANCH  33  36
ENDBRANCH  31  32
ENDBRANCH  30  31
ENDBRANCH  29  30
ENDBRANCH   1  29
TORSDOF 21
