REMARK SMILES O=C(NCCCCNC(=O)[C@@H]1CC=CC[C@@H]1C(=O)Nc1ccc(Br)cc1Cl)c1ccc(-c2c3nc(c(-c4c(F)cc(S(=O)(=O)[O-])cc4F)c4ccc([nH]4)c(-c4c(F)cc(S(=O)(=O)[O-])cc4F)c4nc(c(-c5c(F)cc(S(=O)(=O)[O-])cc5F)c5ccc2[nH]5)C=C4)C=C3)cc1
REMARK SMILES IDX 5 1 4 2 3 3 1 4 2 5 28 7 29 8 93 9 30 10 92 11 31 12 32 13
REMARK SMILES IDX 33 14 86 15 34 16 91 17 85 18 87 19 35 20 90 21 84 22 83 23
REMARK SMILES IDX 36 25 70 26 49 27 69 28 50 29 53 30 68 31 88 32 51 33 52 34
REMARK SMILES IDX 67 36 89 37 54 38 37 39 38 40 47 41 39 42 40 43 46 44 48 45
REMARK SMILES IDX 41 46 42 47 43 48 44 49 45 50 71 51 72 52 81 53 73 54 74 55
REMARK SMILES IDX 80 56 82 57 75 58 76 59 77 60 78 61 79 62 55 63 56 64 65 65
REMARK SMILES IDX 57 66 58 67 64 68 66 69 59 70 60 71 61 72 62 73 63 74 6 75
REMARK SMILES IDX 7 76 8 77 9 78 10 80 11 81 12 82 16 83 13 84 15 85 14 86
REMARK SMILES IDX 17 87 18 88 19 89 20 91 21 92 26 93 22 94 25 95 27 96 23 97
REMARK SMILES IDX 24 98
REMARK H PARENT 3 6 87 24 53 35 8 79 19 90
REMARK Flexibility Score: inf
ROOT
ATOM      1  C   UNL     1       3.561   9.758   2.114  1.00  0.00     0.023 C 
ENDROOT
BRANCH   1   2
ATOM      2  C   UNL     1       4.152  10.731   3.126  1.00  0.00     0.116 C 
BRANCH   2   3
ATOM      3  N   UNL     1       4.660  11.971   2.558  1.00  0.00    -0.352 N 
ATOM      4  O   UNL     1       5.257  14.163   2.665  1.00  0.00    -0.269 OA
ATOM      5  C   UNL     1       4.886  13.147   3.242  1.00  0.00     0.251 C 
ATOM      6  H   UNL     1       4.860  11.971   1.595  1.00  0.00     0.163 HD
BRANCH   5   7
ATOM      7  C   UNL     1       4.617  13.151   4.693  1.00  0.00     0.039 A 
ATOM      8  C   UNL     1       5.256  12.217   5.510  1.00  0.00     0.014 A 
ATOM      9  C   UNL     1       3.622  13.987   5.203  1.00  0.00     0.014 A 
ATOM     10  C   UNL     1       4.791  12.014   6.801  1.00  0.00     0.010 A 
ATOM     11  C   UNL     1       3.217  13.839   6.531  1.00  0.00     0.010 A 
ATOM     12  C   UNL     1       3.773  12.827   7.330  1.00  0.00    -0.014 A 
BRANCH  12  13
ATOM     13  C   UNL     1       3.361  12.638   8.743  1.00  0.00     0.031 A 
ATOM     14  C   UNL     1       1.974  12.180   9.104  1.00  0.00     0.074 A 
ATOM     15  C   UNL     1       4.280  12.857   9.703  1.00  0.00     0.049 A 
ATOM     16  N   UNL     1       1.463  11.972  10.290  1.00  0.00    -0.248 NA
ATOM     17  C   UNL     1       1.038  11.931   7.997  1.00  0.00     0.031 C 
ATOM     18  C   UNL     1       5.653  13.312   9.461  1.00  0.00     0.029 A 
ATOM     19  N   UNL     1       4.215  12.713  11.063  1.00  0.00    -0.354 N 
ATOM     20  C   UNL     1       0.142  11.591  10.079  1.00  0.00     0.074 A 
ATOM     21  C   UNL     1      -0.074  11.611   8.647  1.00  0.00     0.031 C 
ATOM     22  C   UNL     1       6.313  13.361  10.626  1.00  0.00     0.029 A 
ATOM     23  C   UNL     1       5.394  13.013  11.701  1.00  0.00     0.049 A 
ATOM     24  H   UNL     1       3.402  12.422  11.537  1.00  0.00     0.167 HD
ATOM     25  C   UNL     1      -0.796  11.255  10.998  1.00  0.00     0.037 A 
ATOM     26  C   UNL     1       5.699  13.031  13.011  1.00  0.00     0.037 A 
ATOM     27  C   UNL     1      -0.557  11.223  12.420  1.00  0.00     0.049 A 
ATOM     28  C   UNL     1       4.639  12.665  14.005  1.00  0.00     0.074 A 
ATOM     29  C   UNL     1      -1.431  10.868  13.433  1.00  0.00     0.029 A 
ATOM     30  N   UNL     1       0.643  11.559  13.031  1.00  0.00    -0.354 N 
ATOM     31  N   UNL     1       3.399  12.296  13.785  1.00  0.00    -0.248 NA
ATOM     32  C   UNL     1       5.012  12.724  15.423  1.00  0.00     0.031 C 
ATOM     33  C   UNL     1      -0.773  11.027  14.658  1.00  0.00     0.029 A 
ATOM     34  C   UNL     1       0.526  11.438  14.407  1.00  0.00     0.049 A 
ATOM     35  H   UNL     1       1.459  11.841  12.557  1.00  0.00     0.167 HD
ATOM     36  C   UNL     1       2.843  12.074  15.038  1.00  0.00     0.074 A 
ATOM     37  C   UNL     1       3.891  12.325  16.009  1.00  0.00     0.031 C 
ATOM     38  C   UNL     1       1.579  11.701  15.356  1.00  0.00     0.037 A 
BRANCH  25  39
ATOM     39  C   UNL     1      -2.178  10.913  10.506  1.00  0.00     0.058 A 
ATOM     40  C   UNL     1      -2.453   9.700   9.855  1.00  0.00     0.135 A 
ATOM     41  C   UNL     1      -3.254  11.785  10.743  1.00  0.00     0.135 A 
ATOM     42  F   UNL     1      -1.462   8.835   9.591  1.00  0.00    -0.206 F 
ATOM     43  C   UNL     1      -3.742   9.372   9.442  1.00  0.00     0.059 A 
ATOM     44  C   UNL     1      -4.554  11.468  10.358  1.00  0.00     0.059 A 
ATOM     45  F   UNL     1      -3.048  12.958  11.362  1.00  0.00    -0.206 F 
ATOM     46  C   UNL     1      -4.786  10.263   9.697  1.00  0.00     0.060 A 
BRANCH  46  47
ATOM     47  S   UNL     1      -6.454   9.818   9.164  1.00  0.00     0.124 S 
ATOM     48  O   UNL     1      -6.358  10.010   7.720  1.00  0.00    -0.237 OA
ATOM     49  O   UNL     1      -6.567   8.433   9.611  1.00  0.00    -0.237 OA
ATOM     50  O   UNL     1      -7.303  10.773   9.868  1.00  0.00    -0.744 OA
ENDBRANCH  46  47
ENDBRANCH  25  39
BRANCH  26  51
ATOM     51  C   UNL     1       7.064  13.430  13.440  1.00  0.00     0.058 A 
ATOM     52  C   UNL     1       7.958  12.492  13.973  1.00  0.00     0.135 A 
ATOM     53  C   UNL     1       7.515  14.750  13.278  1.00  0.00     0.135 A 
ATOM     54  F   UNL     1       7.571  11.219  14.147  1.00  0.00    -0.206 F 
ATOM     55  C   UNL     1       9.252  12.849  14.339  1.00  0.00     0.059 A 
ATOM     56  C   UNL     1       8.812  15.124  13.610  1.00  0.00     0.059 A 
ATOM     57  F   UNL     1       6.702  15.679  12.751  1.00  0.00    -0.206 F 
ATOM     58  C   UNL     1       9.670  14.168  14.150  1.00  0.00     0.060 A 
BRANCH  58  59
ATOM     59  S   UNL     1      11.368  14.611  14.572  1.00  0.00     0.124 S 
ATOM     60  O   UNL     1      11.296  14.692  16.026  1.00  0.00    -0.237 OA
ATOM     61  O   UNL     1      12.125  13.486  14.031  1.00  0.00    -0.237 OA
ATOM     62  O   UNL     1      11.565  15.879  13.876  1.00  0.00    -0.744 OA
ENDBRANCH  58  59
ENDBRANCH  26  51
BRANCH  38  63
ATOM     63  C   UNL     1       1.272  11.531  16.816  1.00  0.00     0.058 A 
ATOM     64  C   UNL     1       1.122  12.637  17.667  1.00  0.00     0.135 A 
ATOM     65  C   UNL     1       1.106  10.250  17.364  1.00  0.00     0.135 A 
ATOM     66  F   UNL     1       1.282  13.882  17.192  1.00  0.00    -0.206 F 
ATOM     67  C   UNL     1       0.845  12.477  19.020  1.00  0.00     0.059 A 
ATOM     68  C   UNL     1       0.804  10.068  18.710  1.00  0.00     0.059 A 
ATOM     69  F   UNL     1       1.233   9.161  16.590  1.00  0.00    -0.206 F 
ATOM     70  C   UNL     1       0.690  11.188  19.533  1.00  0.00     0.060 A 
BRANCH  70  71
ATOM     71  S   UNL     1       0.312  10.992  21.287  1.00  0.00     0.124 S 
ATOM     72  O   UNL     1       1.612  11.249  21.897  1.00  0.00    -0.237 OA
ATOM     73  O   UNL     1      -0.705  12.016  21.506  1.00  0.00    -0.237 OA
ATOM     74  O   UNL     1      -0.166   9.615  21.379  1.00  0.00    -0.744 OA
ENDBRANCH  70  71
ENDBRANCH  38  63
ENDBRANCH  12  13
ENDBRANCH   5   7
ENDBRANCH   2   3
ENDBRANCH   1   2
BRANCH   1  75
ATOM     75  C   UNL     1       4.456   9.410   0.921  1.00  0.00     0.023 C 
BRANCH  75  76
ATOM     76  C   UNL     1       5.874   8.974   1.289  1.00  0.00     0.116 C 
BRANCH  76  77
ATOM     77  N   UNL     1       6.099   7.552   1.141  1.00  0.00    -0.356 N 
ATOM     78  C   UNL     1       6.750   6.814   0.215  1.00  0.00     0.224 C 
ATOM     79  H   UNL     1       5.698   7.014   1.861  1.00  0.00     0.163 HD
ATOM     80  O   UNL     1       7.028   5.649   0.532  1.00  0.00    -0.275 OA
BRANCH  78  81
ATOM     81  C   UNL     1       7.079   7.263  -1.197  1.00  0.00     0.095 C 
ATOM     82  C   UNL     1       7.281   8.741  -1.504  1.00  0.00     0.041 C 
ATOM     83  C   UNL     1       6.176   6.537  -2.216  1.00  0.00     0.095 C 
ATOM     84  C   UNL     1       7.692   8.958  -2.929  1.00  0.00    -0.030 C 
ATOM     85  C   UNL     1       6.680   6.780  -3.664  1.00  0.00     0.041 C 
ATOM     86  C   UNL     1       7.428   8.068  -3.895  1.00  0.00    -0.030 C 
BRANCH  83  87
ATOM     87  C   UNL     1       4.690   6.924  -2.158  1.00  0.00     0.228 C 
ATOM     88  O   UNL     1       4.321   8.099  -2.176  1.00  0.00    -0.274 OA
ATOM     89  N   UNL     1       3.741   5.934  -2.316  1.00  0.00    -0.324 N 
ATOM     90  H   UNL     1       2.877   6.216  -2.694  1.00  0.00     0.169 HD
BRANCH  89  91
ATOM     91  C   UNL     1       3.866   4.569  -2.000  1.00  0.00     0.060 A 
ATOM     92  C   UNL     1       3.614   3.635  -3.007  1.00  0.00     0.029 A 
ATOM     93  C   UNL     1       4.167   4.110  -0.707  1.00  0.00     0.065 A 
ATOM     94  C   UNL     1       3.821   2.273  -2.764  1.00  0.00     0.018 A 
ATOM     95  C   UNL     1       4.421   2.758  -0.472  1.00  0.00     0.038 A 
ATOM     96  Cl  UNL     1       3.966   5.131   0.673  1.00  0.00    -0.082 Cl
ATOM     97  C   UNL     1       4.266   1.847  -1.512  1.00  0.00     0.019 A 
ATOM     98  Br  UNL     1       4.606   0.012  -1.210  1.00  0.00    -0.051 Br
ENDBRANCH  89  91
ENDBRANCH  83  87
ENDBRANCH  78  81
ENDBRANCH  76  77
ENDBRANCH  75  76
ENDBRANCH   1  75
TORSDOF 16
