REMARK SMILES C[N@H+]1CCCN(S(=O)(=O)Cc2ccc(C(=O)NCCCCNC(=O)c3ccc(-c4c5nc(c(-c6c(F)cc(S(=O)(=O)[O-])cc6F)c6ccc([nH]6)c(-c6c(F)cc(S(=O)(=O)[O-])cc6F)c6nc(c(-c7c(F)cc(S(=O)(=O)[O-])cc7F)c7ccc4[nH]7)C=C6)C=C5)cc3)cc2)CC1
REMARK SMILES IDX 15 1 16 2 17 3 14 5 11 6 12 7 92 8 13 9 91 10 10 11 7 12
REMARK SMILES IDX 8 13 9 14 6 15 93 16 94 17 2 18 1 19 3 21 5 23 4 24 18 26
REMARK SMILES IDX 19 27 20 28 21 29 22 30 23 31 24 33 25 34 26 35 90 36 27 37
REMARK SMILES IDX 89 38 28 39 29 40 30 41 83 42 31 43 88 44 82 45 84 46 32 47
REMARK SMILES IDX 87 48 81 49 80 50 33 52 67 53 46 54 66 55 47 56 50 57 65 58
REMARK SMILES IDX 85 59 48 60 49 61 64 63 86 64 51 65 34 66 35 67 44 68 36 69
REMARK SMILES IDX 37 70 43 71 45 72 38 73 39 74 40 75 41 76 42 77 68 78 69 79
REMARK SMILES IDX 78 80 70 81 71 82 77 83 79 84 72 85 73 86 74 87 75 88 76 89
REMARK SMILES IDX 52 90 53 91 62 92 54 93 55 94 61 95 63 96 56 97 57 98 58 99
REMARK SMILES IDX 59 100 60 101
REMARK H PARENT 17 4 2 20 22 32 84 51 50 62
REMARK Flexibility Score: 80.00
ROOT
ATOM      1  C   UNL     1       4.078  -3.034  -8.790  1.00  0.00     0.251 C 
ATOM      2  O   UNL     1       4.197  -4.258  -8.731  1.00  0.00    -0.269 OA
ATOM      3  N   UNL     1       5.027  -2.326  -9.485  1.00  0.00    -0.352 N 
ATOM      4  H   UNL     1       5.749  -2.882  -9.859  1.00  0.00     0.163 HD
ENDROOT
BRANCH   1   5
ATOM      5  C   UNL     1       2.888  -2.395  -8.160  1.00  0.00     0.039 A 
ATOM      6  C   UNL     1       0.502  -1.278  -7.094  1.00  0.00    -0.032 A 
ATOM      7  C   UNL     1       0.562  -2.628  -7.481  1.00  0.00     0.005 A 
ATOM      8  C   UNL     1       1.664  -0.515  -7.231  1.00  0.00     0.005 A 
ATOM      9  C   UNL     1       1.736  -3.177  -8.012  1.00  0.00     0.014 A 
ATOM     10  C   UNL     1       2.849  -1.081  -7.702  1.00  0.00     0.014 A 
BRANCH   6  11
ATOM     11  C   UNL     1      -0.828  -0.742  -6.616  1.00  0.00     0.189 C 
BRANCH  11  12
ATOM     12  S   UNL     1      -0.776   0.819  -5.724  1.00  0.00     0.218 S 
ATOM     13  O   UNL     1      -2.011   0.949  -4.980  1.00  0.00    -0.212 OA
ATOM     14  O   UNL     1      -0.385   1.864  -6.653  1.00  0.00    -0.212 OA
BRANCH  12  15
ATOM     15  N   UNL     1       0.486   0.621  -4.593  1.00  0.00    -0.196 NA
BRANCH  15  16
ATOM     16  C   UNL     1       0.317  -0.503  -3.630  1.00  0.00     0.163 C 
BRANCH  16  17
ATOM     17  C   UNL     1       1.163  -0.431  -2.347  1.00  0.00     0.278 C 
BRANCH  17  18
ATOM     18  N   UNL     1       0.573   0.445  -1.318  1.00  0.00    -0.336 N 
ATOM     19  C   UNL     1       1.062   0.065   0.011  1.00  0.00     0.332 C 
ATOM     20  H   UNL     1      -0.438   0.315  -1.376  1.00  0.00     0.347 HD
BRANCH  18  21
ATOM     21  C   UNL     1       0.839   1.871  -1.548  1.00  0.00     0.263 CG0
ATOM     22  G   UNL     1       0.326   2.427  -2.876  1.00  0.00     0.000 G0
ENDBRANCH  18  21
ENDBRANCH  17  18
ENDBRANCH  16  17
ENDBRANCH  15  16
BRANCH  15  23
ATOM     23  C   UNL     1       1.079   1.873  -4.072  1.00  0.00     0.108 C 
BRANCH  23  24
ATOM     24  C   UNL     1       0.326   2.427  -2.876  1.00  0.00     0.078 CG0
ATOM     25  G   UNL     1       0.839   1.871  -1.548  1.00  0.00     0.000 G0
ENDBRANCH  23  24
ENDBRANCH  15  23
ENDBRANCH  12  15
ENDBRANCH  11  12
ENDBRANCH   6  11
ENDBRANCH   1   5
BRANCH   3  26
ATOM     26  C   UNL     1       5.162  -0.910  -9.768  1.00  0.00     0.116 C 
BRANCH  26  27
ATOM     27  C   UNL     1       6.102  -0.248  -8.756  1.00  0.00     0.023 C 
BRANCH  27  28
ATOM     28  C   UNL     1       7.585  -0.449  -9.067  1.00  0.00     0.023 C 
BRANCH  28  29
ATOM     29  C   UNL     1       8.045   0.169 -10.381  1.00  0.00     0.116 C 
BRANCH  29  30
ATOM     30  N   UNL     1       7.811   1.604 -10.452  1.00  0.00    -0.352 N 
ATOM     31  C   UNL     1       8.596   2.561 -11.051  1.00  0.00     0.251 C 
ATOM     32  H   UNL     1       6.990   1.930 -10.017  1.00  0.00     0.163 HD
ATOM     33  O   UNL     1       8.334   3.751 -10.921  1.00  0.00    -0.269 OA
BRANCH  31  34
ATOM     34  C   UNL     1       9.784   2.127 -11.814  1.00  0.00     0.039 A 
ATOM     35  C   UNL     1      11.022   2.699 -11.517  1.00  0.00     0.014 A 
ATOM     36  C   UNL     1       9.680   1.107 -12.763  1.00  0.00     0.014 A 
ATOM     37  C   UNL     1      12.172   2.192 -12.123  1.00  0.00     0.010 A 
ATOM     38  C   UNL     1      10.834   0.552 -13.304  1.00  0.00     0.010 A 
ATOM     39  C   UNL     1      12.092   1.085 -12.986  1.00  0.00    -0.014 A 
BRANCH  39  40
ATOM     40  C   UNL     1      13.316   0.461 -13.549  1.00  0.00     0.031 A 
ATOM     41  C   UNL     1      13.540   0.448 -15.037  1.00  0.00     0.074 A 
ATOM     42  C   UNL     1      14.193  -0.147 -12.723  1.00  0.00     0.049 A 
ATOM     43  N   UNL     1      14.510  -0.104 -15.719  1.00  0.00    -0.248 NA
ATOM     44  C   UNL     1      12.531   1.124 -15.869  1.00  0.00     0.031 C 
ATOM     45  C   UNL     1      14.058  -0.243 -11.267  1.00  0.00     0.029 A 
ATOM     46  N   UNL     1      15.366  -0.808 -12.988  1.00  0.00    -0.354 N 
ATOM     47  C   UNL     1      14.228   0.154 -17.055  1.00  0.00     0.074 A 
ATOM     48  C   UNL     1      12.966   0.860 -17.093  1.00  0.00     0.031 C 
ATOM     49  C   UNL     1      15.117  -0.900 -10.768  1.00  0.00     0.029 A 
ATOM     50  C   UNL     1      15.983  -1.312 -11.867  1.00  0.00     0.049 A 
ATOM     51  H   UNL     1      15.732  -0.911 -13.896  1.00  0.00     0.167 HD
ATOM     52  C   UNL     1      14.968  -0.146 -18.148  1.00  0.00     0.037 A 
ATOM     53  C   UNL     1      17.112  -2.037 -11.740  1.00  0.00     0.037 A 
ATOM     54  C   UNL     1      16.233  -0.833 -18.100  1.00  0.00     0.049 A 
ATOM     55  C   UNL     1      17.902  -2.380 -12.976  1.00  0.00     0.074 A 
ATOM     56  C   UNL     1      17.082  -1.142 -19.148  1.00  0.00     0.029 A 
ATOM     57  N   UNL     1      16.829  -1.319 -16.946  1.00  0.00    -0.354 N 
ATOM     58  N   UNL     1      17.653  -2.069 -14.226  1.00  0.00    -0.248 NA
ATOM     59  C   UNL     1      19.128  -3.168 -12.786  1.00  0.00     0.031 C 
ATOM     60  C   UNL     1      18.166  -1.860 -18.635  1.00  0.00     0.029 A 
ATOM     61  C   UNL     1      18.023  -1.947 -17.260  1.00  0.00     0.049 A 
ATOM     62  H   UNL     1      16.459  -1.230 -16.038  1.00  0.00     0.167 HD
ATOM     63  C   UNL     1      18.706  -2.596 -14.966  1.00  0.00     0.074 A 
ATOM     64  C   UNL     1      19.602  -3.231 -14.022  1.00  0.00     0.031 C 
ATOM     65  C   UNL     1      18.912  -2.562 -16.306  1.00  0.00     0.037 A 
BRANCH  52  66
ATOM     66  C   UNL     1      14.442   0.279 -19.492  1.00  0.00     0.058 A 
ATOM     67  C   UNL     1      14.402   1.630 -19.872  1.00  0.00     0.135 A 
ATOM     68  C   UNL     1      14.037  -0.678 -20.437  1.00  0.00     0.135 A 
ATOM     69  F   UNL     1      14.760   2.588 -19.003  1.00  0.00    -0.206 F 
ATOM     70  C   UNL     1      13.966   2.018 -21.134  1.00  0.00     0.059 A 
ATOM     71  C   UNL     1      13.625  -0.315 -21.716  1.00  0.00     0.059 A 
ATOM     72  F   UNL     1      14.051  -1.984 -20.125  1.00  0.00    -0.206 F 
ATOM     73  C   UNL     1      13.586   1.038 -22.052  1.00  0.00     0.060 A 
BRANCH  73  74
ATOM     74  S   UNL     1      13.058   1.560 -23.697  1.00  0.00     0.124 S 
ATOM     75  O   UNL     1      11.773   2.188 -23.405  1.00  0.00    -0.237 OA
ATOM     76  O   UNL     1      14.130   2.468 -24.093  1.00  0.00    -0.237 OA
ATOM     77  O   UNL     1      12.989   0.310 -24.447  1.00  0.00    -0.744 OA
ENDBRANCH  73  74
ENDBRANCH  52  66
BRANCH  53  78
ATOM     78  C   UNL     1      17.571  -2.488 -10.397  1.00  0.00     0.058 A 
ATOM     79  C   UNL     1      18.753  -1.989  -9.829  1.00  0.00     0.135 A 
ATOM     80  C   UNL     1      16.850  -3.444  -9.663  1.00  0.00     0.135 A 
ATOM     81  F   UNL     1      19.482  -1.078 -10.491  1.00  0.00    -0.206 F 
ATOM     82  C   UNL     1      19.222  -2.443  -8.600  1.00  0.00     0.059 A 
ATOM     83  C   UNL     1      17.281  -3.890  -8.418  1.00  0.00     0.059 A 
ATOM     84  F   UNL     1      15.702  -3.941 -10.150  1.00  0.00    -0.206 F 
ATOM     85  C   UNL     1      18.479  -3.397  -7.903  1.00  0.00     0.060 A 
BRANCH  85  86
ATOM     86  S   UNL     1      19.088  -3.968  -6.302  1.00  0.00     0.124 S 
ATOM     87  O   UNL     1      20.225  -4.790  -6.697  1.00  0.00    -0.237 OA
ATOM     88  O   UNL     1      19.409  -2.712  -5.630  1.00  0.00    -0.237 OA
ATOM     89  O   UNL     1      17.947  -4.692  -5.748  1.00  0.00    -0.744 OA
ENDBRANCH  85  86
ENDBRANCH  53  78
BRANCH  65  90
ATOM     90  C   UNL     1      20.173  -3.193 -16.832  1.00  0.00     0.058 A 
ATOM     91  C   UNL     1      20.352  -4.584 -16.849  1.00  0.00     0.135 A 
ATOM     92  C   UNL     1      21.191  -2.394 -17.379  1.00  0.00     0.135 A 
ATOM     93  F   UNL     1      19.413  -5.394 -16.333  1.00  0.00    -0.206 F 
ATOM     94  C   UNL     1      21.506  -5.161 -17.369  1.00  0.00     0.059 A 
ATOM     95  C   UNL     1      22.339  -2.950 -17.933  1.00  0.00     0.059 A 
ATOM     96  F   UNL     1      21.066  -1.057 -17.397  1.00  0.00    -0.206 F 
ATOM     97  C   UNL     1      22.492  -4.336 -17.913  1.00  0.00     0.060 A 
BRANCH  97  98
ATOM     98  S   UNL     1      23.966  -5.101 -18.619  1.00  0.00     0.124 S 
ATOM     99  O   UNL     1      24.663  -5.559 -17.421  1.00  0.00    -0.237 OA
ATOM    100  O   UNL     1      23.399  -6.150 -19.462  1.00  0.00    -0.237 OA
ATOM    101  O   UNL     1      24.608  -4.006 -19.339  1.00  0.00    -0.744 OA
ENDBRANCH  97  98
ENDBRANCH  65  90
ENDBRANCH  39  40
ENDBRANCH  31  34
ENDBRANCH  29  30
ENDBRANCH  28  29
ENDBRANCH  27  28
ENDBRANCH  26  27
ENDBRANCH   3  26
TORSDOF 17
