REMARK SMILES C[C@H]1[C@H](C)CC[C@@]2(C(=O)NCCCCNC(=O)c3ccc(-c4c5nc(c(-c6c(F)cc(S(=O)(=O)[O-])cc6F)c6ccc([nH]6)c(-c6c(F)cc(S(=O)(=O)[O-])cc6F)c6nc(c(-c7c(F)cc(S(=O)(=O)[O-])cc7F)c7ccc4[nH]7)C=C6)C=C5)cc3)CC[C@@]3(C)C(=CC[C@@H]4[C@@]5(C)CC[C@H](O)C(C)(C)[C@@H]5CC[C@]43C)[C@H]12
REMARK SMILES IDX 13 1 12 2 11 3 10 4 8 5 9 6 7 8 1 9 2 10 3 11 106 12 4 13
REMARK SMILES IDX 5 14 88 15 6 16 84 17 86 18 89 19 85 20 87 21 104 22 90 23
REMARK SMILES IDX 91 24 103 25 105 26 92 27 102 28 93 29 94 30 101 31 95 32
REMARK SMILES IDX 98 33 96 34 99 35 100 36 97 37 14 39 15 40 16 41 17 43 18 44
REMARK SMILES IDX 19 45 83 46 20 47 82 48 21 49 22 50 23 51 76 52 24 53 81 54
REMARK SMILES IDX 75 55 77 56 25 57 80 58 74 59 73 60 26 62 60 63 39 64 59 65
REMARK SMILES IDX 40 66 43 67 58 68 78 69 41 70 42 71 57 73 79 74 44 75 27 76
REMARK SMILES IDX 28 77 37 78 29 79 30 80 36 81 38 82 31 83 32 84 33 85 34 86
REMARK SMILES IDX 35 87 61 88 62 89 71 90 63 91 64 92 70 93 72 94 65 95 66 96
REMARK SMILES IDX 67 97 68 98 69 99 45 100 46 101 55 102 47 103 48 104 54 105
REMARK SMILES IDX 56 106 49 107 50 108 51 109 52 110 53 111
REMARK H PARENT 10 7 97 38 15 42 77 61 43 72
REMARK Flexibility Score: inf
ROOT
ATOM      1  C   UNL     1       2.871  -0.225  -3.332  1.00  0.00     0.023 C 
ENDROOT
BRANCH   1   2
ATOM      2  C   UNL     1       2.652  -1.736  -3.463  1.00  0.00     0.023 C 
BRANCH   2   3
ATOM      3  C   UNL     1       1.650  -2.381  -2.502  1.00  0.00     0.116 C 
BRANCH   3   4
ATOM      4  N   UNL     1       0.258  -2.072  -2.760  1.00  0.00    -0.356 N 
ATOM      5  C   UNL     1      -0.888  -2.550  -2.186  1.00  0.00     0.226 C 
ATOM      6  O   UNL     1      -1.836  -2.650  -2.978  1.00  0.00    -0.274 OA
ATOM      7  H   UNL     1       0.113  -1.404  -3.468  1.00  0.00     0.163 HD
BRANCH   5   8
ATOM      8  C   UNL     1      -1.079  -2.912  -0.659  1.00  0.00     0.056 C 
ATOM      9  C   UNL     1       0.514  -0.109   1.625  1.00  0.00     0.008 C 
ATOM     10  C   UNL     1       0.489  -1.281   0.626  1.00  0.00    -0.003 C 
ATOM     11  C   UNL     1       1.281  -2.499   1.194  1.00  0.00    -0.011 C 
ATOM     12  C   UNL     1      -0.968  -1.688   0.296  1.00  0.00     0.034 C 
ATOM     13  C   UNL     1       2.784  -2.221   1.361  1.00  0.00     0.008 C 
ATOM     14  C   UNL     1       1.159  -3.797   0.380  1.00  0.00     0.005 C 
ATOM     15  C   UNL     1      -1.952  -0.645  -0.265  1.00  0.00    -0.063 C 
ATOM     16  C   UNL     1      -0.190  -4.099  -0.244  1.00  0.00     0.018 C 
ATOM     17  C   UNL     1      -2.560  -3.437  -0.457  1.00  0.00     0.018 C 
ATOM     18  C   UNL     1      -3.459  -0.969  -0.054  1.00  0.00    -0.006 C 
ATOM     19  C   UNL     1      -1.534   0.305  -1.129  1.00  0.00    -0.027 C 
ATOM     20  C   UNL     1      -3.707  -2.420  -0.599  1.00  0.00     0.013 C 
ATOM     21  C   UNL     1      -3.787  -0.967   1.463  1.00  0.00     0.017 C 
ATOM     22  C   UNL     1      -4.413   0.109  -0.820  1.00  0.00    -0.020 C 
ATOM     23  C   UNL     1      -2.432   0.986  -2.127  1.00  0.00     0.032 C 
ATOM     24  C   UNL     1      -3.794   0.258  -2.259  1.00  0.00     0.006 C 
ATOM     25  C   UNL     1      -5.898  -0.342  -0.872  1.00  0.00     0.008 C 
ATOM     26  C   UNL     1      -4.424   1.475  -0.063  1.00  0.00     0.012 C 
ATOM     27  C   UNL     1      -4.712   0.704  -3.470  1.00  0.00    -0.025 C 
ATOM     28  C   UNL     1      -6.727   0.413  -1.915  1.00  0.00     0.005 C 
ATOM     29  C   UNL     1      -4.662   2.235  -3.631  1.00  0.00     0.012 C 
ATOM     30  C   UNL     1      -4.137   0.045  -4.768  1.00  0.00     0.010 C 
ATOM     31  C   UNL     1      -6.159   0.112  -3.308  1.00  0.00     0.003 C 
ATOM     32  C   UNL     1      -5.012   0.220  -6.007  1.00  0.00     0.033 C 
ATOM     33  C   UNL     1      -7.142   0.348  -4.516  1.00  0.00    -0.006 C 
ATOM     34  C   UNL     1      -6.461  -0.227  -5.795  1.00  0.00     0.120 C 
ATOM     35  C   UNL     1      -7.586   1.813  -4.708  1.00  0.00     0.014 C 
ATOM     36  C   UNL     1      -8.458  -0.453  -4.298  1.00  0.00     0.014 C 
BRANCH  34  37
ATOM     37  O   UNL     1      -7.221   0.076  -6.967  1.00  0.00    -0.393 OA
ATOM     38  H   UNL     1      -7.235   1.036  -7.103  1.00  0.00     0.210 HD
ENDBRANCH  34  37
ENDBRANCH   5   8
ENDBRANCH   3   4
ENDBRANCH   2   3
ENDBRANCH   1   2
BRANCH   1  39
ATOM     39  C   UNL     1       3.304   0.312  -1.967  1.00  0.00     0.116 C 
BRANCH  39  40
ATOM     40  N   UNL     1       4.527  -0.277  -1.441  1.00  0.00    -0.352 N 
ATOM     41  C   UNL     1       5.735   0.296  -1.115  1.00  0.00     0.251 C 
ATOM     42  H   UNL     1       4.483  -1.250  -1.294  1.00  0.00     0.163 HD
ATOM     43  O   UNL     1       6.644  -0.409  -0.681  1.00  0.00    -0.269 OA
BRANCH  41  44
ATOM     44  C   UNL     1       5.972   1.738  -1.344  1.00  0.00     0.039 A 
ATOM     45  C   UNL     1       7.101   2.115  -2.077  1.00  0.00     0.014 A 
ATOM     46  C   UNL     1       5.082   2.709  -0.882  1.00  0.00     0.014 A 
ATOM     47  C   UNL     1       7.271   3.449  -2.454  1.00  0.00     0.010 A 
ATOM     48  C   UNL     1       5.215   4.027  -1.318  1.00  0.00     0.010 A 
ATOM     49  C   UNL     1       6.293   4.405  -2.135  1.00  0.00    -0.014 A 
BRANCH  49  50
ATOM     50  C   UNL     1       6.344   5.778  -2.705  1.00  0.00     0.031 A 
ATOM     51  C   UNL     1       6.471   6.978  -1.811  1.00  0.00     0.074 A 
ATOM     52  C   UNL     1       6.181   5.946  -4.034  1.00  0.00     0.049 A 
ATOM     53  N   UNL     1       6.440   8.248  -2.124  1.00  0.00    -0.248 NA
ATOM     54  C   UNL     1       6.623   6.717  -0.372  1.00  0.00     0.031 C 
ATOM     55  C   UNL     1       5.984   4.866  -5.005  1.00  0.00     0.029 A 
ATOM     56  N   UNL     1       6.136   7.086  -4.797  1.00  0.00    -0.354 N 
ATOM     57  C   UNL     1       6.551   8.939  -0.924  1.00  0.00     0.074 A 
ATOM     58  C   UNL     1       6.601   7.944   0.128  1.00  0.00     0.031 C 
ATOM     59  C   UNL     1       5.856   5.393  -6.232  1.00  0.00     0.029 A 
ATOM     60  C   UNL     1       5.924   6.848  -6.135  1.00  0.00     0.049 A 
ATOM     61  H   UNL     1       6.245   7.990  -4.422  1.00  0.00     0.167 HD
ATOM     62  C   UNL     1       6.624  10.276  -0.716  1.00  0.00     0.037 A 
ATOM     63  C   UNL     1       5.789   7.701  -7.170  1.00  0.00     0.037 A 
ATOM     64  C   UNL     1       6.591  11.261  -1.767  1.00  0.00     0.049 A 
ATOM     65  C   UNL     1       5.895   9.179  -6.922  1.00  0.00     0.074 A 
ATOM     66  C   UNL     1       6.715  12.636  -1.663  1.00  0.00     0.029 A 
ATOM     67  N   UNL     1       6.420  10.978  -3.114  1.00  0.00    -0.354 N 
ATOM     68  N   UNL     1       6.065   9.812  -5.786  1.00  0.00    -0.248 NA
ATOM     69  C   UNL     1       5.800  10.060  -8.094  1.00  0.00     0.031 C 
ATOM     70  C   UNL     1       6.583  13.186  -2.944  1.00  0.00     0.029 A 
ATOM     71  C   UNL     1       6.420  12.151  -3.851  1.00  0.00     0.049 A 
ATOM     72  H   UNL     1       6.314  10.075  -3.492  1.00  0.00     0.167 HD
ATOM     73  C   UNL     1       6.119  11.163  -6.108  1.00  0.00     0.074 A 
ATOM     74  C   UNL     1       5.973  11.255  -7.546  1.00  0.00     0.031 C 
ATOM     75  C   UNL     1       6.276  12.229  -5.285  1.00  0.00     0.037 A 
BRANCH  62  76
ATOM     76  C   UNL     1       6.745  10.744   0.709  1.00  0.00     0.058 A 
ATOM     77  C   UNL     1       7.914  10.526   1.457  1.00  0.00     0.135 A 
ATOM     78  C   UNL     1       5.681  11.408   1.339  1.00  0.00     0.135 A 
ATOM     79  F   UNL     1       8.959   9.886   0.908  1.00  0.00    -0.206 F 
ATOM     80  C   UNL     1       8.004  10.902   2.793  1.00  0.00     0.059 A 
ATOM     81  C   UNL     1       5.760  11.819   2.666  1.00  0.00     0.059 A 
ATOM     82  F   UNL     1       4.542  11.648   0.670  1.00  0.00    -0.206 F 
ATOM     83  C   UNL     1       6.917  11.539   3.392  1.00  0.00     0.060 A 
BRANCH  83  84
ATOM     84  S   UNL     1       7.031  11.984   5.138  1.00  0.00     0.124 S 
ATOM     85  O   UNL     1       6.842  10.686   5.779  1.00  0.00    -0.237 OA
ATOM     86  O   UNL     1       8.374  12.547   5.233  1.00  0.00    -0.237 OA
ATOM     87  O   UNL     1       5.941  12.938   5.317  1.00  0.00    -0.744 OA
ENDBRANCH  83  84
ENDBRANCH  62  76
BRANCH  63  88
ATOM     88  C   UNL     1       5.569   7.164  -8.539  1.00  0.00     0.058 A 
ATOM     89  C   UNL     1       6.596   7.184  -9.493  1.00  0.00     0.135 A 
ATOM     90  C   UNL     1       4.347   6.578  -8.904  1.00  0.00     0.135 A 
ATOM     91  F   UNL     1       7.779   7.739  -9.192  1.00  0.00    -0.206 F 
ATOM     92  C   UNL     1       6.422   6.642 -10.762  1.00  0.00     0.059 A 
ATOM     93  C   UNL     1       4.155   6.011 -10.160  1.00  0.00     0.059 A 
ATOM     94  F   UNL     1       3.338   6.519  -8.020  1.00  0.00    -0.206 F 
ATOM     95  C   UNL     1       5.199   6.051 -11.084  1.00  0.00     0.060 A 
BRANCH  95  96
ATOM     96  S   UNL     1       5.011   5.277 -12.705  1.00  0.00     0.124 S 
ATOM     97  O   UNL     1       4.891   6.441 -13.575  1.00  0.00    -0.237 OA
ATOM     98  O   UNL     1       6.249   4.513 -12.826  1.00  0.00    -0.237 OA
ATOM     99  O   UNL     1       3.801   4.473 -12.554  1.00  0.00    -0.744 OA
ENDBRANCH  95  96
ENDBRANCH  63  88
BRANCH  75 100
ATOM    100  C   UNL     1       6.327  13.591  -5.919  1.00  0.00     0.058 A 
ATOM    101  C   UNL     1       5.173  14.216  -6.417  1.00  0.00     0.135 A 
ATOM    102  C   UNL     1       7.537  14.302  -5.979  1.00  0.00     0.135 A 
ATOM    103  F   UNL     1       3.994  13.576  -6.391  1.00  0.00    -0.206 F 
ATOM    104  C   UNL     1       5.219  15.493  -6.967  1.00  0.00     0.059 A 
ATOM    105  C   UNL     1       7.602  15.589  -6.504  1.00  0.00     0.059 A 
ATOM    106  F   UNL     1       8.668  13.752  -5.510  1.00  0.00    -0.206 F 
ATOM    107  C   UNL     1       6.439  16.173  -7.004  1.00  0.00     0.060 A 
BRANCH 107 108
ATOM    108  S   UNL     1       6.479  17.846  -7.682  1.00  0.00     0.124 S 
ATOM    109  O   UNL     1       6.390  17.585  -9.115  1.00  0.00    -0.237 OA
ATOM    110  O   UNL     1       5.302  18.460  -7.075  1.00  0.00    -0.237 OA
ATOM    111  O   UNL     1       7.760  18.369  -7.218  1.00  0.00    -0.744 OA
ENDBRANCH 107 108
ENDBRANCH  75 100
ENDBRANCH  49  50
ENDBRANCH  41  44
ENDBRANCH  39  40
ENDBRANCH   1  39
TORSDOF 15
