REMARK SMILES CC1(C)[C@H]2CC[C@]1(C)C(=O)N(CC(=O)NCCCCNC(=O)c1ccc(-c3c4nc(c(-c5c(F)cc(S(=O)(=O)[O-])cc5F)c5ccc([nH]5)c(-c5c(F)cc(S(=O)(=O)[O-])cc5F)c5nc(c(-c6c(F)cc(S(=O)(=O)[O-])cc6F)c6ccc3[nH]6)C=C5)C=C4)cc1)C2=O
REMARK SMILES IDX 18 1 17 2 16 3 15 4 13 5 14 6 12 8 11 9 1 10 2 11 4 12 7 13
REMARK SMILES IDX 3 14 5 15 89 16 6 17 9 18 8 19 90 20 10 21 19 22 20 23 21 24
REMARK SMILES IDX 22 26 23 27 24 28 88 29 25 30 87 31 26 32 27 33 28 34 81 35
REMARK SMILES IDX 29 36 86 37 80 38 82 39 30 40 85 41 79 42 78 43 31 45 65 46
REMARK SMILES IDX 44 47 64 48 45 49 48 50 63 51 83 52 46 53 47 54 62 56 84 57
REMARK SMILES IDX 49 58 32 59 33 60 42 61 34 62 35 63 41 64 43 65 36 66 37 67
REMARK SMILES IDX 38 68 39 69 40 70 66 71 67 72 76 73 68 74 69 75 75 76 77 77
REMARK SMILES IDX 70 78 71 79 72 80 73 81 74 82 50 83 51 84 60 85 52 86 53 87
REMARK SMILES IDX 59 88 61 89 54 90 55 91 56 92 57 93 58 94
REMARK H PARENT 15 7 20 25 82 44 48 55
REMARK Flexibility Score: inf
ROOT
ATOM      1  C   UNL     1      -3.101  -5.729  -4.938  1.00  0.00     0.023 C 
ENDROOT
BRANCH   1   2
ATOM      2  C   UNL     1      -2.321  -4.533  -4.411  1.00  0.00     0.023 C 
BRANCH   2   3
ATOM      3  C   UNL     1      -1.408  -3.847  -5.418  1.00  0.00     0.116 C 
BRANCH   3   4
ATOM      4  N   UNL     1      -2.133  -2.843  -6.161  1.00  0.00    -0.355 N 
ATOM      5  C   UNL     1      -2.121  -1.486  -6.054  1.00  0.00     0.240 C 
ATOM      6  O   UNL     1      -2.751  -0.862  -6.917  1.00  0.00    -0.273 OA
ATOM      7  H   UNL     1      -2.732  -3.198  -6.857  1.00  0.00     0.163 HD
BRANCH   5   8
ATOM      8  C   UNL     1      -1.190  -0.732  -5.091  1.00  0.00     0.228 C 
BRANCH   8   9
ATOM      9  N   UNL     1      -1.051  -1.175  -3.702  1.00  0.00    -0.272 N 
ATOM     10  C   UNL     1      -0.756   0.642  -0.956  1.00  0.00     0.013 C 
ATOM     11  C   UNL     1      -0.754  -0.888  -0.824  1.00  0.00    -0.010 C 
ATOM     12  C   UNL     1       0.304  -1.608  -1.691  1.00  0.00     0.086 C 
ATOM     13  C   UNL     1      -2.010  -1.581  -1.415  1.00  0.00     0.053 C 
ATOM     14  C   UNL     1      -0.506  -1.212   0.676  1.00  0.00     0.013 C 
ATOM     15  C   UNL     1      -0.101  -3.093  -1.644  1.00  0.00     0.015 C 
ATOM     16  C   UNL     1       0.226  -1.179  -3.150  1.00  0.00     0.233 C 
ATOM     17  C   UNL     1      -1.606  -3.066  -1.349  1.00  0.00     0.018 C 
ATOM     18  C   UNL     1      -2.193  -1.158  -2.905  1.00  0.00     0.236 C 
ATOM     19  C   UNL     1      -3.327  -1.357  -0.669  1.00  0.00     0.022 C 
ATOM     20  O   UNL     1       1.244  -0.860  -3.762  1.00  0.00    -0.274 OA
ATOM     21  O   UNL     1      -3.280  -0.786  -3.342  1.00  0.00    -0.274 OA
ENDBRANCH   8   9
ENDBRANCH   5   8
ENDBRANCH   3   4
ENDBRANCH   2   3
ENDBRANCH   1   2
BRANCH   1  22
ATOM     22  C   UNL     1      -2.239  -6.951  -5.225  1.00  0.00     0.116 C 
BRANCH  22  23
ATOM     23  N   UNL     1      -1.491  -7.435  -4.064  1.00  0.00    -0.352 N 
ATOM     24  C   UNL     1      -1.379  -8.713  -3.567  1.00  0.00     0.251 C 
ATOM     25  H   UNL     1      -0.996  -6.745  -3.566  1.00  0.00     0.163 HD
ATOM     26  O   UNL     1      -0.782  -8.916  -2.513  1.00  0.00    -0.269 OA
BRANCH  24  27
ATOM     27  C   UNL     1      -2.016  -9.826  -4.297  1.00  0.00     0.039 A 
ATOM     28  C   UNL     1      -2.791 -10.755  -3.600  1.00  0.00     0.014 A 
ATOM     29  C   UNL     1      -1.914  -9.890  -5.687  1.00  0.00     0.014 A 
ATOM     30  C   UNL     1      -3.544 -11.690  -4.314  1.00  0.00     0.010 A 
ATOM     31  C   UNL     1      -2.759 -10.730  -6.393  1.00  0.00     0.010 A 
ATOM     32  C   UNL     1      -3.576 -11.648  -5.717  1.00  0.00    -0.014 A 
BRANCH  32  33
ATOM     33  C   UNL     1      -4.423 -12.567  -6.520  1.00  0.00     0.031 A 
ATOM     34  C   UNL     1      -3.774 -13.453  -7.551  1.00  0.00     0.074 A 
ATOM     35  C   UNL     1      -5.766 -12.527  -6.402  1.00  0.00     0.049 A 
ATOM     36  N   UNL     1      -4.328 -14.201  -8.468  1.00  0.00    -0.248 NA
ATOM     37  C   UNL     1      -2.301 -13.450  -7.593  1.00  0.00     0.031 C 
ATOM     38  C   UNL     1      -6.518 -11.656  -5.494  1.00  0.00     0.029 A 
ATOM     39  N   UNL     1      -6.741 -13.230  -7.063  1.00  0.00    -0.354 N 
ATOM     40  C   UNL     1      -3.277 -14.716  -9.219  1.00  0.00     0.074 A 
ATOM     41  C   UNL     1      -2.059 -14.142  -8.695  1.00  0.00     0.031 C 
ATOM     42  C   UNL     1      -7.831 -11.901  -5.631  1.00  0.00     0.029 A 
ATOM     43  C   UNL     1      -8.019 -12.917  -6.661  1.00  0.00     0.049 A 
ATOM     44  H   UNL     1      -6.545 -13.897  -7.760  1.00  0.00     0.167 HD
ATOM     45  C   UNL     1      -3.319 -15.615 -10.229  1.00  0.00     0.037 A 
ATOM     46  C   UNL     1      -9.206 -13.398  -7.080  1.00  0.00     0.037 A 
ATOM     47  C   UNL     1      -4.529 -16.239 -10.689  1.00  0.00     0.049 A 
ATOM     48  C   UNL     1      -9.224 -14.455  -8.150  1.00  0.00     0.074 A 
ATOM     49  C   UNL     1      -4.682 -17.223 -11.649  1.00  0.00     0.029 A 
ATOM     50  N   UNL     1      -5.796 -15.953 -10.200  1.00  0.00    -0.354 N 
ATOM     51  N   UNL     1      -8.216 -14.971  -8.814  1.00  0.00    -0.248 NA
ATOM     52  C   UNL     1     -10.534 -15.003  -8.523  1.00  0.00     0.031 C 
ATOM     53  C   UNL     1      -6.045 -17.518 -11.754  1.00  0.00     0.029 A 
ATOM     54  C   UNL     1      -6.736 -16.744 -10.835  1.00  0.00     0.049 A 
ATOM     55  H   UNL     1      -5.996 -15.287  -9.503  1.00  0.00     0.167 HD
ATOM     56  C   UNL     1      -8.767 -15.925  -9.661  1.00  0.00     0.074 A 
ATOM     57  C   UNL     1     -10.196 -15.921  -9.418  1.00  0.00     0.031 C 
ATOM     58  C   UNL     1      -8.150 -16.733 -10.558  1.00  0.00     0.037 A 
BRANCH  45  59
ATOM     59  C   UNL     1      -2.015 -15.992 -10.877  1.00  0.00     0.058 A 
ATOM     60  C   UNL     1      -1.043 -16.741 -10.194  1.00  0.00     0.135 A 
ATOM     61  C   UNL     1      -1.734 -15.606 -12.197  1.00  0.00     0.135 A 
ATOM     62  F   UNL     1      -1.251 -17.119  -8.922  1.00  0.00    -0.206 F 
ATOM     63  C   UNL     1       0.177 -17.059 -10.780  1.00  0.00     0.059 A 
ATOM     64  C   UNL     1      -0.531 -15.941 -12.815  1.00  0.00     0.059 A 
ATOM     65  F   UNL     1      -2.625 -14.888 -12.898  1.00  0.00    -0.206 F 
ATOM     66  C   UNL     1       0.425 -16.651 -12.091  1.00  0.00     0.060 A 
BRANCH  66  67
ATOM     67  S   UNL     1       2.015 -17.069 -12.836  1.00  0.00     0.124 S 
ATOM     68  O   UNL     1       2.902 -16.111 -12.183  1.00  0.00    -0.237 OA
ATOM     69  O   UNL     1       2.189 -18.463 -12.443  1.00  0.00    -0.237 OA
ATOM     70  O   UNL     1       1.790 -16.846 -14.261  1.00  0.00    -0.744 OA
ENDBRANCH  66  67
ENDBRANCH  45  59
BRANCH  46  71
ATOM     71  C   UNL     1     -10.468 -12.924  -6.450  1.00  0.00     0.058 A 
ATOM     72  C   UNL     1     -11.193 -13.758  -5.585  1.00  0.00     0.135 A 
ATOM     73  C   UNL     1     -10.968 -11.634  -6.685  1.00  0.00     0.135 A 
ATOM     74  F   UNL     1     -10.758 -15.001  -5.332  1.00  0.00    -0.206 F 
ATOM     75  C   UNL     1     -12.379 -13.339  -4.990  1.00  0.00     0.059 A 
ATOM     76  C   UNL     1     -12.140 -11.184  -6.083  1.00  0.00     0.059 A 
ATOM     77  F   UNL     1     -10.301 -10.790  -7.487  1.00  0.00    -0.206 F 
ATOM     78  C   UNL     1     -12.845 -12.048  -5.246  1.00  0.00     0.060 A 
BRANCH  78  79
ATOM     79  S   UNL     1     -14.361 -11.498  -4.432  1.00  0.00     0.124 S 
ATOM     80  O   UNL     1     -15.379 -12.211  -5.195  1.00  0.00    -0.237 OA
ATOM     81  O   UNL     1     -14.156 -11.953  -3.060  1.00  0.00    -0.237 OA
ATOM     82  O   UNL     1     -14.332 -10.050  -4.615  1.00  0.00    -0.744 OA
ENDBRANCH  78  79
ENDBRANCH  46  71
BRANCH  58  83
ATOM     83  C   UNL     1      -9.007 -17.709 -11.310  1.00  0.00     0.058 A 
ATOM     84  C   UNL     1      -9.847 -17.299 -12.355  1.00  0.00     0.135 A 
ATOM     85  C   UNL     1      -8.939 -19.081 -11.017  1.00  0.00     0.135 A 
ATOM     86  F   UNL     1      -9.949 -15.997 -12.669  1.00  0.00    -0.206 F 
ATOM     87  C   UNL     1     -10.608 -18.214 -13.074  1.00  0.00     0.059 A 
ATOM     88  C   UNL     1      -9.672 -20.016 -11.738  1.00  0.00     0.059 A 
ATOM     89  F   UNL     1      -8.140 -19.523 -10.033  1.00  0.00    -0.206 F 
ATOM     90  C   UNL     1     -10.512 -19.571 -12.758  1.00  0.00     0.060 A 
BRANCH  90  91
ATOM     91  S   UNL     1     -11.475 -20.755 -13.722  1.00  0.00     0.124 S 
ATOM     92  O   UNL     1     -12.812 -20.563 -13.171  1.00  0.00    -0.237 OA
ATOM     93  O   UNL     1     -11.279 -20.280 -15.089  1.00  0.00    -0.237 OA
ATOM     94  O   UNL     1     -10.845 -22.035 -13.414  1.00  0.00    -0.744 OA
ENDBRANCH  90  91
ENDBRANCH  58  83
ENDBRANCH  32  33
ENDBRANCH  24  27
ENDBRANCH  22  23
ENDBRANCH   1  22
TORSDOF 15
