REMARK SMILES C[N@H+]1CCCN(C(=O)N[C@@H]2CCCCC[C@@H]2C(=O)NCCCCNC(=O)c2ccc(-c3c4nc(c(-c5c(F)cc(S(=O)(=O)[O-])cc5F)c5ccc([nH]5)c(-c5c(F)cc(S(=O)(=O)[O-])cc5F)c5nc(c(-c6c(F)cc(S(=O)(=O)[O-])cc6F)c6ccc3[nH]6)C=C5)C=C4)cc2)CC1
REMARK SMILES IDX 17 1 18 2 19 3 16 5 10 6 9 7 7 8 8 9 6 11 93 12 94 13 2 14
REMARK SMILES IDX 1 15 3 17 4 18 5 20 11 22 12 23 15 25 14 26 13 27 20 29
REMARK SMILES IDX 21 30 22 31 23 32 24 33 25 34 26 36 27 37 28 38 92 39 29 40
REMARK SMILES IDX 91 41 30 42 31 43 32 44 85 45 33 46 90 47 84 48 86 49 34 50
REMARK SMILES IDX 89 51 83 52 82 53 35 55 69 56 48 57 68 58 49 59 52 60 67 61
REMARK SMILES IDX 87 62 50 63 51 64 66 66 88 67 53 68 36 69 37 70 46 71 38 72
REMARK SMILES IDX 39 73 45 74 47 75 40 76 41 77 42 78 43 79 44 80 70 81 71 82
REMARK SMILES IDX 80 83 72 84 73 85 79 86 81 87 74 88 75 89 76 90 77 91 78 92
REMARK SMILES IDX 54 93 55 94 64 95 56 96 57 97 63 98 65 99 58 100 59 101
REMARK SMILES IDX 60 102 61 103 62 104
REMARK H PARENT 19 4 9 10 2 16 24 35 86 54 52 65
REMARK Flexibility Score: 170.00
ROOT
ATOM      1  C   UNL     1      -4.597  -3.247   4.878  1.00  0.00     0.225 C 
ATOM      2  O   UNL     1      -5.351  -3.154   5.855  1.00  0.00    -0.275 OA
ATOM      3  N   UNL     1      -5.196  -3.578   3.696  1.00  0.00    -0.356 N 
ATOM      4  H   UNL     1      -6.116  -3.925   3.755  1.00  0.00     0.163 HD
ENDROOT
BRANCH   1   5
ATOM      5  C   UNL     1      -3.064  -3.089   5.107  1.00  0.00     0.101 C 
BRANCH   5   6
ATOM      6  C   UNL     1      -2.198  -1.986   4.435  1.00  0.00     0.096 C 
BRANCH   6   7
ATOM      7  N   UNL     1      -2.709  -0.626   4.663  1.00  0.00    -0.334 N 
ATOM      8  C   UNL     1      -2.322   0.650   4.456  1.00  0.00     0.317 C 
ATOM      9  O   UNL     1      -3.154   1.489   4.825  1.00  0.00    -0.249 OA
ATOM     10  H   UNL     1      -3.594  -0.655   5.094  1.00  0.00     0.165 HD
BRANCH   8  11
ATOM     11  N   UNL     1      -1.150   1.045   3.855  1.00  0.00    -0.319 N 
BRANCH  11  12
ATOM     12  C   UNL     1       0.063   0.279   3.572  1.00  0.00     0.182 C 
BRANCH  12  13
ATOM     13  C   UNL     1       0.304   0.118   2.050  1.00  0.00     0.283 C 
BRANCH  13  14
ATOM     14  N   UNL     1       1.160   1.133   1.425  1.00  0.00    -0.336 N 
ATOM     15  C   UNL     1       1.404   0.739   0.025  1.00  0.00     0.332 C 
ATOM     16  H   UNL     1       2.030   1.187   1.956  1.00  0.00     0.347 HD
BRANCH  14  17
ATOM     17  C   UNL     1       0.543   2.470   1.445  1.00  0.00     0.263 C 
BRANCH  17  18
ATOM     18  C   UNL     1       0.174   3.010   2.831  1.00  0.00     0.083 CG0
ATOM     19  G   UNL     1      -1.129   2.446   3.413  1.00  0.00     0.000 G0
ENDBRANCH  17  18
ENDBRANCH  14  17
ENDBRANCH  13  14
ENDBRANCH  12  13
ENDBRANCH  11  12
BRANCH  11  20
ATOM     20  C   UNL     1      -1.129   2.446   3.413  1.00  0.00     0.127 CG0
ATOM     21  G   UNL     1       0.174   3.010   2.831  1.00  0.00     0.000 G0
ENDBRANCH  11  20
ENDBRANCH   8  11
ENDBRANCH   6   7
BRANCH   6  22
ATOM     22  C   UNL     1      -1.840  -2.240   2.981  1.00  0.00     0.026 C 
BRANCH  22  23
ATOM     23  C   UNL     1      -0.853  -3.376   2.756  1.00  0.00     0.002 CG1
ATOM     24  G   UNL     1      -1.374  -4.806   2.779  1.00  0.00     0.000 G1
ENDBRANCH  22  23
ENDBRANCH   6  22
ENDBRANCH   5   6
BRANCH   5  25
ATOM     25  C   UNL     1      -2.333  -4.444   5.203  1.00  0.00     0.015 C 
BRANCH  25  26
ATOM     26  C   UNL     1      -2.219  -5.304   3.954  1.00  0.00     0.001 C 
BRANCH  26  27
ATOM     27  C   UNL     1      -1.374  -4.806   2.779  1.00  0.00     0.000 CG1
ATOM     28  G   UNL     1      -0.853  -3.376   2.756  1.00  0.00     0.000 G1
ENDBRANCH  26  27
ENDBRANCH  25  26
ENDBRANCH   5  25
ENDBRANCH   1   5
BRANCH   3  29
ATOM     29  C   UNL     1      -4.639  -3.476   2.382  1.00  0.00     0.116 C 
BRANCH  29  30
ATOM     30  C   UNL     1      -5.122  -4.397   1.278  1.00  0.00     0.023 C 
BRANCH  30  31
ATOM     31  C   UNL     1      -6.343  -3.943   0.501  1.00  0.00     0.023 C 
BRANCH  31  32
ATOM     32  C   UNL     1      -6.416  -2.465   0.138  1.00  0.00     0.116 C 
BRANCH  32  33
ATOM     33  N   UNL     1      -5.316  -1.967  -0.687  1.00  0.00    -0.352 N 
ATOM     34  C   UNL     1      -5.371  -1.282  -1.885  1.00  0.00     0.251 C 
ATOM     35  H   UNL     1      -4.412  -2.145  -0.341  1.00  0.00     0.163 HD
ATOM     36  O   UNL     1      -4.347  -0.941  -2.458  1.00  0.00    -0.269 OA
BRANCH  34  37
ATOM     37  C   UNL     1      -6.696  -1.026  -2.495  1.00  0.00     0.039 A 
ATOM     38  C   UNL     1      -6.946  -1.488  -3.789  1.00  0.00     0.014 A 
ATOM     39  C   UNL     1      -7.722  -0.472  -1.730  1.00  0.00     0.014 A 
ATOM     40  C   UNL     1      -8.259  -1.516  -4.263  1.00  0.00     0.010 A 
ATOM     41  C   UNL     1      -9.037  -0.612  -2.158  1.00  0.00     0.010 A 
ATOM     42  C   UNL     1      -9.324  -1.149  -3.423  1.00  0.00    -0.014 A 
BRANCH  42  43
ATOM     43  C   UNL     1     -10.744  -1.337  -3.831  1.00  0.00     0.031 A 
ATOM     44  C   UNL     1     -11.678  -0.156  -3.863  1.00  0.00     0.074 A 
ATOM     45  C   UNL     1     -11.218  -2.577  -4.077  1.00  0.00     0.049 A 
ATOM     46  N   UNL     1     -12.966  -0.128  -4.084  1.00  0.00    -0.248 NA
ATOM     47  C   UNL     1     -11.093   1.161  -3.561  1.00  0.00     0.031 C 
ATOM     48  C   UNL     1     -10.441  -3.818  -4.001  1.00  0.00     0.029 A 
ATOM     49  N   UNL     1     -12.475  -3.002  -4.431  1.00  0.00    -0.354 N 
ATOM     50  C   UNL     1     -13.348   1.198  -3.918  1.00  0.00     0.074 A 
ATOM     51  C   UNL     1     -12.169   1.931  -3.516  1.00  0.00     0.031 C 
ATOM     52  C   UNL     1     -11.228  -4.855  -4.331  1.00  0.00     0.029 A 
ATOM     53  C   UNL     1     -12.574  -4.364  -4.607  1.00  0.00     0.049 A 
ATOM     54  H   UNL     1     -13.237  -2.389  -4.549  1.00  0.00     0.167 HD
ATOM     55  C   UNL     1     -14.563   1.764  -4.114  1.00  0.00     0.037 A 
ATOM     56  C   UNL     1     -13.628  -5.130  -4.952  1.00  0.00     0.037 A 
ATOM     57  C   UNL     1     -15.721   1.043  -4.570  1.00  0.00     0.049 A 
ATOM     58  C   UNL     1     -14.955  -4.472  -5.220  1.00  0.00     0.074 A 
ATOM     59  C   UNL     1     -16.976   1.537  -4.876  1.00  0.00     0.029 A 
ATOM     60  N   UNL     1     -15.763  -0.325  -4.795  1.00  0.00    -0.354 N 
ATOM     61  N   UNL     1     -15.279  -3.205  -5.126  1.00  0.00    -0.248 NA
ATOM     62  C   UNL     1     -16.056  -5.345  -5.649  1.00  0.00     0.031 C 
ATOM     63  C   UNL     1     -17.786   0.463  -5.261  1.00  0.00     0.029 A 
ATOM     64  C   UNL     1     -17.024  -0.694  -5.230  1.00  0.00     0.049 A 
ATOM     65  H   UNL     1     -15.007  -0.942  -4.665  1.00  0.00     0.167 HD
ATOM     66  C   UNL     1     -16.613  -3.125  -5.509  1.00  0.00     0.074 A 
ATOM     67  C   UNL     1     -17.032  -4.470  -5.847  1.00  0.00     0.031 C 
ATOM     68  C   UNL     1     -17.419  -2.036  -5.574  1.00  0.00     0.037 A 
BRANCH  55  69
ATOM     69  C   UNL     1     -14.688   3.240  -3.859  1.00  0.00     0.058 A 
ATOM     70  C   UNL     1     -14.081   4.185  -4.702  1.00  0.00     0.135 A 
ATOM     71  C   UNL     1     -15.436   3.717  -2.771  1.00  0.00     0.135 A 
ATOM     72  F   UNL     1     -13.340   3.783  -5.746  1.00  0.00    -0.206 F 
ATOM     73  C   UNL     1     -14.180   5.550  -4.455  1.00  0.00     0.059 A 
ATOM     74  C   UNL     1     -15.573   5.080  -2.521  1.00  0.00     0.059 A 
ATOM     75  F   UNL     1     -16.037   2.858  -1.933  1.00  0.00    -0.206 F 
ATOM     76  C   UNL     1     -14.926   5.988  -3.360  1.00  0.00     0.060 A 
BRANCH  76  77
ATOM     77  S   UNL     1     -15.046   7.762  -3.054  1.00  0.00     0.124 S 
ATOM     78  O   UNL     1     -13.725   8.052  -2.505  1.00  0.00    -0.237 OA
ATOM     79  O   UNL     1     -15.307   8.293  -4.388  1.00  0.00    -0.237 OA
ATOM     80  O   UNL     1     -16.156   7.870  -2.112  1.00  0.00    -0.744 OA
ENDBRANCH  76  77
ENDBRANCH  55  69
BRANCH  56  81
ATOM     81  C   UNL     1     -13.464  -6.601  -5.105  1.00  0.00     0.058 A 
ATOM     82  C   UNL     1     -13.477  -7.197  -6.375  1.00  0.00     0.135 A 
ATOM     83  C   UNL     1     -13.282  -7.437  -3.993  1.00  0.00     0.135 A 
ATOM     84  F   UNL     1     -13.654  -6.440  -7.468  1.00  0.00    -0.206 F 
ATOM     85  C   UNL     1     -13.331  -8.571  -6.539  1.00  0.00     0.059 A 
ATOM     86  C   UNL     1     -13.111  -8.812  -4.133  1.00  0.00     0.059 A 
ATOM     87  F   UNL     1     -13.244  -6.915  -2.758  1.00  0.00    -0.206 F 
ATOM     88  C   UNL     1     -13.147  -9.371  -5.410  1.00  0.00     0.060 A 
BRANCH  88  89
ATOM     89  S   UNL     1     -12.906 -11.147  -5.636  1.00  0.00     0.124 S 
ATOM     90  O   UNL     1     -14.259 -11.591  -5.946  1.00  0.00    -0.237 OA
ATOM     91  O   UNL     1     -11.950 -11.190  -6.739  1.00  0.00    -0.237 OA
ATOM     92  O   UNL     1     -12.378 -11.579  -4.345  1.00  0.00    -0.744 OA
ENDBRANCH  88  89
ENDBRANCH  56  81
BRANCH  68  93
ATOM     93  C   UNL     1     -18.825  -2.245  -6.062  1.00  0.00     0.058 A 
ATOM     94  C   UNL     1     -19.801  -2.853  -5.259  1.00  0.00     0.135 A 
ATOM     95  C   UNL     1     -19.210  -1.781  -7.330  1.00  0.00     0.135 A 
ATOM     96  F   UNL     1     -19.480  -3.318  -4.041  1.00  0.00    -0.206 F 
ATOM     97  C   UNL     1     -21.108  -3.015  -5.705  1.00  0.00     0.059 A 
ATOM     98  C   UNL     1     -20.518  -1.911  -7.787  1.00  0.00     0.059 A 
ATOM     99  F   UNL     1     -18.316  -1.182  -8.133  1.00  0.00    -0.206 F 
ATOM    100  C   UNL     1     -21.457  -2.541  -6.971  1.00  0.00     0.060 A 
BRANCH 100 101
ATOM    101  S   UNL     1     -23.164  -2.728  -7.528  1.00  0.00     0.124 S 
ATOM    102  O   UNL     1     -23.205  -4.144  -7.876  1.00  0.00    -0.237 OA
ATOM    103  O   UNL     1     -23.925  -2.343  -6.343  1.00  0.00    -0.237 OA
ATOM    104  O   UNL     1     -23.257  -1.801  -8.652  1.00  0.00    -0.744 OA
ENDBRANCH 100 101
ENDBRANCH  68  93
ENDBRANCH  42  43
ENDBRANCH  34  37
ENDBRANCH  32  33
ENDBRANCH  31  32
ENDBRANCH  30  31
ENDBRANCH  29  30
ENDBRANCH   3  29
TORSDOF 16
