REMARK SMILES CCC(CC)(CC(=O)NNC(=O)c1cc(C)oc1C)C(=O)NCCCCNC(=O)c1ccc(-c2c3nc(c(-c4c(F)cc(S(=O)(=O)[O-])cc4F)c4ccc([nH]4)c(-c4c(F)cc(S(=O)(=O)[O-])cc4F)c4nc(c(-c5c(F)cc(S(=O)(=O)[O-])cc5F)c5ccc2[nH]5)C=C4)C=C3)cc1
REMARK SMILES IDX 24 1 23 2 22 3 20 4 21 5 3 7 2 8 1 9 4 10 5 11 6 12 7 13
REMARK SMILES IDX 8 14 9 15 10 17 11 18 12 20 13 21 14 22 18 23 15 24 17 25
REMARK SMILES IDX 19 26 16 27 25 28 26 29 27 30 28 31 29 33 30 34 31 35 95 36
REMARK SMILES IDX 32 37 94 38 33 39 34 40 35 41 88 42 36 43 93 44 87 45 89 46
REMARK SMILES IDX 37 47 92 48 86 49 85 50 38 52 72 53 51 54 71 55 52 56 55 57
REMARK SMILES IDX 70 58 90 59 53 60 54 61 69 63 91 64 56 65 39 66 40 67 49 68
REMARK SMILES IDX 41 69 42 70 48 71 50 72 43 73 44 74 45 75 46 76 47 77 73 78
REMARK SMILES IDX 74 79 83 80 75 81 76 82 82 83 84 84 77 85 78 86 79 87 80 88
REMARK SMILES IDX 81 89 57 90 58 91 67 92 59 93 60 94 66 95 68 96 61 97 62 98
REMARK SMILES IDX 63 99 64 100 65 101
REMARK H PARENT 22 6 9 16 10 19 27 32 89 51 55 62
REMARK Flexibility Score: inf
ROOT
ATOM      1  C   UNL     1       2.561   3.087   5.577  1.00  0.00     0.023 C 
ENDROOT
BRANCH   1   2
ATOM      2  C   UNL     1       2.233   3.164   4.086  1.00  0.00     0.116 C 
BRANCH   2   3
ATOM      3  N   UNL     1       2.785   2.058   3.327  1.00  0.00    -0.356 N 
ATOM      4  C   UNL     1       2.257   1.155   2.461  1.00  0.00     0.226 C 
ATOM      5  O   UNL     1       3.056   0.328   2.006  1.00  0.00    -0.274 OA
ATOM      6  H   UNL     1       3.752   1.935   3.470  1.00  0.00     0.163 HD
BRANCH   4   7
ATOM      7  C   UNL     1       0.757   1.121   2.054  1.00  0.00     0.057 C 
BRANCH   7   8
ATOM      8  C   UNL     1       0.556  -0.036   1.008  1.00  0.00     0.014 C 
ATOM      9  C   UNL     1       1.129   0.203  -0.389  1.00  0.00     0.005 C 
ENDBRANCH   7   8
BRANCH   7  10
ATOM     10  C   UNL     1       0.337   2.481   1.419  1.00  0.00     0.014 C 
ATOM     11  C   UNL     1      -1.120   2.578   0.974  1.00  0.00     0.005 C 
ENDBRANCH   7  10
BRANCH   7  12
ATOM     12  C   UNL     1      -0.122   0.785   3.292  1.00  0.00     0.118 C 
BRANCH  12  13
ATOM     13  C   UNL     1       0.397  -0.361   4.149  1.00  0.00     0.239 C 
ATOM     14  O   UNL     1       1.242  -0.168   5.024  1.00  0.00    -0.273 OA
ATOM     15  N   UNL     1      -0.099  -1.627   3.980  1.00  0.00    -0.267 N 
ATOM     16  H   UNL     1       0.294  -2.343   4.530  1.00  0.00     0.191 HD
BRANCH  15  17
ATOM     17  N   UNL     1      -1.113  -1.987   3.095  1.00  0.00    -0.263 N 
ATOM     18  C   UNL     1      -1.170  -3.183   2.405  1.00  0.00     0.273 C 
ATOM     19  H   UNL     1      -1.842  -1.341   2.951  1.00  0.00     0.191 HD
ATOM     20  O   UNL     1      -1.905  -3.264   1.421  1.00  0.00    -0.267 OA
BRANCH  18  21
ATOM     21  C   UNL     1      -0.389  -4.313   2.877  1.00  0.00     0.082 A 
ATOM     22  C   UNL     1      -0.169  -4.787   4.205  1.00  0.00     0.059 A 
ATOM     23  C   UNL     1       0.236  -5.235   2.054  1.00  0.00     0.113 A 
ATOM     24  C   UNL     1       0.589  -5.932   4.101  1.00  0.00     0.101 A 
ATOM     25  O   UNL     1       0.836  -6.208   2.793  1.00  0.00    -0.466 OA
ATOM     26  C   UNL     1       0.366  -5.362   0.587  1.00  0.00     0.088 C 
ATOM     27  C   UNL     1       1.133  -6.888   5.084  1.00  0.00     0.087 C 
ENDBRANCH  18  21
ENDBRANCH  15  17
ENDBRANCH  12  13
ENDBRANCH   7  12
ENDBRANCH   4   7
ENDBRANCH   2   3
ENDBRANCH   1   2
BRANCH   1  28
ATOM     28  C   UNL     1       4.047   3.141   5.948  1.00  0.00     0.023 C 
BRANCH  28  29
ATOM     29  C   UNL     1       4.850   4.303   5.364  1.00  0.00     0.116 C 
BRANCH  29  30
ATOM     30  N   UNL     1       4.273   5.603   5.660  1.00  0.00    -0.352 N 
ATOM     31  C   UNL     1       4.891   6.793   5.956  1.00  0.00     0.251 C 
ATOM     32  H   UNL     1       3.289   5.636   5.647  1.00  0.00     0.163 HD
ATOM     33  O   UNL     1       4.204   7.765   6.259  1.00  0.00    -0.269 OA
BRANCH  31  34
ATOM     34  C   UNL     1       6.368   6.909   5.950  1.00  0.00     0.039 A 
ATOM     35  C   UNL     1       6.980   7.570   7.021  1.00  0.00     0.014 A 
ATOM     36  C   UNL     1       7.146   6.416   4.898  1.00  0.00     0.014 A 
ATOM     37  C   UNL     1       8.372   7.678   7.074  1.00  0.00     0.010 A 
ATOM     38  C   UNL     1       8.539   6.505   4.961  1.00  0.00     0.010 A 
ATOM     39  C   UNL     1       9.161   7.125   6.055  1.00  0.00    -0.014 A 
BRANCH  39  40
ATOM     40  C   UNL     1      10.639   7.155   6.143  1.00  0.00     0.031 A 
ATOM     41  C   UNL     1      11.437   8.118   5.317  1.00  0.00     0.074 A 
ATOM     42  C   UNL     1      11.269   6.276   6.944  1.00  0.00     0.049 A 
ATOM     43  N   UNL     1      12.735   8.207   5.182  1.00  0.00    -0.248 NA
ATOM     44  C   UNL     1      10.676   9.103   4.535  1.00  0.00     0.031 C 
ATOM     45  C   UNL     1      10.609   5.277   7.787  1.00  0.00     0.029 A 
ATOM     46  N   UNL     1      12.606   6.078   7.173  1.00  0.00    -0.354 N 
ATOM     47  C   UNL     1      12.950   9.228   4.267  1.00  0.00     0.074 A 
ATOM     48  C   UNL     1      11.647   9.747   3.901  1.00  0.00     0.031 C 
ATOM     49  C   UNL     1      11.546   4.576   8.447  1.00  0.00     0.029 A 
ATOM     50  C   UNL     1      12.867   5.065   8.061  1.00  0.00     0.049 A 
ATOM     51  H   UNL     1      13.312   6.612   6.741  1.00  0.00     0.167 HD
ATOM     52  C   UNL     1      14.124   9.681   3.766  1.00  0.00     0.037 A 
ATOM     53  C   UNL     1      14.038   4.577   8.509  1.00  0.00     0.037 A 
ATOM     54  C   UNL     1      15.423   9.192   4.145  1.00  0.00     0.049 A 
ATOM     55  C   UNL     1      15.327   5.158   8.011  1.00  0.00     0.074 A 
ATOM     56  C   UNL     1      16.666   9.574   3.670  1.00  0.00     0.029 A 
ATOM     57  N   UNL     1      15.646   8.222   5.110  1.00  0.00    -0.354 N 
ATOM     58  N   UNL     1      15.512   6.098   7.117  1.00  0.00    -0.248 NA
ATOM     59  C   UNL     1      16.565   4.610   8.582  1.00  0.00     0.031 C 
ATOM     60  C   UNL     1      17.643   8.841   4.359  1.00  0.00     0.029 A 
ATOM     61  C   UNL     1      17.006   8.004   5.260  1.00  0.00     0.049 A 
ATOM     62  H   UNL     1      14.942   7.756   5.616  1.00  0.00     0.167 HD
ATOM     63  C   UNL     1      16.888   6.249   7.008  1.00  0.00     0.074 A 
ATOM     64  C   UNL     1      17.489   5.313   7.938  1.00  0.00     0.031 C 
ATOM     65  C   UNL     1      17.588   7.080   6.198  1.00  0.00     0.037 A 
BRANCH  52  66
ATOM     66  C   UNL     1      14.033  10.754   2.726  1.00  0.00     0.058 A 
ATOM     67  C   UNL     1      13.992  12.110   3.080  1.00  0.00     0.135 A 
ATOM     68  C   UNL     1      13.945  10.419   1.366  1.00  0.00     0.135 A 
ATOM     69  F   UNL     1      14.055  12.473   4.371  1.00  0.00    -0.206 F 
ATOM     70  C   UNL     1      13.839  13.104   2.119  1.00  0.00     0.059 A 
ATOM     71  C   UNL     1      13.794  11.396   0.389  1.00  0.00     0.059 A 
ATOM     72  F   UNL     1      13.967   9.133   0.983  1.00  0.00    -0.206 F 
ATOM     73  C   UNL     1      13.723  12.735   0.777  1.00  0.00     0.060 A 
BRANCH  73  74
ATOM     74  S   UNL     1      13.469  14.002  -0.485  1.00  0.00     0.124 S 
ATOM     75  O   UNL     1      12.017  13.980  -0.627  1.00  0.00    -0.237 OA
ATOM     76  O   UNL     1      14.024  15.203   0.133  1.00  0.00    -0.237 OA
ATOM     77  O   UNL     1      14.224  13.482  -1.621  1.00  0.00    -0.744 OA
ENDBRANCH  73  74
ENDBRANCH  52  66
BRANCH  53  78
ATOM     78  C   UNL     1      14.028   3.470   9.491  1.00  0.00     0.058 A 
ATOM     79  C   UNL     1      14.034   3.736  10.867  1.00  0.00     0.135 A 
ATOM     80  C   UNL     1      13.943   2.136   9.070  1.00  0.00     0.135 A 
ATOM     81  F   UNL     1      14.111   5.001  11.306  1.00  0.00    -0.206 F 
ATOM     82  C   UNL     1      13.941   2.711  11.802  1.00  0.00     0.059 A 
ATOM     83  C   UNL     1      13.847   1.095   9.986  1.00  0.00     0.059 A 
ATOM     84  F   UNL     1      13.926   1.844   7.761  1.00  0.00    -0.206 F 
ATOM     85  C   UNL     1      13.845   1.393  11.351  1.00  0.00     0.060 A 
BRANCH  85  86
ATOM     86  S   UNL     1      13.624   0.054  12.543  1.00  0.00     0.124 S 
ATOM     87  O   UNL     1      14.995  -0.408  12.722  1.00  0.00    -0.237 OA
ATOM     88  O   UNL     1      13.027   0.732  13.690  1.00  0.00    -0.237 OA
ATOM     89  O   UNL     1      12.730  -0.858  11.835  1.00  0.00    -0.744 OA
ENDBRANCH  85  86
ENDBRANCH  53  78
BRANCH  65  90
ATOM     90  C   UNL     1      19.081   7.009   6.290  1.00  0.00     0.058 A 
ATOM     91  C   UNL     1      19.810   6.118   5.489  1.00  0.00     0.135 A 
ATOM     92  C   UNL     1      19.788   7.836   7.175  1.00  0.00     0.135 A 
ATOM     93  F   UNL     1      19.173   5.305   4.631  1.00  0.00    -0.206 F 
ATOM     94  C   UNL     1      21.197   6.041   5.568  1.00  0.00     0.059 A 
ATOM     95  C   UNL     1      21.174   7.775   7.271  1.00  0.00     0.059 A 
ATOM     96  F   UNL     1      19.130   8.698   7.965  1.00  0.00    -0.206 F 
ATOM     97  C   UNL     1      21.869   6.867   6.470  1.00  0.00     0.060 A 
BRANCH  97  98
ATOM     98  S   UNL     1      23.671   6.786   6.579  1.00  0.00     0.124 S 
ATOM     99  O   UNL     1      23.855   5.800   7.639  1.00  0.00    -0.237 OA
ATOM    100  O   UNL     1      24.062   6.356   5.240  1.00  0.00    -0.237 OA
ATOM    101  O   UNL     1      24.039   8.157   6.920  1.00  0.00    -0.744 OA
ENDBRANCH  97  98
ENDBRANCH  65  90
ENDBRANCH  39  40
ENDBRANCH  31  34
ENDBRANCH  29  30
ENDBRANCH  28  29
ENDBRANCH   1  28
TORSDOF 20
