REMARK SMILES CCN(CC(C)(C)O)C(=O)N[C@@H](C(=O)NCCCCNC(=O)c1ccc(-c2c3nc(c(-c4c(F)cc(S(=O)(=O)[O-])cc4F)c4ccc([nH]4)c(-c4c(F)cc(S(=O)(=O)[O-])cc4F)c4nc(c(-c5c(F)cc(S(=O)(=O)[O-])cc5F)c5ccc2[nH]5)C=C4)C=C3)cc1)C(C)(C)C
REMARK SMILES IDX 16 1 15 2 13 3 14 4 12 6 11 7 9 8 10 9 3 11 2 12 1 13 4 14
REMARK SMILES IDX 5 15 6 16 7 17 8 18 89 20 90 21 91 22 92 23 17 24 18 25
REMARK SMILES IDX 19 26 20 27 21 28 22 30 23 31 24 32 88 33 25 34 87 35 26 36
REMARK SMILES IDX 27 37 28 38 81 39 29 40 86 41 80 42 82 43 30 44 85 45 79 46
REMARK SMILES IDX 78 47 31 49 65 50 44 51 64 52 45 53 48 54 63 55 83 56 46 57
REMARK SMILES IDX 47 58 62 60 84 61 49 62 32 63 33 64 42 65 34 66 35 67 41 68
REMARK SMILES IDX 43 69 36 70 37 71 38 72 39 73 40 74 66 75 67 76 76 77 68 78
REMARK SMILES IDX 69 79 75 80 77 81 70 82 71 83 72 84 73 85 74 86 50 87 51 88
REMARK SMILES IDX 60 89 52 90 53 91 59 92 61 93 54 94 55 95 56 96 57 97 58 98
REMARK H PARENT 15 5 11 10 8 19 20 29 82 48 48 59
REMARK Flexibility Score: inf
ROOT
ATOM      1  C   UNL     1       3.224   0.816  -5.155  1.00  0.00     0.116 C 
ENDROOT
BRANCH   1   2
ATOM      2  N   UNL     1       3.596  -0.318  -5.992  1.00  0.00    -0.354 N 
ATOM      3  C   UNL     1       3.389  -1.668  -5.853  1.00  0.00     0.243 C 
ATOM      4  O   UNL     1       3.650  -2.343  -6.855  1.00  0.00    -0.273 OA
ATOM      5  H   UNL     1       4.087  -0.070  -6.808  1.00  0.00     0.163 HD
BRANCH   3   6
ATOM      6  C   UNL     1       2.652  -2.309  -4.620  1.00  0.00     0.178 C 
BRANCH   6   7
ATOM      7  N   UNL     1       2.945  -1.629  -3.375  1.00  0.00    -0.326 N 
ATOM      8  C   UNL     1       2.270  -0.800  -2.568  1.00  0.00     0.318 C 
ATOM      9  O   UNL     1       2.993  -0.214  -1.753  1.00  0.00    -0.249 OA
ATOM     10  H   UNL     1       3.852  -1.822  -3.045  1.00  0.00     0.166 HD
BRANCH   8  11
ATOM     11  N   UNL     1       0.921  -0.572  -2.642  1.00  0.00    -0.322 N 
BRANCH  11  12
ATOM     12  C   UNL     1       0.432   0.470  -1.721  1.00  0.00     0.118 C 
ATOM     13  C   UNL     1       0.451   0.030  -0.257  1.00  0.00     0.027 C 
ENDBRANCH  11  12
BRANCH  11  14
ATOM     14  C   UNL     1      -0.147  -1.358  -3.306  1.00  0.00     0.155 C 
BRANCH  14  15
ATOM     15  C   UNL     1      -0.889  -0.721  -4.543  1.00  0.00     0.077 C 
ATOM     16  C   UNL     1      -0.189  -0.897  -5.893  1.00  0.00     0.043 C 
ATOM     17  C   UNL     1      -2.272  -1.379  -4.676  1.00  0.00     0.043 C 
BRANCH  15  18
ATOM     18  O   UNL     1      -1.097   0.679  -4.335  1.00  0.00    -0.389 OA
ATOM     19  H   UNL     1      -0.240   1.124  -4.247  1.00  0.00     0.211 HD
ENDBRANCH  15  18
ENDBRANCH  14  15
ENDBRANCH  11  14
ENDBRANCH   8  11
ENDBRANCH   6   7
BRANCH   6  20
ATOM     20  C   UNL     1       2.794  -3.873  -4.455  1.00  0.00    -0.009 C 
ATOM     21  C   UNL     1       2.417  -4.338  -3.021  1.00  0.00     0.013 C 
ATOM     22  C   UNL     1       1.820  -4.584  -5.418  1.00  0.00     0.013 C 
ATOM     23  C   UNL     1       4.226  -4.376  -4.714  1.00  0.00     0.013 C 
ENDBRANCH   6  20
ENDBRANCH   3   6
ENDBRANCH   1   2
BRANCH   1  24
ATOM     24  C   UNL     1       3.923   2.129  -5.509  1.00  0.00     0.023 C 
BRANCH  24  25
ATOM     25  C   UNL     1       3.629   2.722  -6.887  1.00  0.00     0.023 C 
BRANCH  25  26
ATOM     26  C   UNL     1       2.163   3.029  -7.186  1.00  0.00     0.116 C 
BRANCH  26  27
ATOM     27  N   UNL     1       1.598   4.062  -6.328  1.00  0.00    -0.352 N 
ATOM     28  C   UNL     1       1.228   5.360  -6.619  1.00  0.00     0.251 C 
ATOM     29  H   UNL     1       1.456   3.791  -5.392  1.00  0.00     0.163 HD
ATOM     30  O   UNL     1       0.879   6.114  -5.724  1.00  0.00    -0.269 OA
BRANCH  28  31
ATOM     31  C   UNL     1       1.286   5.848  -8.016  1.00  0.00     0.039 A 
ATOM     32  C   UNL     1       1.958   7.043  -8.290  1.00  0.00     0.014 A 
ATOM     33  C   UNL     1       0.696   5.123  -9.052  1.00  0.00     0.014 A 
ATOM     34  C   UNL     1       2.135   7.450  -9.617  1.00  0.00     0.010 A 
ATOM     35  C   UNL     1       0.935   5.491 -10.374  1.00  0.00     0.010 A 
ATOM     36  C   UNL     1       1.675   6.646 -10.672  1.00  0.00    -0.014 A 
BRANCH  36  37
ATOM     37  C   UNL     1       1.986   6.964 -12.092  1.00  0.00     0.031 A 
ATOM     38  C   UNL     1       0.876   7.244 -13.068  1.00  0.00     0.074 A 
ATOM     39  C   UNL     1       3.262   6.898 -12.525  1.00  0.00     0.049 A 
ATOM     40  N   UNL     1       0.937   7.403 -14.365  1.00  0.00    -0.248 NA
ATOM     41  C   UNL     1      -0.485   7.326 -12.516  1.00  0.00     0.031 C 
ATOM     42  C   UNL     1       4.426   6.591 -11.690  1.00  0.00     0.029 A 
ATOM     43  N   UNL     1       3.794   7.064 -13.781  1.00  0.00    -0.354 N 
ATOM     44  C   UNL     1      -0.375   7.583 -14.787  1.00  0.00     0.074 A 
ATOM     45  C   UNL     1      -1.214   7.468 -13.614  1.00  0.00     0.031 C 
ATOM     46  C   UNL     1       5.532   6.603 -12.451  1.00  0.00     0.029 A 
ATOM     47  C   UNL     1       5.156   6.874 -13.835  1.00  0.00     0.049 A 
ATOM     48  H   UNL     1       3.252   7.297 -14.569  1.00  0.00     0.167 HD
ATOM     49  C   UNL     1      -0.836   7.838 -16.035  1.00  0.00     0.037 A 
ATOM     50  C   UNL     1       6.006   6.899 -14.881  1.00  0.00     0.037 A 
ATOM     51  C   UNL     1       0.005   7.981 -17.195  1.00  0.00     0.049 A 
ATOM     52  C   UNL     1       5.470   7.184 -16.258  1.00  0.00     0.074 A 
ATOM     53  C   UNL     1      -0.363   8.300 -18.491  1.00  0.00     0.029 A 
ATOM     54  N   UNL     1       1.382   7.814 -17.201  1.00  0.00    -0.354 N 
ATOM     55  N   UNL     1       4.231   7.406 -16.629  1.00  0.00    -0.248 NA
ATOM     56  C   UNL     1       6.443   7.223 -17.358  1.00  0.00     0.031 C 
ATOM     57  C   UNL     1       0.786   8.287 -19.288  1.00  0.00     0.029 A 
ATOM     58  C   UNL     1       1.877   8.006 -18.481  1.00  0.00     0.049 A 
ATOM     59  H   UNL     1       1.928   7.592 -16.413  1.00  0.00     0.167 HD
ATOM     60  C   UNL     1       4.282   7.640 -17.999  1.00  0.00     0.074 A 
ATOM     61  C   UNL     1       5.672   7.538 -18.390  1.00  0.00     0.031 C 
ATOM     62  C   UNL     1       3.266   7.916 -18.854  1.00  0.00     0.037 A 
BRANCH  49  63
ATOM     63  C   UNL     1      -2.323   7.985 -16.212  1.00  0.00     0.058 A 
ATOM     64  C   UNL     1      -3.016   9.102 -15.716  1.00  0.00     0.135 A 
ATOM     65  C   UNL     1      -3.059   7.016 -16.912  1.00  0.00     0.135 A 
ATOM     66  F   UNL     1      -2.363  10.051 -15.027  1.00  0.00    -0.206 F 
ATOM     67  C   UNL     1      -4.390   9.236 -15.880  1.00  0.00     0.059 A 
ATOM     68  C   UNL     1      -4.431   7.144 -17.113  1.00  0.00     0.059 A 
ATOM     69  F   UNL     1      -2.447   5.929 -17.408  1.00  0.00    -0.206 F 
ATOM     70  C   UNL     1      -5.090   8.250 -16.578  1.00  0.00     0.060 A 
BRANCH  70  71
ATOM     71  S   UNL     1      -6.874   8.439 -16.779  1.00  0.00     0.124 S 
ATOM     72  O   UNL     1      -7.352   8.125 -15.436  1.00  0.00    -0.237 OA
ATOM     73  O   UNL     1      -6.998   9.835 -17.185  1.00  0.00    -0.237 OA
ATOM     74  O   UNL     1      -7.205   7.458 -17.808  1.00  0.00    -0.744 OA
ENDBRANCH  70  71
ENDBRANCH  49  63
BRANCH  50  75
ATOM     75  C   UNL     1       7.458   6.661 -14.665  1.00  0.00     0.058 A 
ATOM     76  C   UNL     1       8.384   7.709 -14.785  1.00  0.00     0.135 A 
ATOM     77  C   UNL     1       7.950   5.391 -14.325  1.00  0.00     0.135 A 
ATOM     78  F   UNL     1       7.963   8.939 -15.116  1.00  0.00    -0.206 F 
ATOM     79  C   UNL     1       9.746   7.505 -14.590  1.00  0.00     0.059 A 
ATOM     80  C   UNL     1       9.305   5.168 -14.101  1.00  0.00     0.059 A 
ATOM     81  F   UNL     1       7.104   4.359 -14.182  1.00  0.00    -0.206 F 
ATOM     82  C   UNL     1      10.197   6.229 -14.246  1.00  0.00     0.060 A 
BRANCH  82  83
ATOM     83  S   UNL     1      11.961   5.986 -13.947  1.00  0.00     0.124 S 
ATOM     84  O   UNL     1      12.497   6.027 -15.303  1.00  0.00    -0.237 OA
ATOM     85  O   UNL     1      12.289   7.126 -13.096  1.00  0.00    -0.237 OA
ATOM     86  O   UNL     1      12.012   4.686 -13.286  1.00  0.00    -0.744 OA
ENDBRANCH  82  83
ENDBRANCH  50  75
BRANCH  62  87
ATOM     87  C   UNL     1       3.617   8.168 -20.294  1.00  0.00     0.058 A 
ATOM     88  C   UNL     1       3.977   7.124 -21.159  1.00  0.00     0.135 A 
ATOM     89  C   UNL     1       3.520   9.462 -20.831  1.00  0.00     0.135 A 
ATOM     90  F   UNL     1       4.092   5.870 -20.694  1.00  0.00    -0.206 F 
ATOM     91  C   UNL     1       4.240   7.356 -22.506  1.00  0.00     0.059 A 
ATOM     92  C   UNL     1       3.754   9.713 -22.179  1.00  0.00     0.059 A 
ATOM     93  F   UNL     1       3.171  10.495 -20.047  1.00  0.00    -0.206 F 
ATOM     94  C   UNL     1       4.120   8.654 -23.008  1.00  0.00     0.060 A 
BRANCH  94  95
ATOM     95  S   UNL     1       4.409   8.932 -24.768  1.00  0.00     0.124 S 
ATOM     96  O   UNL     1       5.862   8.830 -24.848  1.00  0.00    -0.237 OA
ATOM     97  O   UNL     1       3.662   7.839 -25.384  1.00  0.00    -0.237 OA
ATOM     98  O   UNL     1       3.859  10.265 -24.996  1.00  0.00    -0.744 OA
ENDBRANCH  94  95
ENDBRANCH  62  87
ENDBRANCH  36  37
ENDBRANCH  28  31
ENDBRANCH  26  27
ENDBRANCH  25  26
ENDBRANCH  24  25
ENDBRANCH   1  24
TORSDOF 21
