REMARK SMILES CCn1cnc(S(=O)(=O)N[C@H](Cc2cnc[nH]2)C(=O)NCCCCNC(=O)c2ccc(-c3c4nc(c(-c5c(F)cc(S(=O)(=O)[O-])cc5F)c5ccc([nH]5)c(-c5c(F)cc(S(=O)(=O)[O-])cc5F)c5nc(c(-c6c(F)cc(S(=O)(=O)[O-])cc6F)c6ccc3[nH]6)C=C5)C=C4)cc2)c1
REMARK SMILES IDX 22 1 21 2 20 3 18 4 19 5 11 7 10 8 7 10 8 11 9 12 6 13 3 14
REMARK SMILES IDX 4 15 94 16 5 17 2 18 1 19 12 20 13 21 14 22 17 23 15 24
REMARK SMILES IDX 16 25 23 27 24 28 25 29 26 30 27 32 28 33 29 34 93 35 30 36
REMARK SMILES IDX 92 37 31 38 32 39 33 40 86 41 34 42 91 43 85 44 87 45 35 46
REMARK SMILES IDX 90 47 84 48 83 49 36 51 70 52 49 53 69 54 50 55 53 56 68 57
REMARK SMILES IDX 88 58 51 59 52 60 67 62 89 63 54 64 37 65 38 66 47 67 39 68
REMARK SMILES IDX 40 69 46 70 48 71 41 72 42 73 43 74 44 75 45 76 71 77 72 78
REMARK SMILES IDX 81 79 73 80 74 81 80 82 82 83 75 84 76 85 77 86 78 87 79 88
REMARK SMILES IDX 55 89 56 90 65 91 57 92 58 93 64 94 66 95 59 96 60 97 61 98
REMARK SMILES IDX 62 99 63 100
REMARK H PARENT 20 6 10 9 17 26 25 31 87 50 53 61
REMARK Flexibility Score: inf
ROOT
ATOM      1  C   UNL     1       3.294  -5.868   8.287  1.00  0.00     0.023 C 
ENDROOT
BRANCH   1   2
ATOM      2  C   UNL     1       4.188  -5.384   7.153  1.00  0.00     0.116 C 
BRANCH   2   3
ATOM      3  N   UNL     1       3.644  -5.754   5.865  1.00  0.00    -0.355 N 
ATOM      4  C   UNL     1       3.348  -4.975   4.794  1.00  0.00     0.238 C 
ATOM      5  O   UNL     1       2.909  -5.520   3.777  1.00  0.00    -0.273 OA
ATOM      6  H   UNL     1       3.462  -6.714   5.748  1.00  0.00     0.163 HD
BRANCH   4   7
ATOM      7  C   UNL     1       3.518  -3.460   4.827  1.00  0.00     0.165 C 
BRANCH   7   8
ATOM      8  N   UNL     1       4.896  -2.909   4.997  1.00  0.00    -0.197 NA
ATOM      9  H   UNL     1       4.881  -1.958   4.630  1.00  0.00     0.142 HD
BRANCH   8  10
ATOM     10  S   UNL     1       6.215  -3.699   4.267  1.00  0.00     0.260 S 
ATOM     11  O   UNL     1       6.440  -4.896   5.045  1.00  0.00    -0.205 OA
ATOM     12  O   UNL     1       7.234  -2.680   4.143  1.00  0.00    -0.205 OA
BRANCH  10  13
ATOM     13  C   UNL     1       5.895  -4.217   2.643  1.00  0.00     0.188 A 
ATOM     14  N   UNL     1       5.107  -4.413   0.617  1.00  0.00    -0.336 N 
ATOM     15  C   UNL     1       6.041  -5.382   0.846  1.00  0.00     0.201 A 
ATOM     16  C   UNL     1       5.032  -3.630   1.738  1.00  0.00     0.129 A 
ATOM     17  N   UNL     1       6.534  -5.297   2.059  1.00  0.00    -0.224 NA
BRANCH  14  18
ATOM     18  C   UNL     1       4.358  -4.202  -0.604  1.00  0.00     0.120 C 
ATOM     19  C   UNL     1       3.845  -5.474  -1.260  1.00  0.00     0.027 C 
ENDBRANCH  14  18
ENDBRANCH  10  13
ENDBRANCH   8  10
ENDBRANCH   7   8
BRANCH   7  20
ATOM     20  C   UNL     1       2.470  -2.770   5.748  1.00  0.00     0.085 C 
BRANCH  20  21
ATOM     21  C   UNL     1       2.986  -2.108   6.990  1.00  0.00     0.037 A 
ATOM     22  C   UNL     1       2.727  -2.325   8.328  1.00  0.00     0.134 A 
ATOM     23  N   UNL     1       3.878  -1.059   6.982  1.00  0.00    -0.348 N 
ATOM     24  N   UNL     1       3.525  -1.535   9.112  1.00  0.00    -0.245 NA
ATOM     25  C   UNL     1       4.225  -0.804   8.277  1.00  0.00     0.196 A 
ATOM     26  H   UNL     1       4.205  -0.580   6.187  1.00  0.00     0.167 HD
ENDBRANCH  20  21
ENDBRANCH   7  20
ENDBRANCH   4   7
ENDBRANCH   2   3
ENDBRANCH   1   2
BRANCH   1  27
ATOM     27  C   UNL     1       3.422  -7.363   8.567  1.00  0.00     0.023 C 
BRANCH  27  28
ATOM     28  C   UNL     1       4.840  -7.828   8.884  1.00  0.00     0.116 C 
BRANCH  28  29
ATOM     29  N   UNL     1       5.438  -7.109  10.002  1.00  0.00    -0.352 N 
ATOM     30  C   UNL     1       6.175  -7.624  11.042  1.00  0.00     0.251 C 
ATOM     31  H   UNL     1       5.297  -6.135  10.014  1.00  0.00     0.163 HD
ATOM     32  O   UNL     1       6.507  -6.920  11.989  1.00  0.00    -0.269 OA
BRANCH  30  33
ATOM     33  C   UNL     1       6.524  -9.056  11.008  1.00  0.00     0.039 A 
ATOM     34  C   UNL     1       6.175  -9.863  12.091  1.00  0.00     0.014 A 
ATOM     35  C   UNL     1       7.106  -9.605   9.862  1.00  0.00     0.014 A 
ATOM     36  C   UNL     1       6.343 -11.244  11.993  1.00  0.00     0.010 A 
ATOM     37  C   UNL     1       7.197 -10.985   9.737  1.00  0.00     0.010 A 
ATOM     38  C   UNL     1       6.813 -11.819  10.799  1.00  0.00    -0.014 A 
BRANCH  38  39
ATOM     39  C   UNL     1       6.898 -13.291  10.635  1.00  0.00     0.031 A 
ATOM     40  C   UNL     1       8.232 -13.945  10.405  1.00  0.00     0.074 A 
ATOM     41  C   UNL     1       5.767 -14.026  10.620  1.00  0.00     0.049 A 
ATOM     42  N   UNL     1       8.505 -15.201  10.170  1.00  0.00    -0.248 NA
ATOM     43  C   UNL     1       9.413 -13.065  10.412  1.00  0.00     0.031 C 
ATOM     44  C   UNL     1       4.410 -13.496  10.775  1.00  0.00     0.029 A 
ATOM     45  N   UNL     1       5.577 -15.375  10.456  1.00  0.00    -0.354 N 
ATOM     46  C   UNL     1       9.882 -15.261   9.988  1.00  0.00     0.074 A 
ATOM     47  C   UNL     1      10.381 -13.907  10.083  1.00  0.00     0.031 C 
ATOM     48  C   UNL     1       3.532 -14.510  10.723  1.00  0.00     0.029 A 
ATOM     49  C   UNL     1       4.256 -15.756  10.491  1.00  0.00     0.049 A 
ATOM     50  H   UNL     1       6.317 -16.011  10.325  1.00  0.00     0.167 HD
ATOM     51  C   UNL     1      10.661 -16.349   9.785  1.00  0.00     0.037 A 
ATOM     52  C   UNL     1       3.692 -16.970  10.344  1.00  0.00     0.037 A 
ATOM     53  C   UNL     1      10.158 -17.696   9.715  1.00  0.00     0.049 A 
ATOM     54  C   UNL     1       4.579 -18.165  10.120  1.00  0.00     0.074 A 
ATOM     55  C   UNL     1      10.870 -18.874   9.573  1.00  0.00     0.029 A 
ATOM     56  N   UNL     1       8.816 -18.044   9.778  1.00  0.00    -0.354 N 
ATOM     57  N   UNL     1       5.887 -18.213  10.020  1.00  0.00    -0.248 NA
ATOM     58  C   UNL     1       3.918 -19.471   9.995  1.00  0.00     0.031 C 
ATOM     59  C   UNL     1       9.956 -19.930   9.504  1.00  0.00     0.029 A 
ATOM     60  C   UNL     1       8.677 -19.417   9.656  1.00  0.00     0.049 A 
ATOM     61  H   UNL     1       8.072 -17.410   9.892  1.00  0.00     0.167 HD
ATOM     62  C   UNL     1       6.206 -19.555   9.847  1.00  0.00     0.074 A 
ATOM     63  C   UNL     1       4.956 -20.287   9.869  1.00  0.00     0.031 C 
ATOM     64  C   UNL     1       7.424 -20.130   9.686  1.00  0.00     0.037 A 
BRANCH  51  65
ATOM     65  C   UNL     1      12.141 -16.127   9.631  1.00  0.00     0.058 A 
ATOM     66  C   UNL     1      12.942 -15.720  10.711  1.00  0.00     0.135 A 
ATOM     67  C   UNL     1      12.774 -16.355   8.398  1.00  0.00     0.135 A 
ATOM     68  F   UNL     1      12.387 -15.472  11.908  1.00  0.00    -0.206 F 
ATOM     69  C   UNL     1      14.310 -15.520  10.568  1.00  0.00     0.059 A 
ATOM     70  C   UNL     1      14.147 -16.190   8.240  1.00  0.00     0.059 A 
ATOM     71  F   UNL     1      12.057 -16.744   7.332  1.00  0.00    -0.206 F 
ATOM     72  C   UNL     1      14.905 -15.758   9.327  1.00  0.00     0.060 A 
BRANCH  72  73
ATOM     73  S   UNL     1      16.684 -15.505   9.163  1.00  0.00     0.124 S 
ATOM     74  O   UNL     1      16.776 -14.049   9.192  1.00  0.00    -0.237 OA
ATOM     75  O   UNL     1      17.207 -16.197  10.337  1.00  0.00    -0.237 OA
ATOM     76  O   UNL     1      16.999 -16.128   7.881  1.00  0.00    -0.744 OA
ENDBRANCH  72  73
ENDBRANCH  51  65
BRANCH  52  77
ATOM     77  C   UNL     1       2.214 -17.120  10.427  1.00  0.00     0.058 A 
ATOM     78  C   UNL     1       1.613 -17.762  11.519  1.00  0.00     0.135 A 
ATOM     79  C   UNL     1       1.372 -16.612   9.425  1.00  0.00     0.135 A 
ATOM     80  F   UNL     1       2.375 -18.270  12.500  1.00  0.00    -0.206 F 
ATOM     81  C   UNL     1       0.233 -17.913  11.609  1.00  0.00     0.059 A 
ATOM     82  C   UNL     1      -0.013 -16.727   9.505  1.00  0.00     0.059 A 
ATOM     83  F   UNL     1       1.894 -15.973   8.366  1.00  0.00    -0.206 F 
ATOM     84  C   UNL     1      -0.573 -17.389  10.597  1.00  0.00     0.060 A 
BRANCH  84  85
ATOM     85  S   UNL     1      -2.365 -17.548  10.746  1.00  0.00     0.124 S 
ATOM     86  O   UNL     1      -2.559 -18.966  10.469  1.00  0.00    -0.237 OA
ATOM     87  O   UNL     1      -2.596 -17.128  12.125  1.00  0.00    -0.237 OA
ATOM     88  O   UNL     1      -2.869 -16.631   9.728  1.00  0.00    -0.744 OA
ENDBRANCH  84  85
ENDBRANCH  52  77
BRANCH  64  89
ATOM     89  C   UNL     1       7.471 -21.628   9.555  1.00  0.00     0.058 A 
ATOM     90  C   UNL     1       7.037 -22.282   8.392  1.00  0.00     0.135 A 
ATOM     91  C   UNL     1       8.007 -22.413  10.589  1.00  0.00     0.135 A 
ATOM     92  F   UNL     1       6.509 -21.578   7.378  1.00  0.00    -0.206 F 
ATOM     93  C   UNL     1       7.111 -23.665   8.267  1.00  0.00     0.059 A 
ATOM     94  C   UNL     1       8.118 -23.795  10.473  1.00  0.00     0.059 A 
ATOM     95  F   UNL     1       8.447 -21.836  11.719  1.00  0.00    -0.206 F 
ATOM     96  C   UNL     1       7.656 -24.413   9.312  1.00  0.00     0.060 A 
BRANCH  96  97
ATOM     97  S   UNL     1       7.778 -26.204   9.123  1.00  0.00     0.124 S 
ATOM     98  O   UNL     1       6.386 -26.612   9.278  1.00  0.00    -0.237 OA
ATOM     99  O   UNL     1       8.332 -26.339   7.779  1.00  0.00    -0.237 OA
ATOM    100  O   UNL     1       8.673 -26.601  10.206  1.00  0.00    -0.744 OA
ENDBRANCH  96  97
ENDBRANCH  64  89
ENDBRANCH  38  39
ENDBRANCH  30  33
ENDBRANCH  28  29
ENDBRANCH  27  28
ENDBRANCH   1  27
TORSDOF 20
