REMARK SMILES CC(=O)c1ccc(N2/C(=[NH+]/C(=O)CCCC(=O)NCCCCNC(=O)c3ccc(-c4c5nc(c(-c6c(F)cc(S(=O)(=O)[O-])cc6F)c6ccc([nH]6)c(-c6c(F)cc(S(=O)(=O)[O-])cc6F)c6nc(c(-c7c(F)cc(S(=O)(=O)[O-])cc7F)c7ccc4[nH]7)C=C6)C=C5)cc3)S[C@H]3CS(=O)(=O)C[C@H]32)cc1
REMARK SMILES IDX 19 1 18 2 16 3 17 4 15 6 14 7 13 8 11 9 8 10 9 11 99 12
REMARK SMILES IDX 10 13 92 14 93 15 98 16 94 18 95 19 12 20 96 21 97 22 7 23
REMARK SMILES IDX 4 24 5 25 101 26 6 27 100 28 2 29 1 30 3 31 20 32 21 33
REMARK SMILES IDX 22 34 23 35 24 36 25 38 26 39 27 40 91 41 28 42 90 43 29 44
REMARK SMILES IDX 30 45 31 46 84 47 32 48 89 49 83 50 85 51 33 52 88 53 82 54
REMARK SMILES IDX 81 55 34 57 68 58 47 59 67 60 48 61 51 62 66 63 86 64 49 65
REMARK SMILES IDX 50 66 65 68 87 69 52 70 35 71 36 72 45 73 37 74 38 75 44 76
REMARK SMILES IDX 46 77 39 78 40 79 41 80 42 81 43 82 69 83 70 84 79 85 71 86
REMARK SMILES IDX 72 87 78 88 80 89 73 90 74 91 75 92 76 93 77 94 53 95 54 96
REMARK SMILES IDX 63 97 55 98 56 99 62 100 64 101 57 102 58 103 59 104 60 105
REMARK SMILES IDX 61 106
REMARK H PARENT 18 5 10 17 23 37 85 56 51 67
REMARK Flexibility Score: inf
ROOT
ATOM      1  C   UNL     1       3.039  -3.137   7.963  1.00  0.00     0.116 C 
ENDROOT
BRANCH   1   2
ATOM      2  N   UNL     1       3.336  -1.726   7.863  1.00  0.00    -0.356 N 
ATOM      3  C   UNL     1       4.193  -1.075   7.030  1.00  0.00     0.220 C 
ATOM      4  O   UNL     1       4.350   0.138   7.180  1.00  0.00    -0.275 OA
ATOM      5  H   UNL     1       2.845  -1.149   8.491  1.00  0.00     0.163 HD
BRANCH   3   6
ATOM      6  C   UNL     1       4.898  -1.812   5.908  1.00  0.00     0.100 C 
BRANCH   6   7
ATOM      7  C   UNL     1       6.211  -2.507   6.272  1.00  0.00     0.022 C 
BRANCH   7   8
ATOM      8  C   UNL     1       6.167  -3.936   6.810  1.00  0.00     0.128 C 
BRANCH   8   9
ATOM      9  C   UNL     1       5.651  -5.045   5.891  1.00  0.00     0.307 C 
ATOM     10  N   UNL     1       2.441  -5.345   4.130  1.00  0.00    -0.217 N 
ATOM     11  C   UNL     1       3.655  -5.612   4.769  1.00  0.00     0.319 C 
ATOM     12  C   UNL     1       1.513  -6.489   4.001  1.00  0.00     0.212 C 
ATOM     13  N   UNL     1       4.520  -4.736   5.170  1.00  0.00    -0.204 N 
ATOM     14  S   UNL     1       3.788  -7.361   5.034  1.00  0.00    -0.029 SA
ATOM     15  C   UNL     1       2.393  -7.746   3.940  1.00  0.00     0.120 C 
ATOM     16  C   UNL     1       0.596  -6.630   5.211  1.00  0.00     0.188 C 
ATOM     17  H   UNL     1       4.359  -3.791   4.946  1.00  0.00     0.316 HD
ATOM     18  C   UNL     1       1.617  -8.965   4.402  1.00  0.00     0.156 C 
ATOM     19  S   UNL     1       0.184  -8.351   5.250  1.00  0.00     0.155 S 
ATOM     20  O   UNL     1       6.238  -6.125   5.895  1.00  0.00    -0.247 OA
ATOM     21  O   UNL     1       0.203  -8.804   6.618  1.00  0.00    -0.229 OA
ATOM     22  O   UNL     1      -0.957  -8.546   4.375  1.00  0.00    -0.229 OA
BRANCH  10  23
ATOM     23  C   UNL     1       2.045  -4.127   3.539  1.00  0.00     0.128 A 
ATOM     24  C   UNL     1       1.181  -1.771   2.182  1.00  0.00     0.018 A 
ATOM     25  C   UNL     1       0.298  -2.495   2.981  1.00  0.00     0.016 A 
ATOM     26  C   UNL     1       2.507  -2.198   2.088  1.00  0.00     0.016 A 
ATOM     27  C   UNL     1       0.725  -3.655   3.638  1.00  0.00     0.052 A 
ATOM     28  C   UNL     1       2.933  -3.354   2.774  1.00  0.00     0.052 A 
BRANCH  24  29
ATOM     29  C   UNL     1       0.644  -0.577   1.466  1.00  0.00     0.159 C 
ATOM     30  C   UNL     1       1.262  -0.162   0.159  1.00  0.00     0.093 C 
ATOM     31  O   UNL     1      -0.347  -0.000   1.911  1.00  0.00    -0.295 OA
ENDBRANCH  24  29
ENDBRANCH  10  23
ENDBRANCH   8   9
ENDBRANCH   7   8
ENDBRANCH   6   7
ENDBRANCH   3   6
ENDBRANCH   1   2
BRANCH   1  32
ATOM     32  C   UNL     1       3.600  -3.721   9.261  1.00  0.00     0.023 C 
BRANCH  32  33
ATOM     33  C   UNL     1       2.687  -3.542  10.467  1.00  0.00     0.023 C 
BRANCH  33  34
ATOM     34  C   UNL     1       1.367  -4.291  10.363  1.00  0.00     0.116 C 
BRANCH  34  35
ATOM     35  N   UNL     1       1.524  -5.738  10.296  1.00  0.00    -0.352 N 
ATOM     36  C   UNL     1       0.780  -6.697  10.948  1.00  0.00     0.251 C 
ATOM     37  H   UNL     1       2.247  -6.070   9.717  1.00  0.00     0.163 HD
ATOM     38  O   UNL     1       1.114  -7.875  10.917  1.00  0.00    -0.269 OA
BRANCH  36  39
ATOM     39  C   UNL     1      -0.392  -6.261  11.736  1.00  0.00     0.039 A 
ATOM     40  C   UNL     1      -0.505  -6.672  13.064  1.00  0.00     0.014 A 
ATOM     41  C   UNL     1      -1.306  -5.356  11.191  1.00  0.00     0.014 A 
ATOM     42  C   UNL     1      -1.490  -6.105  13.873  1.00  0.00     0.010 A 
ATOM     43  C   UNL     1      -2.215  -4.718  12.024  1.00  0.00     0.010 A 
ATOM     44  C   UNL     1      -2.321  -5.087  13.373  1.00  0.00    -0.014 A 
BRANCH  44  45
ATOM     45  C   UNL     1      -3.309  -4.399  14.243  1.00  0.00     0.031 A 
ATOM     46  C   UNL     1      -4.775  -4.465  13.906  1.00  0.00     0.074 A 
ATOM     47  C   UNL     1      -2.885  -3.665  15.293  1.00  0.00     0.049 A 
ATOM     48  N   UNL     1      -5.785  -3.887  14.501  1.00  0.00    -0.248 NA
ATOM     49  C   UNL     1      -5.152  -5.258  12.724  1.00  0.00     0.031 C 
ATOM     50  C   UNL     1      -1.486  -3.478  15.688  1.00  0.00     0.029 A 
ATOM     51  N   UNL     1      -3.587  -2.934  16.219  1.00  0.00    -0.354 N 
ATOM     52  C   UNL     1      -6.909  -4.231  13.758  1.00  0.00     0.074 A 
ATOM     53  C   UNL     1      -6.450  -5.013  12.633  1.00  0.00     0.031 C 
ATOM     54  C   UNL     1      -1.437  -2.717  16.793  1.00  0.00     0.029 A 
ATOM     55  C   UNL     1      -2.793  -2.324  17.162  1.00  0.00     0.049 A 
ATOM     56  H   UNL     1      -4.568  -2.854  16.209  1.00  0.00     0.167 HD
ATOM     57  C   UNL     1      -8.208  -3.945  14.007  1.00  0.00     0.037 A 
ATOM     58  C   UNL     1      -3.120  -1.533  18.204  1.00  0.00     0.037 A 
ATOM     59  C   UNL     1      -8.658  -3.194  15.149  1.00  0.00     0.049 A 
ATOM     60  C   UNL     1      -4.573  -1.227  18.457  1.00  0.00     0.074 A 
ATOM     61  C   UNL     1      -9.956  -2.910  15.533  1.00  0.00     0.029 A 
ATOM     62  N   UNL     1      -7.825  -2.604  16.089  1.00  0.00    -0.354 N 
ATOM     63  N   UNL     1      -5.629  -1.627  17.788  1.00  0.00    -0.248 NA
ATOM     64  C   UNL     1      -4.881  -0.369  19.609  1.00  0.00     0.031 C 
ATOM     65  C   UNL     1      -9.907  -2.100  16.671  1.00  0.00     0.029 A 
ATOM     66  C   UNL     1      -8.581  -1.933  17.035  1.00  0.00     0.049 A 
ATOM     67  H   UNL     1      -6.841  -2.656  16.084  1.00  0.00     0.167 HD
ATOM     68  C   UNL     1      -6.727  -1.096  18.458  1.00  0.00     0.074 A 
ATOM     69  C   UNL     1      -6.207  -0.358  19.590  1.00  0.00     0.031 C 
ATOM     70  C   UNL     1      -8.046  -1.211  18.164  1.00  0.00     0.037 A 
BRANCH  57  71
ATOM     71  C   UNL     1      -9.237  -4.446  13.030  1.00  0.00     0.058 A 
ATOM     72  C   UNL     1      -9.527  -5.814  12.895  1.00  0.00     0.135 A 
ATOM     73  C   UNL     1      -9.972  -3.543  12.246  1.00  0.00     0.135 A 
ATOM     74  F   UNL     1      -8.843  -6.725  13.605  1.00  0.00    -0.206 F 
ATOM     75  C   UNL     1     -10.488  -6.269  11.998  1.00  0.00     0.059 A 
ATOM     76  C   UNL     1     -10.961  -3.973  11.367  1.00  0.00     0.059 A 
ATOM     77  F   UNL     1      -9.735  -2.224  12.331  1.00  0.00    -0.206 F 
ATOM     78  C   UNL     1     -11.203  -5.340  11.241  1.00  0.00     0.060 A 
BRANCH  78  79
ATOM     79  S   UNL     1     -12.460  -5.948  10.097  1.00  0.00     0.124 S 
ATOM     80  O   UNL     1     -11.637  -6.560   9.059  1.00  0.00    -0.237 OA
ATOM     81  O   UNL     1     -13.219  -6.873  10.932  1.00  0.00    -0.237 OA
ATOM     82  O   UNL     1     -13.173  -4.738   9.699  1.00  0.00    -0.744 OA
ENDBRANCH  78  79
ENDBRANCH  57  71
BRANCH  58  83
ATOM     83  C   UNL     1      -2.061  -0.996  19.101  1.00  0.00     0.058 A 
ATOM     84  C   UNL     1      -1.953  -1.430  20.432  1.00  0.00     0.135 A 
ATOM     85  C   UNL     1      -1.138  -0.038  18.653  1.00  0.00     0.135 A 
ATOM     86  F   UNL     1      -2.815  -2.339  20.912  1.00  0.00    -0.206 F 
ATOM     87  C   UNL     1      -0.986  -0.918  21.292  1.00  0.00     0.059 A 
ATOM     88  C   UNL     1      -0.143   0.467  19.485  1.00  0.00     0.059 A 
ATOM     89  F   UNL     1      -1.185   0.401  17.386  1.00  0.00    -0.206 F 
ATOM     90  C   UNL     1      -0.084   0.030  20.808  1.00  0.00     0.060 A 
BRANCH  90  91
ATOM     91  S   UNL     1       1.190   0.660  21.923  1.00  0.00     0.124 S 
ATOM     92  O   UNL     1       0.404   1.492  22.827  1.00  0.00    -0.237 OA
ATOM     93  O   UNL     1       1.731  -0.569  22.494  1.00  0.00    -0.237 OA
ATOM     94  O   UNL     1       2.094   1.378  21.029  1.00  0.00    -0.744 OA
ENDBRANCH  90  91
ENDBRANCH  58  83
BRANCH  70  95
ATOM     95  C   UNL     1      -9.027  -0.561  19.102  1.00  0.00     0.058 A 
ATOM     96  C   UNL     1      -9.174   0.832  19.174  1.00  0.00     0.135 A 
ATOM     97  C   UNL     1      -9.875  -1.351  19.897  1.00  0.00     0.135 A 
ATOM     98  F   UNL     1      -8.386   1.634  18.439  1.00  0.00    -0.206 F 
ATOM     99  C   UNL     1     -10.108   1.421  20.020  1.00  0.00     0.059 A 
ATOM    100  C   UNL     1     -10.838  -0.785  20.725  1.00  0.00     0.059 A 
ATOM    101  F   UNL     1      -9.785  -2.691  19.858  1.00  0.00    -0.206 F 
ATOM    102  C   UNL     1     -10.938   0.604  20.788  1.00  0.00     0.060 A 
BRANCH 102 103
ATOM    103  S   UNL     1     -12.171   1.381  21.854  1.00  0.00     0.124 S 
ATOM    104  O   UNL     1     -11.335   1.938  22.913  1.00  0.00    -0.237 OA
ATOM    105  O   UNL     1     -12.789   2.352  20.957  1.00  0.00    -0.237 OA
ATOM    106  O   UNL     1     -13.028   0.269  22.251  1.00  0.00    -0.744 OA
ENDBRANCH 102 103
ENDBRANCH  70  95
ENDBRANCH  44  45
ENDBRANCH  36  39
ENDBRANCH  34  35
ENDBRANCH  33  34
ENDBRANCH  32  33
ENDBRANCH   1  32
TORSDOF 19
