REMARK SMILES O=C(NCCCCNC(=O)c1ccc(-c2c3nc(c(-c4c(F)cc(S(=O)(=O)[O-])cc4F)c4ccc([nH]4)c(-c4c(F)cc(S(=O)(=O)[O-])cc4F)c4nc(c(-c5c(F)cc(S(=O)(=O)[O-])cc5F)c5ccc2[nH]5)C=C4)C=C3)cc1)C1=Cc2cc(Cl)cc(Cl)c2O[C@@H]1C(F)(F)F
REMARK SMILES IDX 6 1 5 2 4 3 3 4 1 5 2 6 77 8 78 9 88 10 79 11 87 12 80 13
REMARK SMILES IDX 86 14 81 15 84 16 82 17 83 18 85 19 89 20 90 21 91 22 92 23
REMARK SMILES IDX 7 24 8 25 9 26 10 28 11 29 12 30 76 31 13 32 75 33 14 34
REMARK SMILES IDX 15 35 16 36 69 37 17 38 74 39 68 40 70 41 18 42 73 43 67 44
REMARK SMILES IDX 66 45 19 47 53 48 32 49 52 50 33 51 36 52 51 53 71 54 34 55
REMARK SMILES IDX 35 56 50 58 72 59 37 60 20 61 21 62 30 63 22 64 23 65 29 66
REMARK SMILES IDX 31 67 24 68 25 69 26 70 27 71 28 72 54 73 55 74 64 75 56 76
REMARK SMILES IDX 57 77 63 78 65 79 58 80 59 81 60 82 61 83 62 84 38 85 39 86
REMARK SMILES IDX 48 87 40 88 41 89 47 90 49 91 42 92 43 93 44 94 45 95 46 96
REMARK H PARENT 3 7 8 27 70 46 36 57
REMARK Flexibility Score: inf
ROOT
ATOM      1  C   UNL     1       4.027   2.210   3.713  1.00  0.00     0.023 C 
ENDROOT
BRANCH   1   2
ATOM      2  C   UNL     1       4.188   2.171   2.192  1.00  0.00     0.023 C 
BRANCH   2   3
ATOM      3  C   UNL     1       3.584   0.932   1.522  1.00  0.00     0.116 C 
BRANCH   3   4
ATOM      4  N   UNL     1       2.515   1.247   0.568  1.00  0.00    -0.352 N 
ATOM      5  O   UNL     1       1.188   0.926  -1.245  1.00  0.00    -0.270 OA
ATOM      6  C   UNL     1       2.262   0.745  -0.687  1.00  0.00     0.251 C 
ATOM      7  H   UNL     1       1.875   1.928   0.877  1.00  0.00     0.163 HD
BRANCH   6   8
ATOM      8  C   UNL     1       3.293  -0.108  -1.305  1.00  0.00     0.067 C 
ATOM      9  C   UNL     1       4.494   0.417  -1.573  1.00  0.00     0.025 C 
ATOM     10  C   UNL     1       3.055  -1.586  -1.303  1.00  0.00     0.314 C 
ATOM     11  C   UNL     1       5.588  -0.415  -1.047  1.00  0.00     0.020 A 
ATOM     12  O   UNL     1       4.090  -2.293  -0.582  1.00  0.00    -0.474 OA
ATOM     13  C   UNL     1       6.795   0.232  -0.756  1.00  0.00     0.032 A 
ATOM     14  C   UNL     1       5.309  -1.667  -0.458  1.00  0.00     0.146 A 
ATOM     15  C   UNL     1       7.678  -0.329   0.165  1.00  0.00     0.043 A 
ATOM     16  C   UNL     1       6.227  -2.232   0.439  1.00  0.00     0.085 A 
ATOM     17  Cl  UNL     1       9.070   0.560   0.641  1.00  0.00    -0.084 Cl
ATOM     18  C   UNL     1       7.399  -1.552   0.769  1.00  0.00     0.045 A 
ATOM     19  Cl  UNL     1       5.872  -3.704   1.272  1.00  0.00    -0.080 Cl
BRANCH  10  20
ATOM     20  C   UNL     1       2.923  -2.130  -2.737  1.00  0.00     0.429 C 
ATOM     21  F   UNL     1       2.596  -3.445  -2.738  1.00  0.00    -0.167 F 
ATOM     22  F   UNL     1       1.959  -1.488  -3.438  1.00  0.00    -0.167 F 
ATOM     23  F   UNL     1       4.075  -2.008  -3.442  1.00  0.00    -0.167 F 
ENDBRANCH  10  20
ENDBRANCH   6   8
ENDBRANCH   3   4
ENDBRANCH   2   3
ENDBRANCH   1   2
BRANCH   1  24
ATOM     24  C   UNL     1       4.593   1.026   4.496  1.00  0.00     0.116 C 
BRANCH  24  25
ATOM     25  N   UNL     1       6.027   0.824   4.350  1.00  0.00    -0.352 N 
ATOM     26  C   UNL     1       6.933   0.442   5.319  1.00  0.00     0.251 C 
ATOM     27  H   UNL     1       6.396   0.979   3.451  1.00  0.00     0.163 HD
ATOM     28  O   UNL     1       8.124   0.321   5.046  1.00  0.00    -0.269 OA
BRANCH  26  29
ATOM     29  C   UNL     1       6.458   0.240   6.707  1.00  0.00     0.039 A 
ATOM     30  C   UNL     1       7.033   0.996   7.732  1.00  0.00     0.014 A 
ATOM     31  C   UNL     1       5.375  -0.601   6.972  1.00  0.00     0.014 A 
ATOM     32  C   UNL     1       6.447   0.996   9.001  1.00  0.00     0.010 A 
ATOM     33  C   UNL     1       4.751  -0.544   8.216  1.00  0.00     0.010 A 
ATOM     34  C   UNL     1       5.263   0.274   9.235  1.00  0.00    -0.014 A 
BRANCH  34  35
ATOM     35  C   UNL     1       4.519   0.406  10.516  1.00  0.00     0.031 A 
ATOM     36  C   UNL     1       4.331  -0.786  11.412  1.00  0.00     0.074 A 
ATOM     37  C   UNL     1       3.938   1.582  10.830  1.00  0.00     0.049 A 
ATOM     38  N   UNL     1       3.648  -0.884  12.524  1.00  0.00    -0.248 NA
ATOM     39  C   UNL     1       4.970  -2.041  10.986  1.00  0.00     0.031 C 
ATOM     40  C   UNL     1       3.992   2.800  10.017  1.00  0.00     0.029 A 
ATOM     41  N   UNL     1       3.175   1.946  11.913  1.00  0.00    -0.354 N 
ATOM     42  C   UNL     1       3.760  -2.210  12.922  1.00  0.00     0.074 A 
ATOM     43  C   UNL     1       4.536  -2.890  11.906  1.00  0.00     0.031 C 
ATOM     44  C   UNL     1       3.319   3.780  10.642  1.00  0.00     0.029 A 
ATOM     45  C   UNL     1       2.755   3.255  11.882  1.00  0.00     0.049 A 
ATOM     46  H   UNL     1       2.951   1.326  12.645  1.00  0.00     0.167 HD
ATOM     47  C   UNL     1       3.282  -2.804  14.042  1.00  0.00     0.037 A 
ATOM     48  C   UNL     1       2.001   3.955  12.752  1.00  0.00     0.037 A 
ATOM     49  C   UNL     1       2.536  -2.120  15.065  1.00  0.00     0.049 A 
ATOM     50  C   UNL     1       1.494   3.279  13.996  1.00  0.00     0.074 A 
ATOM     51  C   UNL     1       2.061  -2.620  16.265  1.00  0.00     0.029 A 
ATOM     52  N   UNL     1       2.158  -0.786  15.011  1.00  0.00    -0.354 N 
ATOM     53  N   UNL     1       1.665   2.039  14.387  1.00  0.00    -0.248 NA
ATOM     54  C   UNL     1       0.696   4.098  14.920  1.00  0.00     0.031 C 
ATOM     55  C   UNL     1       1.370  -1.596  16.923  1.00  0.00     0.029 A 
ATOM     56  C   UNL     1       1.444  -0.449  16.149  1.00  0.00     0.049 A 
ATOM     57  H   UNL     1       2.365  -0.170  14.271  1.00  0.00     0.167 HD
ATOM     58  C   UNL     1       1.020   1.936  15.614  1.00  0.00     0.074 A 
ATOM     59  C   UNL     1       0.460   3.240  15.904  1.00  0.00     0.031 C 
ATOM     60  C   UNL     1       0.903   0.857  16.427  1.00  0.00     0.037 A 
BRANCH  47  61
ATOM     61  C   UNL     1       3.562  -4.270  14.216  1.00  0.00     0.058 A 
ATOM     62  C   UNL     1       4.853  -4.740  14.507  1.00  0.00     0.135 A 
ATOM     63  C   UNL     1       2.532  -5.216  14.094  1.00  0.00     0.135 A 
ATOM     64  F   UNL     1       5.877  -3.879  14.619  1.00  0.00    -0.206 F 
ATOM     65  C   UNL     1       5.121  -6.099  14.632  1.00  0.00     0.059 A 
ATOM     66  C   UNL     1       2.773  -6.579  14.241  1.00  0.00     0.059 A 
ATOM     67  F   UNL     1       1.279  -4.821  13.818  1.00  0.00    -0.206 F 
ATOM     68  C   UNL     1       4.075  -7.012  14.489  1.00  0.00     0.060 A 
BRANCH  68  69
ATOM     69  S   UNL     1       4.440  -8.774  14.631  1.00  0.00     0.124 S 
ATOM     70  O   UNL     1       5.061  -9.045  13.338  1.00  0.00    -0.237 OA
ATOM     71  O   UNL     1       5.335  -8.818  15.784  1.00  0.00    -0.237 OA
ATOM     72  O   UNL     1       3.127  -9.376  14.837  1.00  0.00    -0.744 OA
ENDBRANCH  68  69
ENDBRANCH  47  61
BRANCH  48  73
ATOM     73  C   UNL     1       1.708   5.391  12.496  1.00  0.00     0.058 A 
ATOM     74  C   UNL     1       2.329   6.394  13.256  1.00  0.00     0.135 A 
ATOM     75  C   UNL     1       0.817   5.790  11.489  1.00  0.00     0.135 A 
ATOM     76  F   UNL     1       3.184   6.060  14.234  1.00  0.00    -0.206 F 
ATOM     77  C   UNL     1       2.068   7.742  13.036  1.00  0.00     0.059 A 
ATOM     78  C   UNL     1       0.555   7.133  11.236  1.00  0.00     0.059 A 
ATOM     79  F   UNL     1       0.210   4.869  10.724  1.00  0.00    -0.206 F 
ATOM     80  C   UNL     1       1.179   8.102  12.022  1.00  0.00     0.060 A 
BRANCH  80  81
ATOM     81  S   UNL     1       0.885   9.857  11.709  1.00  0.00     0.124 S 
ATOM     82  O   UNL     1       0.008  10.210  12.818  1.00  0.00    -0.237 OA
ATOM     83  O   UNL     1       2.235  10.409  11.760  1.00  0.00    -0.237 OA
ATOM     84  O   UNL     1       0.266   9.859  10.386  1.00  0.00    -0.744 OA
ENDBRANCH  80  81
ENDBRANCH  48  73
BRANCH  60  85
ATOM     85  C   UNL     1       0.170   1.048  17.725  1.00  0.00     0.058 A 
ATOM     86  C   UNL     1      -1.229   1.148  17.772  1.00  0.00     0.135 A 
ATOM     87  C   UNL     1       0.874   1.082  18.939  1.00  0.00     0.135 A 
ATOM     88  F   UNL     1      -1.946   1.130  16.637  1.00  0.00    -0.206 F 
ATOM     89  C   UNL     1      -1.905   1.291  18.979  1.00  0.00     0.059 A 
ATOM     90  C   UNL     1       0.216   1.202  20.159  1.00  0.00     0.059 A 
ATOM     91  F   UNL     1       2.212   0.982  18.948  1.00  0.00    -0.206 F 
ATOM     92  C   UNL     1      -1.173   1.317  20.168  1.00  0.00     0.060 A 
BRANCH  92  93
ATOM     93  S   UNL     1      -2.063   1.464  21.733  1.00  0.00     0.124 S 
ATOM     94  O   UNL     1      -2.394   2.885  21.749  1.00  0.00    -0.237 OA
ATOM     95  O   UNL     1      -3.187   0.552  21.543  1.00  0.00    -0.237 OA
ATOM     96  O   UNL     1      -1.079   1.036  22.723  1.00  0.00    -0.744 OA
ENDBRANCH  92  93
ENDBRANCH  60  85
ENDBRANCH  34  35
ENDBRANCH  26  29
ENDBRANCH  24  25
ENDBRANCH   1  24
TORSDOF 15
