REMARK SMILES COc1ccc(OCc2nc(N)cc(SCC(=O)NCCCCNC(=O)c3ccc(-c4c5nc(c(-c6c(F)cc(S(=O)(=O)[O-])cc6F)c6ccc([nH]6)c(-c6c(F)cc(S(=O)(=O)[O-])cc6F)c6nc(c(-c7c(F)cc(S(=O)(=O)[O-])cc7F)c7ccc4[nH]7)C=C6)C=C5)cc3)n2)cc1
REMARK SMILES IDX 20 1 19 2 17 3 18 4 16 6 15 7 14 8 9 9 10 10 93 11 11 12
REMARK SMILES IDX 13 13 8 14 7 15 6 16 3 17 4 18 95 19 5 20 94 21 2 22 1 23
REMARK SMILES IDX 12 24 21 27 22 28 23 29 24 30 25 31 26 33 27 34 28 35 92 36
REMARK SMILES IDX 29 37 91 38 30 39 31 40 32 41 85 42 33 43 90 44 84 45 86 46
REMARK SMILES IDX 34 47 89 48 83 49 82 50 35 52 69 53 48 54 68 55 49 56 52 57
REMARK SMILES IDX 67 58 87 59 50 60 51 61 66 63 88 64 53 65 36 66 37 67 46 68
REMARK SMILES IDX 38 69 39 70 45 71 47 72 40 73 41 74 42 75 43 76 44 77 70 78
REMARK SMILES IDX 71 79 80 80 72 81 73 82 79 83 81 84 74 85 75 86 76 87 77 88
REMARK SMILES IDX 78 89 54 90 55 91 64 92 56 93 57 94 63 95 65 96 58 97 59 98
REMARK SMILES IDX 60 99 61 100 62 101
REMARK H PARENT 19 5 12 25 12 26 24 32 86 51 52 62
REMARK Flexibility Score: inf
ROOT
ATOM      1  C   UNL     1       0.690   7.596  -5.686  1.00  0.00     0.116 C 
ENDROOT
BRANCH   1   2
ATOM      2  N   UNL     1       1.158   7.346  -4.336  1.00  0.00    -0.355 N 
ATOM      3  C   UNL     1       2.431   7.158  -3.891  1.00  0.00     0.230 C 
ATOM      4  O   UNL     1       2.601   6.873  -2.703  1.00  0.00    -0.274 OA
ATOM      5  H   UNL     1       0.457   7.306  -3.645  1.00  0.00     0.163 HD
BRANCH   3   6
ATOM      6  C   UNL     1       3.616   7.373  -4.813  1.00  0.00     0.176 C 
BRANCH   6   7
ATOM      7  S   UNL     1       3.785   6.120  -6.122  1.00  0.00    -0.096 SA
BRANCH   7   8
ATOM      8  C   UNL     1       3.840   4.568  -5.250  1.00  0.00     0.102 A 
ATOM      9  C   UNL     1       3.607   2.293  -5.446  1.00  0.00     0.169 A 
ATOM     10  N   UNL     1       4.027   2.094  -4.184  1.00  0.00    -0.213 NA
ATOM     11  N   UNL     1       3.512   3.506  -6.015  1.00  0.00    -0.223 NA
ATOM     12  C   UNL     1       4.267   3.164  -3.433  1.00  0.00     0.128 A 
ATOM     13  C   UNL     1       4.231   4.438  -3.937  1.00  0.00     0.082 A 
BRANCH   9  14
ATOM     14  C   UNL     1       3.257   1.061  -6.267  1.00  0.00     0.306 C 
BRANCH  14  15
ATOM     15  O   UNL     1       1.935   0.532  -6.060  1.00  0.00    -0.486 OA
BRANCH  15  16
ATOM     16  C   UNL     1       1.619   0.043  -4.822  1.00  0.00     0.120 A 
ATOM     17  C   UNL     1       0.738  -0.661  -2.262  1.00  0.00     0.119 A 
ATOM     18  C   UNL     1      -0.189  -0.379  -3.261  1.00  0.00     0.050 A 
ATOM     19  C   UNL     1       2.095  -0.700  -2.565  1.00  0.00     0.050 A 
ATOM     20  C   UNL     1       0.253  -0.018  -4.537  1.00  0.00     0.050 A 
ATOM     21  C   UNL     1       2.531  -0.372  -3.851  1.00  0.00     0.050 A 
BRANCH  17  22
ATOM     22  O   UNL     1       0.262  -0.960  -1.015  1.00  0.00    -0.497 OA
ATOM     23  C   UNL     1       0.789  -0.083  -0.018  1.00  0.00     0.278 C 
ENDBRANCH  17  22
ENDBRANCH  15  16
ENDBRANCH  14  15
ENDBRANCH   9  14
BRANCH  12  24
ATOM     24  N   UNL     1       4.609   2.924  -2.115  1.00  0.00    -0.384 N 
ATOM     25  H   UNL     1       4.629   2.002  -1.772  1.00  0.00     0.158 HD
ATOM     26  H   UNL     1       4.832   3.676  -1.519  1.00  0.00     0.158 HD
ENDBRANCH  12  24
ENDBRANCH   7   8
ENDBRANCH   6   7
ENDBRANCH   3   6
ENDBRANCH   1   2
BRANCH   1  27
ATOM     27  C   UNL     1       0.013   6.360  -6.277  1.00  0.00     0.023 C 
BRANCH  27  28
ATOM     28  C   UNL     1      -1.290   5.954  -5.581  1.00  0.00     0.023 C 
BRANCH  28  29
ATOM     29  C   UNL     1      -2.356   7.042  -5.505  1.00  0.00     0.116 C 
BRANCH  29  30
ATOM     30  N   UNL     1      -2.743   7.549  -6.812  1.00  0.00    -0.352 N 
ATOM     31  C   UNL     1      -3.999   7.815  -7.299  1.00  0.00     0.251 C 
ATOM     32  H   UNL     1      -2.000   7.727  -7.434  1.00  0.00     0.163 HD
ATOM     33  O   UNL     1      -4.145   8.115  -8.482  1.00  0.00    -0.269 OA
BRANCH  31  34
ATOM     34  C   UNL     1      -5.174   7.707  -6.407  1.00  0.00     0.039 A 
ATOM     35  C   UNL     1      -6.305   7.026  -6.863  1.00  0.00     0.014 A 
ATOM     36  C   UNL     1      -5.157   8.262  -5.125  1.00  0.00     0.014 A 
ATOM     37  C   UNL     1      -7.394   6.844  -6.008  1.00  0.00     0.010 A 
ATOM     38  C   UNL     1      -6.213   8.016  -4.250  1.00  0.00     0.010 A 
ATOM     39  C   UNL     1      -7.343   7.305  -4.682  1.00  0.00    -0.014 A 
BRANCH  39  40
ATOM     40  C   UNL     1      -8.456   7.043  -3.732  1.00  0.00     0.031 A 
ATOM     41  C   UNL     1      -9.235   8.188  -3.142  1.00  0.00     0.074 A 
ATOM     42  C   UNL     1      -8.724   5.778  -3.353  1.00  0.00     0.049 A 
ATOM     43  N   UNL     1     -10.193   8.162  -2.251  1.00  0.00    -0.248 NA
ATOM     44  C   UNL     1      -8.872   9.542  -3.590  1.00  0.00     0.031 C 
ATOM     45  C   UNL     1      -8.006   4.587  -3.813  1.00  0.00     0.029 A 
ATOM     46  N   UNL     1      -9.663   5.280  -2.484  1.00  0.00    -0.354 N 
ATOM     47  C   UNL     1     -10.537   9.489  -2.023  1.00  0.00     0.074 A 
ATOM     48  C   UNL     1      -9.649  10.298  -2.829  1.00  0.00     0.031 C 
ATOM     49  C   UNL     1      -8.543   3.498  -3.240  1.00  0.00     0.029 A 
ATOM     50  C   UNL     1      -9.616   3.913  -2.340  1.00  0.00     0.049 A 
ATOM     51  H   UNL     1     -10.311   5.849  -2.008  1.00  0.00     0.167 HD
ATOM     52  C   UNL     1     -11.517   9.987  -1.232  1.00  0.00     0.037 A 
ATOM     53  C   UNL     1     -10.345   3.086  -1.565  1.00  0.00     0.037 A 
ATOM     54  C   UNL     1     -12.414   9.173  -0.451  1.00  0.00     0.049 A 
ATOM     55  C   UNL     1     -11.431   3.663  -0.697  1.00  0.00     0.074 A 
ATOM     56  C   UNL     1     -13.480   9.580   0.333  1.00  0.00     0.029 A 
ATOM     57  N   UNL     1     -12.350   7.791  -0.351  1.00  0.00    -0.354 N 
ATOM     58  N   UNL     1     -11.787   4.916  -0.546  1.00  0.00    -0.248 NA
ATOM     59  C   UNL     1     -12.221   2.713   0.099  1.00  0.00     0.031 C 
ATOM     60  C   UNL     1     -14.028   8.449   0.946  1.00  0.00     0.029 A 
ATOM     61  C   UNL     1     -13.342   7.331   0.499  1.00  0.00     0.049 A 
ATOM     62  H   UNL     1     -11.696   7.221  -0.817  1.00  0.00     0.167 HD
ATOM     63  C   UNL     1     -12.858   4.904   0.340  1.00  0.00     0.074 A 
ATOM     64  C   UNL     1     -13.101   3.517   0.680  1.00  0.00     0.031 C 
ATOM     65  C   UNL     1     -13.577   5.946   0.826  1.00  0.00     0.037 A 
BRANCH  52  66
ATOM     66  C   UNL     1     -11.677  11.482  -1.170  1.00  0.00     0.058 A 
ATOM     67  C   UNL     1     -12.160  12.219  -2.263  1.00  0.00     0.135 A 
ATOM     68  C   UNL     1     -11.390  12.182   0.014  1.00  0.00     0.135 A 
ATOM     69  F   UNL     1     -12.437  11.604  -3.424  1.00  0.00    -0.206 F 
ATOM     70  C   UNL     1     -12.327  13.598  -2.195  1.00  0.00     0.059 A 
ATOM     71  C   UNL     1     -11.578  13.558   0.114  1.00  0.00     0.059 A 
ATOM     72  F   UNL     1     -10.925  11.528   1.090  1.00  0.00    -0.206 F 
ATOM     73  C   UNL     1     -12.035  14.259  -1.000  1.00  0.00     0.060 A 
BRANCH  73  74
ATOM     74  S   UNL     1     -12.270  16.047  -0.926  1.00  0.00     0.124 S 
ATOM     75  O   UNL     1     -11.164  16.521  -1.752  1.00  0.00    -0.237 OA
ATOM     76  O   UNL     1     -13.603  16.210  -1.498  1.00  0.00    -0.237 OA
ATOM     77  O   UNL     1     -12.162  16.346   0.499  1.00  0.00    -0.744 OA
ENDBRANCH  73  74
ENDBRANCH  52  66
BRANCH  53  78
ATOM     78  C   UNL     1     -10.082   1.622  -1.589  1.00  0.00     0.058 A 
ATOM     79  C   UNL     1     -11.002   0.731  -2.161  1.00  0.00     0.135 A 
ATOM     80  C   UNL     1      -8.899   1.086  -1.056  1.00  0.00     0.135 A 
ATOM     81  F   UNL     1     -12.151   1.194  -2.678  1.00  0.00    -0.206 F 
ATOM     82  C   UNL     1     -10.770  -0.640  -2.188  1.00  0.00     0.059 A 
ATOM     83  C   UNL     1      -8.631  -0.279  -1.096  1.00  0.00     0.059 A 
ATOM     84  F   UNL     1      -7.978   1.897  -0.512  1.00  0.00    -0.206 F 
ATOM     85  C   UNL     1      -9.578  -1.135  -1.655  1.00  0.00     0.060 A 
BRANCH  85  86
ATOM     86  S   UNL     1      -9.265  -2.912  -1.740  1.00  0.00     0.124 S 
ATOM     87  O   UNL     1     -10.198  -3.422  -0.741  1.00  0.00    -0.237 OA
ATOM     88  O   UNL     1      -9.590  -3.214  -3.130  1.00  0.00    -0.237 OA
ATOM     89  O   UNL     1      -7.851  -3.020  -1.396  1.00  0.00    -0.744 OA
ENDBRANCH  85  86
ENDBRANCH  53  78
BRANCH  65  90
ATOM     90  C   UNL     1     -14.721   5.630   1.752  1.00  0.00     0.058 A 
ATOM     91  C   UNL     1     -14.509   5.187   3.066  1.00  0.00     0.135 A 
ATOM     92  C   UNL     1     -16.047   5.826   1.332  1.00  0.00     0.135 A 
ATOM     93  F   UNL     1     -13.261   4.978   3.516  1.00  0.00    -0.206 F 
ATOM     94  C   UNL     1     -15.572   4.925   3.925  1.00  0.00     0.059 A 
ATOM     95  C   UNL     1     -17.124   5.599   2.183  1.00  0.00     0.059 A 
ATOM     96  F   UNL     1     -16.306   6.260   0.088  1.00  0.00    -0.206 F 
ATOM     97  C   UNL     1     -16.877   5.136   3.474  1.00  0.00     0.060 A 
BRANCH  97  98
ATOM     98  S   UNL     1     -18.245   4.824   4.609  1.00  0.00     0.124 S 
ATOM     99  O   UNL     1     -18.263   3.366   4.654  1.00  0.00    -0.237 OA
ATOM    100  O   UNL     1     -17.798   5.490   5.829  1.00  0.00    -0.237 OA
ATOM    101  O   UNL     1     -19.387   5.446   3.945  1.00  0.00    -0.744 OA
ENDBRANCH  97  98
ENDBRANCH  65  90
ENDBRANCH  39  40
ENDBRANCH  31  34
ENDBRANCH  29  30
ENDBRANCH  28  29
ENDBRANCH  27  28
ENDBRANCH   1  27
TORSDOF 21
