REMARK SMILES O=C(COc1ccccc1/C=C1/SC(=O)N(c2ccc(F)cc2)C1=O)NCCCCNC(=O)c1ccc(-c2c3nc(c(-c4c(F)cc(S(=O)(=O)[O-])cc4F)c4ccc([nH]4)c(-c4c(F)cc(S(=O)(=O)[O-])cc4F)c4nc(c(-c5c(F)cc(S(=O)(=O)[O-])cc5F)c5ccc2[nH]5)C=C4)C=C3)cc1
REMARK SMILES IDX 28 1 27 2 26 3 1 4 2 5 3 7 4 8 5 9 6 10 10 11 7 12 9 13 8 14
REMARK SMILES IDX 11 15 12 16 13 17 24 18 14 19 16 20 25 21 15 22 17 23 18 24
REMARK SMILES IDX 23 25 19 26 22 27 20 28 21 29 29 30 30 31 31 32 32 33 33 35
REMARK SMILES IDX 34 36 35 37 99 38 36 39 98 40 37 41 38 42 39 43 92 44 40 45
REMARK SMILES IDX 97 46 91 47 93 48 41 49 96 50 90 51 89 52 42 54 76 55 55 56
REMARK SMILES IDX 75 57 56 58 59 59 74 60 94 61 57 62 58 63 73 65 95 66 60 67
REMARK SMILES IDX 43 68 44 69 53 70 45 71 46 72 52 73 54 74 47 75 48 76 49 77
REMARK SMILES IDX 50 78 51 79 77 80 78 81 87 82 79 83 80 84 86 85 88 86 81 87
REMARK SMILES IDX 82 88 83 89 84 90 85 91 61 92 62 93 71 94 63 95 64 96 70 97
REMARK SMILES IDX 72 98 65 99 66 100 67 101 68 102 69 103
REMARK H PARENT 26 6 31 34 93 53 59 64
REMARK Flexibility Score: inf
ROOT
ATOM      1  C   UNL     1       1.648   3.761   0.803  1.00  0.00     0.023 C 
ENDROOT
BRANCH   1   2
ATOM      2  C   UNL     1       1.119   2.422   0.234  1.00  0.00     0.116 C 
BRANCH   2   3
ATOM      3  N   UNL     1       1.633   1.152   0.773  1.00  0.00    -0.353 N 
ATOM      4  O   UNL     1       0.019  -0.161  -0.205  1.00  0.00    -0.271 OA
ATOM      5  C   UNL     1       1.120  -0.080   0.342  1.00  0.00     0.257 C 
ATOM      6  H   UNL     1       2.350   1.168   1.448  1.00  0.00     0.163 HD
BRANCH   5   7
ATOM      7  C   UNL     1       2.037  -1.356   0.495  1.00  0.00     0.329 C 
BRANCH   7   8
ATOM      8  O   UNL     1       3.127  -1.696  -0.375  1.00  0.00    -0.483 OA
BRANCH   8   9
ATOM      9  C   UNL     1       2.831  -1.999  -1.686  1.00  0.00     0.127 A 
ATOM     10  C   UNL     1       3.007  -3.310  -2.128  1.00  0.00     0.047 A 
ATOM     11  C   UNL     1       2.612  -0.993  -2.651  1.00  0.00     0.018 A 
ATOM     12  C   UNL     1       2.795  -3.630  -3.477  1.00  0.00     0.004 A 
ATOM     13  C   UNL     1       2.295  -1.324  -3.970  1.00  0.00     0.012 A 
ATOM     14  C   UNL     1       2.382  -2.650  -4.381  1.00  0.00     0.001 A 
BRANCH  11  15
ATOM     15  C   UNL     1       2.786   0.417  -2.275  1.00  0.00     0.033 C 
ATOM     16  C   UNL     1       4.008   0.771  -1.845  1.00  0.00     0.084 C 
ATOM     17  S   UNL     1       4.370   1.183  -0.223  1.00  0.00    -0.022 SA
ATOM     18  C   UNL     1       5.268   0.740  -2.630  1.00  0.00     0.272 C 
ATOM     19  C   UNL     1       5.970   1.692  -0.597  1.00  0.00     0.298 C 
ATOM     20  N   UNL     1       6.292   1.321  -1.878  1.00  0.00    -0.236 N 
ATOM     21  O   UNL     1       5.301   0.327  -3.779  1.00  0.00    -0.268 OA
ATOM     22  O   UNL     1       6.573   2.390   0.213  1.00  0.00    -0.260 OA
BRANCH  20  23
ATOM     23  C   UNL     1       7.574   1.629  -2.410  1.00  0.00     0.053 A 
ATOM     24  C   UNL     1       7.762   1.838  -3.783  1.00  0.00     0.030 A 
ATOM     25  C   UNL     1       8.680   1.779  -1.552  1.00  0.00     0.030 A 
ATOM     26  C   UNL     1       9.019   2.187  -4.279  1.00  0.00     0.041 A 
ATOM     27  C   UNL     1       9.933   2.130  -2.047  1.00  0.00     0.041 A 
ATOM     28  C   UNL     1      10.091   2.325  -3.408  1.00  0.00     0.123 A 
ATOM     29  F   UNL     1      11.290   2.664  -3.889  1.00  0.00    -0.207 F 
ENDBRANCH  20  23
ENDBRANCH  11  15
ENDBRANCH   8   9
ENDBRANCH   7   8
ENDBRANCH   5   7
ENDBRANCH   2   3
ENDBRANCH   1   2
BRANCH   1  30
ATOM     30  C   UNL     1       3.126   4.208   0.658  1.00  0.00     0.023 C 
BRANCH  30  31
ATOM     31  C   UNL     1       3.747   4.436  -0.740  1.00  0.00     0.116 C 
BRANCH  31  32
ATOM     32  N   UNL     1       3.479   5.739  -1.324  1.00  0.00    -0.352 N 
ATOM     33  C   UNL     1       4.312   6.744  -1.776  1.00  0.00     0.251 C 
ATOM     34  H   UNL     1       2.521   5.945  -1.415  1.00  0.00     0.163 HD
ATOM     35  O   UNL     1       3.779   7.789  -2.156  1.00  0.00    -0.269 OA
BRANCH  33  36
ATOM     36  C   UNL     1       5.805   6.660  -1.821  1.00  0.00     0.039 A 
ATOM     37  C   UNL     1       6.536   7.805  -1.462  1.00  0.00     0.014 A 
ATOM     38  C   UNL     1       6.509   5.570  -2.336  1.00  0.00     0.014 A 
ATOM     39  C   UNL     1       7.941   7.840  -1.559  1.00  0.00     0.010 A 
ATOM     40  C   UNL     1       7.921   5.598  -2.405  1.00  0.00     0.010 A 
ATOM     41  C   UNL     1       8.664   6.723  -2.007  1.00  0.00    -0.014 A 
BRANCH  41  42
ATOM     42  C   UNL     1      10.169   6.719  -2.002  1.00  0.00     0.031 A 
ATOM     43  C   UNL     1      10.981   6.618  -3.275  1.00  0.00     0.074 A 
ATOM     44  C   UNL     1      10.835   6.778  -0.827  1.00  0.00     0.049 A 
ATOM     45  N   UNL     1      12.285   6.597  -3.429  1.00  0.00    -0.248 NA
ATOM     46  C   UNL     1      10.235   6.524  -4.537  1.00  0.00     0.031 C 
ATOM     47  C   UNL     1      10.207   6.848   0.493  1.00  0.00     0.029 A 
ATOM     48  N   UNL     1      12.185   6.783  -0.547  1.00  0.00    -0.354 N 
ATOM     49  C   UNL     1      12.517   6.480  -4.797  1.00  0.00     0.074 A 
ATOM     50  C   UNL     1      11.213   6.399  -5.425  1.00  0.00     0.031 C 
ATOM     51  C   UNL     1      11.162   6.905   1.435  1.00  0.00     0.029 A 
ATOM     52  C   UNL     1      12.475   6.836   0.799  1.00  0.00     0.049 A 
ATOM     53  H   UNL     1      12.878   6.752  -1.245  1.00  0.00     0.167 HD
ATOM     54  C   UNL     1      13.696   6.458  -5.473  1.00  0.00     0.037 A 
ATOM     55  C   UNL     1      13.652   6.818   1.460  1.00  0.00     0.037 A 
ATOM     56  C   UNL     1      15.002   6.540  -4.859  1.00  0.00     0.049 A 
ATOM     57  C   UNL     1      14.948   6.758   0.692  1.00  0.00     0.074 A 
ATOM     58  C   UNL     1      16.242   6.577  -5.479  1.00  0.00     0.029 A 
ATOM     59  N   UNL     1      15.246   6.582  -3.495  1.00  0.00    -0.354 N 
ATOM     60  N   UNL     1      15.137   6.721  -0.604  1.00  0.00    -0.248 NA
ATOM     61  C   UNL     1      16.191   6.745   1.479  1.00  0.00     0.031 C 
ATOM     62  C   UNL     1      17.233   6.582  -4.492  1.00  0.00     0.029 A 
ATOM     63  C   UNL     1      16.613   6.615  -3.255  1.00  0.00     0.049 A 
ATOM     64  H   UNL     1      14.550   6.587  -2.798  1.00  0.00     0.167 HD
ATOM     65  C   UNL     1      16.518   6.711  -0.788  1.00  0.00     0.074 A 
ATOM     66  C   UNL     1      17.116   6.759   0.528  1.00  0.00     0.031 C 
ATOM     67  C   UNL     1      17.220   6.669  -1.947  1.00  0.00     0.037 A 
BRANCH  54  68
ATOM     68  C   UNL     1      13.647   6.339  -6.977  1.00  0.00     0.058 A 
ATOM     69  C   UNL     1      13.197   7.395  -7.786  1.00  0.00     0.135 A 
ATOM     70  C   UNL     1      14.128   5.186  -7.623  1.00  0.00     0.135 A 
ATOM     71  F   UNL     1      12.727   8.521  -7.228  1.00  0.00    -0.206 F 
ATOM     72  C   UNL     1      13.194   7.301  -9.175  1.00  0.00     0.059 A 
ATOM     73  C   UNL     1      14.162   5.082  -9.012  1.00  0.00     0.059 A 
ATOM     74  F   UNL     1      14.588   4.150  -6.904  1.00  0.00    -0.206 F 
ATOM     75  C   UNL     1      13.677   6.139  -9.780  1.00  0.00     0.060 A 
BRANCH  75  76
ATOM     76  S   UNL     1      13.664   6.036 -11.583  1.00  0.00     0.124 S 
ATOM     77  O   UNL     1      12.236   5.913 -11.857  1.00  0.00    -0.237 OA
ATOM     78  O   UNL     1      14.276   7.302 -11.973  1.00  0.00    -0.237 OA
ATOM     79  O   UNL     1      14.460   4.845 -11.864  1.00  0.00    -0.744 OA
ENDBRANCH  75  76
ENDBRANCH  54  68
BRANCH  55  80
ATOM     80  C   UNL     1      13.668   6.858   2.950  1.00  0.00     0.058 A 
ATOM     81  C   UNL     1      14.157   7.976   3.643  1.00  0.00     0.135 A 
ATOM     82  C   UNL     1      13.202   5.774   3.711  1.00  0.00     0.135 A 
ATOM     83  F   UNL     1      14.629   9.033   2.963  1.00  0.00    -0.206 F 
ATOM     84  C   UNL     1      14.199   8.014   5.033  1.00  0.00     0.059 A 
ATOM     85  C   UNL     1      13.204   5.800   5.102  1.00  0.00     0.059 A 
ATOM     86  F   UNL     1      12.715   4.683   3.099  1.00  0.00    -0.206 F 
ATOM     87  C   UNL     1      13.716   6.921   5.755  1.00  0.00     0.060 A 
BRANCH  87  88
ATOM     88  S   UNL     1      13.730   6.998   7.559  1.00  0.00     0.124 S 
ATOM     89  O   UNL     1      15.153   6.865   7.848  1.00  0.00    -0.237 OA
ATOM     90  O   UNL     1      13.146   8.311   7.814  1.00  0.00    -0.237 OA
ATOM     91  O   UNL     1      12.898   5.864   7.950  1.00  0.00    -0.744 OA
ENDBRANCH  87  88
ENDBRANCH  55  80
BRANCH  67  92
ATOM     92  C   UNL     1      18.725   6.713  -1.861  1.00  0.00     0.058 A 
ATOM     93  C   UNL     1      19.476   5.631  -1.371  1.00  0.00     0.135 A 
ATOM     94  C   UNL     1      19.432   7.838  -2.318  1.00  0.00     0.135 A 
ATOM     95  F   UNL     1      18.857   4.532  -0.913  1.00  0.00    -0.206 F 
ATOM     96  C   UNL     1      20.867   5.673  -1.316  1.00  0.00     0.059 A 
ATOM     97  C   UNL     1      20.824   7.890  -2.300  1.00  0.00     0.059 A 
ATOM     98  F   UNL     1      18.770   8.900  -2.804  1.00  0.00    -0.206 F 
ATOM     99  C   UNL     1      21.533   6.806  -1.786  1.00  0.00     0.060 A 
BRANCH  99 100
ATOM    100  S   UNL     1      23.339   6.833  -1.738  1.00  0.00     0.124 S 
ATOM    101  O   UNL     1      23.594   6.979  -0.308  1.00  0.00    -0.237 OA
ATOM    102  O   UNL     1      23.686   5.538  -2.315  1.00  0.00    -0.237 OA
ATOM    103  O   UNL     1      23.685   7.991  -2.557  1.00  0.00    -0.744 OA
ENDBRANCH  99 100
ENDBRANCH  67  92
ENDBRANCH  41  42
ENDBRANCH  33  36
ENDBRANCH  31  32
ENDBRANCH  30  31
ENDBRANCH   1  30
TORSDOF 18
