REMARK SMILES CNS(=O)(=O)c1ccc([C@H]2CC(=O)Nc3cc(O)c(C(=O)NCCCCNC(=O)c4ccc(-c5c6nc(c(-c7c(F)cc(S(=O)(=O)[O-])cc7F)c7ccc([nH]7)c(-c7c(F)cc(S(=O)(=O)[O-])cc7F)c7nc(c(-c8c(F)cc(S(=O)(=O)[O-])cc8F)c8ccc5[nH]8)C=C7)C=C6)cc4)cc32)cc1
REMARK SMILES IDX 24 1 23 2 22 3 20 4 21 5 19 7 10 8 11 9 97 10 12 11 15 12
REMARK SMILES IDX 96 13 13 14 14 15 16 16 17 18 9 19 6 20 7 21 99 22 8 23
REMARK SMILES IDX 98 24 3 25 4 26 5 27 2 28 1 29 18 31 25 33 26 34 27 35 28 36
REMARK SMILES IDX 29 38 30 39 31 40 95 41 32 42 94 43 33 44 34 45 35 46 88 47
REMARK SMILES IDX 36 48 93 49 87 50 89 51 37 52 92 53 86 54 85 55 38 57 72 58
REMARK SMILES IDX 51 59 71 60 52 61 55 62 70 63 90 64 53 65 54 66 69 68 91 69
REMARK SMILES IDX 56 70 39 71 40 72 49 73 41 74 42 75 48 76 50 77 43 78 44 79
REMARK SMILES IDX 45 80 46 81 47 82 73 83 74 84 83 85 75 86 76 87 82 88 84 89
REMARK SMILES IDX 77 90 78 91 79 92 80 93 81 94 57 95 58 96 67 97 59 98 60 99
REMARK SMILES IDX 66 100 68 101 61 102 62 103 63 104 64 105 65 106
REMARK H PARENT 22 6 14 17 2 30 18 32 27 37 89 56 55 67
REMARK Flexibility Score: inf
ROOT
ATOM      1  C   UNL     1      -0.704   7.725   2.460  1.00  0.00     0.023 C 
ENDROOT
BRANCH   1   2
ATOM      2  C   UNL     1      -1.733   7.531   3.570  1.00  0.00     0.116 C 
BRANCH   2   3
ATOM      3  N   UNL     1      -3.011   8.132   3.248  1.00  0.00    -0.352 N 
ATOM      4  C   UNL     1      -4.221   7.686   2.803  1.00  0.00     0.255 C 
ATOM      5  O   UNL     1      -5.042   8.571   2.527  1.00  0.00    -0.269 OA
ATOM      6  H   UNL     1      -3.004   9.107   3.385  1.00  0.00     0.163 HD
BRANCH   4   7
ATOM      7  C   UNL     1      -4.655   6.268   2.611  1.00  0.00     0.082 A 
ATOM      8  C   UNL     1      -3.942   2.624   3.714  1.00  0.00     0.061 C 
ATOM      9  C   UNL     1      -4.491   1.288   3.148  1.00  0.00     0.113 C 
ATOM     10  C   UNL     1      -4.601   3.838   3.064  1.00  0.00    -0.015 A 
ATOM     11  C   UNL     1      -5.926   1.295   2.706  1.00  0.00     0.225 C 
ATOM     12  C   UNL     1      -5.768   3.689   2.310  1.00  0.00     0.048 A 
ATOM     13  C   UNL     1      -4.060   5.141   3.209  1.00  0.00     0.024 A 
ATOM     14  O   UNL     1      -6.606   0.271   2.672  1.00  0.00    -0.275 OA
ATOM     15  N   UNL     1      -6.406   2.459   2.203  1.00  0.00    -0.326 N 
ATOM     16  C   UNL     1      -6.368   4.781   1.694  1.00  0.00     0.073 A 
ATOM     17  H   UNL     1      -7.268   2.431   1.728  1.00  0.00     0.169 HD
ATOM     18  C   UNL     1      -5.823   6.050   1.851  1.00  0.00     0.130 A 
BRANCH   8  19
ATOM     19  C   UNL     1      -3.885   2.563   5.248  1.00  0.00    -0.040 A 
ATOM     20  C   UNL     1      -4.068   2.080   8.013  1.00  0.00     0.082 A 
ATOM     21  C   UNL     1      -3.428   1.158   7.193  1.00  0.00     0.022 A 
ATOM     22  C   UNL     1      -4.513   3.295   7.489  1.00  0.00     0.022 A 
ATOM     23  C   UNL     1      -3.282   1.431   5.837  1.00  0.00     0.006 A 
ATOM     24  C   UNL     1      -4.438   3.525   6.107  1.00  0.00     0.006 A 
BRANCH  20  25
ATOM     25  S   UNL     1      -4.502   1.601   9.665  1.00  0.00     0.240 S 
ATOM     26  O   UNL     1      -5.166   0.311   9.587  1.00  0.00    -0.207 OA
ATOM     27  O   UNL     1      -5.122   2.726  10.314  1.00  0.00    -0.207 OA
BRANCH  25  28
ATOM     28  N   UNL     1      -3.027   1.389  10.438  1.00  0.00    -0.214 NA
ATOM     29  C   UNL     1      -2.275   0.155  10.251  1.00  0.00     0.120 C 
ATOM     30  H   UNL     1      -2.422   2.152  10.132  1.00  0.00     0.141 HD
ENDBRANCH  25  28
ENDBRANCH  20  25
ENDBRANCH   8  19
BRANCH  18  31
ATOM     31  O   UNL     1      -6.541   7.049   1.240  1.00  0.00    -0.507 OA
ATOM     32  H   UNL     1      -7.310   6.839   0.748  1.00  0.00     0.293 HD
ENDBRANCH  18  31
ENDBRANCH   4   7
ENDBRANCH   2   3
ENDBRANCH   1   2
BRANCH   1  33
ATOM     33  C   UNL     1      -0.278   9.174   2.206  1.00  0.00     0.023 C 
BRANCH  33  34
ATOM     34  C   UNL     1       0.200   9.956   3.427  1.00  0.00     0.116 C 
BRANCH  34  35
ATOM     35  N   UNL     1       1.265   9.288   4.159  1.00  0.00    -0.352 N 
ATOM     36  C   UNL     1       2.396   9.824   4.728  1.00  0.00     0.251 C 
ATOM     37  H   UNL     1       1.162   8.314   4.261  1.00  0.00     0.163 HD
ATOM     38  O   UNL     1       3.240   9.082   5.221  1.00  0.00    -0.269 OA
BRANCH  36  39
ATOM     39  C   UNL     1       2.605  11.288   4.714  1.00  0.00     0.039 A 
ATOM     40  C   UNL     1       3.845  11.787   4.306  1.00  0.00     0.014 A 
ATOM     41  C   UNL     1       1.582  12.164   5.088  1.00  0.00     0.014 A 
ATOM     42  C   UNL     1       4.037  13.167   4.207  1.00  0.00     0.010 A 
ATOM     43  C   UNL     1       1.755  13.536   4.927  1.00  0.00     0.010 A 
ATOM     44  C   UNL     1       2.982  14.052   4.483  1.00  0.00    -0.014 A 
BRANCH  44  45
ATOM     45  C   UNL     1       3.139  15.519   4.312  1.00  0.00     0.031 A 
ATOM     46  C   UNL     1       3.043  16.432   5.503  1.00  0.00     0.074 A 
ATOM     47  C   UNL     1       3.295  16.034   3.076  1.00  0.00     0.049 A 
ATOM     48  N   UNL     1       3.065  17.739   5.547  1.00  0.00    -0.248 NA
ATOM     49  C   UNL     1       2.870  15.790   6.816  1.00  0.00     0.031 C 
ATOM     50  C   UNL     1       3.358  15.255   1.837  1.00  0.00     0.029 A 
ATOM     51  N   UNL     1       3.413  17.334   2.655  1.00  0.00    -0.354 N 
ATOM     52  C   UNL     1       2.892  18.076   6.884  1.00  0.00     0.074 A 
ATOM     53  C   UNL     1       2.716  16.838   7.612  1.00  0.00     0.031 C 
ATOM     54  C   UNL     1       3.522  16.091   0.799  1.00  0.00     0.029 A 
ATOM     55  C   UNL     1       3.536  17.466   1.292  1.00  0.00     0.049 A 
ATOM     56  H   UNL     1       3.410  18.102   3.272  1.00  0.00     0.167 HD
ATOM     57  C   UNL     1       2.900  19.304   7.457  1.00  0.00     0.037 A 
ATOM     58  C   UNL     1       3.638  18.568   0.524  1.00  0.00     0.037 A 
ATOM     59  C   UNL     1       3.100  20.530   6.729  1.00  0.00     0.049 A 
ATOM     60  C   UNL     1       3.644  19.922   1.181  1.00  0.00     0.074 A 
ATOM     61  C   UNL     1       3.187  21.820   7.224  1.00  0.00     0.029 A 
ATOM     62  N   UNL     1       3.241  20.621   5.352  1.00  0.00    -0.354 N 
ATOM     63  N   UNL     1       3.541  20.219   2.455  1.00  0.00    -0.248 NA
ATOM     64  C   UNL     1       3.783  21.088   0.299  1.00  0.00     0.031 C 
ATOM     65  C   UNL     1       3.338  22.694   6.141  1.00  0.00     0.029 A 
ATOM     66  C   UNL     1       3.393  21.945   4.976  1.00  0.00     0.049 A 
ATOM     67  H   UNL     1       3.234  19.856   4.732  1.00  0.00     0.167 HD
ATOM     68  C   UNL     1       3.628  21.605   2.529  1.00  0.00     0.074 A 
ATOM     69  C   UNL     1       3.803  22.085   1.173  1.00  0.00     0.031 C 
ATOM     70  C   UNL     1       3.569  22.407   3.621  1.00  0.00     0.037 A 
BRANCH  57  71
ATOM     71  C   UNL     1       2.685  19.377   8.944  1.00  0.00     0.058 A 
ATOM     72  C   UNL     1       3.653  18.918   9.852  1.00  0.00     0.135 A 
ATOM     73  C   UNL     1       1.505  19.927   9.470  1.00  0.00     0.135 A 
ATOM     74  F   UNL     1       4.794  18.369   9.405  1.00  0.00    -0.206 F 
ATOM     75  C   UNL     1       3.442  18.965  11.226  1.00  0.00     0.059 A 
ATOM     76  C   UNL     1       1.285  20.011  10.842  1.00  0.00     0.059 A 
ATOM     77  F   UNL     1       0.546  20.383   8.648  1.00  0.00    -0.206 F 
ATOM     78  C   UNL     1       2.252  19.509  11.712  1.00  0.00     0.060 A 
BRANCH  78  79
ATOM     79  S   UNL     1       1.988  19.550  13.497  1.00  0.00     0.124 S 
ATOM     80  O   UNL     1       1.708  18.145  13.780  1.00  0.00    -0.237 OA
ATOM     81  O   UNL     1       3.265  20.053  13.991  1.00  0.00    -0.237 OA
ATOM     82  O   UNL     1       0.856  20.458  13.653  1.00  0.00    -0.744 OA
ENDBRANCH  78  79
ENDBRANCH  57  71
BRANCH  58  83
ATOM     83  C   UNL     1       3.770  18.433  -0.951  1.00  0.00     0.058 A 
ATOM     84  C   UNL     1       4.986  18.710  -1.592  1.00  0.00     0.135 A 
ATOM     85  C   UNL     1       2.696  18.003  -1.745  1.00  0.00     0.135 A 
ATOM     86  F   UNL     1       6.040  19.132  -0.877  1.00  0.00    -0.206 F 
ATOM     87  C   UNL     1       5.132  18.575  -2.969  1.00  0.00     0.059 A 
ATOM     88  C   UNL     1       2.823  17.837  -3.120  1.00  0.00     0.059 A 
ATOM     89  F   UNL     1       1.515  17.710  -1.177  1.00  0.00    -0.206 F 
ATOM     90  C   UNL     1       4.045  18.133  -3.725  1.00  0.00     0.060 A 
BRANCH  90  91
ATOM     91  S   UNL     1       4.264  17.901  -5.502  1.00  0.00     0.124 S 
ATOM     92  O   UNL     1       4.303  19.280  -5.976  1.00  0.00    -0.237 OA
ATOM     93  O   UNL     1       5.525  17.168  -5.562  1.00  0.00    -0.237 OA
ATOM     94  O   UNL     1       3.083  17.133  -5.888  1.00  0.00    -0.744 OA
ENDBRANCH  90  91
ENDBRANCH  58  83
BRANCH  70  95
ATOM     95  C   UNL     1       3.723  23.887   3.402  1.00  0.00     0.058 A 
ATOM     96  C   UNL     1       2.701  24.657   2.826  1.00  0.00     0.135 A 
ATOM     97  C   UNL     1       4.888  24.550   3.821  1.00  0.00     0.135 A 
ATOM     98  F   UNL     1       1.570  24.071   2.401  1.00  0.00    -0.206 F 
ATOM     99  C   UNL     1       2.836  26.031   2.654  1.00  0.00     0.059 A 
ATOM    100  C   UNL     1       5.034  25.927   3.683  1.00  0.00     0.059 A 
ATOM    101  F   UNL     1       5.891  23.861   4.387  1.00  0.00    -0.206 F 
ATOM    102  C   UNL     1       4.006  26.657   3.088  1.00  0.00     0.060 A 
BRANCH 102 103
ATOM    103  S   UNL     1       4.156  28.446   2.892  1.00  0.00     0.124 S 
ATOM    104  O   UNL     1       4.397  28.565   1.457  1.00  0.00    -0.237 OA
ATOM    105  O   UNL     1       2.857  28.921   3.358  1.00  0.00    -0.237 OA
ATOM    106  O   UNL     1       5.286  28.788   3.749  1.00  0.00    -0.744 OA
ENDBRANCH 102 103
ENDBRANCH  70  95
ENDBRANCH  44  45
ENDBRANCH  36  39
ENDBRANCH  34  35
ENDBRANCH  33  34
ENDBRANCH   1  33
TORSDOF 18
