REMARK SMILES Cc1ccc(Cl)c(Nc2ccccc2C(=O)NCCCCNC(=O)c2ccc(-c3c4nc(c(-c5c(F)cc(S(=O)(=O)[O-])cc5F)c5ccc([nH]5)c(-c5c(F)cc(S(=O)(=O)[O-])cc5F)c5nc(c(-c6c(F)cc(S(=O)(=O)[O-])cc6F)c6ccc3[nH]6)C=C5)C=C4)cc2)c1Cl
REMARK SMILES IDX 20 1 19 2 18 3 17 4 15 5 16 6 14 8 9 9 10 10 11 11 13 12
REMARK SMILES IDX 12 13 8 14 7 16 1 17 2 18 3 19 91 20 4 21 92 22 5 23 6 24
REMARK SMILES IDX 21 25 22 26 23 27 24 29 25 30 26 31 90 32 27 33 89 34 28 35
REMARK SMILES IDX 29 36 30 37 83 38 31 39 88 40 82 41 84 42 32 43 87 44 81 45
REMARK SMILES IDX 80 46 33 48 67 49 46 50 66 51 47 52 50 53 65 54 85 55 48 56
REMARK SMILES IDX 49 57 64 59 86 60 51 61 34 62 35 63 44 64 36 65 37 66 43 67
REMARK SMILES IDX 45 68 38 69 39 70 40 71 41 72 42 73 68 74 69 75 78 76 70 77
REMARK SMILES IDX 71 78 77 79 79 80 72 81 73 82 74 83 75 84 76 85 52 86 53 87
REMARK SMILES IDX 62 88 54 89 55 90 61 91 63 92 56 93 57 94 58 95 59 96 60 97
REMARK H PARENT 17 7 8 15 22 28 84 47 50 58
REMARK Flexibility Score: inf
ROOT
ATOM      1  C   UNL     1      -2.771  -0.248   3.125  1.00  0.00     0.023 C 
ENDROOT
BRANCH   1   2
ATOM      2  C   UNL     1      -2.478  -1.568   2.405  1.00  0.00     0.023 C 
BRANCH   2   3
ATOM      3  C   UNL     1      -1.256  -1.603   1.498  1.00  0.00     0.116 C 
BRANCH   3   4
ATOM      4  N   UNL     1       0.021  -1.532   2.166  1.00  0.00    -0.352 N 
ATOM      5  C   UNL     1       1.235  -2.073   1.805  1.00  0.00     0.253 C 
ATOM      6  O   UNL     1       2.215  -1.769   2.489  1.00  0.00    -0.269 OA
ATOM      7  H   UNL     1       0.025  -1.019   3.007  1.00  0.00     0.163 HD
BRANCH   5   8
ATOM      8  C   UNL     1       1.403  -3.102   0.732  1.00  0.00     0.063 A 
ATOM      9  C   UNL     1       0.883  -3.087  -0.580  1.00  0.00     0.051 A 
ATOM     10  C   UNL     1       1.107  -4.225  -1.393  1.00  0.00     0.027 A 
ATOM     11  C   UNL     1       1.879  -5.307  -0.968  1.00  0.00     0.002 A 
ATOM     12  C   UNL     1       2.209  -4.195   1.134  1.00  0.00     0.016 A 
ATOM     13  C   UNL     1       2.453  -5.280   0.292  1.00  0.00     0.001 A 
BRANCH   9  14
ATOM     14  N   UNL     1       0.247  -2.015  -1.237  1.00  0.00    -0.352 N 
ATOM     15  H   UNL     1      -0.461  -2.311  -1.854  1.00  0.00     0.167 HD
BRANCH  14  16
ATOM     16  C   UNL     1       0.401  -0.608  -1.207  1.00  0.00     0.077 A 
ATOM     17  C   UNL     1       2.804   2.188  -0.128  1.00  0.00     0.046 C 
ATOM     18  C   UNL     1       1.574   1.463  -0.604  1.00  0.00    -0.030 A 
ATOM     19  C   UNL     1       0.398   2.195  -0.825  1.00  0.00     0.006 A 
ATOM     20  C   UNL     1       1.580   0.069  -0.834  1.00  0.00     0.069 A 
ATOM     21  C   UNL     1      -0.750   1.562  -1.288  1.00  0.00     0.023 A 
ATOM     22  Cl  UNL     1       3.110  -0.761  -0.809  1.00  0.00    -0.082 Cl
ATOM     23  C   UNL     1      -0.743   0.183  -1.481  1.00  0.00     0.066 A 
ATOM     24  Cl  UNL     1      -2.223  -0.564  -2.006  1.00  0.00    -0.082 Cl
ENDBRANCH  14  16
ENDBRANCH   9  14
ENDBRANCH   5   8
ENDBRANCH   3   4
ENDBRANCH   2   3
ENDBRANCH   1   2
BRANCH   1  25
ATOM     25  C   UNL     1      -2.721   1.045   2.310  1.00  0.00     0.116 C 
BRANCH  25  26
ATOM     26  N   UNL     1      -3.532   1.051   1.102  1.00  0.00    -0.352 N 
ATOM     27  C   UNL     1      -4.273   2.079   0.553  1.00  0.00     0.251 C 
ATOM     28  H   UNL     1      -3.555   0.202   0.605  1.00  0.00     0.163 HD
ATOM     29  O   UNL     1      -4.876   1.910  -0.495  1.00  0.00    -0.269 OA
BRANCH  27  30
ATOM     30  C   UNL     1      -4.376   3.378   1.262  1.00  0.00     0.039 A 
ATOM     31  C   UNL     1      -5.647   3.911   1.498  1.00  0.00     0.014 A 
ATOM     32  C   UNL     1      -3.241   4.046   1.727  1.00  0.00     0.014 A 
ATOM     33  C   UNL     1      -5.785   5.053   2.292  1.00  0.00     0.010 A 
ATOM     34  C   UNL     1      -3.384   5.149   2.569  1.00  0.00     0.010 A 
ATOM     35  C   UNL     1      -4.658   5.650   2.881  1.00  0.00    -0.014 A 
BRANCH  35  36
ATOM     36  C   UNL     1      -4.800   6.751   3.873  1.00  0.00     0.031 A 
ATOM     37  C   UNL     1      -4.240   8.118   3.587  1.00  0.00     0.074 A 
ATOM     38  C   UNL     1      -5.358   6.489   5.074  1.00  0.00     0.049 A 
ATOM     39  N   UNL     1      -4.207   9.172   4.361  1.00  0.00    -0.248 NA
ATOM     40  C   UNL     1      -3.612   8.320   2.272  1.00  0.00     0.031 C 
ATOM     41  C   UNL     1      -5.871   5.185   5.504  1.00  0.00     0.029 A 
ATOM     42  N   UNL     1      -5.570   7.299   6.163  1.00  0.00    -0.354 N 
ATOM     43  C   UNL     1      -3.535  10.153   3.640  1.00  0.00     0.074 A 
ATOM     44  C   UNL     1      -3.150   9.558   2.378  1.00  0.00     0.031 C 
ATOM     45  C   UNL     1      -6.341   5.286   6.758  1.00  0.00     0.029 A 
ATOM     46  C   UNL     1      -6.142   6.650   7.234  1.00  0.00     0.049 A 
ATOM     47  H   UNL     1      -5.335   8.255   6.177  1.00  0.00     0.167 HD
ATOM     48  C   UNL     1      -3.280  11.436   3.992  1.00  0.00     0.037 A 
ATOM     49  C   UNL     1      -6.463   7.099   8.464  1.00  0.00     0.037 A 
ATOM     50  C   UNL     1      -3.704  12.037   5.230  1.00  0.00     0.049 A 
ATOM     51  C   UNL     1      -6.220   8.545   8.804  1.00  0.00     0.074 A 
ATOM     52  C   UNL     1      -3.566  13.353   5.638  1.00  0.00     0.029 A 
ATOM     53  N   UNL     1      -4.349  11.367   6.258  1.00  0.00    -0.354 N 
ATOM     54  N   UNL     1      -5.665   9.481   8.071  1.00  0.00    -0.248 NA
ATOM     55  C   UNL     1      -6.662   9.003  10.129  1.00  0.00     0.031 C 
ATOM     56  C   UNL     1      -4.097  13.471   6.926  1.00  0.00     0.029 A 
ATOM     57  C   UNL     1      -4.605  12.239   7.303  1.00  0.00     0.049 A 
ATOM     58  H   UNL     1      -4.590  10.412   6.247  1.00  0.00     0.167 HD
ATOM     59  C   UNL     1      -5.723  10.643   8.833  1.00  0.00     0.074 A 
ATOM     60  C   UNL     1      -6.374  10.296  10.079  1.00  0.00     0.031 C 
ATOM     61  C   UNL     1      -5.277  11.886   8.527  1.00  0.00     0.037 A 
BRANCH  48  62
ATOM     62  C   UNL     1      -2.515  12.296   3.024  1.00  0.00     0.058 A 
ATOM     63  C   UNL     1      -3.104  12.777   1.844  1.00  0.00     0.135 A 
ATOM     64  C   UNL     1      -1.207  12.712   3.321  1.00  0.00     0.135 A 
ATOM     65  F   UNL     1      -4.346  12.398   1.505  1.00  0.00    -0.206 F 
ATOM     66  C   UNL     1      -2.419  13.632   0.987  1.00  0.00     0.059 A 
ATOM     67  C   UNL     1      -0.512  13.585   2.490  1.00  0.00     0.059 A 
ATOM     68  F   UNL     1      -0.597  12.279   4.436  1.00  0.00    -0.206 F 
ATOM     69  C   UNL     1      -1.125  14.035   1.321  1.00  0.00     0.060 A 
BRANCH  69  70
ATOM     70  S   UNL     1      -0.266  15.178   0.218  1.00  0.00     0.124 S 
ATOM     71  O   UNL     1       0.069  14.303  -0.902  1.00  0.00    -0.237 OA
ATOM     72  O   UNL     1      -1.289  16.183  -0.048  1.00  0.00    -0.237 OA
ATOM     73  O   UNL     1       0.866  15.635   1.017  1.00  0.00    -0.744 OA
ENDBRANCH  69  70
ENDBRANCH  48  62
BRANCH  49  74
ATOM     74  C   UNL     1      -7.065   6.178   9.467  1.00  0.00     0.058 A 
ATOM     75  C   UNL     1      -8.406   6.308   9.857  1.00  0.00     0.135 A 
ATOM     76  C   UNL     1      -6.305   5.165  10.070  1.00  0.00     0.135 A 
ATOM     77  F   UNL     1      -9.173   7.264   9.311  1.00  0.00    -0.206 F 
ATOM     78  C   UNL     1      -8.964   5.491  10.834  1.00  0.00     0.059 A 
ATOM     79  C   UNL     1      -6.848   4.317  11.031  1.00  0.00     0.059 A 
ATOM     80  F   UNL     1      -5.023   4.984   9.716  1.00  0.00    -0.206 F 
ATOM     81  C   UNL     1      -8.174   4.500  11.420  1.00  0.00     0.060 A 
BRANCH  81  82
ATOM     82  S   UNL     1      -8.909   3.431  12.676  1.00  0.00     0.124 S 
ATOM     83  O   UNL     1      -8.926   4.313  13.837  1.00  0.00    -0.237 OA
ATOM     84  O   UNL     1     -10.210   3.117  12.093  1.00  0.00    -0.237 OA
ATOM     85  O   UNL     1      -7.977   2.310  12.746  1.00  0.00    -0.744 OA
ENDBRANCH  81  82
ENDBRANCH  49  74
BRANCH  61  86
ATOM     86  C   UNL     1      -5.526  12.978   9.530  1.00  0.00     0.058 A 
ATOM     87  C   UNL     1      -4.802  13.063  10.728  1.00  0.00     0.135 A 
ATOM     88  C   UNL     1      -6.474  13.979   9.262  1.00  0.00     0.135 A 
ATOM     89  F   UNL     1      -3.888  12.129  11.033  1.00  0.00    -0.206 F 
ATOM     90  C   UNL     1      -5.028  14.088  11.641  1.00  0.00     0.059 A 
ATOM     91  C   UNL     1      -6.699  15.027  10.148  1.00  0.00     0.059 A 
ATOM     92  F   UNL     1      -7.186  13.949   8.124  1.00  0.00    -0.206 F 
ATOM     93  C   UNL     1      -5.980  15.066  11.342  1.00  0.00     0.060 A 
BRANCH  93  94
ATOM     94  S   UNL     1      -6.249  16.406  12.521  1.00  0.00     0.124 S 
ATOM     95  O   UNL     1      -7.041  15.739  13.549  1.00  0.00    -0.237 OA
ATOM     96  O   UNL     1      -4.887  16.767  12.904  1.00  0.00    -0.237 OA
ATOM     97  O   UNL     1      -6.958  17.411  11.735  1.00  0.00    -0.744 OA
ENDBRANCH  93  94
ENDBRANCH  61  86
ENDBRANCH  35  36
ENDBRANCH  27  30
ENDBRANCH  25  26
ENDBRANCH   1  25
TORSDOF 16
