REMARK SMILES COc1ccc(-c2ncn(CC(=O)NCCCCNC(=O)c3ccc(-c4c5nc(c(-c6c(F)cc(S(=O)(=O)[O-])cc6F)c6ccc([nH]6)c(-c6c(F)cc(S(=O)(=O)[O-])cc6F)c6nc(c(-c7c(F)cc(S(=O)(=O)[O-])cc7F)c7ccc4[nH]7)C=C6)C=C5)cc3)c2-c2ccc(OC)cc2)cc1
REMARK SMILES IDX 16 1 15 2 14 3 12 4 13 5 11 7 10 8 7 9 8 10 88 11 9 12 6 13
REMARK SMILES IDX 3 14 4 15 98 16 5 17 97 18 2 19 1 20 89 21 90 22 96 23 91 24
REMARK SMILES IDX 95 25 92 26 93 27 94 28 17 29 18 30 19 31 20 32 21 34 22 35
REMARK SMILES IDX 23 36 87 37 24 38 86 39 25 40 26 41 27 42 80 43 28 44 85 45
REMARK SMILES IDX 79 46 81 47 29 48 84 49 78 50 77 51 30 53 64 54 43 55 63 56
REMARK SMILES IDX 44 57 47 58 62 59 82 60 45 61 46 62 61 64 83 65 48 66 31 67
REMARK SMILES IDX 32 68 41 69 33 70 34 71 40 72 42 73 35 74 36 75 37 76 38 77
REMARK SMILES IDX 39 78 65 79 66 80 75 81 67 82 68 83 74 84 76 85 69 86 70 87
REMARK SMILES IDX 71 88 72 89 73 90 49 91 50 92 59 93 51 94 52 95 58 96 60 97
REMARK SMILES IDX 53 98 54 99 55 100 56 101 57 102
REMARK H PARENT 14 6 19 33 81 52 47 63
REMARK Flexibility Score: inf
ROOT
ATOM      1  C   UNL     1       0.857   6.309  -7.212  1.00  0.00     0.023 C 
ENDROOT
BRANCH   1   2
ATOM      2  C   UNL     1       1.524   7.687  -7.133  1.00  0.00     0.116 C 
BRANCH   2   3
ATOM      3  N   UNL     1       0.923   8.566  -6.149  1.00  0.00    -0.355 N 
ATOM      4  C   UNL     1       1.353   8.903  -4.897  1.00  0.00     0.239 C 
ATOM      5  O   UNL     1       0.721   9.774  -4.295  1.00  0.00    -0.273 OA
ATOM      6  H   UNL     1       0.076   8.985  -6.425  1.00  0.00     0.163 HD
BRANCH   4   7
ATOM      7  C   UNL     1       2.591   8.286  -4.282  1.00  0.00     0.223 C 
BRANCH   7   8
ATOM      8  N   UNL     1       2.598   6.832  -4.244  1.00  0.00    -0.321 N 
ATOM      9  C   UNL     1       2.265   4.721  -3.826  1.00  0.00     0.096 A 
ATOM     10  N   UNL     1       3.369   4.786  -4.640  1.00  0.00    -0.236 NA
ATOM     11  C   UNL     1       1.776   5.987  -3.522  1.00  0.00     0.076 A 
ATOM     12  C   UNL     1       3.558   6.065  -4.852  1.00  0.00     0.201 A 
BRANCH   9  13
ATOM     13  C   UNL     1       1.788   3.479  -3.256  1.00  0.00     0.003 A 
ATOM     14  C   UNL     1       0.891   1.187  -1.927  1.00  0.00     0.118 A 
ATOM     15  C   UNL     1      -0.003   1.957  -2.672  1.00  0.00     0.047 A 
ATOM     16  C   UNL     1       2.246   1.520  -1.905  1.00  0.00     0.047 A 
ATOM     17  C   UNL     1       0.440   3.108  -3.328  1.00  0.00     0.014 A 
ATOM     18  C   UNL     1       2.692   2.662  -2.572  1.00  0.00     0.014 A 
BRANCH  14  19
ATOM     19  O   UNL     1       0.371   0.093  -1.289  1.00  0.00    -0.497 OA
ATOM     20  C   UNL     1       0.851  -0.064   0.044  1.00  0.00     0.278 C 
ENDBRANCH  14  19
ENDBRANCH   9  13
BRANCH  11  21
ATOM     21  C   UNL     1       0.757   6.405  -2.562  1.00  0.00     0.001 A 
ATOM     22  C   UNL     1      -0.401   7.074  -2.958  1.00  0.00     0.014 A 
ATOM     23  C   UNL     1       0.934   6.110  -1.205  1.00  0.00     0.014 A 
ATOM     24  C   UNL     1      -1.330   7.501  -2.004  1.00  0.00     0.047 A 
ATOM     25  C   UNL     1      -0.012   6.507  -0.255  1.00  0.00     0.047 A 
ATOM     26  C   UNL     1      -1.144   7.217  -0.651  1.00  0.00     0.118 A 
BRANCH  26  27
ATOM     27  O   UNL     1      -2.126   7.687   0.175  1.00  0.00    -0.497 OA
ATOM     28  C   UNL     1      -2.055   7.292   1.538  1.00  0.00     0.278 C 
ENDBRANCH  26  27
ENDBRANCH  11  21
ENDBRANCH   7   8
ENDBRANCH   4   7
ENDBRANCH   2   3
ENDBRANCH   1   2
BRANCH   1  29
ATOM     29  C   UNL     1      -0.591   6.269  -7.719  1.00  0.00     0.023 C 
BRANCH  29  30
ATOM     30  C   UNL     1      -0.799   6.822  -9.120  1.00  0.00     0.116 C 
BRANCH  30  31
ATOM     31  N   UNL     1      -0.055   6.093 -10.151  1.00  0.00    -0.352 N 
ATOM     32  C   UNL     1       0.055   6.400 -11.502  1.00  0.00     0.251 C 
ATOM     33  H   UNL     1       0.426   5.288  -9.850  1.00  0.00     0.163 HD
ATOM     34  O   UNL     1       0.348   5.547 -12.320  1.00  0.00    -0.269 OA
BRANCH  32  35
ATOM     35  C   UNL     1      -0.169   7.800 -11.913  1.00  0.00     0.039 A 
ATOM     36  C   UNL     1      -0.863   8.150 -13.075  1.00  0.00     0.014 A 
ATOM     37  C   UNL     1       0.314   8.778 -11.053  1.00  0.00     0.014 A 
ATOM     38  C   UNL     1      -1.129   9.499 -13.313  1.00  0.00     0.010 A 
ATOM     39  C   UNL     1      -0.133  10.061 -11.171  1.00  0.00     0.010 A 
ATOM     40  C   UNL     1      -0.769  10.446 -12.342  1.00  0.00    -0.014 A 
BRANCH  40  41
ATOM     41  C   UNL     1      -1.124  11.856 -12.441  1.00  0.00     0.031 A 
ATOM     42  C   UNL     1      -2.591  12.096 -12.457  1.00  0.00     0.074 A 
ATOM     43  C   UNL     1      -0.210  12.830 -12.219  1.00  0.00     0.049 A 
ATOM     44  N   UNL     1      -3.326  12.434 -13.464  1.00  0.00    -0.248 NA
ATOM     45  C   UNL     1      -3.371  11.718 -11.265  1.00  0.00     0.031 C 
ATOM     46  C   UNL     1       1.203  12.668 -11.836  1.00  0.00     0.029 A 
ATOM     47  N   UNL     1      -0.368  14.181 -12.169  1.00  0.00    -0.354 N 
ATOM     48  C   UNL     1      -4.609  12.602 -12.946  1.00  0.00     0.074 A 
ATOM     49  C   UNL     1      -4.622  11.890 -11.700  1.00  0.00     0.031 C 
ATOM     50  C   UNL     1       1.693  13.839 -11.373  1.00  0.00     0.029 A 
ATOM     51  C   UNL     1       0.701  14.872 -11.598  1.00  0.00     0.049 A 
ATOM     52  H   UNL     1      -1.173  14.634 -12.510  1.00  0.00     0.167 HD
ATOM     53  C   UNL     1      -5.423  13.591 -13.418  1.00  0.00     0.037 A 
ATOM     54  C   UNL     1       0.761  16.202 -11.334  1.00  0.00     0.037 A 
ATOM     55  C   UNL     1      -4.846  14.170 -14.609  1.00  0.00     0.049 A 
ATOM     56  C   UNL     1      -0.257  16.846 -12.198  1.00  0.00     0.074 A 
ATOM     57  C   UNL     1      -4.620  13.773 -15.909  1.00  0.00     0.029 A 
ATOM     58  N   UNL     1      -4.026  15.242 -14.359  1.00  0.00    -0.354 N 
ATOM     59  N   UNL     1      -0.191  16.852 -13.502  1.00  0.00    -0.248 NA
ATOM     60  C   UNL     1      -1.569  17.142 -11.640  1.00  0.00     0.031 C 
ATOM     61  C   UNL     1      -3.457  14.482 -16.333  1.00  0.00     0.029 A 
ATOM     62  C   UNL     1      -3.045  15.333 -15.307  1.00  0.00     0.049 A 
ATOM     63  H   UNL     1      -4.130  15.861 -13.600  1.00  0.00     0.167 HD
ATOM     64  C   UNL     1      -1.504  16.720 -13.918  1.00  0.00     0.074 A 
ATOM     65  C   UNL     1      -2.307  17.070 -12.751  1.00  0.00     0.031 C 
ATOM     66  C   UNL     1      -1.802  16.035 -15.061  1.00  0.00     0.037 A 
BRANCH  53  67
ATOM     67  C   UNL     1      -6.426  14.392 -12.597  1.00  0.00     0.058 A 
ATOM     68  C   UNL     1      -7.197  15.379 -13.255  1.00  0.00     0.135 A 
ATOM     69  C   UNL     1      -6.454  14.459 -11.187  1.00  0.00     0.135 A 
ATOM     70  F   UNL     1      -7.270  15.409 -14.596  1.00  0.00    -0.206 F 
ATOM     71  C   UNL     1      -7.851  16.407 -12.573  1.00  0.00     0.059 A 
ATOM     72  C   UNL     1      -7.138  15.448 -10.485  1.00  0.00     0.059 A 
ATOM     73  F   UNL     1      -5.751  13.633 -10.407  1.00  0.00    -0.206 F 
ATOM     74  C   UNL     1      -7.798  16.443 -11.185  1.00  0.00     0.060 A 
BRANCH  74  75
ATOM     75  S   UNL     1      -8.555  17.817 -10.301  1.00  0.00     0.124 S 
ATOM     76  O   UNL     1      -7.690  18.925 -10.689  1.00  0.00    -0.237 OA
ATOM     77  O   UNL     1      -9.902  17.829 -10.861  1.00  0.00    -0.237 OA
ATOM     78  O   UNL     1      -8.466  17.405  -8.903  1.00  0.00    -0.744 OA
ENDBRANCH  74  75
ENDBRANCH  53  67
BRANCH  54  79
ATOM     79  C   UNL     1       1.425  16.925 -10.217  1.00  0.00     0.058 A 
ATOM     80  C   UNL     1       1.637  18.316 -10.268  1.00  0.00     0.135 A 
ATOM     81  C   UNL     1       1.576  16.321  -8.954  1.00  0.00     0.135 A 
ATOM     82  F   UNL     1       1.505  18.975 -11.430  1.00  0.00    -0.206 F 
ATOM     83  C   UNL     1       1.913  19.074  -9.124  1.00  0.00     0.059 A 
ATOM     84  C   UNL     1       1.853  17.056  -7.799  1.00  0.00     0.059 A 
ATOM     85  F   UNL     1       1.361  15.006  -8.793  1.00  0.00    -0.206 F 
ATOM     86  C   UNL     1       1.992  18.437  -7.886  1.00  0.00     0.060 A 
BRANCH  86  87
ATOM     87  S   UNL     1       2.155  19.433  -6.382  1.00  0.00     0.124 S 
ATOM     88  O   UNL     1       3.519  19.938  -6.500  1.00  0.00    -0.237 OA
ATOM     89  O   UNL     1       1.094  20.420  -6.548  1.00  0.00    -0.237 OA
ATOM     90  O   UNL     1       1.940  18.464  -5.310  1.00  0.00    -0.744 OA
ENDBRANCH  86  87
ENDBRANCH  54  79
BRANCH  66  91
ATOM     91  C   UNL     1      -0.710  15.883 -16.082  1.00  0.00     0.058 A 
ATOM     92  C   UNL     1       0.440  15.088 -15.933  1.00  0.00     0.135 A 
ATOM     93  C   UNL     1      -0.903  16.507 -17.323  1.00  0.00     0.135 A 
ATOM     94  F   UNL     1       0.657  14.393 -14.809  1.00  0.00    -0.206 F 
ATOM     95  C   UNL     1       1.373  14.950 -16.963  1.00  0.00     0.059 A 
ATOM     96  C   UNL     1      -0.004  16.359 -18.372  1.00  0.00     0.059 A 
ATOM     97  F   UNL     1      -2.009  17.238 -17.542  1.00  0.00    -0.206 F 
ATOM     98  C   UNL     1       1.140  15.590 -18.181  1.00  0.00     0.060 A 
BRANCH  98  99
ATOM     99  S   UNL     1       2.312  15.367 -19.536  1.00  0.00     0.124 S 
ATOM    100  O   UNL     1       3.467  16.128 -19.070  1.00  0.00    -0.237 OA
ATOM    101  O   UNL     1       2.481  13.917 -19.574  1.00  0.00    -0.237 OA
ATOM    102  O   UNL     1       1.614  15.935 -20.687  1.00  0.00    -0.744 OA
ENDBRANCH  98  99
ENDBRANCH  66  91
ENDBRANCH  40  41
ENDBRANCH  32  35
ENDBRANCH  30  31
ENDBRANCH  29  30
ENDBRANCH   1  29
TORSDOF 19
