REMARK SMILES O=C(NCCCCNC(=O)c1cc(S(=O)(=O)NCc2ccncc2)c(Cl)cc1Cl)c1ccc(-c2c3nc(c(-c4c(F)cc(S(=O)(=O)[O-])cc4F)c4ccc([nH]4)c(-c4c(F)cc(S(=O)(=O)[O-])cc4F)c4nc(c(-c5c(F)cc(S(=O)(=O)[O-])cc5F)c5ccc2[nH]5)C=C4)C=C3)cc1
REMARK SMILES IDX 6 1 5 2 4 3 3 4 1 5 2 6 30 8 31 9 95 10 32 11 94 12 33 13
REMARK SMILES IDX 34 14 35 15 88 16 36 17 93 18 87 19 89 20 37 21 92 22 86 23
REMARK SMILES IDX 85 24 38 26 72 27 51 28 71 29 52 30 55 31 70 32 90 33 53 34
REMARK SMILES IDX 54 35 69 37 91 38 56 39 39 40 40 41 49 42 41 43 42 44 48 45
REMARK SMILES IDX 50 46 43 47 44 48 45 49 46 50 47 51 73 52 74 53 83 54 75 55
REMARK SMILES IDX 76 56 82 57 84 58 77 59 78 60 79 61 80 62 81 63 57 64 58 65
REMARK SMILES IDX 67 66 59 67 60 68 66 69 68 70 61 71 62 72 63 73 64 74 65 75
REMARK SMILES IDX 7 76 8 77 9 78 10 80 11 81 12 82 28 83 13 84 27 85 29 86
REMARK SMILES IDX 25 87 26 88 14 89 15 90 16 91 17 92 18 94 19 95 20 96 24 97
REMARK SMILES IDX 21 98 23 99 22 100
REMARK H PARENT 3 7 89 25 55 36 8 79 17 93
REMARK Flexibility Score: inf
ROOT
ATOM      1  C   UNL     1       4.396  -3.694  -0.900  1.00  0.00     0.023 C 
ENDROOT
BRANCH   1   2
ATOM      2  C   UNL     1       4.885  -2.579   0.022  1.00  0.00     0.023 C 
BRANCH   2   3
ATOM      3  C   UNL     1       4.612  -1.159  -0.458  1.00  0.00     0.116 C 
BRANCH   3   4
ATOM      4  N   UNL     1       3.195  -0.858  -0.597  1.00  0.00    -0.352 N 
ATOM      5  O   UNL     1       1.233   0.170  -0.177  1.00  0.00    -0.269 OA
ATOM      6  C   UNL     1       2.451   0.149  -0.025  1.00  0.00     0.251 C 
ATOM      7  H   UNL     1       2.694  -1.465  -1.189  1.00  0.00     0.163 HD
BRANCH   6   8
ATOM      8  C   UNL     1       3.112   1.181   0.806  1.00  0.00     0.039 A 
ATOM      9  C   UNL     1       4.295   1.790   0.385  1.00  0.00     0.014 A 
ATOM     10  C   UNL     1       2.549   1.526   2.038  1.00  0.00     0.014 A 
ATOM     11  C   UNL     1       5.006   2.596   1.268  1.00  0.00     0.010 A 
ATOM     12  C   UNL     1       3.223   2.409   2.889  1.00  0.00     0.010 A 
ATOM     13  C   UNL     1       4.485   2.908   2.535  1.00  0.00    -0.014 A 
BRANCH  13  14
ATOM     14  C   UNL     1       5.283   3.757   3.459  1.00  0.00     0.031 A 
ATOM     15  C   UNL     1       5.807   3.208   4.762  1.00  0.00     0.074 A 
ATOM     16  C   UNL     1       5.585   5.018   3.092  1.00  0.00     0.049 A 
ATOM     17  N   UNL     1       6.572   3.788   5.652  1.00  0.00    -0.248 NA
ATOM     18  C   UNL     1       5.417   1.835   5.117  1.00  0.00     0.031 C 
ATOM     19  C   UNL     1       5.124   5.671   1.865  1.00  0.00     0.029 A 
ATOM     20  N   UNL     1       6.373   5.965   3.695  1.00  0.00    -0.354 N 
ATOM     21  C   UNL     1       6.731   2.868   6.682  1.00  0.00     0.074 A 
ATOM     22  C   UNL     1       5.966   1.695   6.316  1.00  0.00     0.031 C 
ATOM     23  C   UNL     1       5.683   6.887   1.776  1.00  0.00     0.029 A 
ATOM     24  C   UNL     1       6.502   7.120   2.961  1.00  0.00     0.049 A 
ATOM     25  H   UNL     1       6.804   5.831   4.570  1.00  0.00     0.167 HD
ATOM     26  C   UNL     1       7.453   2.986   7.823  1.00  0.00     0.037 A 
ATOM     27  C   UNL     1       7.203   8.243   3.209  1.00  0.00     0.037 A 
ATOM     28  C   UNL     1       8.243   4.140   8.168  1.00  0.00     0.049 A 
ATOM     29  C   UNL     1       8.018   8.336   4.466  1.00  0.00     0.074 A 
ATOM     30  C   UNL     1       9.041   4.337   9.283  1.00  0.00     0.029 A 
ATOM     31  N   UNL     1       8.340   5.293   7.402  1.00  0.00    -0.354 N 
ATOM     32  N   UNL     1       8.176   7.443   5.413  1.00  0.00    -0.248 NA
ATOM     33  C   UNL     1       8.752   9.589   4.687  1.00  0.00     0.031 C 
ATOM     34  C   UNL     1       9.597   5.620   9.205  1.00  0.00     0.029 A 
ATOM     35  C   UNL     1       9.174   6.207   8.024  1.00  0.00     0.049 A 
ATOM     36  H   UNL     1       7.882   5.439   6.543  1.00  0.00     0.167 HD
ATOM     37  C   UNL     1       9.042   8.019   6.335  1.00  0.00     0.074 A 
ATOM     38  C   UNL     1       9.384   9.331   5.824  1.00  0.00     0.031 C 
ATOM     39  C   UNL     1       9.510   7.507   7.500  1.00  0.00     0.037 A 
BRANCH  26  40
ATOM     40  C   UNL     1       7.413   1.839   8.796  1.00  0.00     0.058 A 
ATOM     41  C   UNL     1       8.093   0.636   8.551  1.00  0.00     0.135 A 
ATOM     42  C   UNL     1       6.711   1.959  10.007  1.00  0.00     0.135 A 
ATOM     43  F   UNL     1       8.767   0.462   7.403  1.00  0.00    -0.206 F 
ATOM     44  C   UNL     1       8.057  -0.418   9.460  1.00  0.00     0.059 A 
ATOM     45  C   UNL     1       6.680   0.927  10.940  1.00  0.00     0.059 A 
ATOM     46  F   UNL     1       6.045   3.089  10.293  1.00  0.00    -0.206 F 
ATOM     47  C   UNL     1       7.343  -0.265  10.650  1.00  0.00     0.060 A 
BRANCH  47  48
ATOM     48  S   UNL     1       7.299  -1.641  11.819  1.00  0.00     0.124 S 
ATOM     49  O   UNL     1       6.339  -2.534  11.177  1.00  0.00    -0.237 OA
ATOM     50  O   UNL     1       8.685  -2.098  11.821  1.00  0.00    -0.237 OA
ATOM     51  O   UNL     1       6.846  -1.018  13.059  1.00  0.00    -0.744 OA
ENDBRANCH  47  48
ENDBRANCH  26  40
BRANCH  27  52
ATOM     52  C   UNL     1       7.178   9.356   2.227  1.00  0.00     0.058 A 
ATOM     53  C   UNL     1       8.297   9.642   1.433  1.00  0.00     0.135 A 
ATOM     54  C   UNL     1       6.024  10.133   2.040  1.00  0.00     0.135 A 
ATOM     55  F   UNL     1       9.424   8.927   1.580  1.00  0.00    -0.206 F 
ATOM     56  C   UNL     1       8.280  10.667   0.493  1.00  0.00     0.059 A 
ATOM     57  C   UNL     1       5.974  11.147   1.090  1.00  0.00     0.059 A 
ATOM     58  F   UNL     1       4.921   9.885   2.764  1.00  0.00    -0.206 F 
ATOM     59  C   UNL     1       7.111  11.413   0.328  1.00  0.00     0.060 A 
BRANCH  59  60
ATOM     60  S   UNL     1       7.073  12.701  -0.937  1.00  0.00     0.124 S 
ATOM     61  O   UNL     1       7.801  13.779  -0.278  1.00  0.00    -0.237 OA
ATOM     62  O   UNL     1       7.756  12.059  -2.055  1.00  0.00    -0.237 OA
ATOM     63  O   UNL     1       5.644  12.930  -1.135  1.00  0.00    -0.744 OA
ENDBRANCH  59  60
ENDBRANCH  27  52
BRANCH  39  64
ATOM     64  C   UNL     1      10.470   8.357   8.282  1.00  0.00     0.058 A 
ATOM     65  C   UNL     1      10.036   9.474   9.013  1.00  0.00     0.135 A 
ATOM     66  C   UNL     1      11.836   8.038   8.315  1.00  0.00     0.135 A 
ATOM     67  F   UNL     1       8.740   9.823   9.007  1.00  0.00    -0.206 F 
ATOM     68  C   UNL     1      10.930  10.264   9.728  1.00  0.00     0.059 A 
ATOM     69  C   UNL     1      12.745   8.802   9.040  1.00  0.00     0.059 A 
ATOM     70  F   UNL     1      12.299   6.975   7.639  1.00  0.00    -0.206 F 
ATOM     71  C   UNL     1      12.284   9.923   9.731  1.00  0.00     0.060 A 
BRANCH  71  72
ATOM     72  S   UNL     1      13.438  10.945  10.670  1.00  0.00     0.124 S 
ATOM     73  O   UNL     1      13.623  12.079   9.770  1.00  0.00    -0.237 OA
ATOM     74  O   UNL     1      12.692  11.223  11.894  1.00  0.00    -0.237 OA
ATOM     75  O   UNL     1      14.600  10.077  10.837  1.00  0.00    -0.744 OA
ENDBRANCH  71  72
ENDBRANCH  39  64
ENDBRANCH  13  14
ENDBRANCH   6   8
ENDBRANCH   3   4
ENDBRANCH   2   3
ENDBRANCH   1   2
BRANCH   1  76
ATOM     76  C   UNL     1       4.859  -3.598  -2.349  1.00  0.00     0.116 C 
BRANCH  76  77
ATOM     77  N   UNL     1       6.308  -3.631  -2.485  1.00  0.00    -0.352 N 
ATOM     78  C   UNL     1       7.101  -4.453  -3.246  1.00  0.00     0.252 C 
ATOM     79  H   UNL     1       6.793  -2.963  -1.948  1.00  0.00     0.163 HD
ATOM     80  O   UNL     1       8.321  -4.338  -3.228  1.00  0.00    -0.269 OA
BRANCH  78  81
ATOM     81  C   UNL     1       6.481  -5.447  -4.143  1.00  0.00     0.059 A 
ATOM     82  C   UNL     1       5.569  -4.997  -5.104  1.00  0.00     0.038 A 
ATOM     83  C   UNL     1       6.808  -6.802  -4.086  1.00  0.00     0.055 A 
ATOM     84  C   UNL     1       4.933  -5.901  -5.969  1.00  0.00     0.101 A 
ATOM     85  C   UNL     1       6.224  -7.692  -4.997  1.00  0.00     0.043 A 
ATOM     86  Cl  UNL     1       7.872  -7.460  -2.898  1.00  0.00    -0.083 Cl
ATOM     87  C   UNL     1       5.294  -7.247  -5.948  1.00  0.00     0.062 A 
ATOM     88  Cl  UNL     1       4.665  -8.427  -7.037  1.00  0.00    -0.083 Cl
BRANCH  84  89
ATOM     89  S   UNL     1       3.645  -5.240  -6.987  1.00  0.00     0.242 S 
ATOM     90  O   UNL     1       3.201  -4.019  -6.340  1.00  0.00    -0.207 OA
ATOM     91  O   UNL     1       4.133  -5.228  -8.342  1.00  0.00    -0.207 OA
BRANCH  89  92
ATOM     92  N   UNL     1       2.349  -6.292  -6.949  1.00  0.00    -0.207 NA
ATOM     93  H   UNL     1       2.597  -7.064  -7.568  1.00  0.00     0.141 HD
BRANCH  92  94
ATOM     94  C   UNL     1       1.850  -6.907  -5.726  1.00  0.00     0.134 C 
BRANCH  94  95
ATOM     95  C   UNL     1       0.671  -6.273  -5.039  1.00  0.00    -0.030 A 
ATOM     96  C   UNL     1       0.310  -4.934  -5.193  1.00  0.00     0.025 A 
ATOM     97  C   UNL     1      -0.048  -7.039  -4.109  1.00  0.00     0.025 A 
ATOM     98  C   UNL     1      -0.721  -4.424  -4.416  1.00  0.00     0.111 A 
ATOM     99  C   UNL     1      -1.069  -6.444  -3.385  1.00  0.00     0.111 A 
ATOM    100  N   UNL     1      -1.419  -5.151  -3.518  1.00  0.00    -0.265 NA
ENDBRANCH  94  95
ENDBRANCH  92  94
ENDBRANCH  89  92
ENDBRANCH  84  89
ENDBRANCH  78  81
ENDBRANCH  76  77
ENDBRANCH   1  76
TORSDOF 18
