REMARK SMILES Cc1ccc(CNc2ccc(C(=O)NCCCCNC(=O)c3ccc(-c4c5nc(c(-c6c(F)cc(S(=O)(=O)[O-])cc6F)c6ccc([nH]6)c(-c6c(F)cc(S(=O)(=O)[O-])cc6F)c6nc(c(-c7c(F)cc(S(=O)(=O)[O-])cc7F)c7ccc4[nH]7)C=C6)C=C5)cc3)cc2Br)cc1
REMARK SMILES IDX 16 1 15 2 14 3 12 4 13 5 11 7 8 8 9 9 89 10 10 11 88 12
REMARK SMILES IDX 90 13 7 14 6 16 5 17 1 18 2 19 3 20 92 21 4 22 91 23 17 24
REMARK SMILES IDX 18 25 19 26 20 27 21 29 22 30 23 31 87 32 24 33 86 34 25 35
REMARK SMILES IDX 26 36 27 37 80 38 28 39 85 40 79 41 81 42 29 43 84 44 78 45
REMARK SMILES IDX 77 46 30 48 64 49 43 50 63 51 44 52 47 53 62 54 82 55 45 56
REMARK SMILES IDX 46 57 61 59 83 60 48 61 31 62 32 63 41 64 33 65 34 66 40 67
REMARK SMILES IDX 42 68 35 69 36 70 37 71 38 72 39 73 65 74 66 75 75 76 67 77
REMARK SMILES IDX 68 78 74 79 76 80 69 81 70 82 71 83 72 84 73 85 49 86 50 87
REMARK SMILES IDX 59 88 51 89 52 90 58 91 60 92 53 93 54 94 55 95 56 96 57 97
REMARK H PARENT 14 6 7 15 19 28 81 47 47 58
REMARK Flexibility Score: inf
ROOT
ATOM      1  C   UNL     1     -10.271  -3.462   0.261  1.00  0.00     0.023 C 
ENDROOT
BRANCH   1   2
ATOM      2  C   UNL     1      -8.959  -3.899   0.917  1.00  0.00     0.116 C 
BRANCH   2   3
ATOM      3  N   UNL     1      -8.276  -4.980   0.211  1.00  0.00    -0.352 N 
ATOM      4  C   UNL     1      -7.109  -5.045  -0.510  1.00  0.00     0.251 C 
ATOM      5  O   UNL     1      -6.833  -6.101  -1.082  1.00  0.00    -0.269 OA
ATOM      6  H   UNL     1      -8.751  -5.841   0.263  1.00  0.00     0.163 HD
BRANCH   4   7
ATOM      7  C   UNL     1      -6.181  -3.896  -0.665  1.00  0.00     0.041 A 
ATOM      8  C   UNL     1      -4.405  -1.711  -1.081  1.00  0.00     0.049 A 
ATOM      9  C   UNL     1      -5.143  -1.843   0.098  1.00  0.00     0.028 A 
ATOM     10  C   UNL     1      -4.550  -2.734  -2.039  1.00  0.00     0.041 A 
ATOM     11  C   UNL     1      -5.970  -2.947   0.329  1.00  0.00     0.016 A 
ATOM     12  C   UNL     1      -5.429  -3.808  -1.842  1.00  0.00     0.031 A 
ATOM     13  Br  UNL     1      -3.517  -2.721  -3.641  1.00  0.00    -0.049 Br
BRANCH   8  14
ATOM     14  N   UNL     1      -3.556  -0.640  -1.304  1.00  0.00    -0.380 N 
ATOM     15  H   UNL     1      -3.268  -0.479  -2.232  1.00  0.00     0.160 HD
BRANCH  14  16
ATOM     16  C   UNL     1      -3.057   0.264  -0.286  1.00  0.00     0.148 C 
BRANCH  16  17
ATOM     17  C   UNL     1      -1.549   0.201  -0.232  1.00  0.00    -0.029 A 
ATOM     18  C   UNL     1       2.752   0.009   0.057  1.00  0.00     0.044 C 
ATOM     19  C   UNL     1       1.258   0.086  -0.035  1.00  0.00    -0.051 A 
ATOM     20  C   UNL     1       0.502  -1.090  -0.044  1.00  0.00     0.004 A 
ATOM     21  C   UNL     1       0.602   1.320  -0.114  1.00  0.00     0.004 A 
ATOM     22  C   UNL     1      -0.888  -1.033  -0.133  1.00  0.00     0.006 A 
ATOM     23  C   UNL     1      -0.790   1.377  -0.208  1.00  0.00     0.006 A 
ENDBRANCH  16  17
ENDBRANCH  14  16
ENDBRANCH   8  14
ENDBRANCH   4   7
ENDBRANCH   2   3
ENDBRANCH   1   2
BRANCH   1  24
ATOM     24  C   UNL     1     -11.350  -4.534   0.152  1.00  0.00     0.023 C 
BRANCH  24  25
ATOM     25  C   UNL     1     -11.816  -5.100   1.487  1.00  0.00     0.116 C 
BRANCH  25  26
ATOM     26  N   UNL     1     -12.942  -4.410   2.088  1.00  0.00    -0.352 N 
ATOM     27  C   UNL     1     -13.688  -4.820   3.186  1.00  0.00     0.251 C 
ATOM     28  H   UNL     1     -13.206  -3.558   1.672  1.00  0.00     0.163 HD
ATOM     29  O   UNL     1     -14.815  -4.411   3.392  1.00  0.00    -0.269 OA
BRANCH  27  30
ATOM     30  C   UNL     1     -12.995  -5.662   4.190  1.00  0.00     0.039 A 
ATOM     31  C   UNL     1     -12.781  -5.100   5.456  1.00  0.00     0.014 A 
ATOM     32  C   UNL     1     -12.345  -6.832   3.813  1.00  0.00     0.014 A 
ATOM     33  C   UNL     1     -11.772  -5.607   6.273  1.00  0.00     0.010 A 
ATOM     34  C   UNL     1     -11.281  -7.270   4.576  1.00  0.00     0.010 A 
ATOM     35  C   UNL     1     -10.967  -6.635   5.787  1.00  0.00    -0.014 A 
BRANCH  35  36
ATOM     36  C   UNL     1      -9.732  -7.081   6.425  1.00  0.00     0.031 A 
ATOM     37  C   UNL     1      -9.673  -8.409   7.079  1.00  0.00     0.074 A 
ATOM     38  C   UNL     1      -8.608  -6.348   6.279  1.00  0.00     0.049 A 
ATOM     39  N   UNL     1      -8.752  -8.787   7.901  1.00  0.00    -0.248 NA
ATOM     40  C   UNL     1     -10.701  -9.421   6.872  1.00  0.00     0.031 C 
ATOM     41  C   UNL     1      -7.232  -6.796   6.475  1.00  0.00     0.029 A 
ATOM     42  N   UNL     1      -8.497  -4.971   6.091  1.00  0.00    -0.354 N 
ATOM     43  C   UNL     1      -8.897 -10.144   8.106  1.00  0.00     0.074 A 
ATOM     44  C   UNL     1     -10.159 -10.476   7.486  1.00  0.00     0.031 C 
ATOM     45  C   UNL     1      -6.440  -5.724   6.625  1.00  0.00     0.029 A 
ATOM     46  C   UNL     1      -7.301  -4.556   6.702  1.00  0.00     0.049 A 
ATOM     47  H   UNL     1      -9.139  -4.394   5.616  1.00  0.00     0.167 HD
ATOM     48  C   UNL     1      -7.869 -10.854   8.659  1.00  0.00     0.037 A 
ATOM     49  C   UNL     1      -7.319  -3.687   7.758  1.00  0.00     0.037 A 
ATOM     50  C   UNL     1      -6.780  -9.964   9.065  1.00  0.00     0.049 A 
ATOM     51  C   UNL     1      -6.795  -4.272   9.050  1.00  0.00     0.074 A 
ATOM     52  C   UNL     1      -5.596  -9.595   8.445  1.00  0.00     0.029 A 
ATOM     53  N   UNL     1      -6.970  -9.069  10.113  1.00  0.00    -0.354 N 
ATOM     54  N   UNL     1      -6.620  -5.548   9.258  1.00  0.00    -0.248 NA
ATOM     55  C   UNL     1      -6.445  -3.467  10.218  1.00  0.00     0.031 C 
ATOM     56  C   UNL     1      -5.117  -8.421   9.076  1.00  0.00     0.029 A 
ATOM     57  C   UNL     1      -5.995  -8.088  10.094  1.00  0.00     0.049 A 
ATOM     58  H   UNL     1      -7.696  -9.126  10.775  1.00  0.00     0.167 HD
ATOM     59  C   UNL     1      -6.200  -5.751  10.546  1.00  0.00     0.074 A 
ATOM     60  C   UNL     1      -6.073  -4.415  11.097  1.00  0.00     0.031 C 
ATOM     61  C   UNL     1      -6.006  -7.001  11.061  1.00  0.00     0.037 A 
BRANCH  48  62
ATOM     62  C   UNL     1      -7.720 -12.364   8.536  1.00  0.00     0.058 A 
ATOM     63  C   UNL     1      -6.441 -12.963   8.485  1.00  0.00     0.135 A 
ATOM     64  C   UNL     1      -8.788 -13.272   8.389  1.00  0.00     0.135 A 
ATOM     65  F   UNL     1      -5.326 -12.260   8.729  1.00  0.00    -0.206 F 
ATOM     66  C   UNL     1      -6.237 -14.311   8.175  1.00  0.00     0.059 A 
ATOM     67  C   UNL     1      -8.612 -14.611   8.021  1.00  0.00     0.059 A 
ATOM     68  F   UNL     1     -10.049 -12.913   8.659  1.00  0.00    -0.206 F 
ATOM     69  C   UNL     1      -7.329 -15.120   7.899  1.00  0.00     0.060 A 
BRANCH  69  70
ATOM     70  S   UNL     1      -7.046 -16.831   7.405  1.00  0.00     0.124 S 
ATOM     71  O   UNL     1      -6.143 -16.678   6.268  1.00  0.00    -0.237 OA
ATOM     72  O   UNL     1      -6.458 -17.403   8.611  1.00  0.00    -0.237 OA
ATOM     73  O   UNL     1      -8.383 -17.314   7.070  1.00  0.00    -0.744 OA
ENDBRANCH  69  70
ENDBRANCH  48  62
BRANCH  49  74
ATOM     74  C   UNL     1      -8.396  -2.664   7.647  1.00  0.00     0.058 A 
ATOM     75  C   UNL     1      -8.271  -1.705   6.624  1.00  0.00     0.135 A 
ATOM     76  C   UNL     1      -9.678  -2.900   8.165  1.00  0.00     0.135 A 
ATOM     77  F   UNL     1      -7.062  -1.427   6.109  1.00  0.00    -0.206 F 
ATOM     78  C   UNL     1      -9.384  -1.144   6.012  1.00  0.00     0.059 A 
ATOM     79  C   UNL     1     -10.810  -2.341   7.569  1.00  0.00     0.059 A 
ATOM     80  F   UNL     1      -9.856  -3.797   9.147  1.00  0.00    -0.206 F 
ATOM     81  C   UNL     1     -10.651  -1.532   6.443  1.00  0.00     0.060 A 
BRANCH  81  82
ATOM     82  S   UNL     1     -12.057  -1.122   5.382  1.00  0.00     0.124 S 
ATOM     83  O   UNL     1     -11.963   0.331   5.298  1.00  0.00    -0.237 OA
ATOM     84  O   UNL     1     -11.717  -1.847   4.157  1.00  0.00    -0.237 OA
ATOM     85  O   UNL     1     -13.199  -1.639   6.126  1.00  0.00    -0.744 OA
ENDBRANCH  81  82
ENDBRANCH  49  74
BRANCH  61  86
ATOM     86  C   UNL     1      -5.717  -7.302  12.508  1.00  0.00     0.058 A 
ATOM     87  C   UNL     1      -6.262  -6.572  13.579  1.00  0.00     0.135 A 
ATOM     88  C   UNL     1      -4.963  -8.444  12.863  1.00  0.00     0.135 A 
ATOM     89  F   UNL     1      -7.083  -5.534  13.364  1.00  0.00    -0.206 F 
ATOM     90  C   UNL     1      -6.014  -6.905  14.911  1.00  0.00     0.059 A 
ATOM     91  C   UNL     1      -4.745  -8.824  14.185  1.00  0.00     0.059 A 
ATOM     92  F   UNL     1      -4.416  -9.235  11.927  1.00  0.00    -0.206 F 
ATOM     93  C   UNL     1      -5.250  -8.030  15.205  1.00  0.00     0.060 A 
BRANCH  93  94
ATOM     94  S   UNL     1      -4.955  -8.492  16.922  1.00  0.00     0.124 S 
ATOM     95  O   UNL     1      -3.701  -7.798  17.198  1.00  0.00    -0.237 OA
ATOM     96  O   UNL     1      -6.131  -7.963  17.609  1.00  0.00    -0.237 OA
ATOM     97  O   UNL     1      -4.874  -9.947  16.865  1.00  0.00    -0.744 OA
ENDBRANCH  93  94
ENDBRANCH  61  86
ENDBRANCH  35  36
ENDBRANCH  27  30
ENDBRANCH  25  26
ENDBRANCH  24  25
ENDBRANCH   1  24
TORSDOF 17
