REMARK SMILES O=C(COc1ccccc1/C=N/N1[C@@H](S)N=N[C@H]1[C@@H]1C=C(c2ccccc2)N=N1)NCCCCNC(=O)c1ccc(-c2c3nc(c(-c4c(F)cc(S(=O)(=O)[O-])cc4F)c4ccc([nH]4)c(-c4c(F)cc(S(=O)(=O)[O-])cc4F)c4nc(c(-c5c(F)cc(S(=O)(=O)[O-])cc5F)c5ccc2[nH]5)C=C4)C=C3)cc1
REMARK SMILES IDX 31 1 30 2 1 3 2 4 3 6 4 7 5 8 6 9 10 10 7 11 9 12 8 13 11 14
REMARK SMILES IDX 12 15 13 16 14 17 18 18 16 19 17 20 15 21 19 23 20 24 29 25
REMARK SMILES IDX 21 26 28 27 22 28 23 29 27 30 24 31 26 32 25 33 32 34 33 35
REMARK SMILES IDX 34 36 35 37 36 38 37 40 38 41 39 42 103 43 40 44 102 45
REMARK SMILES IDX 41 46 42 47 43 48 96 49 44 50 101 51 95 52 97 53 45 54
REMARK SMILES IDX 100 55 94 56 93 57 46 59 80 60 59 61 79 62 60 63 63 64 78 65
REMARK SMILES IDX 98 66 61 67 62 68 77 70 99 71 64 72 47 73 48 74 57 75 49 76
REMARK SMILES IDX 50 77 56 78 58 79 51 80 52 81 53 82 54 83 55 84 81 85 82 86
REMARK SMILES IDX 91 87 83 88 84 89 90 90 92 91 85 92 86 93 87 94 88 95 89 96
REMARK SMILES IDX 65 97 66 98 75 99 67 100 68 101 74 102 76 103 69 104 70 105
REMARK SMILES IDX 71 106 72 107 73 108
REMARK H PARENT 30 5 15 22 35 39 97 58 63 69
REMARK Flexibility Score: inf
ROOT
ATOM      1  C   UNL     1       2.785  -1.296   2.076  1.00  0.00     0.116 C 
ENDROOT
BRANCH   1   2
ATOM      2  N   UNL     1       2.761   0.054   1.156  1.00  0.00    -0.353 N 
ATOM      3  O   UNL     1       0.992   0.107  -0.385  1.00  0.00    -0.271 OA
ATOM      4  C   UNL     1       1.908   0.664   0.206  1.00  0.00     0.257 C 
ATOM      5  H   UNL     1       3.569   0.597   1.304  1.00  0.00     0.163 HD
BRANCH   4   6
ATOM      6  C   UNL     1       1.845   2.134  -0.322  1.00  0.00     0.329 C 
BRANCH   6   7
ATOM      7  O   UNL     1       1.339   3.236   0.365  1.00  0.00    -0.483 OA
BRANCH   7   8
ATOM      8  C   UNL     1       1.564   3.158   1.697  1.00  0.00     0.128 A 
ATOM      9  C   UNL     1       2.428   4.156   2.142  1.00  0.00     0.047 A 
ATOM     10  C   UNL     1       0.912   2.239   2.558  1.00  0.00     0.037 A 
ATOM     11  C   UNL     1       2.624   4.300   3.494  1.00  0.00     0.004 A 
ATOM     12  C   UNL     1       1.197   2.347   3.914  1.00  0.00     0.013 A 
ATOM     13  C   UNL     1       2.032   3.392   4.376  1.00  0.00     0.001 A 
BRANCH  10  14
ATOM     14  C   UNL     1      -0.028   1.210   1.942  1.00  0.00     0.145 C 
ATOM     15  N   UNL     1       0.022  -0.100   2.100  1.00  0.00    -0.180 NA
BRANCH  15  16
ATOM     16  N   UNL     1      -0.578  -0.806   1.001  1.00  0.00    -0.233 NA
ATOM     17  C   UNL     1      -1.812  -1.554   1.253  1.00  0.00     0.298 C 
ATOM     18  C   UNL     1       0.163  -1.904   0.094  1.00  0.00     0.274 C 
ATOM     19  N   UNL     1      -2.033  -2.465   0.098  1.00  0.00    -0.153 NA
ATOM     20  N   UNL     1      -0.976  -2.620  -0.577  1.00  0.00    -0.161 NA
BRANCH  17  21
ATOM     21  S   UNL     1      -3.193  -0.427   1.649  1.00  0.00    -0.128 SA
ATOM     22  H   UNL     1      -3.398   0.423   0.607  1.00  0.00     0.106 HD
ENDBRANCH  17  21
BRANCH  18  23
ATOM     23  C   UNL     1       1.573  -2.003  -1.128  1.00  0.00     0.202 C 
ATOM     24  C   UNL     1       3.075  -1.819  -0.863  1.00  0.00     0.037 C 
ATOM     25  N   UNL     1       1.532  -1.065  -2.352  1.00  0.00    -0.177 NA
ATOM     26  C   UNL     1       3.623  -0.855  -1.609  1.00  0.00     0.091 C 
ATOM     27  N   UNL     1       2.666  -0.429  -2.509  1.00  0.00    -0.155 NA
BRANCH  26  28
ATOM     28  C   UNL     1       4.925  -0.160  -1.126  1.00  0.00     0.002 A 
ATOM     29  C   UNL     1       4.966   1.172  -0.664  1.00  0.00     0.010 A 
ATOM     30  C   UNL     1       6.128  -0.841  -0.868  1.00  0.00     0.010 A 
ATOM     31  C   UNL     1       6.023   1.794   0.031  1.00  0.00     0.001 A 
ATOM     32  C   UNL     1       7.241  -0.218  -0.221  1.00  0.00     0.001 A 
ATOM     33  C   UNL     1       7.185   1.095   0.240  1.00  0.00     0.000 A 
ENDBRANCH  26  28
ENDBRANCH  18  23
ENDBRANCH  15  16
ENDBRANCH  10  14
ENDBRANCH   7   8
ENDBRANCH   6   7
ENDBRANCH   4   6
ENDBRANCH   1   2
BRANCH   1  34
ATOM     34  C   UNL     1       2.729  -2.931   1.775  1.00  0.00     0.023 C 
BRANCH  34  35
ATOM     35  C   UNL     1       3.895  -3.911   1.376  1.00  0.00     0.023 C 
BRANCH  35  36
ATOM     36  C   UNL     1       4.795  -4.411   2.472  1.00  0.00     0.116 C 
BRANCH  36  37
ATOM     37  N   UNL     1       4.173  -5.458   3.285  1.00  0.00    -0.352 N 
ATOM     38  C   UNL     1       4.567  -5.835   4.551  1.00  0.00     0.251 C 
ATOM     39  H   UNL     1       3.405  -5.934   2.893  1.00  0.00     0.163 HD
ATOM     40  O   UNL     1       4.341  -6.963   4.995  1.00  0.00    -0.269 OA
BRANCH  38  41
ATOM     41  C   UNL     1       5.250  -4.818   5.353  1.00  0.00     0.039 A 
ATOM     42  C   UNL     1       6.440  -5.076   6.032  1.00  0.00     0.014 A 
ATOM     43  C   UNL     1       4.729  -3.530   5.240  1.00  0.00     0.014 A 
ATOM     44  C   UNL     1       7.137  -3.992   6.553  1.00  0.00     0.010 A 
ATOM     45  C   UNL     1       5.538  -2.472   5.529  1.00  0.00     0.010 A 
ATOM     46  C   UNL     1       6.683  -2.691   6.277  1.00  0.00    -0.014 A 
BRANCH  46  47
ATOM     47  C   UNL     1       7.433  -1.514   6.678  1.00  0.00     0.031 A 
ATOM     48  C   UNL     1       8.851  -1.531   6.240  1.00  0.00     0.074 A 
ATOM     49  C   UNL     1       6.837  -0.428   7.218  1.00  0.00     0.049 A 
ATOM     50  N   UNL     1       9.886  -1.778   6.970  1.00  0.00    -0.248 NA
ATOM     51  C   UNL     1       9.146  -1.479   4.798  1.00  0.00     0.031 C 
ATOM     52  C   UNL     1       5.406  -0.145   7.402  1.00  0.00     0.029 A 
ATOM     53  N   UNL     1       7.413   0.722   7.649  1.00  0.00    -0.354 N 
ATOM     54  C   UNL     1      10.983  -1.624   6.131  1.00  0.00     0.074 A 
ATOM     55  C   UNL     1      10.465  -1.691   4.790  1.00  0.00     0.031 C 
ATOM     56  C   UNL     1       5.228   1.168   7.670  1.00  0.00     0.029 A 
ATOM     57  C   UNL     1       6.528   1.776   7.866  1.00  0.00     0.049 A 
ATOM     58  H   UNL     1       8.383   0.805   7.798  1.00  0.00     0.167 HD
ATOM     59  C   UNL     1      12.170  -1.164   6.619  1.00  0.00     0.037 A 
ATOM     60  C   UNL     1       6.875   3.062   8.142  1.00  0.00     0.037 A 
ATOM     61  C   UNL     1      12.197  -1.251   8.063  1.00  0.00     0.049 A 
ATOM     62  C   UNL     1       8.275   3.024   8.648  1.00  0.00     0.074 A 
ATOM     63  C   UNL     1      12.005  -2.280   8.969  1.00  0.00     0.029 A 
ATOM     64  N   UNL     1      12.005  -0.092   8.780  1.00  0.00    -0.354 N 
ATOM     65  N   UNL     1       8.605   2.467   9.783  1.00  0.00    -0.248 NA
ATOM     66  C   UNL     1       9.343   3.119   7.662  1.00  0.00     0.031 C 
ATOM     67  C   UNL     1      11.197  -1.712   9.999  1.00  0.00     0.029 A 
ATOM     68  C   UNL     1      11.041  -0.354   9.723  1.00  0.00     0.049 A 
ATOM     69  H   UNL     1      12.472   0.764   8.643  1.00  0.00     0.167 HD
ATOM     70  C   UNL     1       9.767   1.762   9.505  1.00  0.00     0.074 A 
ATOM     71  C   UNL     1      10.202   2.244   8.193  1.00  0.00     0.031 C 
ATOM     72  C   UNL     1      10.105   0.638  10.204  1.00  0.00     0.037 A 
BRANCH  59  73
ATOM     73  C   UNL     1      13.124  -0.282   5.845  1.00  0.00     0.058 A 
ATOM     74  C   UNL     1      14.377   0.032   6.413  1.00  0.00     0.135 A 
ATOM     75  C   UNL     1      12.765   0.483   4.712  1.00  0.00     0.135 A 
ATOM     76  F   UNL     1      14.821  -0.625   7.496  1.00  0.00    -0.206 F 
ATOM     77  C   UNL     1      15.173   1.075   5.939  1.00  0.00     0.059 A 
ATOM     78  C   UNL     1      13.569   1.489   4.190  1.00  0.00     0.059 A 
ATOM     79  F   UNL     1      11.579   0.365   4.106  1.00  0.00    -0.206 F 
ATOM     80  C   UNL     1      14.752   1.806   4.833  1.00  0.00     0.060 A 
BRANCH  80  81
ATOM     81  S   UNL     1      15.732   3.205   4.269  1.00  0.00     0.124 S 
ATOM     82  O   UNL     1      15.555   4.145   5.369  1.00  0.00    -0.237 OA
ATOM     83  O   UNL     1      17.058   2.608   4.140  1.00  0.00    -0.237 OA
ATOM     84  O   UNL     1      15.092   3.575   3.010  1.00  0.00    -0.744 OA
ENDBRANCH  80  81
ENDBRANCH  59  73
BRANCH  60  85
ATOM     85  C   UNL     1       6.291   4.291   7.541  1.00  0.00     0.058 A 
ATOM     86  C   UNL     1       6.614   5.577   8.021  1.00  0.00     0.135 A 
ATOM     87  C   UNL     1       5.677   4.239   6.279  1.00  0.00     0.135 A 
ATOM     88  F   UNL     1       7.243   5.713   9.197  1.00  0.00    -0.206 F 
ATOM     89  C   UNL     1       6.369   6.741   7.277  1.00  0.00     0.059 A 
ATOM     90  C   UNL     1       5.471   5.377   5.511  1.00  0.00     0.059 A 
ATOM     91  F   UNL     1       5.351   3.073   5.704  1.00  0.00    -0.206 F 
ATOM     92  C   UNL     1       5.810   6.626   6.007  1.00  0.00     0.060 A 
BRANCH  92  93
ATOM     93  S   UNL     1       5.597   8.081   4.954  1.00  0.00     0.124 S 
ATOM     94  O   UNL     1       4.650   8.878   5.725  1.00  0.00    -0.237 OA
ATOM     95  O   UNL     1       6.956   8.599   4.869  1.00  0.00    -0.237 OA
ATOM     96  O   UNL     1       5.065   7.517   3.713  1.00  0.00    -0.744 OA
ENDBRANCH  92  93
ENDBRANCH  60  85
BRANCH  72  97
ATOM     97  C   UNL     1       9.330   0.298  11.454  1.00  0.00     0.058 A 
ATOM     98  C   UNL     1       7.950   0.023  11.504  1.00  0.00     0.135 A 
ATOM     99  C   UNL     1      10.058   0.100  12.636  1.00  0.00     0.135 A 
ATOM    100  F   UNL     1       7.193   0.079  10.399  1.00  0.00    -0.206 F 
ATOM    101  C   UNL     1       7.319  -0.378  12.686  1.00  0.00     0.059 A 
ATOM    102  C   UNL     1       9.458  -0.330  13.815  1.00  0.00     0.059 A 
ATOM    103  F   UNL     1      11.388   0.284  12.644  1.00  0.00    -0.206 F 
ATOM    104  C   UNL     1       8.083  -0.550  13.839  1.00  0.00     0.060 A 
BRANCH 104 105
ATOM    105  S   UNL     1       7.282  -1.098  15.362  1.00  0.00     0.124 S 
ATOM    106  O   UNL     1       6.466   0.059  15.712  1.00  0.00    -0.237 OA
ATOM    107  O   UNL     1       6.549  -2.283  14.925  1.00  0.00    -0.237 OA
ATOM    108  O   UNL     1       8.403  -1.365  16.261  1.00  0.00    -0.744 OA
ENDBRANCH 104 105
ENDBRANCH  72  97
ENDBRANCH  46  47
ENDBRANCH  38  41
ENDBRANCH  36  37
ENDBRANCH  35  36
ENDBRANCH  34  35
ENDBRANCH   1  34
TORSDOF 21
