REMARK SMILES COC(=O)[C@@H](NC(=O)CCC(=O)NCCCCNC(=O)c1ccc(-c2c3nc(c(-c4c(F)cc(S(=O)(=O)[O-])cc4F)c4ccc([nH]4)c(-c4c(F)cc(S(=O)(=O)[O-])cc4F)c4nc(c(-c5c(F)cc(S(=O)(=O)[O-])cc5F)c5ccc2[nH]5)C=C4)C=C3)cc1)c1cccc2ccccc12
REMARK SMILES IDX 14 1 13 2 11 3 12 4 10 6 9 7 7 8 6 9 8 11 5 12 3 13 4 14
REMARK SMILES IDX 2 15 1 16 87 17 88 18 96 19 89 20 91 21 95 22 90 23 92 24
REMARK SMILES IDX 94 25 93 26 15 27 16 28 17 29 18 30 19 31 20 33 21 34 22 35
REMARK SMILES IDX 86 36 23 37 85 38 24 39 25 40 26 41 79 42 27 43 84 44 78 45
REMARK SMILES IDX 80 46 28 47 83 48 77 49 76 50 29 52 63 53 42 54 62 55 43 56
REMARK SMILES IDX 46 57 61 58 81 59 44 60 45 61 60 63 82 64 47 65 30 66 31 67
REMARK SMILES IDX 40 68 32 69 33 70 39 71 41 72 34 73 35 74 36 75 37 76 38 77
REMARK SMILES IDX 64 78 65 79 74 80 66 81 67 82 73 83 75 84 68 85 69 86 70 87
REMARK SMILES IDX 71 88 72 89 48 90 49 91 58 92 50 93 51 94 57 95 59 96 52 97
REMARK SMILES IDX 53 98 54 99 55 100 56 101
REMARK H PARENT 13 5 6 10 18 32 80 51 46 62
REMARK Flexibility Score: inf
ROOT
ATOM      1  C   UNL     1       1.449   4.077  -0.685  1.00  0.00     0.116 C 
ENDROOT
BRANCH   1   2
ATOM      2  N   UNL     1       0.647   2.922  -0.327  1.00  0.00    -0.356 N 
ATOM      3  C   UNL     1      -0.701   2.735  -0.314  1.00  0.00     0.220 C 
ATOM      4  O   UNL     1      -1.157   1.595  -0.211  1.00  0.00    -0.275 OA
ATOM      5  H   UNL     1       1.170   2.136  -0.045  1.00  0.00     0.163 HD
BRANCH   3   6
ATOM      6  C   UNL     1      -1.621   3.910  -0.405  1.00  0.00     0.110 C 
BRANCH   6   7
ATOM      7  C   UNL     1      -1.846   4.619   0.916  1.00  0.00     0.110 C 
BRANCH   7   8
ATOM      8  C   UNL     1      -0.651   4.867   1.809  1.00  0.00     0.221 C 
ATOM      9  N   UNL     1      -0.111   3.997   2.701  1.00  0.00    -0.339 N 
ATOM     10  H   UNL     1       0.832   4.211   2.887  1.00  0.00     0.164 HD
ATOM     11  O   UNL     1      -0.123   5.987   1.756  1.00  0.00    -0.275 OA
BRANCH   9  12
ATOM     12  C   UNL     1      -0.566   2.797   3.480  1.00  0.00     0.224 C 
BRANCH  12  13
ATOM     13  C   UNL     1       0.207   1.480   3.211  1.00  0.00     0.333 C 
ATOM     14  O   UNL     1       0.431   0.646   4.086  1.00  0.00    -0.249 OA
BRANCH  13  15
ATOM     15  O   UNL     1       0.577   1.305   1.919  1.00  0.00    -0.467 OA
ATOM     16  C   UNL     1       1.051  -0.003   1.558  1.00  0.00     0.282 C 
ENDBRANCH  13  15
ENDBRANCH  12  13
BRANCH  12  17
ATOM     17  C   UNL     1      -2.088   2.765   3.658  1.00  0.00    -0.007 A 
ATOM     18  C   UNL     1      -2.676   4.009   3.998  1.00  0.00     0.007 A 
ATOM     19  C   UNL     1      -2.953   1.666   3.376  1.00  0.00    -0.013 A 
ATOM     20  C   UNL     1      -4.020   4.257   3.760  1.00  0.00     0.001 A 
ATOM     21  C   UNL     1      -4.307   1.953   3.066  1.00  0.00    -0.018 A 
ATOM     22  C   UNL     1      -2.604   0.294   3.427  1.00  0.00     0.009 A 
ATOM     23  C   UNL     1      -4.808   3.253   3.215  1.00  0.00     0.009 A 
ATOM     24  C   UNL     1      -5.171   0.932   2.639  1.00  0.00     0.009 A 
ATOM     25  C   UNL     1      -3.501  -0.723   3.094  1.00  0.00     0.001 A 
ATOM     26  C   UNL     1      -4.772  -0.401   2.653  1.00  0.00     0.001 A 
ENDBRANCH  12  17
ENDBRANCH   9  12
ENDBRANCH   7   8
ENDBRANCH   6   7
ENDBRANCH   3   6
ENDBRANCH   1   2
BRANCH   1  27
ATOM     27  C   UNL     1       2.386   4.614   0.404  1.00  0.00     0.023 C 
BRANCH  27  28
ATOM     28  C   UNL     1       3.071   3.610   1.330  1.00  0.00     0.023 C 
BRANCH  28  29
ATOM     29  C   UNL     1       3.937   2.579   0.630  1.00  0.00     0.116 C 
BRANCH  29  30
ATOM     30  N   UNL     1       4.919   3.221  -0.220  1.00  0.00    -0.352 N 
ATOM     31  C   UNL     1       6.277   3.322  -0.079  1.00  0.00     0.251 C 
ATOM     32  H   UNL     1       4.552   3.653  -1.025  1.00  0.00     0.163 HD
ATOM     33  O   UNL     1       6.869   4.207  -0.692  1.00  0.00    -0.269 OA
BRANCH  31  34
ATOM     34  C   UNL     1       7.030   2.373   0.770  1.00  0.00     0.039 A 
ATOM     35  C   UNL     1       8.204   2.818   1.385  1.00  0.00     0.014 A 
ATOM     36  C   UNL     1       6.654   1.030   0.883  1.00  0.00     0.014 A 
ATOM     37  C   UNL     1       8.988   1.925   2.116  1.00  0.00     0.010 A 
ATOM     38  C   UNL     1       7.391   0.160   1.683  1.00  0.00     0.010 A 
ATOM     39  C   UNL     1       8.581   0.591   2.282  1.00  0.00    -0.014 A 
BRANCH  39  40
ATOM     40  C   UNL     1       9.415  -0.364   3.053  1.00  0.00     0.031 A 
ATOM     41  C   UNL     1      10.039  -1.553   2.369  1.00  0.00     0.074 A 
ATOM     42  C   UNL     1       9.589  -0.168   4.375  1.00  0.00     0.049 A 
ATOM     43  N   UNL     1      10.781  -2.503   2.878  1.00  0.00    -0.248 NA
ATOM     44  C   UNL     1       9.774  -1.711   0.928  1.00  0.00     0.031 C 
ATOM     45  C   UNL     1       8.983   0.914   5.155  1.00  0.00     0.029 A 
ATOM     46  N   UNL     1      10.323  -0.869   5.296  1.00  0.00    -0.354 N 
ATOM     47  C   UNL     1      11.067  -3.368   1.827  1.00  0.00     0.074 A 
ATOM     48  C   UNL     1      10.367  -2.867   0.665  1.00  0.00     0.031 C 
ATOM     49  C   UNL     1       9.390   0.819   6.431  1.00  0.00     0.029 A 
ATOM     50  C   UNL     1      10.260  -0.344   6.565  1.00  0.00     0.049 A 
ATOM     51  H   UNL     1      10.846  -1.672   5.071  1.00  0.00     0.167 HD
ATOM     52  C   UNL     1      11.866  -4.462   1.824  1.00  0.00     0.037 A 
ATOM     53  C   UNL     1      10.840  -0.755   7.709  1.00  0.00     0.037 A 
ATOM     54  C   UNL     1      12.580  -4.937   2.981  1.00  0.00     0.049 A 
ATOM     55  C   UNL     1      11.744  -1.958   7.671  1.00  0.00     0.074 A 
ATOM     56  C   UNL     1      13.445  -6.013   3.078  1.00  0.00     0.029 A 
ATOM     57  N   UNL     1      12.520  -4.358   4.240  1.00  0.00    -0.354 N 
ATOM     58  N   UNL     1      12.044  -2.732   6.655  1.00  0.00    -0.248 NA
ATOM     59  C   UNL     1      12.400  -2.334   8.930  1.00  0.00     0.031 C 
ATOM     60  C   UNL     1      13.885  -6.102   4.404  1.00  0.00     0.029 A 
ATOM     61  C   UNL     1      13.327  -5.057   5.122  1.00  0.00     0.049 A 
ATOM     62  H   UNL     1      11.983  -3.566   4.472  1.00  0.00     0.167 HD
ATOM     63  C   UNL     1      12.935  -3.678   7.149  1.00  0.00     0.074 A 
ATOM     64  C   UNL     1      13.147  -3.359   8.547  1.00  0.00     0.031 C 
ATOM     65  C   UNL     1      13.521  -4.720   6.510  1.00  0.00     0.037 A 
BRANCH  52  66
ATOM     66  C   UNL     1      12.035  -5.204   0.526  1.00  0.00     0.058 A 
ATOM     67  C   UNL     1      12.768  -4.656  -0.540  1.00  0.00     0.135 A 
ATOM     68  C   UNL     1      11.509  -6.495   0.359  1.00  0.00     0.135 A 
ATOM     69  F   UNL     1      13.278  -3.418  -0.442  1.00  0.00    -0.206 F 
ATOM     70  C   UNL     1      12.958  -5.352  -1.729  1.00  0.00     0.059 A 
ATOM     71  C   UNL     1      11.710  -7.221  -0.813  1.00  0.00     0.059 A 
ATOM     72  F   UNL     1      10.797  -7.068   1.343  1.00  0.00    -0.206 F 
ATOM     73  C   UNL     1      12.428  -6.637  -1.855  1.00  0.00     0.060 A 
BRANCH  73  74
ATOM     74  S   UNL     1      12.711  -7.535  -3.395  1.00  0.00     0.124 S 
ATOM     75  O   UNL     1      11.829  -6.824  -4.314  1.00  0.00    -0.237 OA
ATOM     76  O   UNL     1      14.141  -7.343  -3.611  1.00  0.00    -0.237 OA
ATOM     77  O   UNL     1      12.308  -8.902  -3.070  1.00  0.00    -0.744 OA
ENDBRANCH  73  74
ENDBRANCH  52  66
BRANCH  53  78
ATOM     78  C   UNL     1      10.598  -0.018   8.977  1.00  0.00     0.058 A 
ATOM     79  C   UNL     1      11.616   0.728   9.590  1.00  0.00     0.135 A 
ATOM     80  C   UNL     1       9.343  -0.050   9.606  1.00  0.00     0.135 A 
ATOM     81  F   UNL     1      12.833   0.789   9.028  1.00  0.00    -0.206 F 
ATOM     82  C   UNL     1      11.410   1.389  10.796  1.00  0.00     0.059 A 
ATOM     83  C   UNL     1       9.105   0.626  10.798  1.00  0.00     0.059 A 
ATOM     84  F   UNL     1       8.329  -0.729   9.049  1.00  0.00    -0.206 F 
ATOM     85  C   UNL     1      10.151   1.329  11.395  1.00  0.00     0.060 A 
BRANCH  85  86
ATOM     86  S   UNL     1       9.885   2.207  12.950  1.00  0.00     0.124 S 
ATOM     87  O   UNL     1      10.562   1.332  13.899  1.00  0.00    -0.237 OA
ATOM     88  O   UNL     1      10.528   3.492  12.694  1.00  0.00    -0.237 OA
ATOM     89  O   UNL     1       8.430   2.256  13.061  1.00  0.00    -0.744 OA
ENDBRANCH  85  86
ENDBRANCH  53  78
BRANCH  65  90
ATOM     90  C   UNL     1      14.458  -5.574   7.316  1.00  0.00     0.058 A 
ATOM     91  C   UNL     1      13.985  -6.453   8.303  1.00  0.00     0.135 A 
ATOM     92  C   UNL     1      15.842  -5.524   7.089  1.00  0.00     0.135 A 
ATOM     93  F   UNL     1      12.670  -6.534   8.562  1.00  0.00    -0.206 F 
ATOM     94  C   UNL     1      14.855  -7.225   9.064  1.00  0.00     0.059 A 
ATOM     95  C   UNL     1      16.729  -6.309   7.819  1.00  0.00     0.059 A 
ATOM     96  F   UNL     1      16.345  -4.710   6.147  1.00  0.00    -0.206 F 
ATOM     97  C   UNL     1      16.227  -7.142   8.817  1.00  0.00     0.060 A 
BRANCH  97  98
ATOM     98  S   UNL     1      17.347  -8.151   9.809  1.00  0.00     0.124 S 
ATOM     99  O   UNL     1      17.361  -7.419  11.071  1.00  0.00    -0.237 OA
ATOM    100  O   UNL     1      16.668  -9.443   9.834  1.00  0.00    -0.237 OA
ATOM    101  O   UNL     1      18.594  -8.119   9.050  1.00  0.00    -0.744 OA
ENDBRANCH  97  98
ENDBRANCH  65  90
ENDBRANCH  39  40
ENDBRANCH  31  34
ENDBRANCH  29  30
ENDBRANCH  28  29
ENDBRANCH  27  28
ENDBRANCH   1  27
TORSDOF 20
