REMARK SMILES CCCCCCNC(=O)Oc1cccc(-c2ccc([C@@H](C)C(=O)NCCCCNC(=O)c3ccc(-c4c5nc(c(-c6c(F)cc(S(=O)(=O)[O-])cc6F)c6ccc([nH]6)c(-c6c(F)cc(S(=O)(=O)[O-])cc6F)c6nc(c(-c7c(F)cc(S(=O)(=O)[O-])cc7F)c7ccc4[nH]7)C=C6)C=C5)cc3)cc2)c1
REMARK SMILES IDX 20 1 21 2 19 3 16 4 17 5 99 6 18 7 98 8 15 9 11 10 12 11
REMARK SMILES IDX 100 12 13 13 14 14 10 15 8 16 7 17 9 19 6 20 5 21 4 22 3 23
REMARK SMILES IDX 2 24 1 25 22 26 23 27 24 28 25 30 26 31 27 32 28 33 29 34
REMARK SMILES IDX 30 35 31 37 32 38 33 39 97 40 34 41 96 42 35 43 36 44 37 45
REMARK SMILES IDX 90 46 38 47 95 48 89 49 91 50 39 51 94 52 88 53 87 54 40 56
REMARK SMILES IDX 74 57 53 58 73 59 54 60 57 61 72 62 92 63 55 64 56 65 71 67
REMARK SMILES IDX 93 68 58 69 41 70 42 71 51 72 43 73 44 74 50 75 52 76 45 77
REMARK SMILES IDX 46 78 47 79 48 80 49 81 75 82 76 83 85 84 77 85 78 86 84 87
REMARK SMILES IDX 86 88 79 89 80 90 81 91 82 92 83 93 59 94 60 95 69 96 61 97
REMARK SMILES IDX 62 98 68 99 70 100 63 101 64 102 65 103 66 104 67 105
REMARK H PARENT 7 18 24 29 29 36 91 55 57 66
REMARK Flexibility Score: inf
ROOT
ATOM      1  C   UNL     1      -4.902  -2.957  13.176  1.00  0.00     0.105 C 
ATOM      2  C   UNL     1      -6.160  -3.042  14.040  1.00  0.00     0.023 C 
ENDROOT
BRANCH   1   3
ATOM      3  C   UNL     1      -5.093  -3.280  11.703  1.00  0.00    -0.036 A 
ATOM      4  C   UNL     1      -5.250  -3.945   8.924  1.00  0.00    -0.018 A 
ATOM      5  C   UNL     1      -5.888  -4.715   9.907  1.00  0.00     0.009 A 
ATOM      6  C   UNL     1      -4.558  -2.807   9.368  1.00  0.00     0.009 A 
ATOM      7  C   UNL     1      -5.850  -4.365  11.260  1.00  0.00     0.005 A 
ATOM      8  C   UNL     1      -4.460  -2.493  10.731  1.00  0.00     0.005 A 
BRANCH   4   9
ATOM      9  C   UNL     1      -5.311  -4.332   7.495  1.00  0.00    -0.015 A 
ATOM     10  C   UNL     1      -4.342  -4.438   5.266  1.00  0.00     0.133 A 
ATOM     11  C   UNL     1      -5.456  -5.106   4.769  1.00  0.00     0.047 A 
ATOM     12  C   UNL     1      -4.260  -4.052   6.606  1.00  0.00     0.056 A 
ATOM     13  C   UNL     1      -6.505  -5.400   5.630  1.00  0.00     0.004 A 
ATOM     14  C   UNL     1      -6.435  -5.005   6.970  1.00  0.00     0.009 A 
BRANCH  10  15
ATOM     15  O   UNL     1      -3.378  -4.042   4.326  1.00  0.00    -0.410 OA
BRANCH  15  16
ATOM     16  C   UNL     1      -2.042  -4.310   4.576  1.00  0.00     0.412 C 
ATOM     17  N   UNL     1      -1.212  -3.761   3.636  1.00  0.00    -0.321 N 
ATOM     18  H   UNL     1      -0.250  -3.945   3.733  1.00  0.00     0.167 HD
ATOM     19  O   UNL     1      -1.598  -4.960   5.512  1.00  0.00    -0.224 OA
BRANCH  17  20
ATOM     20  C   UNL     1      -1.609  -2.935   2.514  1.00  0.00     0.119 C 
BRANCH  20  21
ATOM     21  C   UNL     1      -1.017  -1.530   2.606  1.00  0.00     0.021 C 
BRANCH  21  22
ATOM     22  C   UNL     1       0.512  -1.474   2.514  1.00  0.00     0.002 C 
BRANCH  22  23
ATOM     23  C   UNL     1       1.116  -2.084   1.244  1.00  0.00    -0.000 C 
BRANCH  23  24
ATOM     24  C   UNL     1       0.626  -1.475  -0.072  1.00  0.00    -0.003 C 
ATOM     25  C   UNL     1       0.986  -0.005  -0.223  1.00  0.00     0.004 C 
ENDBRANCH  23  24
ENDBRANCH  22  23
ENDBRANCH  21  22
ENDBRANCH  20  21
ENDBRANCH  17  20
ENDBRANCH  15  16
ENDBRANCH  10  15
ENDBRANCH   4   9
ENDBRANCH   1   3
BRANCH   1  26
ATOM     26  C   UNL     1      -3.668  -3.622  13.805  1.00  0.00     0.227 C 
ATOM     27  O   UNL     1      -2.684  -2.930  14.097  1.00  0.00    -0.274 OA
ATOM     28  N   UNL     1      -3.584  -4.949  14.096  1.00  0.00    -0.356 N 
ATOM     29  H   UNL     1      -2.756  -5.209  14.560  1.00  0.00     0.163 HD
BRANCH  28  30
ATOM     30  C   UNL     1      -4.492  -6.048  13.845  1.00  0.00     0.116 C 
BRANCH  30  31
ATOM     31  C   UNL     1      -4.138  -6.809  12.567  1.00  0.00     0.023 C 
BRANCH  31  32
ATOM     32  C   UNL     1      -3.133  -7.944  12.751  1.00  0.00     0.023 C 
BRANCH  32  33
ATOM     33  C   UNL     1      -3.578  -9.060  13.689  1.00  0.00     0.116 C 
BRANCH  33  34
ATOM     34  N   UNL     1      -4.840  -9.684  13.313  1.00  0.00    -0.352 N 
ATOM     35  C   UNL     1      -5.220 -10.997  13.477  1.00  0.00     0.251 C 
ATOM     36  H   UNL     1      -5.503  -9.093  12.889  1.00  0.00     0.163 HD
ATOM     37  O   UNL     1      -6.292 -11.393  13.031  1.00  0.00    -0.269 OA
BRANCH  35  38
ATOM     38  C   UNL     1      -4.297 -11.931  14.156  1.00  0.00     0.039 A 
ATOM     39  C   UNL     1      -3.979 -13.139  13.533  1.00  0.00     0.014 A 
ATOM     40  C   UNL     1      -3.690 -11.576  15.364  1.00  0.00     0.014 A 
ATOM     41  C   UNL     1      -2.988 -13.954  14.084  1.00  0.00     0.010 A 
ATOM     42  C   UNL     1      -2.645 -12.346  15.861  1.00  0.00     0.010 A 
ATOM     43  C   UNL     1      -2.280 -13.542  15.226  1.00  0.00    -0.014 A 
BRANCH  43  44
ATOM     44  C   UNL     1      -1.146 -14.341  15.755  1.00  0.00     0.031 A 
ATOM     45  C   UNL     1      -1.212 -14.929  17.138  1.00  0.00     0.074 A 
ATOM     46  C   UNL     1      -0.030 -14.483  15.011  1.00  0.00     0.049 A 
ATOM     47  N   UNL     1      -0.313 -15.628  17.781  1.00  0.00    -0.248 NA
ATOM     48  C   UNL     1      -2.437 -14.671  17.913  1.00  0.00     0.031 C 
ATOM     49  C   UNL     1       0.182 -13.899  13.683  1.00  0.00     0.029 A 
ATOM     50  N   UNL     1       1.138 -15.158  15.264  1.00  0.00    -0.354 N 
ATOM     51  C   UNL     1      -0.857 -15.884  19.034  1.00  0.00     0.074 A 
ATOM     52  C   UNL     1      -2.136 -15.211  19.085  1.00  0.00     0.031 C 
ATOM     53  C   UNL     1       1.389 -14.269  13.227  1.00  0.00     0.029 A 
ATOM     54  C   UNL     1       2.052 -15.084  14.239  1.00  0.00     0.049 A 
ATOM     55  H   UNL     1       1.306 -15.648  16.101  1.00  0.00     0.167 HD
ATOM     56  C   UNL     1      -0.350 -16.636  20.041  1.00  0.00     0.037 A 
ATOM     57  C   UNL     1       3.286 -15.615  14.127  1.00  0.00     0.037 A 
ATOM     58  C   UNL     1       0.914 -17.322  19.973  1.00  0.00     0.049 A 
ATOM     59  C   UNL     1       3.822 -16.457  15.252  1.00  0.00     0.074 A 
ATOM     60  C   UNL     1       1.488 -18.163  20.909  1.00  0.00     0.029 A 
ATOM     61  N   UNL     1       1.803 -17.241  18.910  1.00  0.00    -0.354 N 
ATOM     62  N   UNL     1       3.258 -16.758  16.398  1.00  0.00    -0.248 NA
ATOM     63  C   UNL     1       5.158 -17.040  15.067  1.00  0.00     0.031 C 
ATOM     64  C   UNL     1       2.744 -18.554  20.434  1.00  0.00     0.029 A 
ATOM     65  C   UNL     1       2.932 -17.999  19.178  1.00  0.00     0.049 A 
ATOM     66  H   UNL     1       1.654 -16.722  18.087  1.00  0.00     0.167 HD
ATOM     67  C   UNL     1       4.161 -17.582  17.062  1.00  0.00     0.074 A 
ATOM     68  C   UNL     1       5.298 -17.747  16.180  1.00  0.00     0.031 C 
ATOM     69  C   UNL     1       4.058 -18.149  18.290  1.00  0.00     0.037 A 
BRANCH  56  70
ATOM     70  C   UNL     1      -1.170 -16.760  21.297  1.00  0.00     0.058 A 
ATOM     71  C   UNL     1      -2.380 -17.474  21.320  1.00  0.00     0.135 A 
ATOM     72  C   UNL     1      -0.731 -16.181  22.498  1.00  0.00     0.135 A 
ATOM     73  F   UNL     1      -2.856 -18.035  20.198  1.00  0.00    -0.206 F 
ATOM     74  C   UNL     1      -3.142 -17.579  22.479  1.00  0.00     0.059 A 
ATOM     75  C   UNL     1      -1.462 -16.299  23.677  1.00  0.00     0.059 A 
ATOM     76  F   UNL     1       0.417 -15.487  22.535  1.00  0.00    -0.206 F 
ATOM     77  C   UNL     1      -2.674 -16.987  23.653  1.00  0.00     0.060 A 
BRANCH  77  78
ATOM     78  S   UNL     1      -3.676 -17.133  25.148  1.00  0.00     0.124 S 
ATOM     79  O   UNL     1      -4.779 -16.224  24.849  1.00  0.00    -0.237 OA
ATOM     80  O   UNL     1      -4.011 -18.553  25.162  1.00  0.00    -0.237 OA
ATOM     81  O   UNL     1      -2.772 -16.695  26.207  1.00  0.00    -0.744 OA
ENDBRANCH  77  78
ENDBRANCH  56  70
BRANCH  57  82
ATOM     82  C   UNL     1       4.082 -15.391  12.890  1.00  0.00     0.058 A 
ATOM     83  C   UNL     1       4.318 -16.437  11.985  1.00  0.00     0.135 A 
ATOM     84  C   UNL     1       4.604 -14.127  12.577  1.00  0.00     0.135 A 
ATOM     85  F   UNL     1       3.845 -17.666  12.242  1.00  0.00    -0.206 F 
ATOM     86  C   UNL     1       5.057 -16.242  10.822  1.00  0.00     0.059 A 
ATOM     87  C   UNL     1       5.323 -13.901  11.407  1.00  0.00     0.059 A 
ATOM     88  F   UNL     1       4.392 -13.088  13.401  1.00  0.00    -0.206 F 
ATOM     89  C   UNL     1       5.552 -14.968  10.540  1.00  0.00     0.060 A 
BRANCH  89  90
ATOM     90  S   UNL     1       6.465 -14.716   9.002  1.00  0.00     0.124 S 
ATOM     91  O   UNL     1       7.725 -15.388   9.294  1.00  0.00    -0.237 OA
ATOM     92  O   UNL     1       5.603 -15.372   8.023  1.00  0.00    -0.237 OA
ATOM     93  O   UNL     1       6.535 -13.262   8.888  1.00  0.00    -0.744 OA
ENDBRANCH  89  90
ENDBRANCH  57  82
BRANCH  69  94
ATOM     94  C   UNL     1       5.198 -19.020  18.743  1.00  0.00     0.058 A 
ATOM     95  C   UNL     1       6.441 -18.478  19.105  1.00  0.00     0.135 A 
ATOM     96  C   UNL     1       5.031 -20.410  18.854  1.00  0.00     0.135 A 
ATOM     97  F   UNL     1       6.655 -17.156  19.013  1.00  0.00    -0.206 F 
ATOM     98  C   UNL     1       7.490 -19.287  19.530  1.00  0.00     0.059 A 
ATOM     99  C   UNL     1       6.056 -21.235  19.306  1.00  0.00     0.059 A 
ATOM    100  F   UNL     1       3.858 -20.979  18.533  1.00  0.00    -0.206 F 
ATOM    101  C   UNL     1       7.287 -20.665  19.627  1.00  0.00     0.060 A 
BRANCH 101 102
ATOM    102  S   UNL     1       8.650 -21.701  20.200  1.00  0.00     0.124 S 
ATOM    103  O   UNL     1       9.526 -21.706  19.033  1.00  0.00    -0.237 OA
ATOM    104  O   UNL     1       9.141 -20.961  21.358  1.00  0.00    -0.237 OA
ATOM    105  O   UNL     1       8.004 -22.974  20.506  1.00  0.00    -0.744 OA
ENDBRANCH 101 102
ENDBRANCH  69  94
ENDBRANCH  43  44
ENDBRANCH  35  38
ENDBRANCH  33  34
ENDBRANCH  32  33
ENDBRANCH  31  32
ENDBRANCH  30  31
ENDBRANCH  28  30
ENDBRANCH   1  26
TORSDOF 23
