REMARK SMILES C[NH2+]C[C@H]1CCCC[N@H+]1[C@H](C)[C@@H](C)C(=O)NCCCCNC(=O)c1ccc(-c2c3nc(c(-c4c(F)cc(S(=O)(=O)[O-])cc4F)c4ccc([nH]4)c(-c4c(F)cc(S(=O)(=O)[O-])cc4F)c4nc(c(-c5c(F)cc(S(=O)(=O)[O-])cc5F)c5ccc2[nH]5)C=C4)C=C3)cc1
REMARK SMILES IDX 18 1 17 2 16 3 14 4 15 5 12 7 13 8 10 9 11 10 9 11 4 12 5 13
REMARK SMILES IDX 6 14 8 15 7 17 3 18 2 19 1 20 19 23 20 24 21 25 22 26 23 28
REMARK SMILES IDX 24 29 25 30 89 31 26 32 88 33 27 34 28 35 29 36 82 37 30 38
REMARK SMILES IDX 87 39 81 40 83 41 31 42 86 43 80 44 79 45 32 47 66 48 45 49
REMARK SMILES IDX 65 50 46 51 49 52 64 53 84 54 47 55 48 56 63 58 85 59 50 60
REMARK SMILES IDX 33 61 34 62 43 63 35 64 36 65 42 66 44 67 37 68 38 69 39 70
REMARK SMILES IDX 40 71 41 72 67 73 68 74 77 75 69 76 70 77 76 78 78 79 71 80
REMARK SMILES IDX 72 81 73 82 74 83 75 84 51 85 52 86 61 87 53 88 54 89 60 90
REMARK SMILES IDX 62 91 55 92 56 93 57 94 58 95 59 96
REMARK H PARENT 16 6 9 16 2 21 2 22 21 27 83 46 49 57
REMARK Flexibility Score: inf
ROOT
ATOM      1  C   UNL     1      -5.746  -0.784   2.537  1.00  0.00     0.023 C 
ENDROOT
BRANCH   1   2
ATOM      2  C   UNL     1      -4.386  -1.448   2.771  1.00  0.00     0.116 C 
BRANCH   2   3
ATOM      3  N   UNL     1      -4.120  -2.541   1.855  1.00  0.00    -0.356 N 
ATOM      4  C   UNL     1      -3.294  -2.644   0.779  1.00  0.00     0.228 C 
ATOM      5  O   UNL     1      -3.239  -3.744   0.219  1.00  0.00    -0.275 OA
ATOM      6  H   UNL     1      -4.632  -3.360   2.047  1.00  0.00     0.163 HD
BRANCH   4   7
ATOM      7  C   UNL     1      -2.421  -1.489   0.272  1.00  0.00     0.133 C 
ATOM      8  C   UNL     1      -1.255  -1.333   1.258  1.00  0.00     0.024 C 
BRANCH   7   9
ATOM      9  C   UNL     1      -3.214  -0.188  -0.088  1.00  0.00     0.193 C 
ATOM     10  C   UNL     1      -2.386   1.095   0.118  1.00  0.00     0.076 C 
BRANCH   9  11
ATOM     11  N   UNL     1      -4.008  -0.197  -1.349  1.00  0.00    -0.325 N 
ATOM     12  C   UNL     1      -3.482   0.516  -2.531  1.00  0.00     0.239 C 
ATOM     13  C   UNL     1      -4.623   0.676  -3.563  1.00  0.00     0.071 C 
ATOM     14  C   UNL     1      -5.217  -0.659  -3.982  1.00  0.00     0.012 C 
ATOM     15  C   UNL     1      -4.657  -1.479  -1.663  1.00  0.00     0.262 C 
ATOM     16  H   UNL     1      -4.754   0.441  -1.069  1.00  0.00     0.348 HD
ATOM     17  C   UNL     1      -5.727  -1.383  -2.750  1.00  0.00     0.062 C 
BRANCH  12  18
ATOM     18  C   UNL     1      -2.189  -0.107  -3.147  1.00  0.00     0.326 C 
BRANCH  18  19
ATOM     19  N   UNL     1      -1.688   0.496  -4.394  1.00  0.00    -0.344 N 
ATOM     20  C   UNL     1      -1.381   1.913  -4.268  1.00  0.00     0.331 C 
ATOM     21  H   UNL     1      -0.838   0.004  -4.671  1.00  0.00     0.346 HD
ATOM     22  H   UNL     1      -2.428   0.409  -5.090  1.00  0.00     0.346 HD
ENDBRANCH  18  19
ENDBRANCH  12  18
ENDBRANCH   9  11
ENDBRANCH   7   9
ENDBRANCH   4   7
ENDBRANCH   2   3
ENDBRANCH   1   2
BRANCH   1  23
ATOM     23  C   UNL     1      -6.968  -1.663   2.793  1.00  0.00     0.023 C 
BRANCH  23  24
ATOM     24  C   UNL     1      -7.007  -2.355   4.148  1.00  0.00     0.116 C 
BRANCH  24  25
ATOM     25  N   UNL     1      -6.860  -1.440   5.270  1.00  0.00    -0.352 N 
ATOM     26  C   UNL     1      -7.508  -1.453   6.482  1.00  0.00     0.251 C 
ATOM     27  H   UNL     1      -6.208  -0.713   5.143  1.00  0.00     0.163 HD
ATOM     28  O   UNL     1      -7.321  -0.545   7.287  1.00  0.00    -0.269 OA
BRANCH  26  29
ATOM     29  C   UNL     1      -8.461  -2.540   6.788  1.00  0.00     0.039 A 
ATOM     30  C   UNL     1      -9.722  -2.208   7.290  1.00  0.00     0.014 A 
ATOM     31  C   UNL     1      -8.129  -3.875   6.542  1.00  0.00     0.014 A 
ATOM     32  C   UNL     1     -10.677  -3.209   7.473  1.00  0.00     0.010 A 
ATOM     33  C   UNL     1      -9.105  -4.860   6.653  1.00  0.00     0.010 A 
ATOM     34  C   UNL     1     -10.389  -4.537   7.118  1.00  0.00    -0.014 A 
BRANCH  34  35
ATOM     35  C   UNL     1     -11.417  -5.603   7.219  1.00  0.00     0.031 A 
ATOM     36  C   UNL     1     -11.219  -6.750   8.170  1.00  0.00     0.074 A 
ATOM     37  C   UNL     1     -12.490  -5.574   6.406  1.00  0.00     0.049 A 
ATOM     38  N   UNL     1     -11.964  -7.810   8.352  1.00  0.00    -0.248 NA
ATOM     39  C   UNL     1     -10.009  -6.715   9.006  1.00  0.00     0.031 C 
ATOM     40  C   UNL     1     -12.770  -4.539   5.409  1.00  0.00     0.029 A 
ATOM     41  N   UNL     1     -13.544  -6.445   6.284  1.00  0.00    -0.354 N 
ATOM     42  C   UNL     1     -11.307  -8.573   9.310  1.00  0.00     0.074 A 
ATOM     43  C   UNL     1     -10.076  -7.882   9.628  1.00  0.00     0.031 C 
ATOM     44  C   UNL     1     -13.933  -4.818   4.798  1.00  0.00     0.029 A 
ATOM     45  C   UNL     1     -14.463  -6.069   5.333  1.00  0.00     0.049 A 
ATOM     46  H   UNL     1     -13.633  -7.261   6.826  1.00  0.00     0.167 HD
ATOM     47  C   UNL     1     -11.703  -9.732   9.889  1.00  0.00     0.037 A 
ATOM     48  C   UNL     1     -15.603  -6.666   4.936  1.00  0.00     0.037 A 
ATOM     49  C   UNL     1     -12.938 -10.404   9.583  1.00  0.00     0.049 A 
ATOM     50  C   UNL     1     -16.024  -7.953   5.590  1.00  0.00     0.074 A 
ATOM     51  C   UNL     1     -13.458 -11.554  10.151  1.00  0.00     0.029 A 
ATOM     52  N   UNL     1     -13.849  -9.986   8.623  1.00  0.00    -0.354 N 
ATOM     53  N   UNL     1     -15.418  -8.633   6.533  1.00  0.00    -0.248 NA
ATOM     54  C   UNL     1     -17.284  -8.551   5.128  1.00  0.00     0.031 C 
ATOM     55  C   UNL     1     -14.666 -11.851   9.509  1.00  0.00     0.029 A 
ATOM     56  C   UNL     1     -14.919 -10.864   8.570  1.00  0.00     0.049 A 
ATOM     57  H   UNL     1     -13.749  -9.184   8.061  1.00  0.00     0.167 HD
ATOM     58  C   UNL     1     -16.235  -9.727   6.797  1.00  0.00     0.074 A 
ATOM     59  C   UNL     1     -17.382  -9.612   5.918  1.00  0.00     0.031 C 
ATOM     60  C   UNL     1     -16.054 -10.733   7.689  1.00  0.00     0.037 A 
BRANCH  47  61
ATOM     61  C   UNL     1     -10.782 -10.337  10.913  1.00  0.00     0.058 A 
ATOM     62  C   UNL     1     -10.581  -9.736  12.167  1.00  0.00     0.135 A 
ATOM     63  C   UNL     1     -10.082 -11.521  10.636  1.00  0.00     0.135 A 
ATOM     64  F   UNL     1     -11.214  -8.594  12.479  1.00  0.00    -0.206 F 
ATOM     65  C   UNL     1      -9.682 -10.261  13.089  1.00  0.00     0.059 A 
ATOM     66  C   UNL     1      -9.199 -12.080  11.556  1.00  0.00     0.059 A 
ATOM     67  F   UNL     1     -10.238 -12.139   9.454  1.00  0.00    -0.206 F 
ATOM     68  C   UNL     1      -8.988 -11.428  12.770  1.00  0.00     0.060 A 
BRANCH  68  69
ATOM     69  S   UNL     1      -7.797 -12.079  13.961  1.00  0.00     0.124 S 
ATOM     70  O   UNL     1      -6.676 -11.162  13.778  1.00  0.00    -0.237 OA
ATOM     71  O   UNL     1      -8.516 -11.955  15.225  1.00  0.00    -0.237 OA
ATOM     72  O   UNL     1      -7.572 -13.446  13.503  1.00  0.00    -0.744 OA
ENDBRANCH  68  69
ENDBRANCH  47  61
BRANCH  48  73
ATOM     73  C   UNL     1     -16.448  -6.023   3.895  1.00  0.00     0.058 A 
ATOM     74  C   UNL     1     -17.657  -5.402   4.240  1.00  0.00     0.135 A 
ATOM     75  C   UNL     1     -16.049  -5.980   2.551  1.00  0.00     0.135 A 
ATOM     76  F   UNL     1     -18.082  -5.423   5.513  1.00  0.00    -0.206 F 
ATOM     77  C   UNL     1     -18.446  -4.764   3.289  1.00  0.00     0.059 A 
ATOM     78  C   UNL     1     -16.811  -5.329   1.584  1.00  0.00     0.059 A 
ATOM     79  F   UNL     1     -14.893  -6.546   2.173  1.00  0.00    -0.206 F 
ATOM     80  C   UNL     1     -18.011  -4.727   1.964  1.00  0.00     0.060 A 
BRANCH  80  81
ATOM     81  S   UNL     1     -19.006  -3.832   0.751  1.00  0.00     0.124 S 
ATOM     82  O   UNL     1     -20.131  -4.741   0.566  1.00  0.00    -0.237 OA
ATOM     83  O   UNL     1     -19.299  -2.587   1.454  1.00  0.00    -0.237 OA
ATOM     84  O   UNL     1     -18.105  -3.700  -0.390  1.00  0.00    -0.744 OA
ENDBRANCH  80  81
ENDBRANCH  48  73
BRANCH  60  85
ATOM     85  C   UNL     1     -17.133 -11.775   7.781  1.00  0.00     0.058 A 
ATOM     86  C   UNL     1     -17.295 -12.756   6.790  1.00  0.00     0.135 A 
ATOM     87  C   UNL     1     -17.981 -11.823   8.899  1.00  0.00     0.135 A 
ATOM     88  F   UNL     1     -16.515 -12.749   5.698  1.00  0.00    -0.206 F 
ATOM     89  C   UNL     1     -18.275 -13.738   6.896  1.00  0.00     0.059 A 
ATOM     90  C   UNL     1     -18.951 -12.810   9.037  1.00  0.00     0.059 A 
ATOM     91  F   UNL     1     -17.860 -10.913   9.878  1.00  0.00    -0.206 F 
ATOM     92  C   UNL     1     -19.097 -13.758   8.024  1.00  0.00     0.060 A 
BRANCH  92  93
ATOM     93  S   UNL     1     -20.341 -15.059   8.168  1.00  0.00     0.124 S 
ATOM     94  O   UNL     1     -21.359 -14.597   7.231  1.00  0.00    -0.237 OA
ATOM     95  O   UNL     1     -19.599 -16.249   7.763  1.00  0.00    -0.237 OA
ATOM     96  O   UNL     1     -20.717 -15.014   9.578  1.00  0.00    -0.744 OA
ENDBRANCH  92  93
ENDBRANCH  60  85
ENDBRANCH  34  35
ENDBRANCH  26  29
ENDBRANCH  24  25
ENDBRANCH  23  24
ENDBRANCH   1  23
TORSDOF 18
