REMARK SMILES C/C(=C(/F)C(=O)NCCCCNC(=O)c1ccc(-c2c3nc(c(-c4c(F)cc(S(=O)(=O)[O-])cc4F)c4ccc([nH]4)c(-c4c(F)cc(S(=O)(=O)[O-])cc4F)c4nc(c(-c5c(F)cc(S(=O)(=O)[O-])cc5F)c5ccc2[nH]5)C=C4)C=C3)cc1)c1ccccc1F
REMARK SMILES IDX 10 1 9 2 8 3 7 4 5 5 6 6 3 8 1 9 2 10 4 11 81 12 82 13 86 14
REMARK SMILES IDX 83 15 85 16 87 17 84 18 11 19 12 20 13 21 14 23 15 24 16 25
REMARK SMILES IDX 80 26 17 27 79 28 18 29 19 30 20 31 73 32 21 33 78 34 72 35
REMARK SMILES IDX 74 36 22 37 77 38 71 39 70 40 23 42 57 43 36 44 56 45 37 46
REMARK SMILES IDX 40 47 55 48 75 49 38 50 39 51 54 53 76 54 41 55 24 56 25 57
REMARK SMILES IDX 34 58 26 59 27 60 33 61 35 62 28 63 29 64 30 65 31 66 32 67
REMARK SMILES IDX 58 68 59 69 68 70 60 71 61 72 67 73 69 74 62 75 63 76 64 77
REMARK SMILES IDX 65 78 66 79 42 80 43 81 52 82 44 83 45 84 51 85 53 86 46 87
REMARK SMILES IDX 47 88 48 89 49 90 50 91
REMARK H PARENT 7 7 12 22 74 41 40 52
REMARK Flexibility Score: inf
ROOT
ATOM      1  C   UNL     1      -1.814  -3.962   5.185  1.00  0.00     0.023 C 
ENDROOT
BRANCH   1   2
ATOM      2  C   UNL     1      -1.446  -4.362   3.751  1.00  0.00     0.023 C 
BRANCH   2   3
ATOM      3  C   UNL     1      -2.062  -3.477   2.669  1.00  0.00     0.116 C 
BRANCH   3   4
ATOM      4  N   UNL     1      -1.532  -2.125   2.734  1.00  0.00    -0.350 N 
ATOM      5  C   UNL     1      -0.672  -1.427   1.937  1.00  0.00     0.280 C 
ATOM      6  O   UNL     1      -0.376  -0.291   2.305  1.00  0.00    -0.267 OA
ATOM      7  H   UNL     1      -1.859  -1.610   3.507  1.00  0.00     0.163 HD
BRANCH   5   8
ATOM      8  C   UNL     1      -0.152  -2.016   0.663  1.00  0.00     0.191 C 
ATOM      9  C   UNL     1       1.014   0.052  -0.285  1.00  0.00     0.048 C 
ATOM     10  C   UNL     1       0.538  -1.375  -0.303  1.00  0.00     0.001 C 
ATOM     11  F   UNL     1      -0.414  -3.330   0.489  1.00  0.00    -0.201 F 
BRANCH  10  12
ATOM     12  C   UNL     1       0.867  -2.128  -1.542  1.00  0.00     0.016 A 
ATOM     13  C   UNL     1      -0.158  -2.752  -2.278  1.00  0.00     0.011 A 
ATOM     14  C   UNL     1       2.175  -2.226  -2.031  1.00  0.00     0.130 A 
ATOM     15  C   UNL     1       0.126  -3.469  -3.443  1.00  0.00     0.001 A 
ATOM     16  C   UNL     1       2.463  -2.936  -3.197  1.00  0.00     0.040 A 
ATOM     17  F   UNL     1       3.194  -1.651  -1.376  1.00  0.00    -0.206 F 
ATOM     18  C   UNL     1       1.438  -3.563  -3.902  1.00  0.00     0.003 A 
ENDBRANCH  10  12
ENDBRANCH   5   8
ENDBRANCH   3   4
ENDBRANCH   2   3
ENDBRANCH   1   2
BRANCH   1  19
ATOM     19  C   UNL     1      -3.310  -3.865   5.477  1.00  0.00     0.116 C 
BRANCH  19  20
ATOM     20  N   UNL     1      -4.021  -5.102   5.197  1.00  0.00    -0.352 N 
ATOM     21  C   UNL     1      -4.993  -5.735   5.930  1.00  0.00     0.251 C 
ATOM     22  H   UNL     1      -3.769  -5.551   4.358  1.00  0.00     0.163 HD
ATOM     23  O   UNL     1      -5.371  -6.856   5.584  1.00  0.00    -0.269 OA
BRANCH  21  24
ATOM     24  C   UNL     1      -5.564  -5.101   7.139  1.00  0.00     0.039 A 
ATOM     25  C   UNL     1      -5.789  -5.896   8.265  1.00  0.00     0.014 A 
ATOM     26  C   UNL     1      -5.895  -3.743   7.169  1.00  0.00     0.014 A 
ATOM     27  C   UNL     1      -6.296  -5.321   9.432  1.00  0.00     0.010 A 
ATOM     28  C   UNL     1      -6.329  -3.156   8.357  1.00  0.00     0.010 A 
ATOM     29  C   UNL     1      -6.542  -3.939   9.501  1.00  0.00    -0.014 A 
BRANCH  29  30
ATOM     30  C   UNL     1      -7.009  -3.317  10.769  1.00  0.00     0.031 A 
ATOM     31  C   UNL     1      -8.360  -2.658  10.852  1.00  0.00     0.074 A 
ATOM     32  C   UNL     1      -6.199  -3.331  11.847  1.00  0.00     0.049 A 
ATOM     33  N   UNL     1      -8.942  -2.098  11.882  1.00  0.00    -0.248 NA
ATOM     34  C   UNL     1      -9.153  -2.598   9.614  1.00  0.00     0.031 C 
ATOM     35  C   UNL     1      -4.841  -3.880  11.876  1.00  0.00     0.029 A 
ATOM     36  N   UNL     1      -6.398  -2.876  13.127  1.00  0.00    -0.354 N 
ATOM     37  C   UNL     1     -10.163  -1.620  11.418  1.00  0.00     0.074 A 
ATOM     38  C   UNL     1     -10.211  -1.900  10.000  1.00  0.00     0.031 C 
ATOM     39  C   UNL     1      -4.346  -3.768  13.119  1.00  0.00     0.029 A 
ATOM     40  C   UNL     1      -5.335  -3.110  13.968  1.00  0.00     0.049 A 
ATOM     41  H   UNL     1      -7.224  -2.425  13.416  1.00  0.00     0.167 HD
ATOM     42  C   UNL     1     -11.164  -1.029  12.115  1.00  0.00     0.037 A 
ATOM     43  C   UNL     1      -5.175  -2.833  15.277  1.00  0.00     0.037 A 
ATOM     44  C   UNL     1     -11.116  -0.767  13.531  1.00  0.00     0.049 A 
ATOM     45  C   UNL     1      -6.306  -2.186  16.030  1.00  0.00     0.074 A 
ATOM     46  C   UNL     1     -12.099  -0.221  14.339  1.00  0.00     0.029 A 
ATOM     47  N   UNL     1     -10.027  -1.028  14.351  1.00  0.00    -0.354 N 
ATOM     48  N   UNL     1      -7.484  -1.811  15.590  1.00  0.00    -0.248 NA
ATOM     49  C   UNL     1      -6.091  -1.938  17.462  1.00  0.00     0.031 C 
ATOM     50  C   UNL     1     -11.587  -0.108  15.637  1.00  0.00     0.029 A 
ATOM     51  C   UNL     1     -10.306  -0.636  15.651  1.00  0.00     0.049 A 
ATOM     52  H   UNL     1      -9.181  -1.433  14.053  1.00  0.00     0.167 HD
ATOM     53  C   UNL     1      -8.159  -1.307  16.696  1.00  0.00     0.074 A 
ATOM     54  C   UNL     1      -7.266  -1.446  17.828  1.00  0.00     0.031 C 
ATOM     55  C   UNL     1      -9.406  -0.777  16.769  1.00  0.00     0.037 A 
BRANCH  42  56
ATOM     56  C   UNL     1     -12.404  -0.632  11.357  1.00  0.00     0.058 A 
ATOM     57  C   UNL     1     -13.289  -1.591  10.837  1.00  0.00     0.135 A 
ATOM     58  C   UNL     1     -12.736   0.722  11.186  1.00  0.00     0.135 A 
ATOM     59  F   UNL     1     -13.016  -2.900  10.958  1.00  0.00    -0.206 F 
ATOM     60  C   UNL     1     -14.442  -1.223  10.151  1.00  0.00     0.059 A 
ATOM     61  C   UNL     1     -13.900   1.113  10.529  1.00  0.00     0.059 A 
ATOM     62  F   UNL     1     -11.929   1.683  11.662  1.00  0.00    -0.206 F 
ATOM     63  C   UNL     1     -14.740   0.132  10.003  1.00  0.00     0.060 A 
BRANCH  63  64
ATOM     64  S   UNL     1     -16.246   0.591   9.119  1.00  0.00     0.124 S 
ATOM     65  O   UNL     1     -15.889   0.258   7.743  1.00  0.00    -0.237 OA
ATOM     66  O   UNL     1     -17.247  -0.272   9.740  1.00  0.00    -0.237 OA
ATOM     67  O   UNL     1     -16.388   2.015   9.402  1.00  0.00    -0.744 OA
ENDBRANCH  63  64
ENDBRANCH  42  56
BRANCH  43  68
ATOM     68  C   UNL     1      -3.908  -3.199  15.967  1.00  0.00     0.058 A 
ATOM     69  C   UNL     1      -3.875  -4.219  16.929  1.00  0.00     0.135 A 
ATOM     70  C   UNL     1      -2.704  -2.538  15.675  1.00  0.00     0.135 A 
ATOM     71  F   UNL     1      -5.001  -4.878  17.247  1.00  0.00    -0.206 F 
ATOM     72  C   UNL     1      -2.702  -4.557  17.595  1.00  0.00     0.059 A 
ATOM     73  C   UNL     1      -1.512  -2.878  16.306  1.00  0.00     0.059 A 
ATOM     74  F   UNL     1      -2.677  -1.567  14.749  1.00  0.00    -0.206 F 
ATOM     75  C   UNL     1      -1.524  -3.881  17.275  1.00  0.00     0.060 A 
BRANCH  75  76
ATOM     76  S   UNL     1       0.003  -4.354  18.116  1.00  0.00     0.124 S 
ATOM     77  O   UNL     1      -0.214  -3.806  19.450  1.00  0.00    -0.237 OA
ATOM     78  O   UNL     1      -0.028  -5.809  18.010  1.00  0.00    -0.237 OA
ATOM     79  O   UNL     1       1.039  -3.697  17.324  1.00  0.00    -0.744 OA
ENDBRANCH  75  76
ENDBRANCH  43  68
BRANCH  55  80
ATOM     80  C   UNL     1      -9.887  -0.337  18.126  1.00  0.00     0.058 A 
ATOM     81  C   UNL     1      -9.349   0.785  18.776  1.00  0.00     0.135 A 
ATOM     82  C   UNL     1     -10.912  -1.042  18.779  1.00  0.00     0.135 A 
ATOM     83  F   UNL     1      -8.366   1.494  18.198  1.00  0.00    -0.206 F 
ATOM     84  C   UNL     1      -9.776   1.165  20.044  1.00  0.00     0.059 A 
ATOM     85  C   UNL     1     -11.378  -0.660  20.033  1.00  0.00     0.059 A 
ATOM     86  F   UNL     1     -11.473  -2.114  18.198  1.00  0.00    -0.206 F 
ATOM     87  C   UNL     1     -10.789   0.433  20.666  1.00  0.00     0.060 A 
BRANCH  87  88
ATOM     88  S   UNL     1     -11.332   0.934  22.313  1.00  0.00     0.124 S 
ATOM     89  O   UNL     1     -10.218   0.482  23.140  1.00  0.00    -0.237 OA
ATOM     90  O   UNL     1     -11.470   2.380  22.172  1.00  0.00    -0.237 OA
ATOM     91  O   UNL     1     -12.584   0.206  22.494  1.00  0.00    -0.744 OA
ENDBRANCH  87  88
ENDBRANCH  55  80
ENDBRANCH  29  30
ENDBRANCH  21  24
ENDBRANCH  19  20
ENDBRANCH   1  19
TORSDOF 15
