REMARK SMILES Cc1ccc(C(=O)NCCCCNC(=O)c2ccc(-c3c4nc(c(-c5c(F)cc(S(=O)(=O)[O-])cc5F)c5ccc([nH]5)c(-c5c(F)cc(S(=O)(=O)[O-])cc5F)c5nc(c(-c6c(F)cc(S(=O)(=O)[O-])cc6F)c6ccc3[nH]6)C=C5)C=C4)cc2)c2c1N[C@H](c1ccccc1F)[C@H]1CC=C[C@@H]21
REMARK SMILES IDX 11 1 10 2 9 3 8 4 6 5 7 6 5 8 1 9 2 10 3 11 83 12 4 13 82 14
REMARK SMILES IDX 84 15 97 16 85 17 93 19 96 20 94 21 95 22 86 23 87 24 91 25
REMARK SMILES IDX 88 26 90 27 92 28 89 29 12 30 13 31 14 32 15 34 16 35 17 36
REMARK SMILES IDX 81 37 18 38 80 39 19 40 20 41 21 42 74 43 22 44 79 45 73 46
REMARK SMILES IDX 75 47 23 48 78 49 72 50 71 51 24 53 58 54 37 55 57 56 38 57
REMARK SMILES IDX 41 58 56 59 76 60 39 61 40 62 55 64 77 65 42 66 25 67 26 68
REMARK SMILES IDX 35 69 27 70 28 71 34 72 36 73 29 74 30 75 31 76 32 77 33 78
REMARK SMILES IDX 59 79 60 80 69 81 61 82 62 83 68 84 70 85 63 86 64 87 65 88
REMARK SMILES IDX 66 89 67 90 43 91 44 92 53 93 45 94 46 95 52 96 54 97 47 98
REMARK SMILES IDX 48 99 49 100 50 101 51 102
REMARK H PARENT 8 7 84 18 13 33 75 52 41 63
REMARK Flexibility Score: inf
ROOT
ATOM      1  C   UNL     1      -1.303  -7.780   1.664  1.00  0.00     0.023 C 
ENDROOT
BRANCH   1   2
ATOM      2  C   UNL     1      -0.504  -6.472   1.633  1.00  0.00     0.023 C 
BRANCH   2   3
ATOM      3  C   UNL     1       0.447  -6.345   0.438  1.00  0.00     0.116 C 
BRANCH   3   4
ATOM      4  N   UNL     1      -0.313  -6.143  -0.776  1.00  0.00    -0.352 N 
ATOM      5  C   UNL     1      -0.813  -5.040  -1.419  1.00  0.00     0.251 C 
ATOM      6  O   UNL     1      -1.608  -5.302  -2.320  1.00  0.00    -0.269 OA
ATOM      7  H   UNL     1      -0.517  -6.985  -1.244  1.00  0.00     0.163 HD
BRANCH   5   8
ATOM      8  C   UNL     1      -0.433  -3.612  -1.101  1.00  0.00     0.045 A 
ATOM      9  C   UNL     1       0.881   0.394  -0.070  1.00  0.00     0.046 C 
ATOM     10  C   UNL     1       0.313  -0.947  -0.461  1.00  0.00    -0.028 A 
ATOM     11  C   UNL     1       0.367  -1.958   0.498  1.00  0.00     0.006 A 
ATOM     12  C   UNL     1      -0.187  -1.238  -1.748  1.00  0.00     0.042 A 
ATOM     13  C   UNL     1      -0.041  -3.252   0.191  1.00  0.00     0.014 A 
ATOM     14  C   UNL     1      -0.526  -2.579  -2.084  1.00  0.00    -0.005 A 
ATOM     15  N   UNL     1      -0.314  -0.218  -2.676  1.00  0.00    -0.377 N 
ATOM     16  C   UNL     1      -1.063  -2.860  -3.474  1.00  0.00     0.050 C 
ATOM     17  C   UNL     1      -0.480  -0.465  -4.098  1.00  0.00     0.117 C 
ATOM     18  H   UNL     1      -0.291   0.713  -2.359  1.00  0.00     0.161 HD
ATOM     19  C   UNL     1      -1.453  -1.630  -4.317  1.00  0.00     0.031 C 
ATOM     20  C   UNL     1      -0.129  -3.584  -4.408  1.00  0.00    -0.023 C 
ATOM     21  C   UNL     1      -1.385  -2.153  -5.765  1.00  0.00     0.034 C 
ATOM     22  C   UNL     1      -0.326  -3.207  -5.678  1.00  0.00    -0.030 C 
BRANCH  17  23
ATOM     23  C   UNL     1      -0.828   0.862  -4.769  1.00  0.00     0.010 A 
ATOM     24  C   UNL     1       0.173   1.852  -4.847  1.00  0.00     0.009 A 
ATOM     25  C   UNL     1      -2.083   1.179  -5.305  1.00  0.00     0.128 A 
ATOM     26  C   UNL     1      -0.076   3.093  -5.442  1.00  0.00     0.001 A 
ATOM     27  C   UNL     1      -2.335   2.414  -5.903  1.00  0.00     0.039 A 
ATOM     28  F   UNL     1      -3.097   0.305  -5.280  1.00  0.00    -0.207 F 
ATOM     29  C   UNL     1      -1.331   3.373  -5.973  1.00  0.00     0.003 A 
ENDBRANCH  17  23
ENDBRANCH   5   8
ENDBRANCH   3   4
ENDBRANCH   2   3
ENDBRANCH   1   2
BRANCH   1  30
ATOM     30  C   UNL     1      -0.457  -9.045   1.750  1.00  0.00     0.116 C 
BRANCH  30  31
ATOM     31  N   UNL     1       0.443  -9.034   2.892  1.00  0.00    -0.352 N 
ATOM     32  C   UNL     1       0.800 -10.085   3.697  1.00  0.00     0.251 C 
ATOM     33  H   UNL     1       0.845  -8.163   3.115  1.00  0.00     0.163 HD
ATOM     34  O   UNL     1       1.472  -9.903   4.703  1.00  0.00    -0.269 OA
BRANCH  32  35
ATOM     35  C   UNL     1       0.335 -11.436   3.335  1.00  0.00     0.039 A 
ATOM     36  C   UNL     1      -0.405 -12.167   4.266  1.00  0.00     0.014 A 
ATOM     37  C   UNL     1       0.608 -11.952   2.064  1.00  0.00     0.014 A 
ATOM     38  C   UNL     1      -0.905 -13.417   3.909  1.00  0.00     0.010 A 
ATOM     39  C   UNL     1       0.075 -13.182   1.697  1.00  0.00     0.010 A 
ATOM     40  C   UNL     1      -0.675 -13.926   2.621  1.00  0.00    -0.014 A 
BRANCH  40  41
ATOM     41  C   UNL     1      -1.158 -15.271   2.240  1.00  0.00     0.031 A 
ATOM     42  C   UNL     1      -0.167 -16.391   2.104  1.00  0.00     0.074 A 
ATOM     43  C   UNL     1      -2.464 -15.471   1.988  1.00  0.00     0.049 A 
ATOM     44  N   UNL     1      -0.365 -17.626   1.728  1.00  0.00    -0.248 NA
ATOM     45  C   UNL     1       1.236 -16.071   2.415  1.00  0.00     0.031 C 
ATOM     46  C   UNL     1      -3.510 -14.450   2.074  1.00  0.00     0.029 A 
ATOM     47  N   UNL     1      -3.134 -16.603   1.601  1.00  0.00    -0.354 N 
ATOM     48  C   UNL     1       0.884 -18.232   1.760  1.00  0.00     0.074 A 
ATOM     49  C   UNL     1       1.842 -17.216   2.140  1.00  0.00     0.031 C 
ATOM     50  C   UNL     1      -4.692 -15.007   1.762  1.00  0.00     0.029 A 
ATOM     51  C   UNL     1      -4.484 -16.414   1.431  1.00  0.00     0.049 A 
ATOM     52  H   UNL     1      -2.689 -17.470   1.459  1.00  0.00     0.167 HD
ATOM     53  C   UNL     1       1.200 -19.526   1.519  1.00  0.00     0.037 A 
ATOM     54  C   UNL     1      -5.440 -17.282   1.049  1.00  0.00     0.037 A 
ATOM     55  C   UNL     1       0.241 -20.532   1.153  1.00  0.00     0.049 A 
ATOM     56  C   UNL     1      -5.058 -18.706   0.750  1.00  0.00     0.074 A 
ATOM     57  C   UNL     1       0.452 -21.878   0.914  1.00  0.00     0.029 A 
ATOM     58  N   UNL     1      -1.115 -20.300   0.973  1.00  0.00    -0.354 N 
ATOM     59  N   UNL     1      -3.876 -19.273   0.813  1.00  0.00    -0.248 NA
ATOM     60  C   UNL     1      -6.138 -19.609   0.329  1.00  0.00     0.031 C 
ATOM     61  C   UNL     1      -0.773 -22.455   0.562  1.00  0.00     0.029 A 
ATOM     62  C   UNL     1      -1.752 -21.475   0.613  1.00  0.00     0.049 A 
ATOM     63  H   UNL     1      -1.558 -19.429   1.086  1.00  0.00     0.167 HD
ATOM     64  C   UNL     1      -4.072 -20.601   0.452  1.00  0.00     0.074 A 
ATOM     65  C   UNL     1      -5.488 -20.756   0.187  1.00  0.00     0.031 C 
ATOM     66  C   UNL     1      -3.163 -21.602   0.347  1.00  0.00     0.037 A 
BRANCH  53  67
ATOM     67  C   UNL     1       2.643 -19.917   1.659  1.00  0.00     0.058 A 
ATOM     68  C   UNL     1       3.250 -20.020   2.921  1.00  0.00     0.135 A 
ATOM     69  C   UNL     1       3.425 -20.199   0.529  1.00  0.00     0.135 A 
ATOM     70  F   UNL     1       2.551 -19.739   4.033  1.00  0.00    -0.206 F 
ATOM     71  C   UNL     1       4.590 -20.366   3.057  1.00  0.00     0.059 A 
ATOM     72  C   UNL     1       4.762 -20.568   0.642  1.00  0.00     0.059 A 
ATOM     73  F   UNL     1       2.894 -20.108  -0.700  1.00  0.00    -0.206 F 
ATOM     74  C   UNL     1       5.339 -20.635   1.911  1.00  0.00     0.060 A 
BRANCH  74  75
ATOM     75  S   UNL     1       7.078 -21.079   2.104  1.00  0.00     0.124 S 
ATOM     76  O   UNL     1       7.670 -19.791   2.453  1.00  0.00    -0.237 OA
ATOM     77  O   UNL     1       7.031 -22.066   3.178  1.00  0.00    -0.237 OA
ATOM     78  O   UNL     1       7.443 -21.602   0.792  1.00  0.00    -0.744 OA
ENDBRANCH  74  75
ENDBRANCH  53  67
BRANCH  54  79
ATOM     79  C   UNL     1      -6.853 -16.835   0.952  1.00  0.00     0.058 A 
ATOM     80  C   UNL     1      -7.797 -17.233   1.909  1.00  0.00     0.135 A 
ATOM     81  C   UNL     1      -7.285 -15.992  -0.084  1.00  0.00     0.135 A 
ATOM     82  F   UNL     1      -7.431 -18.044   2.914  1.00  0.00    -0.206 F 
ATOM     83  C   UNL     1      -9.123 -16.819   1.841  1.00  0.00     0.059 A 
ATOM     84  C   UNL     1      -8.602 -15.550  -0.164  1.00  0.00     0.059 A 
ATOM     85  F   UNL     1      -6.416 -15.575  -1.017  1.00  0.00    -0.206 F 
ATOM     86  C   UNL     1      -9.515 -15.975   0.801  1.00  0.00     0.060 A 
BRANCH  86  87
ATOM     87  S   UNL     1     -11.228 -15.401   0.754  1.00  0.00     0.124 S 
ATOM     88  O   UNL     1     -11.930 -16.608   0.334  1.00  0.00    -0.237 OA
ATOM     89  O   UNL     1     -11.448 -14.982   2.135  1.00  0.00    -0.237 OA
ATOM     90  O   UNL     1     -11.191 -14.318  -0.224  1.00  0.00    -0.744 OA
ENDBRANCH  86  87
ENDBRANCH  54  79
BRANCH  66  91
ATOM     91  C   UNL     1      -3.674 -22.951  -0.068  1.00  0.00     0.058 A 
ATOM     92  C   UNL     1      -4.018 -23.222  -1.400  1.00  0.00     0.135 A 
ATOM     93  C   UNL     1      -3.766 -23.997   0.864  1.00  0.00     0.135 A 
ATOM     94  F   UNL     1      -3.952 -22.252  -2.326  1.00  0.00    -0.206 F 
ATOM     95  C   UNL     1      -4.454 -24.483  -1.794  1.00  0.00     0.059 A 
ATOM     96  C   UNL     1      -4.179 -25.271   0.488  1.00  0.00     0.059 A 
ATOM     97  F   UNL     1      -3.438 -23.789   2.149  1.00  0.00    -0.206 F 
ATOM     98  C   UNL     1      -4.531 -25.501  -0.842  1.00  0.00     0.060 A 
BRANCH  98  99
ATOM     99  S   UNL     1      -5.063 -27.143  -1.372  1.00  0.00     0.124 S 
ATOM    100  O   UNL     1      -6.501 -26.949  -1.527  1.00  0.00    -0.237 OA
ATOM    101  O   UNL     1      -4.312 -27.332  -2.609  1.00  0.00    -0.237 OA
ATOM    102  O   UNL     1      -4.661 -28.004  -0.264  1.00  0.00    -0.744 OA
ENDBRANCH  98  99
ENDBRANCH  66  91
ENDBRANCH  40  41
ENDBRANCH  32  35
ENDBRANCH  30  31
ENDBRANCH   1  30
TORSDOF 15
