REMARK SMILES CC(C)(CNC(=O)NCc1cccs1)C(=O)NCCCCNC(=O)c1ccc(-c2c3nc(c(-c4c(F)cc(S(=O)(=O)[O-])cc4F)c4ccc([nH]4)c(-c4c(F)cc(S(=O)(=O)[O-])cc4F)c4nc(c(-c5c(F)cc(S(=O)(=O)[O-])cc5F)c5ccc2[nH]5)C=C4)C=C3)cc1
REMARK SMILES IDX 19 1 18 2 17 3 15 4 16 5 2 7 1 8 3 9 4 10 5 11 6 12 7 14
REMARK SMILES IDX 8 15 9 17 10 18 11 19 14 20 12 21 13 22 20 23 21 24 22 25
REMARK SMILES IDX 23 26 24 28 25 29 26 30 90 31 27 32 89 33 28 34 29 35 30 36
REMARK SMILES IDX 83 37 31 38 88 39 82 40 84 41 32 42 87 43 81 44 80 45 33 47
REMARK SMILES IDX 67 48 46 49 66 50 47 51 50 52 65 53 85 54 48 55 49 56 64 58
REMARK SMILES IDX 86 59 51 60 34 61 35 62 44 63 36 64 37 65 43 66 45 67 38 68
REMARK SMILES IDX 39 69 40 70 41 71 42 72 68 73 69 74 78 75 70 76 71 77 77 78
REMARK SMILES IDX 79 79 72 80 73 81 74 82 75 83 76 84 52 85 53 86 62 87 54 88
REMARK SMILES IDX 55 89 61 90 63 91 56 92 57 93 58 94 59 95 60 96
REMARK H PARENT 17 6 5 13 8 16 22 27 84 46 50 57
REMARK Flexibility Score: inf
ROOT
ATOM      1  C   UNL     1      -1.089  -1.397   4.873  1.00  0.00     0.023 C 
ENDROOT
BRANCH   1   2
ATOM      2  C   UNL     1       0.112  -0.605   4.358  1.00  0.00     0.116 C 
BRANCH   2   3
ATOM      3  N   UNL     1       0.943  -1.391   3.467  1.00  0.00    -0.356 N 
ATOM      4  C   UNL     1       1.277  -1.254   2.157  1.00  0.00     0.227 C 
ATOM      5  O   UNL     1       2.012  -2.135   1.696  1.00  0.00    -0.274 OA
ATOM      6  H   UNL     1       1.345  -2.180   3.897  1.00  0.00     0.163 HD
BRANCH   4   7
ATOM      7  C   UNL     1       0.813  -0.077   1.272  1.00  0.00     0.061 C 
ATOM      8  C   UNL     1       1.405  -0.267  -0.147  1.00  0.00     0.023 C 
ATOM      9  C   UNL     1       1.392   1.248   1.808  1.00  0.00     0.023 C 
BRANCH   7  10
ATOM     10  C   UNL     1      -0.723   0.023   1.138  1.00  0.00     0.134 C 
BRANCH  10  11
ATOM     11  N   UNL     1      -1.411  -1.252   0.999  1.00  0.00    -0.337 N 
ATOM     12  C   UNL     1      -2.566  -1.762   1.456  1.00  0.00     0.315 C 
ATOM     13  H   UNL     1      -0.914  -1.889   0.437  1.00  0.00     0.165 HD
ATOM     14  O   UNL     1      -2.854  -2.917   1.138  1.00  0.00    -0.249 OA
ATOM     15  N   UNL     1      -3.420  -1.091   2.244  1.00  0.00    -0.333 N 
ATOM     16  H   UNL     1      -4.192  -1.617   2.554  1.00  0.00     0.165 HD
BRANCH  15  17
ATOM     17  C   UNL     1      -3.396   0.269   2.711  1.00  0.00     0.164 C 
BRANCH  17  18
ATOM     18  C   UNL     1      -4.501   0.620   3.654  1.00  0.00     0.024 A 
ATOM     19  C   UNL     1      -5.359  -0.162   4.405  1.00  0.00     0.017 A 
ATOM     20  S   UNL     1      -4.719   2.293   4.008  1.00  0.00    -0.147 S 
ATOM     21  C   UNL     1      -6.182   0.616   5.274  1.00  0.00     0.012 A 
ATOM     22  C   UNL     1      -5.923   1.963   5.168  1.00  0.00     0.065 A 
ENDBRANCH  17  18
ENDBRANCH  15  17
ENDBRANCH  10  11
ENDBRANCH   7  10
ENDBRANCH   4   7
ENDBRANCH   2   3
ENDBRANCH   1   2
BRANCH   1  23
ATOM     23  C   UNL     1      -0.782  -2.443   5.939  1.00  0.00     0.023 C 
BRANCH  23  24
ATOM     24  C   UNL     1      -0.143  -1.907   7.212  1.00  0.00     0.116 C 
BRANCH  24  25
ATOM     25  N   UNL     1      -0.909  -0.849   7.856  1.00  0.00    -0.352 N 
ATOM     26  C   UNL     1      -1.252  -0.693   9.180  1.00  0.00     0.251 C 
ATOM     27  H   UNL     1      -1.230  -0.139   7.255  1.00  0.00     0.163 HD
ATOM     28  O   UNL     1      -1.986   0.236   9.510  1.00  0.00    -0.269 OA
BRANCH  26  29
ATOM     29  C   UNL     1      -0.778  -1.663  10.192  1.00  0.00     0.039 A 
ATOM     30  C   UNL     1      -1.672  -2.112  11.166  1.00  0.00     0.014 A 
ATOM     31  C   UNL     1       0.528  -2.158  10.165  1.00  0.00     0.014 A 
ATOM     32  C   UNL     1      -1.281  -3.117  12.054  1.00  0.00     0.010 A 
ATOM     33  C   UNL     1       0.879  -3.233  10.975  1.00  0.00     0.010 A 
ATOM     34  C   UNL     1      -0.018  -3.722  11.934  1.00  0.00    -0.014 A 
BRANCH  34  35
ATOM     35  C   UNL     1       0.366  -4.871  12.797  1.00  0.00     0.031 A 
ATOM     36  C   UNL     1       1.558  -4.777  13.713  1.00  0.00     0.074 A 
ATOM     37  C   UNL     1      -0.330  -6.023  12.712  1.00  0.00     0.049 A 
ATOM     38  N   UNL     1       2.036  -5.671  14.540  1.00  0.00    -0.248 NA
ATOM     39  C   UNL     1       2.340  -3.530  13.669  1.00  0.00     0.031 C 
ATOM     40  C   UNL     1      -1.441  -6.276  11.790  1.00  0.00     0.029 A 
ATOM     41  N   UNL     1      -0.208  -7.199  13.409  1.00  0.00    -0.354 N 
ATOM     42  C   UNL     1       3.178  -5.106  15.095  1.00  0.00     0.074 A 
ATOM     43  C   UNL     1       3.360  -3.818  14.463  1.00  0.00     0.031 C 
ATOM     44  C   UNL     1      -1.927  -7.508  12.011  1.00  0.00     0.029 A 
ATOM     45  C   UNL     1      -1.148  -8.143  13.068  1.00  0.00     0.049 A 
ATOM     46  H   UNL     1       0.487  -7.352  14.089  1.00  0.00     0.167 HD
ATOM     47  C   UNL     1       3.985  -5.598  16.066  1.00  0.00     0.037 A 
ATOM     48  C   UNL     1      -1.369  -9.376  13.563  1.00  0.00     0.037 A 
ATOM     49  C   UNL     1       3.773  -6.863  16.719  1.00  0.00     0.049 A 
ATOM     50  C   UNL     1      -0.511  -9.870  14.695  1.00  0.00     0.074 A 
ATOM     51  C   UNL     1       4.483  -7.422  17.767  1.00  0.00     0.029 A 
ATOM     52  N   UNL     1       2.773  -7.766  16.388  1.00  0.00    -0.354 N 
ATOM     53  N   UNL     1       0.511  -9.283  15.271  1.00  0.00    -0.248 NA
ATOM     54  C   UNL     1      -0.850 -11.183  15.259  1.00  0.00     0.031 C 
ATOM     55  C   UNL     1       3.933  -8.678  18.048  1.00  0.00     0.029 A 
ATOM     56  C   UNL     1       2.852  -8.882  17.205  1.00  0.00     0.049 A 
ATOM     57  H   UNL     1       2.105  -7.633  15.677  1.00  0.00     0.167 HD
ATOM     58  C   UNL     1       0.924 -10.144  16.281  1.00  0.00     0.074 A 
ATOM     59  C   UNL     1       0.028 -11.283  16.248  1.00  0.00     0.031 C 
ATOM     60  C   UNL     1       1.952 -10.007  17.156  1.00  0.00     0.037 A 
BRANCH  47  61
ATOM     61  C   UNL     1       5.159  -4.755  16.488  1.00  0.00     0.058 A 
ATOM     62  C   UNL     1       4.987  -3.548  17.186  1.00  0.00     0.135 A 
ATOM     63  C   UNL     1       6.472  -5.165  16.208  1.00  0.00     0.135 A 
ATOM     64  F   UNL     1       3.753  -3.099  17.467  1.00  0.00    -0.206 F 
ATOM     65  C   UNL     1       6.071  -2.759  17.557  1.00  0.00     0.059 A 
ATOM     66  C   UNL     1       7.574  -4.407  16.596  1.00  0.00     0.059 A 
ATOM     67  F   UNL     1       6.697  -6.310  15.544  1.00  0.00    -0.206 F 
ATOM     68  C   UNL     1       7.362  -3.196  17.255  1.00  0.00     0.060 A 
BRANCH  68  69
ATOM     69  S   UNL     1       8.758  -2.160  17.740  1.00  0.00     0.124 S 
ATOM     70  O   UNL     1       8.676  -1.084  16.757  1.00  0.00    -0.237 OA
ATOM     71  O   UNL     1       8.415  -1.793  19.110  1.00  0.00    -0.237 OA
ATOM     72  O   UNL     1       9.906  -3.051  17.601  1.00  0.00    -0.744 OA
ENDBRANCH  68  69
ENDBRANCH  47  61
BRANCH  48  73
ATOM     73  C   UNL     1      -2.489 -10.199  13.031  1.00  0.00     0.058 A 
ATOM     74  C   UNL     1      -3.650 -10.414  13.789  1.00  0.00     0.135 A 
ATOM     75  C   UNL     1      -2.435 -10.760  11.746  1.00  0.00     0.135 A 
ATOM     76  F   UNL     1      -3.748  -9.900  15.025  1.00  0.00    -0.206 F 
ATOM     77  C   UNL     1      -4.711 -11.168  13.300  1.00  0.00     0.059 A 
ATOM     78  C   UNL     1      -3.494 -11.497  11.225  1.00  0.00     0.059 A 
ATOM     79  F   UNL     1      -1.355 -10.566  10.973  1.00  0.00    -0.206 F 
ATOM     80  C   UNL     1      -4.625 -11.703  12.014  1.00  0.00     0.060 A 
BRANCH  80  81
ATOM     81  S   UNL     1      -6.034 -12.629  11.364  1.00  0.00     0.124 S 
ATOM     82  O   UNL     1      -5.922 -13.886  12.095  1.00  0.00    -0.237 OA
ATOM     83  O   UNL     1      -7.159 -11.774  11.732  1.00  0.00    -0.237 OA
ATOM     84  O   UNL     1      -5.755 -12.701   9.933  1.00  0.00    -0.744 OA
ENDBRANCH  80  81
ENDBRANCH  48  73
BRANCH  60  85
ATOM     85  C   UNL     1       2.137 -11.102  18.169  1.00  0.00     0.058 A 
ATOM     86  C   UNL     1       2.619 -12.370  17.806  1.00  0.00     0.135 A 
ATOM     87  C   UNL     1       1.837 -10.876  19.522  1.00  0.00     0.135 A 
ATOM     88  F   UNL     1       2.918 -12.638  16.525  1.00  0.00    -0.206 F 
ATOM     89  C   UNL     1       2.755 -13.389  18.742  1.00  0.00     0.059 A 
ATOM     90  C   UNL     1       1.993 -11.872  20.480  1.00  0.00     0.059 A 
ATOM     91  F   UNL     1       1.388  -9.676  19.924  1.00  0.00    -0.206 F 
ATOM     92  C   UNL     1       2.432 -13.133  20.076  1.00  0.00     0.060 A 
BRANCH  92  93
ATOM     93  S   UNL     1       2.601 -14.464  21.283  1.00  0.00     0.124 S 
ATOM     94  O   UNL     1       1.417 -15.268  20.998  1.00  0.00    -0.237 OA
ATOM     95  O   UNL     1       3.879 -15.064  20.913  1.00  0.00    -0.237 OA
ATOM     96  O   UNL     1       2.592 -13.764  22.563  1.00  0.00    -0.744 OA
ENDBRANCH  92  93
ENDBRANCH  60  85
ENDBRANCH  34  35
ENDBRANCH  26  29
ENDBRANCH  24  25
ENDBRANCH  23  24
ENDBRANCH   1  23
TORSDOF 18
