REMARK SMILES O=C(NCCCCNC(=O)c1cccc(Oc2ncc([N+](=O)[O-])cc2Br)c1)c1ccc(-c2c3nc(c(-c4c(F)cc(S(=O)(=O)[O-])cc4F)c4ccc([nH]4)c(-c4c(F)cc(S(=O)(=O)[O-])cc4F)c4nc(c(-c5c(F)cc(S(=O)(=O)[O-])cc5F)c5ccc2[nH]5)C=C4)C=C3)cc1
REMARK SMILES IDX 5 1 4 2 3 3 1 4 2 5 28 7 29 8 93 9 30 10 92 11 31 12 32 13
REMARK SMILES IDX 33 14 86 15 34 16 91 17 85 18 87 19 35 20 90 21 84 22 83 23
REMARK SMILES IDX 36 25 70 26 49 27 69 28 50 29 53 30 68 31 88 32 51 33 52 34
REMARK SMILES IDX 67 36 89 37 54 38 37 39 38 40 47 41 39 42 40 43 46 44 48 45
REMARK SMILES IDX 41 46 42 47 43 48 44 49 45 50 71 51 72 52 81 53 73 54 74 55
REMARK SMILES IDX 80 56 82 57 75 58 76 59 77 60 78 61 79 62 55 63 56 64 65 65
REMARK SMILES IDX 57 66 58 67 64 68 66 69 59 70 60 71 61 72 62 73 63 74 6 75
REMARK SMILES IDX 7 76 8 77 9 78 10 80 11 81 12 82 27 83 13 84 15 85 14 86
REMARK SMILES IDX 16 87 17 88 18 89 25 90 19 91 24 92 26 93 20 94 21 95 22 96
REMARK SMILES IDX 23 97
REMARK H PARENT 3 6 87 24 53 35 8 79
REMARK Flexibility Score: inf
ROOT
ATOM      1  C   UNL     1       4.847  -2.353  -0.712  1.00  0.00     0.023 C 
ENDROOT
BRANCH   1   2
ATOM      2  C   UNL     1       4.517  -0.870  -0.790  1.00  0.00     0.116 C 
BRANCH   2   3
ATOM      3  N   UNL     1       3.084  -0.601  -0.827  1.00  0.00    -0.352 N 
ATOM      4  O   UNL     1       1.089   0.126  -0.059  1.00  0.00    -0.269 OA
ATOM      5  C   UNL     1       2.310   0.118   0.057  1.00  0.00     0.251 C 
ATOM      6  H   UNL     1       2.602  -0.988  -1.593  1.00  0.00     0.163 HD
BRANCH   5   7
ATOM      7  C   UNL     1       2.965   0.840   1.168  1.00  0.00     0.039 A 
ATOM      8  C   UNL     1       4.115   1.592   0.931  1.00  0.00     0.014 A 
ATOM      9  C   UNL     1       2.469   0.707   2.467  1.00  0.00     0.014 A 
ATOM     10  C   UNL     1       4.885   2.019   2.003  1.00  0.00     0.010 A 
ATOM     11  C   UNL     1       3.183   1.251   3.539  1.00  0.00     0.010 A 
ATOM     12  C   UNL     1       4.426   1.865   3.322  1.00  0.00    -0.014 A 
BRANCH  12  13
ATOM     13  C   UNL     1       5.256   2.393   4.439  1.00  0.00     0.031 A 
ATOM     14  C   UNL     1       5.799   1.487   5.513  1.00  0.00     0.074 A 
ATOM     15  C   UNL     1       5.560   3.707   4.446  1.00  0.00     0.049 A 
ATOM     16  N   UNL     1       6.576   1.786   6.525  1.00  0.00    -0.248 NA
ATOM     17  C   UNL     1       5.418   0.068   5.456  1.00  0.00     0.031 C 
ATOM     18  C   UNL     1       5.085   4.685   3.462  1.00  0.00     0.029 A 
ATOM     19  N   UNL     1       6.357   4.444   5.283  1.00  0.00    -0.354 N 
ATOM     20  C   UNL     1       6.754   0.604   7.238  1.00  0.00     0.074 A 
ATOM     21  C   UNL     1       5.982  -0.413   6.556  1.00  0.00     0.031 C 
ATOM     22  C   UNL     1       5.651   5.873   3.711  1.00  0.00     0.029 A 
ATOM     23  C   UNL     1       6.463   5.765   4.916  1.00  0.00     0.049 A 
ATOM     24  H   UNL     1       6.809   4.064   6.071  1.00  0.00     0.167 HD
ATOM     25  C   UNL     1       7.495   0.390   8.353  1.00  0.00     0.037 A 
ATOM     26  C   UNL     1       7.126   6.785   5.492  1.00  0.00     0.037 A 
ATOM     27  C   UNL     1       8.274   1.409   9.012  1.00  0.00     0.049 A 
ATOM     28  C   UNL     1       7.920   6.523   6.739  1.00  0.00     0.074 A 
ATOM     29  C   UNL     1       9.095   1.282  10.120  1.00  0.00     0.029 A 
ATOM     30  N   UNL     1       8.323   2.744   8.634  1.00  0.00    -0.354 N 
ATOM     31  N   UNL     1       8.105   5.391   7.375  1.00  0.00    -0.248 NA
ATOM     32  C   UNL     1       8.592   7.676   7.347  1.00  0.00     0.031 C 
ATOM     33  C   UNL     1       9.590   2.549  10.448  1.00  0.00     0.029 A 
ATOM     34  C   UNL     1       9.135   3.456   9.505  1.00  0.00     0.049 A 
ATOM     35  H   UNL     1       7.851   3.130   7.861  1.00  0.00     0.167 HD
ATOM     36  C   UNL     1       8.942   5.691   8.444  1.00  0.00     0.074 A 
ATOM     37  C   UNL     1       9.236   7.107   8.356  1.00  0.00     0.031 C 
ATOM     38  C   UNL     1       9.424   4.866   9.407  1.00  0.00     0.037 A 
BRANCH  25  39
ATOM     39  C   UNL     1       7.479  -0.992   8.958  1.00  0.00     0.058 A 
ATOM     40  C   UNL     1       8.086  -2.091   8.331  1.00  0.00     0.135 A 
ATOM     41  C   UNL     1       6.881  -1.208  10.212  1.00  0.00     0.135 A 
ATOM     42  F   UNL     1       8.664  -1.950   7.127  1.00  0.00    -0.206 F 
ATOM     43  C   UNL     1       8.073  -3.359   8.907  1.00  0.00     0.059 A 
ATOM     44  C   UNL     1       6.883  -2.460  10.821  1.00  0.00     0.059 A 
ATOM     45  F   UNL     1       6.288  -0.194  10.862  1.00  0.00    -0.206 F 
ATOM     46  C   UNL     1       7.467  -3.534  10.153  1.00  0.00     0.060 A 
BRANCH  46  47
ATOM     47  S   UNL     1       7.453  -5.185  10.883  1.00  0.00     0.124 S 
ATOM     48  O   UNL     1       6.498  -5.876  10.021  1.00  0.00    -0.237 OA
ATOM     49  O   UNL     1       8.845  -5.599  10.744  1.00  0.00    -0.237 OA
ATOM     50  O   UNL     1       7.005  -4.950  12.252  1.00  0.00    -0.744 OA
ENDBRANCH  46  47
ENDBRANCH  25  39
BRANCH  26  51
ATOM     51  C   UNL     1       7.065   8.142   4.887  1.00  0.00     0.058 A 
ATOM     52  C   UNL     1       8.200   8.726   4.308  1.00  0.00     0.135 A 
ATOM     53  C   UNL     1       5.866   8.872   4.856  1.00  0.00     0.135 A 
ATOM     54  F   UNL     1       9.371   8.070   4.314  1.00  0.00    -0.206 F 
ATOM     55  C   UNL     1       8.155   9.993   3.736  1.00  0.00     0.059 A 
ATOM     56  C   UNL     1       5.787  10.125   4.260  1.00  0.00     0.059 A 
ATOM     57  F   UNL     1       4.745   8.349   5.378  1.00  0.00    -0.206 F 
ATOM     58  C   UNL     1       6.942  10.683   3.714  1.00  0.00     0.060 A 
BRANCH  58  59
ATOM     59  S   UNL     1       6.886  12.308   2.931  1.00  0.00     0.124 S 
ATOM     60  O   UNL     1       7.620  13.122   3.893  1.00  0.00    -0.237 OA
ATOM     61  O   UNL     1       7.558  12.058   1.660  1.00  0.00    -0.237 OA
ATOM     62  O   UNL     1       5.455  12.584   2.832  1.00  0.00    -0.744 OA
ENDBRANCH  58  59
ENDBRANCH  26  51
BRANCH  38  63
ATOM     63  C   UNL     1      10.363   5.468  10.418  1.00  0.00     0.058 A 
ATOM     64  C   UNL     1       9.925   6.380  11.392  1.00  0.00     0.135 A 
ATOM     65  C   UNL     1      11.721   5.108  10.422  1.00  0.00     0.135 A 
ATOM     66  F   UNL     1       8.639   6.765  11.428  1.00  0.00    -0.206 F 
ATOM     67  C   UNL     1      10.807   6.942  12.309  1.00  0.00     0.059 A 
ATOM     68  C   UNL     1      12.613   5.631  11.352  1.00  0.00     0.059 A 
ATOM     69  F   UNL     1      12.192   4.233   9.520  1.00  0.00    -0.206 F 
ATOM     70  C   UNL     1      12.150   6.561  12.281  1.00  0.00     0.060 A 
BRANCH  70  71
ATOM     71  S   UNL     1      13.281   7.287  13.486  1.00  0.00     0.124 S 
ATOM     72  O   UNL     1      13.420   8.647  12.976  1.00  0.00    -0.237 OA
ATOM     73  O   UNL     1      12.537   7.150  14.734  1.00  0.00    -0.237 OA
ATOM     74  O   UNL     1      14.473   6.452  13.379  1.00  0.00    -0.744 OA
ENDBRANCH  70  71
ENDBRANCH  38  63
ENDBRANCH  12  13
ENDBRANCH   5   7
ENDBRANCH   2   3
ENDBRANCH   1   2
BRANCH   1  75
ATOM     75  C   UNL     1       4.386  -3.172  -1.910  1.00  0.00     0.023 C 
BRANCH  75  76
ATOM     76  C   UNL     1       4.850  -2.642  -3.259  1.00  0.00     0.116 C 
BRANCH  76  77
ATOM     77  N   UNL     1       6.300  -2.655  -3.397  1.00  0.00    -0.352 N 
ATOM     78  C   UNL     1       7.053  -3.245  -4.383  1.00  0.00     0.251 C 
ATOM     79  H   UNL     1       6.804  -2.181  -2.696  1.00  0.00     0.163 HD
ATOM     80  O   UNL     1       8.274  -3.326  -4.291  1.00  0.00    -0.269 OA
BRANCH  78  81
ATOM     81  C   UNL     1       6.367  -3.777  -5.575  1.00  0.00     0.043 A 
ATOM     82  C   UNL     1       6.605  -5.084  -5.993  1.00  0.00     0.014 A 
ATOM     83  C   UNL     1       5.471  -2.955  -6.267  1.00  0.00     0.061 A 
ATOM     84  C   UNL     1       5.887  -5.590  -7.075  1.00  0.00     0.005 A 
ATOM     85  C   UNL     1       4.743  -3.459  -7.342  1.00  0.00     0.130 A 
ATOM     86  C   UNL     1       4.952  -4.784  -7.738  1.00  0.00     0.047 A 
BRANCH  85  87
ATOM     87  O   UNL     1       3.827  -2.737  -8.081  1.00  0.00    -0.438 OA
BRANCH  87  88
ATOM     88  C   UNL     1       3.459  -1.497  -7.601  1.00  0.00     0.234 A 
ATOM     89  N   UNL     1       2.293  -1.465  -6.903  1.00  0.00    -0.214 NA
ATOM     90  C   UNL     1       4.235  -0.360  -7.849  1.00  0.00     0.087 A 
ATOM     91  C   UNL     1       1.898  -0.263  -6.410  1.00  0.00     0.200 A 
ATOM     92  C   UNL     1       3.834   0.854  -7.292  1.00  0.00     0.108 A 
ATOM     93  Br  UNL     1       5.820  -0.406  -8.884  1.00  0.00    -0.045 Br
ATOM     94  C   UNL     1       2.641   0.898  -6.567  1.00  0.00     0.288 A 
BRANCH  94  95
ATOM     95  N   UNL     1       2.168   2.147  -5.990  1.00  0.00     0.064 N 
ATOM     96  O   UNL     1       1.000   2.183  -5.583  1.00  0.00    -0.258 OA
ATOM     97  O   UNL     1       2.963   3.095  -5.954  1.00  0.00    -0.258 OA
ENDBRANCH  94  95
ENDBRANCH  87  88
ENDBRANCH  85  87
ENDBRANCH  78  81
ENDBRANCH  76  77
ENDBRANCH  75  76
ENDBRANCH   1  75
TORSDOF 17
