REMARK SMILES Cc1nsc(N[C@H](C)c2cccs2)c1C(=O)NCCCCNC(=O)c1ccc(-c2c3nc(c(-c4c(F)cc(S(=O)(=O)[O-])cc4F)c4ccc([nH]4)c(-c4c(F)cc(S(=O)(=O)[O-])cc4F)c4nc(c(-c5c(F)cc(S(=O)(=O)[O-])cc5F)c5ccc2[nH]5)C=C4)C=C3)cc1
REMARK SMILES IDX 19 1 18 2 17 3 15 4 16 5 14 7 1 8 2 9 3 10 4 11 5 12 6 13
REMARK SMILES IDX 7 15 8 16 9 17 10 18 13 19 11 20 12 21 20 22 21 23 22 24
REMARK SMILES IDX 23 25 24 27 25 28 26 29 90 30 27 31 89 32 28 33 29 34 30 35
REMARK SMILES IDX 83 36 31 37 88 38 82 39 84 40 32 41 87 42 81 43 80 44 33 46
REMARK SMILES IDX 67 47 46 48 66 49 47 50 50 51 65 52 85 53 48 54 49 55 64 57
REMARK SMILES IDX 86 58 51 59 34 60 35 61 44 62 36 63 37 64 43 65 45 66 38 67
REMARK SMILES IDX 39 68 40 69 41 70 42 71 68 72 69 73 78 74 70 75 71 76 77 77
REMARK SMILES IDX 79 78 72 79 73 80 74 81 75 82 76 83 52 84 53 85 62 86 54 87
REMARK SMILES IDX 55 88 61 89 63 90 56 91 57 92 58 93 59 94 60 95
REMARK H PARENT 17 6 6 14 22 26 84 45 50 56
REMARK Flexibility Score: inf
ROOT
ATOM      1  C   UNL     1       5.976   4.945   9.251  1.00  0.00     0.023 C 
ENDROOT
BRANCH   1   2
ATOM      2  C   UNL     1       4.903   5.993   8.943  1.00  0.00     0.116 C 
BRANCH   2   3
ATOM      3  N   UNL     1       4.338   5.814   7.629  1.00  0.00    -0.352 N 
ATOM      4  C   UNL     1       3.249   5.207   7.069  1.00  0.00     0.256 C 
ATOM      5  O   UNL     1       3.234   5.372   5.838  1.00  0.00    -0.269 OA
ATOM      6  H   UNL     1       4.892   6.251   6.942  1.00  0.00     0.163 HD
BRANCH   4   7
ATOM      7  C   UNL     1       2.176   4.428   7.734  1.00  0.00     0.097 A 
ATOM      8  C   UNL     1       2.682   4.189  10.363  1.00  0.00     0.069 C 
ATOM      9  C   UNL     1       1.912   3.994   9.107  1.00  0.00     0.066 A 
ATOM     10  N   UNL     1       0.796   3.288   9.305  1.00  0.00    -0.195 NA
ATOM     11  S   UNL     1      -0.012   3.115   7.902  1.00  0.00    -0.018 S 
ATOM     12  C   UNL     1       1.124   3.936   6.923  1.00  0.00     0.123 A 
BRANCH  12  13
ATOM     13  N   UNL     1       1.005   4.075   5.571  1.00  0.00    -0.368 N 
ATOM     14  H   UNL     1       1.791   4.418   5.087  1.00  0.00     0.162 HD
BRANCH  13  15
ATOM     15  C   UNL     1      -0.173   3.764   4.775  1.00  0.00     0.117 C 
ATOM     16  C   UNL     1       0.280   3.503   3.331  1.00  0.00     0.037 C 
BRANCH  15  17
ATOM     17  C   UNL     1      -1.272   4.803   4.798  1.00  0.00     0.027 A 
ATOM     18  C   UNL     1      -2.637   4.583   4.855  1.00  0.00     0.017 A 
ATOM     19  S   UNL     1      -0.917   6.481   4.730  1.00  0.00    -0.147 S 
ATOM     20  C   UNL     1      -3.387   5.794   4.851  1.00  0.00     0.012 A 
ATOM     21  C   UNL     1      -2.572   6.902   4.796  1.00  0.00     0.065 A 
ENDBRANCH  15  17
ENDBRANCH  13  15
ENDBRANCH  12  13
ENDBRANCH   4   7
ENDBRANCH   2   3
ENDBRANCH   1   2
BRANCH   1  22
ATOM     22  C   UNL     1       7.383   5.293   8.740  1.00  0.00     0.023 C 
BRANCH  22  23
ATOM     23  C   UNL     1       8.037   6.488   9.432  1.00  0.00     0.116 C 
BRANCH  23  24
ATOM     24  N   UNL     1       8.272   6.264  10.858  1.00  0.00    -0.352 N 
ATOM     25  C   UNL     1       8.580   7.217  11.808  1.00  0.00     0.251 C 
ATOM     26  H   UNL     1       8.204   5.334  11.174  1.00  0.00     0.163 HD
ATOM     27  O   UNL     1       9.145   6.912  12.856  1.00  0.00    -0.269 OA
BRANCH  25  28
ATOM     28  C   UNL     1       8.195   8.610  11.541  1.00  0.00     0.039 A 
ATOM     29  C   UNL     1       9.121   9.652  11.639  1.00  0.00     0.014 A 
ATOM     30  C   UNL     1       6.891   8.837  11.102  1.00  0.00     0.014 A 
ATOM     31  C   UNL     1       8.750  10.921  11.200  1.00  0.00     0.010 A 
ATOM     32  C   UNL     1       6.563  10.063  10.576  1.00  0.00     0.010 A 
ATOM     33  C   UNL     1       7.476  11.117  10.643  1.00  0.00    -0.014 A 
BRANCH  33  34
ATOM     34  C   UNL     1       7.153  12.373   9.959  1.00  0.00     0.031 A 
ATOM     35  C   UNL     1       8.094  12.732   8.853  1.00  0.00     0.074 A 
ATOM     36  C   UNL     1       5.965  13.000  10.120  1.00  0.00     0.049 A 
ATOM     37  N   UNL     1       8.868  13.763   8.756  1.00  0.00    -0.248 NA
ATOM     38  C   UNL     1       8.308  11.740   7.782  1.00  0.00     0.031 C 
ATOM     39  C   UNL     1       4.830  12.552  10.939  1.00  0.00     0.029 A 
ATOM     40  N   UNL     1       5.457  14.095   9.487  1.00  0.00    -0.354 N 
ATOM     41  C   UNL     1       9.472  13.674   7.500  1.00  0.00     0.074 A 
ATOM     42  C   UNL     1       9.260  12.325   7.053  1.00  0.00     0.031 C 
ATOM     43  C   UNL     1       3.710  13.204  10.562  1.00  0.00     0.029 A 
ATOM     44  C   UNL     1       4.077  14.238   9.612  1.00  0.00     0.049 A 
ATOM     45  H   UNL     1       6.017  14.731   8.985  1.00  0.00     0.167 HD
ATOM     46  C   UNL     1       9.839  14.794   6.814  1.00  0.00     0.037 A 
ATOM     47  C   UNL     1       3.276  15.128   8.976  1.00  0.00     0.037 A 
ATOM     48  C   UNL     1       9.861  15.937   7.693  1.00  0.00     0.049 A 
ATOM     49  C   UNL     1       4.144  16.235   8.513  1.00  0.00     0.074 A 
ATOM     50  C   UNL     1      10.597  16.337   8.788  1.00  0.00     0.029 A 
ATOM     51  N   UNL     1       8.725  16.704   7.674  1.00  0.00    -0.354 N 
ATOM     52  N   UNL     1       4.789  17.035   9.318  1.00  0.00    -0.248 NA
ATOM     53  C   UNL     1       4.617  16.226   7.137  1.00  0.00     0.031 C 
ATOM     54  C   UNL     1       9.698  17.101   9.591  1.00  0.00     0.029 A 
ATOM     55  C   UNL     1       8.471  17.184   8.929  1.00  0.00     0.049 A 
ATOM     56  H   UNL     1       8.175  16.883   6.877  1.00  0.00     0.167 HD
ATOM     57  C   UNL     1       5.990  17.286   8.677  1.00  0.00     0.074 A 
ATOM     58  C   UNL     1       5.759  16.903   7.287  1.00  0.00     0.031 C 
ATOM     59  C   UNL     1       7.133  17.494   9.395  1.00  0.00     0.037 A 
BRANCH  46  60
ATOM     60  C   UNL     1       9.705  14.979   5.305  1.00  0.00     0.058 A 
ATOM     61  C   UNL     1      10.116  16.206   4.731  1.00  0.00     0.135 A 
ATOM     62  C   UNL     1       8.911  14.167   4.465  1.00  0.00     0.135 A 
ATOM     63  F   UNL     1      10.891  17.059   5.421  1.00  0.00    -0.206 F 
ATOM     64  C   UNL     1       9.678  16.638   3.476  1.00  0.00     0.059 A 
ATOM     65  C   UNL     1       8.503  14.557   3.193  1.00  0.00     0.059 A 
ATOM     66  F   UNL     1       8.408  12.993   4.859  1.00  0.00    -0.206 F 
ATOM     67  C   UNL     1       8.849  15.813   2.725  1.00  0.00     0.060 A 
BRANCH  67  68
ATOM     68  S   UNL     1       8.177  16.409   1.163  1.00  0.00     0.124 S 
ATOM     69  O   UNL     1       7.262  17.448   1.619  1.00  0.00    -0.237 OA
ATOM     70  O   UNL     1       9.378  16.868   0.474  1.00  0.00    -0.237 OA
ATOM     71  O   UNL     1       7.551  15.219   0.594  1.00  0.00    -0.744 OA
ENDBRANCH  67  68
ENDBRANCH  46  60
BRANCH  47  72
ATOM     72  C   UNL     1       1.873  14.950   8.520  1.00  0.00     0.058 A 
ATOM     73  C   UNL     1       1.050  16.044   8.201  1.00  0.00     0.135 A 
ATOM     74  C   UNL     1       1.395  13.681   8.133  1.00  0.00     0.135 A 
ATOM     75  F   UNL     1       1.438  17.291   8.510  1.00  0.00    -0.206 F 
ATOM     76  C   UNL     1      -0.159  15.894   7.509  1.00  0.00     0.059 A 
ATOM     77  C   UNL     1       0.192  13.506   7.448  1.00  0.00     0.059 A 
ATOM     78  F   UNL     1       2.132  12.578   8.335  1.00  0.00    -0.206 F 
ATOM     79  C   UNL     1      -0.572  14.619   7.121  1.00  0.00     0.060 A 
BRANCH  79  80
ATOM     80  S   UNL     1      -2.057  14.434   6.102  1.00  0.00     0.124 S 
ATOM     81  O   UNL     1      -3.112  14.820   7.033  1.00  0.00    -0.237 OA
ATOM     82  O   UNL     1      -1.800  15.366   5.009  1.00  0.00    -0.237 OA
ATOM     83  O   UNL     1      -2.041  13.022   5.730  1.00  0.00    -0.744 OA
ENDBRANCH  79  80
ENDBRANCH  47  72
BRANCH  59  84
ATOM     84  C   UNL     1       6.992  17.904  10.837  1.00  0.00     0.058 A 
ATOM     85  C   UNL     1       6.476  17.093  11.862  1.00  0.00     0.135 A 
ATOM     86  C   UNL     1       7.525  19.147  11.211  1.00  0.00     0.135 A 
ATOM     87  F   UNL     1       6.030  15.856  11.607  1.00  0.00    -0.206 F 
ATOM     88  C   UNL     1       6.458  17.515  13.194  1.00  0.00     0.059 A 
ATOM     89  C   UNL     1       7.549  19.574  12.535  1.00  0.00     0.059 A 
ATOM     90  F   UNL     1       8.084  19.944  10.286  1.00  0.00    -0.206 F 
ATOM     91  C   UNL     1       7.000  18.758  13.521  1.00  0.00     0.060 A 
BRANCH  91  92
ATOM     92  S   UNL     1       7.047  19.274  15.250  1.00  0.00     0.124 S 
ATOM     93  O   UNL     1       5.640  19.540  15.530  1.00  0.00    -0.237 OA
ATOM     94  O   UNL     1       7.616  18.104  15.915  1.00  0.00    -0.237 OA
ATOM     95  O   UNL     1       7.913  20.451  15.232  1.00  0.00    -0.744 OA
ENDBRANCH  91  92
ENDBRANCH  59  84
ENDBRANCH  33  34
ENDBRANCH  25  28
ENDBRANCH  23  24
ENDBRANCH  22  23
ENDBRANCH   1  22
TORSDOF 17
