REMARK SMILES C[C@H]1CC[C@H]([N@@H+](CC(=O)NCCCCNC(=O)c2ccc(-c3c4nc(c(-c5c(F)cc(S(=O)(=O)[O-])cc5F)c5ccc([nH]5)c(-c5c(F)cc(S(=O)(=O)[O-])cc5F)c5nc(c(-c6c(F)cc(S(=O)(=O)[O-])cc6F)c6ccc3[nH]6)C=C5)C=C4)cc2)C(C)(C)C)C[C@@H]1C
REMARK SMILES IDX 13 1 12 2 11 3 10 4 8 5 9 6 7 8 6 9 5 11 1 12 2 13 3 14
REMARK SMILES IDX 89 15 4 16 88 17 90 18 84 19 85 20 86 21 87 22 14 23 15 24
REMARK SMILES IDX 16 25 17 27 18 28 19 29 83 30 20 31 82 32 21 33 22 34 23 35
REMARK SMILES IDX 76 36 24 37 81 38 75 39 77 40 25 41 80 42 74 43 73 44 26 46
REMARK SMILES IDX 60 47 39 48 59 49 40 50 43 51 58 52 78 53 41 54 42 55 57 57
REMARK SMILES IDX 79 58 44 59 27 60 28 61 37 62 29 63 30 64 36 65 38 66 31 67
REMARK SMILES IDX 32 68 33 69 34 70 35 71 61 72 62 73 71 74 63 75 64 76 70 77
REMARK SMILES IDX 72 78 65 79 66 80 67 81 68 82 69 83 45 84 46 85 55 86 47 87
REMARK SMILES IDX 48 88 54 89 56 90 49 91 50 92 51 93 52 94 53 95
REMARK H PARENT 10 7 6 10 15 26 77 45 43 56
REMARK Flexibility Score: inf
ROOT
ATOM      1  C   UNL     1      -0.177   2.235   3.513  1.00  0.00     0.023 C 
ENDROOT
BRANCH   1   2
ATOM      2  C   UNL     1      -1.458   1.409   3.652  1.00  0.00     0.023 C 
BRANCH   2   3
ATOM      3  C   UNL     1      -2.754   2.129   3.249  1.00  0.00     0.116 C 
BRANCH   3   4
ATOM      4  N   UNL     1      -2.707   2.837   1.977  1.00  0.00    -0.351 N 
ATOM      5  C   UNL     1      -3.330   2.625   0.778  1.00  0.00     0.275 C 
ATOM      6  O   UNL     1      -3.307   3.563  -0.023  1.00  0.00    -0.269 OA
ATOM      7  H   UNL     1      -2.110   3.620   1.981  1.00  0.00     0.163 HD
BRANCH   5   8
ATOM      8  C   UNL     1      -4.020   1.290   0.443  1.00  0.00     0.364 C 
BRANCH   8   9
ATOM      9  N   UNL     1      -3.259   0.400  -0.488  1.00  0.00    -0.321 N 
ATOM     10  H   UNL     1      -3.710  -0.515  -0.491  1.00  0.00     0.349 HD
BRANCH   9  11
ATOM     11  C   UNL     1      -1.914   0.113   0.046  1.00  0.00     0.185 C 
ATOM     12  C   UNL     1       2.047  -0.752   1.563  1.00  0.00     0.008 C 
ATOM     13  C   UNL     1       0.937  -0.629   0.510  1.00  0.00    -0.011 C 
ATOM     14  C   UNL     1      -0.230  -1.557   0.922  1.00  0.00     0.010 C 
ATOM     15  C   UNL     1       0.477   0.833   0.338  1.00  0.00    -0.006 C 
ATOM     16  C   UNL     1      -1.513  -1.372   0.097  1.00  0.00     0.065 C 
ATOM     17  C   UNL     1      -0.768   0.938  -0.539  1.00  0.00     0.068 C 
ATOM     18  C   UNL     1       1.541   1.795  -0.191  1.00  0.00     0.008 C 
ENDBRANCH   9  11
BRANCH   9  19
ATOM     19  C   UNL     1      -3.502   0.531  -1.953  1.00  0.00     0.090 C 
ATOM     20  C   UNL     1      -2.935   1.790  -2.646  1.00  0.00     0.078 C 
ATOM     21  C   UNL     1      -2.945  -0.702  -2.707  1.00  0.00     0.078 C 
ATOM     22  C   UNL     1      -5.026   0.530  -2.253  1.00  0.00     0.078 C 
ENDBRANCH   9  19
ENDBRANCH   8   9
ENDBRANCH   5   8
ENDBRANCH   3   4
ENDBRANCH   2   3
ENDBRANCH   1   2
BRANCH   1  23
ATOM     23  C   UNL     1       0.271   2.925   4.786  1.00  0.00     0.116 C 
BRANCH  23  24
ATOM     24  N   UNL     1       1.014   2.001   5.636  1.00  0.00    -0.352 N 
ATOM     25  C   UNL     1       2.367   1.848   5.845  1.00  0.00     0.251 C 
ATOM     26  H   UNL     1       0.450   1.378   6.151  1.00  0.00     0.163 HD
ATOM     27  O   UNL     1       2.765   0.801   6.354  1.00  0.00    -0.269 OA
BRANCH  25  28
ATOM     28  C   UNL     1       3.346   2.905   5.479  1.00  0.00     0.039 A 
ATOM     29  C   UNL     1       4.680   2.553   5.226  1.00  0.00     0.014 A 
ATOM     30  C   UNL     1       2.995   4.253   5.467  1.00  0.00     0.014 A 
ATOM     31  C   UNL     1       5.632   3.545   4.952  1.00  0.00     0.010 A 
ATOM     32  C   UNL     1       3.900   5.218   5.045  1.00  0.00     0.010 A 
ATOM     33  C   UNL     1       5.246   4.889   4.847  1.00  0.00    -0.014 A 
BRANCH  33  34
ATOM     34  C   UNL     1       6.221   5.995   4.650  1.00  0.00     0.031 A 
ATOM     35  C   UNL     1       6.302   7.101   5.679  1.00  0.00     0.074 A 
ATOM     36  C   UNL     1       6.968   6.057   3.531  1.00  0.00     0.049 A 
ATOM     37  N   UNL     1       6.964   8.228   5.640  1.00  0.00    -0.248 NA
ATOM     38  C   UNL     1       5.479   6.939   6.890  1.00  0.00     0.031 C 
ATOM     39  C   UNL     1       6.947   5.080   2.442  1.00  0.00     0.029 A 
ATOM     40  N   UNL     1       7.886   6.990   3.122  1.00  0.00    -0.354 N 
ATOM     41  C   UNL     1       6.595   8.923   6.788  1.00  0.00     0.074 A 
ATOM     42  C   UNL     1       5.597   8.126   7.462  1.00  0.00     0.031 C 
ATOM     43  C   UNL     1       7.842   5.443   1.508  1.00  0.00     0.029 A 
ATOM     44  C   UNL     1       8.467   6.699   1.911  1.00  0.00     0.049 A 
ATOM     45  H   UNL     1       8.108   7.793   3.647  1.00  0.00     0.167 HD
ATOM     46  C   UNL     1       7.070  10.100   7.262  1.00  0.00     0.037 A 
ATOM     47  C   UNL     1       9.401   7.369   1.209  1.00  0.00     0.037 A 
ATOM     48  C   UNL     1       8.117  10.848   6.619  1.00  0.00     0.049 A 
ATOM     49  C   UNL     1       9.951   8.652   1.769  1.00  0.00     0.074 A 
ATOM     50  C   UNL     1       8.738  12.008   7.046  1.00  0.00     0.029 A 
ATOM     51  N   UNL     1       8.707  10.496   5.413  1.00  0.00    -0.354 N 
ATOM     52  N   UNL     1       9.629   9.272   2.881  1.00  0.00    -0.248 NA
ATOM     53  C   UNL     1      10.995   9.325   0.985  1.00  0.00     0.031 C 
ATOM     54  C   UNL     1       9.680  12.376   6.079  1.00  0.00     0.029 A 
ATOM     55  C   UNL     1       9.677  11.423   5.072  1.00  0.00     0.049 A 
ATOM     56  H   UNL     1       8.471   9.704   4.878  1.00  0.00     0.167 HD
ATOM     57  C   UNL     1      10.447  10.395   2.942  1.00  0.00     0.074 A 
ATOM     58  C   UNL     1      11.285  10.361   1.760  1.00  0.00     0.031 C 
ATOM     59  C   UNL     1      10.501  11.364   3.890  1.00  0.00     0.037 A 
BRANCH  46  60
ATOM     60  C   UNL     1       6.464  10.632   8.536  1.00  0.00     0.058 A 
ATOM     61  C   UNL     1       6.633   9.978   9.769  1.00  0.00     0.135 A 
ATOM     62  C   UNL     1       5.679  11.797   8.523  1.00  0.00     0.135 A 
ATOM     63  F   UNL     1       7.362   8.852   9.843  1.00  0.00    -0.206 F 
ATOM     64  C   UNL     1       5.997  10.420  10.925  1.00  0.00     0.059 A 
ATOM     65  C   UNL     1       5.062  12.278   9.675  1.00  0.00     0.059 A 
ATOM     66  F   UNL     1       5.487  12.470   7.378  1.00  0.00    -0.206 F 
ATOM     67  C   UNL     1       5.204  11.566  10.865  1.00  0.00     0.060 A 
BRANCH  67  68
ATOM     68  S   UNL     1       4.348  12.102  12.362  1.00  0.00     0.124 S 
ATOM     69  O   UNL     1       3.261  11.131  12.438  1.00  0.00    -0.237 OA
ATOM     70  O   UNL     1       5.384  11.973  13.380  1.00  0.00    -0.237 OA
ATOM     71  O   UNL     1       3.946  13.471  12.051  1.00  0.00    -0.744 OA
ENDBRANCH  67  68
ENDBRANCH  46  60
BRANCH  47  72
ATOM     72  C   UNL     1       9.914   6.796  -0.064  1.00  0.00     0.058 A 
ATOM     73  C   UNL     1      11.195   6.228  -0.124  1.00  0.00     0.135 A 
ATOM     74  C   UNL     1       9.122   6.747  -1.222  1.00  0.00     0.135 A 
ATOM     75  F   UNL     1      11.991   6.255   0.956  1.00  0.00    -0.206 F 
ATOM     76  C   UNL     1      11.674   5.628  -1.284  1.00  0.00     0.059 A 
ATOM     77  C   UNL     1       9.571   6.134  -2.388  1.00  0.00     0.059 A 
ATOM     78  F   UNL     1       7.883   7.263  -1.212  1.00  0.00    -0.206 F 
ATOM     79  C   UNL     1      10.850   5.578  -2.409  1.00  0.00     0.060 A 
BRANCH  79  80
ATOM     80  S   UNL     1      11.453   4.721  -3.881  1.00  0.00     0.124 S 
ATOM     81  O   UNL     1      12.462   5.652  -4.372  1.00  0.00    -0.237 OA
ATOM     82  O   UNL     1      11.956   3.470  -3.322  1.00  0.00    -0.237 OA
ATOM     83  O   UNL     1      10.257   4.592  -4.708  1.00  0.00    -0.744 OA
ENDBRANCH  79  80
ENDBRANCH  47  72
BRANCH  59  84
ATOM     84  C   UNL     1      11.519  12.453   3.703  1.00  0.00     0.058 A 
ATOM     85  C   UNL     1      11.349  13.462   2.742  1.00  0.00     0.135 A 
ATOM     86  C   UNL     1      12.648  12.519   4.535  1.00  0.00     0.135 A 
ATOM     87  F   UNL     1      10.289  13.440   1.919  1.00  0.00    -0.206 F 
ATOM     88  C   UNL     1      12.275  14.489   2.599  1.00  0.00     0.059 A 
ATOM     89  C   UNL     1      13.573  13.552   4.427  1.00  0.00     0.059 A 
ATOM     90  F   UNL     1      12.850  11.585   5.478  1.00  0.00    -0.206 F 
ATOM     91  C   UNL     1      13.383  14.527   3.448  1.00  0.00     0.060 A 
BRANCH  91  92
ATOM     92  S   UNL     1      14.558  15.886   3.277  1.00  0.00     0.124 S 
ATOM     93  O   UNL     1      15.265  15.510   2.057  1.00  0.00    -0.237 OA
ATOM     94  O   UNL     1      13.680  17.047   3.170  1.00  0.00    -0.237 OA
ATOM     95  O   UNL     1      15.343  15.813   4.506  1.00  0.00    -0.744 OA
ENDBRANCH  91  92
ENDBRANCH  59  84
ENDBRANCH  33  34
ENDBRANCH  25  28
ENDBRANCH  23  24
ENDBRANCH   1  23
TORSDOF 17
