REMARK SMILES CN(CC(=O)NCCCCNC(=O)c1ccc(-c2c3nc(c(-c4c(F)cc(S(=O)(=O)[O-])cc4F)c4ccc([nH]4)c(-c4c(F)cc(S(=O)(=O)[O-])cc4F)c4nc(c(-c5c(F)cc(S(=O)(=O)[O-])cc5F)c5ccc2[nH]5)C=C4)C=C3)cc1)c1ncc(-c2nnnn2-c2ccccc2)c(-c2ccc(Cl)cc2)n1
REMARK SMILES IDX 8 1 7 2 6 3 4 4 5 5 3 7 2 8 1 9 80 10 81 11 103 12 82 13
REMARK SMILES IDX 95 14 83 15 96 16 97 17 102 18 98 19 101 20 99 21 100 22
REMARK SMILES IDX 84 23 85 24 88 25 86 26 87 27 89 28 90 29 94 30 91 31 93 32
REMARK SMILES IDX 92 33 9 34 10 35 11 36 12 37 13 39 14 40 15 41 79 42 16 43
REMARK SMILES IDX 78 44 17 45 18 46 19 47 72 48 20 49 77 50 71 51 73 52 21 53
REMARK SMILES IDX 76 54 70 55 69 56 22 58 56 59 35 60 55 61 36 62 39 63 54 64
REMARK SMILES IDX 74 65 37 66 38 67 53 69 75 70 40 71 23 72 24 73 33 74 25 75
REMARK SMILES IDX 26 76 32 77 34 78 27 79 28 80 29 81 30 82 31 83 57 84 58 85
REMARK SMILES IDX 67 86 59 87 60 88 66 89 68 90 61 91 62 92 63 93 64 94 65 95
REMARK SMILES IDX 41 96 42 97 51 98 43 99 44 100 50 101 52 102 45 103 46 104
REMARK SMILES IDX 47 105 48 106 49 107
REMARK H PARENT 6 6 11 38 73 57 39 68
REMARK Flexibility Score: inf
ROOT
ATOM      1  C   UNL     1      -1.799   1.565   0.735  1.00  0.00     0.023 C 
ENDROOT
BRANCH   1   2
ATOM      2  C   UNL     1      -2.035   0.183   0.130  1.00  0.00     0.116 C 
BRANCH   2   3
ATOM      3  N   UNL     1      -2.367   0.245  -1.277  1.00  0.00    -0.355 N 
ATOM      4  C   UNL     1      -1.560  -0.018  -2.351  1.00  0.00     0.239 C 
ATOM      5  O   UNL     1      -2.065   0.008  -3.477  1.00  0.00    -0.273 OA
ATOM      6  H   UNL     1      -3.291   0.511  -1.489  1.00  0.00     0.163 HD
BRANCH   4   7
ATOM      7  C   UNL     1      -0.107  -0.464  -2.132  1.00  0.00     0.219 C 
BRANCH   7   8
ATOM      8  N   UNL     1       0.731   0.487  -1.395  1.00  0.00    -0.335 N 
ATOM      9  C   UNL     1       1.624   0.016  -0.361  1.00  0.00     0.147 C 
BRANCH   8  10
ATOM     10  C   UNL     1       1.047   1.671  -2.029  1.00  0.00     0.226 A 
ATOM     11  N   UNL     1       0.120   2.238  -2.803  1.00  0.00    -0.221 NA
ATOM     12  N   UNL     1       2.261   2.216  -1.852  1.00  0.00    -0.212 NA
ATOM     13  C   UNL     1       0.415   3.408  -3.394  1.00  0.00     0.129 A 
ATOM     14  C   UNL     1       2.556   3.377  -2.494  1.00  0.00     0.087 A 
ATOM     15  C   UNL     1       1.626   4.053  -3.265  1.00  0.00     0.066 A 
BRANCH  14  16
ATOM     16  C   UNL     1       3.956   3.811  -2.337  1.00  0.00     0.001 A 
ATOM     17  C   UNL     1       4.998   2.986  -2.799  1.00  0.00     0.012 A 
ATOM     18  C   UNL     1       4.297   5.049  -1.764  1.00  0.00     0.012 A 
ATOM     19  C   UNL     1       6.332   3.397  -2.727  1.00  0.00     0.021 A 
ATOM     20  C   UNL     1       5.632   5.463  -1.692  1.00  0.00     0.021 A 
ATOM     21  C   UNL     1       6.642   4.638  -2.180  1.00  0.00     0.041 A 
ATOM     22  Cl  UNL     1       8.281   5.157  -2.108  1.00  0.00    -0.084 Cl
ENDBRANCH  14  16
BRANCH  15  23
ATOM     23  C   UNL     1       1.870   5.306  -3.958  1.00  0.00     0.190 A 
ATOM     24  N   UNL     1       2.787   5.503  -4.888  1.00  0.00    -0.108 NA
ATOM     25  N   UNL     1       1.090   6.457  -3.878  1.00  0.00    -0.193 N 
ATOM     26  N   UNL     1       2.511   6.715  -5.456  1.00  0.00    -0.023 NA
ATOM     27  N   UNL     1       1.446   7.270  -4.900  1.00  0.00    -0.040 NA
BRANCH  25  28
ATOM     28  C   UNL     1       0.085   6.826  -2.951  1.00  0.00     0.069 A 
ATOM     29  C   UNL     1      -0.918   7.720  -3.351  1.00  0.00     0.028 A 
ATOM     30  C   UNL     1       0.086   6.326  -1.640  1.00  0.00     0.028 A 
ATOM     31  C   UNL     1      -1.936   8.068  -2.462  1.00  0.00     0.002 A 
ATOM     32  C   UNL     1      -0.922   6.701  -0.749  1.00  0.00     0.002 A 
ATOM     33  C   UNL     1      -1.938   7.560  -1.164  1.00  0.00     0.000 A 
ENDBRANCH  25  28
ENDBRANCH  15  23
ENDBRANCH   8  10
ENDBRANCH   7   8
ENDBRANCH   4   7
ENDBRANCH   2   3
ENDBRANCH   1   2
BRANCH   1  34
ATOM     34  C   UNL     1      -3.035   2.468   0.777  1.00  0.00     0.023 C 
BRANCH  34  35
ATOM     35  C   UNL     1      -4.256   1.883   1.482  1.00  0.00     0.116 C 
BRANCH  35  36
ATOM     36  N   UNL     1      -3.994   1.506   2.863  1.00  0.00    -0.352 N 
ATOM     37  C   UNL     1      -4.792   1.670   3.970  1.00  0.00     0.251 C 
ATOM     38  H   UNL     1      -3.125   1.073   3.027  1.00  0.00     0.163 HD
ATOM     39  O   UNL     1      -4.356   1.392   5.084  1.00  0.00    -0.269 OA
BRANCH  37  40
ATOM     40  C   UNL     1      -6.158   2.219   3.820  1.00  0.00     0.039 A 
ATOM     41  C   UNL     1      -6.569   3.245   4.676  1.00  0.00     0.014 A 
ATOM     42  C   UNL     1      -7.022   1.742   2.831  1.00  0.00     0.014 A 
ATOM     43  C   UNL     1      -7.818   3.842   4.491  1.00  0.00     0.010 A 
ATOM     44  C   UNL     1      -8.238   2.383   2.606  1.00  0.00     0.010 A 
ATOM     45  C   UNL     1      -8.646   3.444   3.429  1.00  0.00    -0.014 A 
BRANCH  45  46
ATOM     46  C   UNL     1      -9.930   4.140   3.150  1.00  0.00     0.031 A 
ATOM     47  C   UNL     1     -11.235   3.400   3.260  1.00  0.00     0.074 A 
ATOM     48  C   UNL     1      -9.913   5.418   2.722  1.00  0.00     0.049 A 
ATOM     49  N   UNL     1     -12.445   3.817   2.986  1.00  0.00    -0.248 NA
ATOM     50  C   UNL     1     -11.170   2.001   3.711  1.00  0.00     0.031 C 
ATOM     51  C   UNL     1      -8.708   6.225   2.518  1.00  0.00     0.029 A 
ATOM     52  N   UNL     1     -10.937   6.258   2.364  1.00  0.00    -0.354 N 
ATOM     53  C   UNL     1     -13.281   2.730   3.212  1.00  0.00     0.074 A 
ATOM     54  C   UNL     1     -12.435   1.622   3.603  1.00  0.00     0.031 C 
ATOM     55  C   UNL     1      -9.063   7.445   2.085  1.00  0.00     0.029 A 
ATOM     56  C   UNL     1     -10.515   7.498   1.945  1.00  0.00     0.049 A 
ATOM     57  H   UNL     1     -11.886   5.997   2.402  1.00  0.00     0.167 HD
ATOM     58  C   UNL     1     -14.631   2.666   3.123  1.00  0.00     0.037 A 
ATOM     59  C   UNL     1     -11.215   8.556   1.491  1.00  0.00     0.037 A 
ATOM     60  C   UNL     1     -15.470   3.780   2.761  1.00  0.00     0.049 A 
ATOM     61  C   UNL     1     -12.715   8.468   1.415  1.00  0.00     0.074 A 
ATOM     62  C   UNL     1     -16.852   3.836   2.715  1.00  0.00     0.029 A 
ATOM     63  N   UNL     1     -15.007   5.030   2.377  1.00  0.00    -0.354 N 
ATOM     64  N   UNL     1     -13.495   7.455   1.708  1.00  0.00    -0.248 NA
ATOM     65  C   UNL     1     -13.430   9.666   0.955  1.00  0.00     0.031 C 
ATOM     66  C   UNL     1     -17.224   5.106   2.262  1.00  0.00     0.029 A 
ATOM     67  C   UNL     1     -16.075   5.857   2.072  1.00  0.00     0.049 A 
ATOM     68  H   UNL     1     -14.059   5.291   2.329  1.00  0.00     0.167 HD
ATOM     69  C   UNL     1     -14.794   7.900   1.490  1.00  0.00     0.074 A 
ATOM     70  C   UNL     1     -14.695   9.278   1.053  1.00  0.00     0.031 C 
ATOM     71  C   UNL     1     -15.963   7.229   1.640  1.00  0.00     0.037 A 
BRANCH  58  72
ATOM     72  C   UNL     1     -15.288   1.346   3.422  1.00  0.00     0.058 A 
ATOM     73  C   UNL     1     -15.337   0.826   4.726  1.00  0.00     0.135 A 
ATOM     74  C   UNL     1     -15.904   0.607   2.400  1.00  0.00     0.135 A 
ATOM     75  F   UNL     1     -14.753   1.485   5.739  1.00  0.00    -0.206 F 
ATOM     76  C   UNL     1     -15.943  -0.396   4.999  1.00  0.00     0.059 A 
ATOM     77  C   UNL     1     -16.541  -0.605   2.655  1.00  0.00     0.059 A 
ATOM     78  F   UNL     1     -15.888   1.058   1.136  1.00  0.00    -0.206 F 
ATOM     79  C   UNL     1     -16.540  -1.105   3.956  1.00  0.00     0.060 A 
BRANCH  79  80
ATOM     80  S   UNL     1     -17.320  -2.691   4.327  1.00  0.00     0.124 S 
ATOM     81  O   UNL     1     -16.154  -3.547   4.525  1.00  0.00    -0.237 OA
ATOM     82  O   UNL     1     -18.093  -2.387   5.527  1.00  0.00    -0.237 OA
ATOM     83  O   UNL     1     -18.108  -2.971   3.131  1.00  0.00    -0.744 OA
ENDBRANCH  79  80
ENDBRANCH  58  72
BRANCH  59  84
ATOM     84  C   UNL     1     -10.501   9.797   1.089  1.00  0.00     0.058 A 
ATOM     85  C   UNL     1     -10.573  10.958   1.872  1.00  0.00     0.135 A 
ATOM     86  C   UNL     1      -9.713   9.838  -0.072  1.00  0.00     0.135 A 
ATOM     87  F   UNL     1     -11.319  10.969   2.987  1.00  0.00    -0.206 F 
ATOM     88  C   UNL     1      -9.898  12.121   1.515  1.00  0.00     0.059 A 
ATOM     89  C   UNL     1      -9.009  10.982  -0.437  1.00  0.00     0.059 A 
ATOM     90  F   UNL     1      -9.596   8.748  -0.846  1.00  0.00    -0.206 F 
ATOM     91  C   UNL     1      -9.114  12.121   0.360  1.00  0.00     0.060 A 
BRANCH  91  92
ATOM     92  S   UNL     1      -8.188  13.613  -0.060  1.00  0.00     0.124 S 
ATOM     93  O   UNL     1      -9.246  14.486  -0.554  1.00  0.00    -0.237 OA
ATOM     94  O   UNL     1      -7.601  13.982   1.225  1.00  0.00    -0.237 OA
ATOM     95  O   UNL     1      -7.235  13.143  -1.062  1.00  0.00    -0.744 OA
ENDBRANCH  91  92
ENDBRANCH  59  84
BRANCH  71  96
ATOM     96  C   UNL     1     -17.234   7.980   1.355  1.00  0.00     0.058 A 
ATOM     97  C   UNL     1     -17.627   8.295   0.045  1.00  0.00     0.135 A 
ATOM     98  C   UNL     1     -18.095   8.342   2.404  1.00  0.00     0.135 A 
ATOM     99  F   UNL     1     -16.836   7.978  -0.992  1.00  0.00    -0.206 F 
ATOM    100  C   UNL     1     -18.820   8.962  -0.214  1.00  0.00     0.059 A 
ATOM    101  C   UNL     1     -19.305   8.986   2.166  1.00  0.00     0.059 A 
ATOM    102  F   UNL     1     -17.771   8.055   3.675  1.00  0.00    -0.206 F 
ATOM    103  C   UNL     1     -19.654   9.302   0.853  1.00  0.00     0.060 A 
BRANCH 103 104
ATOM    104  S   UNL     1     -21.216  10.135   0.501  1.00  0.00     0.124 S 
ATOM    105  O   UNL     1     -20.763  11.485   0.183  1.00  0.00    -0.237 OA
ATOM    106  O   UNL     1     -21.738   9.361  -0.620  1.00  0.00    -0.237 OA
ATOM    107  O   UNL     1     -21.961  10.001   1.749  1.00  0.00    -0.744 OA
ENDBRANCH 103 104
ENDBRANCH  71  96
ENDBRANCH  45  46
ENDBRANCH  37  40
ENDBRANCH  35  36
ENDBRANCH  34  35
ENDBRANCH   1  34
TORSDOF 19
