REMARK SMILES Cc1n[nH]c2c1[C@@]1(C(=O)N([C@@H](C)C(=O)NCCCCNC(=O)c3ccc(-c4c5nc(c(-c6c(F)cc(S(=O)(=O)[O-])cc6F)c6ccc([nH]6)c(-c6c(F)cc(S(=O)(=O)[O-])cc6F)c6nc(c(-c7c(F)cc(S(=O)(=O)[O-])cc7F)c7ccc4[nH]7)C=C6)C=C5)cc3)c3ccccc31)C(C#N)=C(N)O2
REMARK SMILES IDX 18 1 17 2 16 3 15 4 13 5 14 6 11 8 12 9 10 10 1 11 2 12 3 13
REMARK SMILES IDX 6 14 4 15 5 16 7 17 100 19 8 20 94 21 95 22 98 23 9 24 89 25
REMARK SMILES IDX 93 26 90 27 92 28 91 29 96 30 97 31 99 32 19 35 20 36 21 37
REMARK SMILES IDX 22 39 23 40 24 41 88 42 25 43 87 44 26 45 27 46 28 47 81 48
REMARK SMILES IDX 29 49 86 50 80 51 82 52 30 53 85 54 79 55 78 56 31 58 65 59
REMARK SMILES IDX 44 60 64 61 45 62 48 63 63 64 83 65 46 66 47 67 62 69 84 70
REMARK SMILES IDX 49 71 32 72 33 73 42 74 34 75 35 76 41 77 43 78 36 79 37 80
REMARK SMILES IDX 38 81 39 82 40 83 66 84 67 85 76 86 68 87 69 88 75 89 77 90
REMARK SMILES IDX 70 91 71 92 72 93 73 94 74 95 50 96 51 97 60 98 52 99 53 100
REMARK SMILES IDX 59 101 61 102 54 103 55 104 56 105 57 106 58 107
REMARK H PARENT 15 7 4 18 99 33 99 34 20 38 82 57 48 68
REMARK Flexibility Score: inf
ROOT
ATOM      1  C   UNL     1      -6.132   0.518   0.252  1.00  0.00     0.023 C 
ENDROOT
BRANCH   1   2
ATOM      2  C   UNL     1      -4.630   0.589  -0.010  1.00  0.00     0.023 C 
BRANCH   2   3
ATOM      3  C   UNL     1      -4.221   0.877  -1.456  1.00  0.00     0.116 C 
BRANCH   3   4
ATOM      4  N   UNL     1      -4.108   2.300  -1.725  1.00  0.00    -0.354 N 
ATOM      5  C   UNL     1      -3.043   3.128  -1.893  1.00  0.00     0.242 C 
ATOM      6  O   UNL     1      -3.312   4.298  -2.202  1.00  0.00    -0.273 OA
ATOM      7  H   UNL     1      -4.977   2.756  -1.801  1.00  0.00     0.163 HD
BRANCH   5   8
ATOM      8  C   UNL     1      -1.557   2.729  -1.710  1.00  0.00     0.176 C 
ATOM      9  C   UNL     1      -1.049   1.623  -2.628  1.00  0.00     0.042 C 
BRANCH   8  10
ATOM     10  N   UNL     1      -1.169   2.586  -0.310  1.00  0.00    -0.298 N 
ATOM     11  C   UNL     1       1.542  -0.010   0.447  1.00  0.00     0.069 C 
ATOM     12  C   UNL     1       0.955  -0.091   1.809  1.00  0.00     0.068 A 
ATOM     13  N   UNL     1       1.367  -1.060   2.645  1.00  0.00    -0.177 NA
ATOM     14  C   UNL     1      -0.090   0.679   2.382  1.00  0.00     0.063 A 
ATOM     15  N   UNL     1       0.531  -0.964   3.700  1.00  0.00    -0.246 N 
ATOM     16  C   UNL     1      -0.356   0.054   3.571  1.00  0.00     0.222 A 
ATOM     17  C   UNL     1      -0.990   1.776   1.915  1.00  0.00     0.149 C 
ATOM     18  H   UNL     1       0.561  -1.567   4.477  1.00  0.00     0.193 HD
ATOM     19  O   UNL     1      -1.343   0.298   4.421  1.00  0.00    -0.422 OA
ATOM     20  C   UNL     1      -1.448   1.472   0.481  1.00  0.00     0.248 C 
ATOM     21  C   UNL     1      -0.156   3.014   1.712  1.00  0.00     0.002 A 
ATOM     22  C   UNL     1      -2.167   1.975   2.871  1.00  0.00     0.114 C 
ATOM     23  C   UNL     1      -2.281   1.272   4.036  1.00  0.00     0.208 C 
ATOM     24  O   UNL     1      -1.875   0.389   0.089  1.00  0.00    -0.273 OA
ATOM     25  C   UNL     1      -0.344   3.483   0.403  1.00  0.00     0.050 A 
ATOM     26  C   UNL     1       0.674   3.679   2.606  1.00  0.00     0.008 A 
ATOM     27  C   UNL     1       0.294   4.629  -0.036  1.00  0.00     0.027 A 
ATOM     28  C   UNL     1       1.338   4.821   2.161  1.00  0.00     0.001 A 
ATOM     29  C   UNL     1       1.148   5.293   0.853  1.00  0.00     0.002 A 
BRANCH  22  30
ATOM     30  C   UNL     1      -3.235   3.019   2.593  1.00  0.00     0.102 C 
ATOM     31  N   UNL     1      -4.122   3.885   2.362  1.00  0.00    -0.193 NA
ENDBRANCH  22  30
BRANCH  23  32
ATOM     32  N   UNL     1      -3.274   1.425   4.956  1.00  0.00    -0.369 N 
ATOM     33  H   UNL     1      -3.993   2.079   4.801  1.00  0.00     0.159 HD
ATOM     34  H   UNL     1      -3.272   0.882   5.777  1.00  0.00     0.159 HD
ENDBRANCH  23  32
ENDBRANCH   8  10
ENDBRANCH   5   8
ENDBRANCH   3   4
ENDBRANCH   2   3
ENDBRANCH   1   2
BRANCH   1  35
ATOM     35  C   UNL     1      -6.841  -0.627  -0.478  1.00  0.00     0.116 C 
BRANCH  35  36
ATOM     36  N   UNL     1      -6.224  -1.923  -0.262  1.00  0.00    -0.352 N 
ATOM     37  C   UNL     1      -6.410  -2.942   0.632  1.00  0.00     0.251 C 
ATOM     38  H   UNL     1      -5.505  -2.112  -0.907  1.00  0.00     0.163 HD
ATOM     39  O   UNL     1      -5.770  -3.975   0.414  1.00  0.00    -0.269 OA
BRANCH  37  40
ATOM     40  C   UNL     1      -7.295  -2.886   1.829  1.00  0.00     0.039 A 
ATOM     41  C   UNL     1      -7.952  -1.746   2.287  1.00  0.00     0.014 A 
ATOM     42  C   UNL     1      -7.420  -4.074   2.578  1.00  0.00     0.014 A 
ATOM     43  C   UNL     1      -8.685  -1.778   3.468  1.00  0.00     0.010 A 
ATOM     44  C   UNL     1      -8.164  -4.115   3.757  1.00  0.00     0.010 A 
ATOM     45  C   UNL     1      -8.781  -2.955   4.213  1.00  0.00    -0.014 A 
BRANCH  45  46
ATOM     46  C   UNL     1      -9.633  -2.913   5.400  1.00  0.00     0.031 A 
ATOM     47  C   UNL     1     -11.063  -2.589   5.134  1.00  0.00     0.074 A 
ATOM     48  C   UNL     1      -9.226  -3.200   6.652  1.00  0.00     0.049 A 
ATOM     49  N   UNL     1     -11.732  -1.545   5.503  1.00  0.00    -0.248 NA
ATOM     50  C   UNL     1     -11.813  -3.502   4.258  1.00  0.00     0.031 C 
ATOM     51  C   UNL     1      -7.963  -3.820   7.056  1.00  0.00     0.029 A 
ATOM     52  N   UNL     1      -9.906  -3.071   7.831  1.00  0.00    -0.354 N 
ATOM     53  C   UNL     1     -13.041  -1.760   5.077  1.00  0.00     0.074 A 
ATOM     54  C   UNL     1     -13.004  -2.903   4.202  1.00  0.00     0.031 C 
ATOM     55  C   UNL     1      -8.051  -4.200   8.350  1.00  0.00     0.029 A 
ATOM     56  C   UNL     1      -9.309  -3.721   8.901  1.00  0.00     0.049 A 
ATOM     57  H   UNL     1     -10.745  -2.562   7.913  1.00  0.00     0.167 HD
ATOM     58  C   UNL     1     -14.096  -1.118   5.650  1.00  0.00     0.037 A 
ATOM     59  C   UNL     1      -9.823  -3.889  10.143  1.00  0.00     0.037 A 
ATOM     60  C   UNL     1     -13.674   0.002   6.445  1.00  0.00     0.049 A 
ATOM     61  C   UNL     1     -10.823  -2.820  10.381  1.00  0.00     0.074 A 
ATOM     62  C   UNL     1     -13.272   1.300   6.220  1.00  0.00     0.029 A 
ATOM     63  N   UNL     1     -13.353  -0.307   7.738  1.00  0.00    -0.354 N 
ATOM     64  N   UNL     1     -10.528  -1.552  10.467  1.00  0.00    -0.248 NA
ATOM     65  C   UNL     1     -12.248  -3.121  10.276  1.00  0.00     0.031 C 
ATOM     66  C   UNL     1     -12.514   1.687   7.364  1.00  0.00     0.029 A 
ATOM     67  C   UNL     1     -12.478   0.614   8.252  1.00  0.00     0.049 A 
ATOM     68  H   UNL     1     -13.703  -1.084   8.232  1.00  0.00     0.167 HD
ATOM     69  C   UNL     1     -11.662  -0.902  10.026  1.00  0.00     0.074 A 
ATOM     70  C   UNL     1     -12.729  -1.888  10.101  1.00  0.00     0.031 C 
ATOM     71  C   UNL     1     -11.578   0.267   9.333  1.00  0.00     0.037 A 
BRANCH  58  72
ATOM     72  C   UNL     1     -15.468  -1.728   5.848  1.00  0.00     0.058 A 
ATOM     73  C   UNL     1     -16.537  -0.917   6.284  1.00  0.00     0.135 A 
ATOM     74  C   UNL     1     -15.691  -3.121   5.927  1.00  0.00     0.135 A 
ATOM     75  F   UNL     1     -16.431   0.422   6.266  1.00  0.00    -0.206 F 
ATOM     76  C   UNL     1     -17.715  -1.450   6.814  1.00  0.00     0.059 A 
ATOM     77  C   UNL     1     -16.876  -3.673   6.403  1.00  0.00     0.059 A 
ATOM     78  F   UNL     1     -14.731  -4.010   5.642  1.00  0.00    -0.206 F 
ATOM     79  C   UNL     1     -17.867  -2.832   6.884  1.00  0.00     0.060 A 
BRANCH  79  80
ATOM     80  S   UNL     1     -19.336  -3.526   7.664  1.00  0.00     0.124 S 
ATOM     81  O   UNL     1     -19.114  -3.181   9.064  1.00  0.00    -0.237 OA
ATOM     82  O   UNL     1     -20.410  -2.803   6.990  1.00  0.00    -0.237 OA
ATOM     83  O   UNL     1     -19.247  -4.947   7.341  1.00  0.00    -0.744 OA
ENDBRANCH  79  80
ENDBRANCH  58  72
BRANCH  59  84
ATOM     84  C   UNL     1      -9.682  -5.053  11.054  1.00  0.00     0.058 A 
ATOM     85  C   UNL     1     -10.102  -4.972  12.395  1.00  0.00     0.135 A 
ATOM     86  C   UNL     1      -9.424  -6.347  10.560  1.00  0.00     0.135 A 
ATOM     87  F   UNL     1     -10.374  -3.780  12.948  1.00  0.00    -0.206 F 
ATOM     88  C   UNL     1     -10.337  -6.108  13.171  1.00  0.00     0.059 A 
ATOM     89  C   UNL     1      -9.634  -7.495  11.321  1.00  0.00     0.059 A 
ATOM     90  F   UNL     1      -9.053  -6.542   9.286  1.00  0.00    -0.206 F 
ATOM     91  C   UNL     1     -10.130  -7.368  12.613  1.00  0.00     0.060 A 
BRANCH  91  92
ATOM     92  S   UNL     1     -10.644  -8.834  13.536  1.00  0.00     0.124 S 
ATOM     93  O   UNL     1      -9.703  -8.835  14.650  1.00  0.00    -0.237 OA
ATOM     94  O   UNL     1     -12.028  -8.513  13.869  1.00  0.00    -0.237 OA
ATOM     95  O   UNL     1     -10.473  -9.918  12.572  1.00  0.00    -0.744 OA
ENDBRANCH  91  92
ENDBRANCH  59  84
BRANCH  71  96
ATOM     96  C   UNL     1     -10.374   1.129   9.559  1.00  0.00     0.058 A 
ATOM     97  C   UNL     1      -9.070   0.795   9.161  1.00  0.00     0.135 A 
ATOM     98  C   UNL     1     -10.572   2.396  10.131  1.00  0.00     0.135 A 
ATOM     99  F   UNL     1      -8.815  -0.364   8.538  1.00  0.00    -0.206 F 
ATOM    100  C   UNL     1      -8.003   1.674   9.351  1.00  0.00     0.059 A 
ATOM    101  C   UNL     1      -9.528   3.301  10.300  1.00  0.00     0.059 A 
ATOM    102  F   UNL     1     -11.806   2.787  10.491  1.00  0.00    -0.206 F 
ATOM    103  C   UNL     1      -8.243   2.928   9.916  1.00  0.00     0.060 A 
BRANCH 103 104
ATOM    104  S   UNL     1      -6.875   4.096  10.066  1.00  0.00     0.124 S 
ATOM    105  O   UNL     1      -6.097   3.521  11.158  1.00  0.00    -0.237 OA
ATOM    106  O   UNL     1      -6.255   4.029   8.745  1.00  0.00    -0.237 OA
ATOM    107  O   UNL     1      -7.538   5.362  10.370  1.00  0.00    -0.744 OA
ENDBRANCH 103 104
ENDBRANCH  71  96
ENDBRANCH  45  46
ENDBRANCH  37  40
ENDBRANCH  35  36
ENDBRANCH   1  35
TORSDOF 17
