REMARK SMILES CSc1ccc(CNc2ccc(N3CCOCC3)c(C(=O)NCCCCNC(=O)c3ccc(-c4c5nc(c(-c6c(F)cc(S(=O)(=O)[O-])cc6F)c6ccc([nH]6)c(-c6c(F)cc(S(=O)(=O)[O-])cc6F)c6nc(c(-c7c(F)cc(S(=O)(=O)[O-])cc7F)c7ccc4[nH]7)C=C6)C=C5)cc3)c2)cc1
REMARK SMILES IDX 24 1 23 2 22 3 20 4 21 5 19 7 9 8 10 9 96 10 11 11 12 12
REMARK SMILES IDX 8 13 7 15 6 16 3 17 4 18 98 19 5 20 97 21 2 22 1 23 13 24
REMARK SMILES IDX 14 25 18 26 15 27 17 28 16 29 25 30 26 31 27 32 28 33 29 35
REMARK SMILES IDX 30 36 31 37 95 38 32 39 94 40 33 41 34 42 35 43 88 44 36 45
REMARK SMILES IDX 93 46 87 47 89 48 37 49 92 50 86 51 85 52 38 54 72 55 51 56
REMARK SMILES IDX 71 57 52 58 55 59 70 60 90 61 53 62 54 63 69 65 91 66 56 67
REMARK SMILES IDX 39 68 40 69 49 70 41 71 42 72 48 73 50 74 43 75 44 76 45 77
REMARK SMILES IDX 46 78 47 79 73 80 74 81 83 82 75 83 76 84 82 85 84 86 77 87
REMARK SMILES IDX 78 88 79 89 80 90 81 91 57 92 58 93 67 94 59 95 60 96 66 97
REMARK SMILES IDX 68 98 61 99 62 100 63 101 64 102 65 103
REMARK H PARENT 22 6 8 14 27 34 89 53 55 64
REMARK Flexibility Score: inf
ROOT
ATOM      1  C   UNL     1       3.241  -2.596 -11.070  1.00  0.00     0.023 C 
ENDROOT
BRANCH   1   2
ATOM      2  C   UNL     1       2.477  -3.481 -10.096  1.00  0.00     0.116 C 
BRANCH   2   3
ATOM      3  N   UNL     1       2.061  -4.779 -10.613  1.00  0.00    -0.352 N 
ATOM      4  C   UNL     1       2.040  -6.045 -10.043  1.00  0.00     0.253 C 
ATOM      5  O   UNL     1       1.482  -6.932 -10.683  1.00  0.00    -0.269 OA
ATOM      6  H   UNL     1       1.732  -4.753 -11.541  1.00  0.00     0.163 HD
BRANCH   4   7
ATOM      7  C   UNL     1       2.691  -6.323  -8.723  1.00  0.00     0.065 A 
ATOM      8  C   UNL     1       3.375  -5.334  -6.583  1.00  0.00     0.035 A 
ATOM      9  C   UNL     1       4.131  -6.475  -6.337  1.00  0.00     0.028 A 
ATOM     10  C   UNL     1       2.594  -5.335  -7.734  1.00  0.00     0.041 A 
ATOM     11  C   UNL     1       4.076  -7.569  -7.206  1.00  0.00     0.029 A 
ATOM     12  C   UNL     1       3.342  -7.531  -8.406  1.00  0.00     0.050 A 
BRANCH   8  13
ATOM     13  N   UNL     1       3.397  -4.289  -5.689  1.00  0.00    -0.381 N 
ATOM     14  H   UNL     1       3.952  -4.399  -4.883  1.00  0.00     0.160 HD
BRANCH  13  15
ATOM     15  C   UNL     1       2.674  -3.037  -5.829  1.00  0.00     0.148 C 
BRANCH  15  16
ATOM     16  C   UNL     1       2.089  -2.639  -4.498  1.00  0.00    -0.029 A 
ATOM     17  C   UNL     1       0.913  -1.892  -2.046  1.00  0.00     0.007 A 
ATOM     18  C   UNL     1       0.884  -3.223  -2.470  1.00  0.00     0.015 A 
ATOM     19  C   UNL     1       1.502  -0.933  -2.877  1.00  0.00     0.015 A 
ATOM     20  C   UNL     1       1.457  -3.592  -3.686  1.00  0.00     0.007 A 
ATOM     21  C   UNL     1       2.087  -1.302  -4.092  1.00  0.00     0.007 A 
BRANCH  17  22
ATOM     22  S   UNL     1       0.146  -1.524  -0.474  1.00  0.00    -0.130 SA
ATOM     23  C   UNL     1       0.981   0.008   0.010  1.00  0.00     0.091 C 
ENDBRANCH  17  22
ENDBRANCH  15  16
ENDBRANCH  13  15
ENDBRANCH   8  13
BRANCH  12  24
ATOM     24  N   UNL     1       3.202  -8.706  -9.111  1.00  0.00    -0.366 N 
ATOM     25  C   UNL     1       3.787  -8.955 -10.428  1.00  0.00     0.145 C 
ATOM     26  C   UNL     1       2.492  -9.824  -8.484  1.00  0.00     0.145 C 
ATOM     27  C   UNL     1       2.810  -9.739 -11.331  1.00  0.00     0.181 C 
ATOM     28  C   UNL     1       1.518 -10.437  -9.495  1.00  0.00     0.181 C 
ATOM     29  O   UNL     1       2.228 -10.878 -10.665  1.00  0.00    -0.378 OA
ENDBRANCH  12  24
ENDBRANCH   4   7
ENDBRANCH   2   3
ENDBRANCH   1   2
BRANCH   1  30
ATOM     30  C   UNL     1       2.543  -2.255 -12.378  1.00  0.00     0.023 C 
BRANCH  30  31
ATOM     31  C   UNL     1       1.117  -1.732 -12.263  1.00  0.00     0.116 C 
BRANCH  31  32
ATOM     32  N   UNL     1       0.990  -0.540 -11.436  1.00  0.00    -0.352 N 
ATOM     33  C   UNL     1       0.402   0.671 -11.729  1.00  0.00     0.251 C 
ATOM     34  H   UNL     1       1.381  -0.611 -10.535  1.00  0.00     0.163 HD
ATOM     35  O   UNL     1       0.465   1.592 -10.925  1.00  0.00    -0.269 OA
BRANCH  33  36
ATOM     36  C   UNL     1      -0.265   0.863 -13.036  1.00  0.00     0.039 A 
ATOM     37  C   UNL     1       0.050   1.993 -13.795  1.00  0.00     0.014 A 
ATOM     38  C   UNL     1      -1.157  -0.090 -13.532  1.00  0.00     0.014 A 
ATOM     39  C   UNL     1      -0.459   2.119 -15.090  1.00  0.00     0.010 A 
ATOM     40  C   UNL     1      -1.593  -0.006 -14.851  1.00  0.00     0.010 A 
ATOM     41  C   UNL     1      -1.244   1.096 -15.647  1.00  0.00    -0.014 A 
BRANCH  41  42
ATOM     42  C   UNL     1      -1.700   1.151 -17.061  1.00  0.00     0.031 A 
ATOM     43  C   UNL     1      -3.170   1.188 -17.378  1.00  0.00     0.074 A 
ATOM     44  C   UNL     1      -0.794   1.091 -18.058  1.00  0.00     0.049 A 
ATOM     45  N   UNL     1      -3.765   1.157 -18.543  1.00  0.00    -0.248 NA
ATOM     46  C   UNL     1      -4.095   1.234 -16.234  1.00  0.00     0.031 C 
ATOM     47  C   UNL     1       0.657   0.996 -17.881  1.00  0.00     0.029 A 
ATOM     48  N   UNL     1      -0.959   1.089 -19.422  1.00  0.00    -0.354 N 
ATOM     49  C   UNL     1      -5.128   1.164 -18.273  1.00  0.00     0.074 A 
ATOM     50  C   UNL     1      -5.273   1.144 -16.834  1.00  0.00     0.031 C 
ATOM     51  C   UNL     1       1.249   0.967 -19.086  1.00  0.00     0.029 A 
ATOM     52  C   UNL     1       0.222   1.003 -20.122  1.00  0.00     0.049 A 
ATOM     53  H   UNL     1      -1.840   1.143 -19.857  1.00  0.00     0.167 HD
ATOM     54  C   UNL     1      -6.165   1.208 -19.143  1.00  0.00     0.037 A 
ATOM     55  C   UNL     1       0.452   0.951 -21.449  1.00  0.00     0.037 A 
ATOM     56  C   UNL     1      -6.013   1.256 -20.574  1.00  0.00     0.049 A 
ATOM     57  C   UNL     1      -0.716   1.009 -22.397  1.00  0.00     0.074 A 
ATOM     58  C   UNL     1      -6.997   1.365 -21.540  1.00  0.00     0.029 A 
ATOM     59  N   UNL     1      -4.800   1.196 -21.244  1.00  0.00    -0.354 N 
ATOM     60  N   UNL     1      -1.996   1.084 -22.123  1.00  0.00    -0.248 NA
ATOM     61  C   UNL     1      -0.409   0.982 -23.834  1.00  0.00     0.031 C 
ATOM     62  C   UNL     1      -6.383   1.329 -22.796  1.00  0.00     0.029 A 
ATOM     63  C   UNL     1      -5.012   1.248 -22.612  1.00  0.00     0.049 A 
ATOM     64  H   UNL     1      -3.918   1.127 -20.812  1.00  0.00     0.167 HD
ATOM     65  C   UNL     1      -2.646   1.141 -23.352  1.00  0.00     0.074 A 
ATOM     66  C   UNL     1      -1.616   1.103 -24.369  1.00  0.00     0.031 C 
ATOM     67  C   UNL     1      -3.974   1.218 -23.613  1.00  0.00     0.037 A 
BRANCH  54  68
ATOM     68  C   UNL     1      -7.556   1.215 -18.570  1.00  0.00     0.058 A 
ATOM     69  C   UNL     1      -8.059   2.326 -17.873  1.00  0.00     0.135 A 
ATOM     70  C   UNL     1      -8.407   0.112 -18.743  1.00  0.00     0.135 A 
ATOM     71  F   UNL     1      -7.283   3.402 -17.664  1.00  0.00    -0.206 F 
ATOM     72  C   UNL     1      -9.344   2.331 -17.341  1.00  0.00     0.059 A 
ATOM     73  C   UNL     1      -9.707   0.107 -18.245  1.00  0.00     0.059 A 
ATOM     74  F   UNL     1      -7.979  -0.977 -19.401  1.00  0.00    -0.206 F 
ATOM     75  C   UNL     1     -10.161   1.215 -17.532  1.00  0.00     0.060 A 
BRANCH  75  76
ATOM     76  S   UNL     1     -11.827   1.240 -16.838  1.00  0.00     0.124 S 
ATOM     77  O   UNL     1     -11.551   1.079 -15.413  1.00  0.00    -0.237 OA
ATOM     78  O   UNL     1     -12.315   2.555 -17.242  1.00  0.00    -0.237 OA
ATOM     79  O   UNL     1     -12.482   0.106 -17.483  1.00  0.00    -0.744 OA
ENDBRANCH  75  76
ENDBRANCH  54  68
BRANCH  55  80
ATOM     80  C   UNL     1       1.847   0.865 -21.961  1.00  0.00     0.058 A 
ATOM     81  C   UNL     1       2.443   1.954 -22.615  1.00  0.00     0.135 A 
ATOM     82  C   UNL     1       2.615  -0.298 -21.797  1.00  0.00     0.135 A 
ATOM     83  F   UNL     1       1.747   3.086 -22.802  1.00  0.00    -0.206 F 
ATOM     84  C   UNL     1       3.744   1.889 -23.104  1.00  0.00     0.059 A 
ATOM     85  C   UNL     1       3.927  -0.378 -22.254  1.00  0.00     0.059 A 
ATOM     86  F   UNL     1       2.098  -1.362 -21.163  1.00  0.00    -0.206 F 
ATOM     87  C   UNL     1       4.479   0.718 -22.916  1.00  0.00     0.060 A 
BRANCH  87  88
ATOM     88  S   UNL     1       6.184   0.661 -23.510  1.00  0.00     0.124 S 
ATOM     89  O   UNL     1       5.990   0.561 -24.951  1.00  0.00    -0.237 OA
ATOM     90  O   UNL     1       6.720   1.929 -23.024  1.00  0.00    -0.237 OA
ATOM     91  O   UNL     1       6.726  -0.529 -22.860  1.00  0.00    -0.744 OA
ENDBRANCH  87  88
ENDBRANCH  55  80
BRANCH  67  92
ATOM     92  C   UNL     1      -4.393   1.305 -25.054  1.00  0.00     0.058 A 
ATOM     93  C   UNL     1      -4.325   0.196 -25.911  1.00  0.00     0.135 A 
ATOM     94  C   UNL     1      -4.923   2.500 -25.568  1.00  0.00     0.135 A 
ATOM     95  F   UNL     1      -3.820  -0.968 -25.472  1.00  0.00    -0.206 F 
ATOM     96  C   UNL     1      -4.748   0.275 -27.234  1.00  0.00     0.059 A 
ATOM     97  C   UNL     1      -5.378   2.593 -26.879  1.00  0.00     0.059 A 
ATOM     98  F   UNL     1      -5.020   3.588 -24.787  1.00  0.00    -0.206 F 
ATOM     99  C   UNL     1      -5.275   1.477 -27.708  1.00  0.00     0.060 A 
BRANCH  99 100
ATOM    100  S   UNL     1      -5.855   1.555 -29.416  1.00  0.00     0.124 S 
ATOM    101  O   UNL     1      -4.596   1.587 -30.153  1.00  0.00    -0.237 OA
ATOM    102  O   UNL     1      -6.631   0.325 -29.540  1.00  0.00    -0.237 OA
ATOM    103  O   UNL     1      -6.636   2.788 -29.454  1.00  0.00    -0.744 OA
ENDBRANCH  99 100
ENDBRANCH  67  92
ENDBRANCH  41  42
ENDBRANCH  33  36
ENDBRANCH  31  32
ENDBRANCH  30  31
ENDBRANCH   1  30
TORSDOF 19
