REMARK SMILES C[C@@H](CCC(=O)NCCCCNC(=O)c1ccc(-c2c3nc(c(-c4c(F)cc(S(=O)(=O)[O-])cc4F)c4ccc([nH]4)c(-c4c(F)cc(S(=O)(=O)[O-])cc4F)c4nc(c(-c5c(F)cc(S(=O)(=O)[O-])cc5F)c5ccc2[nH]5)C=C4)C=C3)cc1)NC(=O)Nc1ccc(Cl)c(Br)c1
REMARK SMILES IDX 9 1 8 2 7 3 5 4 6 5 4 7 3 8 2 9 1 10 81 11 82 12 83 14 84 15
REMARK SMILES IDX 85 17 86 18 92 19 87 20 90 21 88 22 91 23 89 24 10 25 11 26
REMARK SMILES IDX 12 27 13 28 14 30 15 31 16 32 80 33 17 34 79 35 18 36 19 37
REMARK SMILES IDX 20 38 73 39 21 40 78 41 72 42 74 43 22 44 77 45 71 46 70 47
REMARK SMILES IDX 23 49 57 50 36 51 56 52 37 53 40 54 55 55 75 56 38 57 39 58
REMARK SMILES IDX 54 60 76 61 41 62 24 63 25 64 34 65 26 66 27 67 33 68 35 69
REMARK SMILES IDX 28 70 29 71 30 72 31 73 32 74 58 75 59 76 68 77 60 78 61 79
REMARK SMILES IDX 67 80 69 81 62 82 63 83 64 84 65 85 66 86 42 87 43 88 52 89
REMARK SMILES IDX 44 90 45 91 51 92 53 93 46 94 47 95 48 96 49 97 50 98
REMARK H PARENT 7 6 81 13 84 16 12 29 74 48 40 59
REMARK Flexibility Score: inf
ROOT
ATOM      1  C   UNL     1      -1.456  -0.340  -0.426  1.00  0.00     0.023 C 
ENDROOT
BRANCH   1   2
ATOM      2  C   UNL     1      -1.625   1.174  -0.332  1.00  0.00     0.116 C 
BRANCH   2   3
ATOM      3  N   UNL     1      -1.928   1.634   1.012  1.00  0.00    -0.356 N 
ATOM      4  C   UNL     1      -1.137   2.214   1.954  1.00  0.00     0.220 C 
ATOM      5  O   UNL     1      -1.648   2.557   3.021  1.00  0.00    -0.275 OA
ATOM      6  H   UNL     1      -2.864   1.504   1.288  1.00  0.00     0.163 HD
BRANCH   4   7
ATOM      7  C   UNL     1       0.354   2.354   1.744  1.00  0.00     0.102 C 
BRANCH   7   8
ATOM      8  C   UNL     1       1.155   1.428   2.667  1.00  0.00     0.034 C 
BRANCH   8   9
ATOM      9  C   UNL     1       1.063  -0.090   2.399  1.00  0.00     0.081 C 
ATOM     10  C   UNL     1       1.581  -0.446   0.999  1.00  0.00     0.031 C 
BRANCH   9  11
ATOM     11  N   UNL     1      -0.268  -0.611   2.758  1.00  0.00    -0.335 N 
ATOM     12  C   UNL     1      -0.871  -1.814   2.831  1.00  0.00     0.319 C 
ATOM     13  H   UNL     1      -0.882   0.115   3.012  1.00  0.00     0.165 HD
ATOM     14  O   UNL     1      -2.096  -1.825   2.981  1.00  0.00    -0.248 OA
ATOM     15  N   UNL     1      -0.242  -2.985   2.616  1.00  0.00    -0.308 N 
ATOM     16  H   UNL     1      -0.830  -3.713   2.310  1.00  0.00     0.171 HD
BRANCH  15  17
ATOM     17  C   UNL     1       1.097  -3.344   2.750  1.00  0.00     0.044 A 
ATOM     18  C   UNL     1       1.623  -4.265   1.846  1.00  0.00     0.028 A 
ATOM     19  C   UNL     1       1.913  -2.788   3.732  1.00  0.00     0.043 A 
ATOM     20  C   UNL     1       3.002  -4.470   1.801  1.00  0.00     0.024 A 
ATOM     21  C   UNL     1       3.294  -2.977   3.682  1.00  0.00     0.038 A 
ATOM     22  C   UNL     1       3.845  -3.795   2.691  1.00  0.00     0.055 A 
ATOM     23  Br  UNL     1       4.348  -2.014   4.933  1.00  0.00    -0.049 Br
ATOM     24  Cl  UNL     1       5.547  -3.985   2.482  1.00  0.00    -0.083 Cl
ENDBRANCH  15  17
ENDBRANCH   9  11
ENDBRANCH   8   9
ENDBRANCH   7   8
ENDBRANCH   4   7
ENDBRANCH   2   3
ENDBRANCH   1   2
BRANCH   1  25
ATOM     25  C   UNL     1      -2.718  -1.158  -0.181  1.00  0.00     0.023 C 
BRANCH  25  26
ATOM     26  C   UNL     1      -3.539  -1.329  -1.440  1.00  0.00     0.116 C 
BRANCH  26  27
ATOM     27  N   UNL     1      -2.859  -2.147  -2.441  1.00  0.00    -0.352 N 
ATOM     28  C   UNL     1      -3.425  -2.964  -3.389  1.00  0.00     0.251 C 
ATOM     29  H   UNL     1      -1.876  -2.108  -2.435  1.00  0.00     0.163 HD
ATOM     30  O   UNL     1      -2.725  -3.688  -4.090  1.00  0.00    -0.269 OA
BRANCH  28  31
ATOM     31  C   UNL     1      -4.896  -2.991  -3.500  1.00  0.00     0.039 A 
ATOM     32  C   UNL     1      -5.553  -4.222  -3.525  1.00  0.00     0.014 A 
ATOM     33  C   UNL     1      -5.620  -1.797  -3.477  1.00  0.00     0.014 A 
ATOM     34  C   UNL     1      -6.945  -4.251  -3.459  1.00  0.00     0.010 A 
ATOM     35  C   UNL     1      -6.991  -1.832  -3.290  1.00  0.00     0.010 A 
ATOM     36  C   UNL     1      -7.670  -3.058  -3.304  1.00  0.00    -0.014 A 
BRANCH  36  37
ATOM     37  C   UNL     1      -9.148  -3.056  -3.207  1.00  0.00     0.031 A 
ATOM     38  C   UNL     1      -9.949  -2.333  -4.256  1.00  0.00     0.074 A 
ATOM     39  C   UNL     1      -9.751  -3.637  -2.152  1.00  0.00     0.049 A 
ATOM     40  N   UNL     1     -11.238  -2.133  -4.318  1.00  0.00    -0.248 NA
ATOM     41  C   UNL     1      -9.194  -1.714  -5.360  1.00  0.00     0.031 C 
ATOM     42  C   UNL     1      -9.063  -4.301  -1.041  1.00  0.00     0.029 A 
ATOM     43  N   UNL     1     -11.079  -3.755  -1.836  1.00  0.00    -0.354 N 
ATOM     44  C   UNL     1     -11.442  -1.351  -5.449  1.00  0.00     0.074 A 
ATOM     45  C   UNL     1     -10.142  -1.048  -6.000  1.00  0.00     0.031 C 
ATOM     46  C   UNL     1      -9.977  -4.784  -0.183  1.00  0.00     0.029 A 
ATOM     47  C   UNL     1     -11.309  -4.434  -0.662  1.00  0.00     0.049 A 
ATOM     48  H   UNL     1     -11.800  -3.388  -2.396  1.00  0.00     0.167 HD
ATOM     49  C   UNL     1     -12.612  -0.955  -6.002  1.00  0.00     0.037 A 
ATOM     50  C   UNL     1     -12.469  -4.737  -0.048  1.00  0.00     0.037 A 
ATOM     51  C   UNL     1     -13.899  -1.306  -5.466  1.00  0.00     0.049 A 
ATOM     52  C   UNL     1     -13.759  -4.317  -0.699  1.00  0.00     0.074 A 
ATOM     53  C   UNL     1     -15.152  -1.014  -5.972  1.00  0.00     0.029 A 
ATOM     54  N   UNL     1     -14.094  -2.037  -4.303  1.00  0.00    -0.354 N 
ATOM     55  N   UNL     1     -13.938  -3.633  -1.805  1.00  0.00    -0.248 NA
ATOM     56  C   UNL     1     -15.003  -4.717  -0.030  1.00  0.00     0.031 C 
ATOM     57  C   UNL     1     -16.106  -1.541  -5.095  1.00  0.00     0.029 A 
ATOM     58  C   UNL     1     -15.447  -2.200  -4.068  1.00  0.00     0.049 A 
ATOM     59  H   UNL     1     -13.375  -2.389  -3.729  1.00  0.00     0.167 HD
ATOM     60  C   UNL     1     -15.315  -3.541  -1.977  1.00  0.00     0.074 A 
ATOM     61  C   UNL     1     -15.919  -4.254  -0.869  1.00  0.00     0.031 C 
ATOM     62  C   UNL     1     -16.017  -2.924  -2.959  1.00  0.00     0.037 A 
BRANCH  49  63
ATOM     63  C   UNL     1     -12.543  -0.124  -7.253  1.00  0.00     0.058 A 
ATOM     64  C   UNL     1     -12.093  -0.661  -8.471  1.00  0.00     0.135 A 
ATOM     65  C   UNL     1     -12.940   1.223  -7.242  1.00  0.00     0.135 A 
ATOM     66  F   UNL     1     -11.680  -1.938  -8.535  1.00  0.00    -0.206 F 
ATOM     67  C   UNL     1     -12.004   0.113  -9.622  1.00  0.00     0.059 A 
ATOM     68  C   UNL     1     -12.889   2.009  -8.390  1.00  0.00     0.059 A 
ATOM     69  F   UNL     1     -13.374   1.791  -6.106  1.00  0.00    -0.206 F 
ATOM     70  C   UNL     1     -12.405   1.449  -9.572  1.00  0.00     0.060 A 
BRANCH  70  71
ATOM     71  S   UNL     1     -12.287   2.439 -11.076  1.00  0.00     0.124 S 
ATOM     72  O   UNL     1     -10.845   2.643 -11.178  1.00  0.00    -0.237 OA
ATOM     73  O   UNL     1     -12.874   1.556 -12.078  1.00  0.00    -0.237 OA
ATOM     74  O   UNL     1     -13.069   3.631 -10.761  1.00  0.00    -0.744 OA
ENDBRANCH  70  71
ENDBRANCH  49  63
BRANCH  50  75
ATOM     75  C   UNL     1     -12.459  -5.503   1.228  1.00  0.00     0.058 A 
ATOM     76  C   UNL     1     -12.897  -6.834   1.274  1.00  0.00     0.135 A 
ATOM     77  C   UNL     1     -11.991  -4.929   2.420  1.00  0.00     0.135 A 
ATOM     78  F   UNL     1     -13.356  -7.428   0.162  1.00  0.00    -0.206 F 
ATOM     79  C   UNL     1     -12.890  -7.565   2.459  1.00  0.00     0.059 A 
ATOM     80  C   UNL     1     -11.950  -5.646   3.612  1.00  0.00     0.059 A 
ATOM     81  F   UNL     1     -11.541  -3.664   2.426  1.00  0.00    -0.206 F 
ATOM     82  C   UNL     1     -12.412  -6.962   3.623  1.00  0.00     0.060 A 
BRANCH  82  83
ATOM     83  S   UNL     1     -12.365  -7.934   5.145  1.00  0.00     0.124 S 
ATOM     84  O   UNL     1     -13.778  -7.995   5.499  1.00  0.00    -0.237 OA
ATOM     85  O   UNL     1     -11.767  -9.186   4.691  1.00  0.00    -0.237 OA
ATOM     86  O   UNL     1     -11.526  -7.132   6.030  1.00  0.00    -0.744 OA
ENDBRANCH  82  83
ENDBRANCH  50  75
BRANCH  62  87
ATOM     87  C   UNL     1     -17.515  -3.019  -2.897  1.00  0.00     0.058 A 
ATOM     88  C   UNL     1     -18.259  -2.288  -1.959  1.00  0.00     0.135 A 
ATOM     89  C   UNL     1     -18.214  -3.802  -3.829  1.00  0.00     0.135 A 
ATOM     90  F   UNL     1     -17.636  -1.528  -1.045  1.00  0.00    -0.206 F 
ATOM     91  C   UNL     1     -19.648  -2.348  -1.933  1.00  0.00     0.059 A 
ATOM     92  C   UNL     1     -19.603  -3.855  -3.839  1.00  0.00     0.059 A 
ATOM     93  F   UNL     1     -17.546  -4.510  -4.754  1.00  0.00    -0.206 F 
ATOM     94  C   UNL     1     -20.311  -3.132  -2.879  1.00  0.00     0.060 A 
BRANCH  94  95
ATOM     95  S   UNL     1     -22.115  -3.171  -2.859  1.00  0.00     0.124 S 
ATOM     96  O   UNL     1     -22.377  -4.010  -1.694  1.00  0.00    -0.237 OA
ATOM     97  O   UNL     1     -22.456  -1.759  -2.714  1.00  0.00    -0.237 OA
ATOM     98  O   UNL     1     -22.456  -3.763  -4.149  1.00  0.00    -0.744 OA
ENDBRANCH  94  95
ENDBRANCH  62  87
ENDBRANCH  36  37
ENDBRANCH  28  31
ENDBRANCH  26  27
ENDBRANCH  25  26
ENDBRANCH   1  25
TORSDOF 18
