REMARK SMILES NNC(=O)c1cccc([N+](=O)[O-])c1C(=O)NCCCCNC(=O)c1ccc(-c2c3nc(c(-c4c(F)cc(S(=O)(=O)[O-])cc4F)c4ccc([nH]4)c(-c4c(F)cc(S(=O)(=O)[O-])cc4F)c4nc(c(-c5c(F)cc(S(=O)(=O)[O-])cc5F)c5ccc2[nH]5)C=C4)C=C3)cc1
REMARK SMILES IDX 19 1 18 2 17 3 16 4 14 5 15 6 13 8 5 9 6 10 7 11 9 12 8 13
REMARK SMILES IDX 3 14 2 15 4 17 1 18 10 21 11 22 12 23 20 24 21 25 22 26
REMARK SMILES IDX 23 28 24 29 25 30 89 31 26 32 88 33 27 34 28 35 29 36 82 37
REMARK SMILES IDX 30 38 87 39 81 40 83 41 31 42 86 43 80 44 79 45 32 47 66 48
REMARK SMILES IDX 45 49 65 50 46 51 49 52 64 53 84 54 47 55 48 56 63 58 85 59
REMARK SMILES IDX 50 60 33 61 34 62 43 63 35 64 36 65 42 66 44 67 37 68 38 69
REMARK SMILES IDX 39 70 40 71 41 72 67 73 68 74 77 75 69 76 70 77 76 78 78 79
REMARK SMILES IDX 71 80 72 81 73 82 74 83 75 84 51 85 52 86 61 87 53 88 54 89
REMARK SMILES IDX 60 90 62 91 55 92 56 93 57 94 58 95 59 96
REMARK H PARENT 16 7 2 16 1 19 1 20 21 27 83 46 49 57
REMARK Flexibility Score: inf
ROOT
ATOM      1  C   UNL     1      -0.676   1.839  -3.219  1.00  0.00     0.023 C 
ENDROOT
BRANCH   1   2
ATOM      2  C   UNL     1      -1.486   0.578  -2.903  1.00  0.00     0.023 C 
BRANCH   2   3
ATOM      3  C   UNL     1      -0.962  -0.318  -1.786  1.00  0.00     0.116 C 
BRANCH   3   4
ATOM      4  N   UNL     1      -0.788   0.329  -0.499  1.00  0.00    -0.352 N 
ATOM      5  C   UNL     1      -0.642  -0.218   0.751  1.00  0.00     0.259 C 
ATOM      6  O   UNL     1      -0.253   0.496   1.673  1.00  0.00    -0.269 OA
ATOM      7  H   UNL     1      -0.773   1.313  -0.527  1.00  0.00     0.163 HD
BRANCH   5   8
ATOM      8  C   UNL     1      -0.931  -1.633   1.069  1.00  0.00     0.130 A 
ATOM      9  C   UNL     1      -0.321  -2.725   0.436  1.00  0.00     0.060 A 
ATOM     10  C   UNL     1      -0.650  -4.046   0.806  1.00  0.00     0.015 A 
ATOM     11  C   UNL     1      -1.520  -4.302   1.864  1.00  0.00     0.008 A 
ATOM     12  C   UNL     1      -1.775  -1.921   2.157  1.00  0.00     0.282 A 
ATOM     13  C   UNL     1      -2.073  -3.235   2.560  1.00  0.00     0.086 A 
BRANCH   9  14
ATOM     14  C   UNL     1       0.665  -2.617  -0.654  1.00  0.00     0.266 C 
ATOM     15  N   UNL     1       1.837  -1.907  -0.477  1.00  0.00    -0.290 N 
ATOM     16  H   UNL     1       2.402  -1.747  -1.267  1.00  0.00     0.184 HD
ATOM     17  O   UNL     1       0.418  -3.179  -1.719  1.00  0.00    -0.268 OA
BRANCH  15  18
ATOM     18  N   UNL     1       2.272  -1.400   0.755  1.00  0.00    -0.248 NA
ATOM     19  H   UNL     1       3.161  -0.916   0.628  1.00  0.00     0.143 HD
ATOM     20  H   UNL     1       2.395  -2.168   1.415  1.00  0.00     0.143 HD
ENDBRANCH  15  18
ENDBRANCH   9  14
BRANCH  12  21
ATOM     21  N   UNL     1      -2.418  -0.858   2.909  1.00  0.00     0.063 N 
ATOM     22  O   UNL     1      -2.207  -0.830   4.130  1.00  0.00    -0.258 OA
ATOM     23  O   UNL     1      -3.219  -0.142   2.294  1.00  0.00    -0.258 OA
ENDBRANCH  12  21
ENDBRANCH   5   8
ENDBRANCH   3   4
ENDBRANCH   2   3
ENDBRANCH   1   2
BRANCH   1  24
ATOM     24  C   UNL     1       0.847   1.718  -3.250  1.00  0.00     0.116 C 
BRANCH  24  25
ATOM     25  N   UNL     1       1.363   0.815  -4.266  1.00  0.00    -0.352 N 
ATOM     26  C   UNL     1       2.194   1.057  -5.343  1.00  0.00     0.251 C 
ATOM     27  H   UNL     1       1.073  -0.121  -4.172  1.00  0.00     0.163 HD
ATOM     28  O   UNL     1       2.484   0.143  -6.100  1.00  0.00    -0.269 OA
BRANCH  26  29
ATOM     29  C   UNL     1       2.696   2.427  -5.616  1.00  0.00     0.039 A 
ATOM     30  C   UNL     1       2.576   2.934  -6.915  1.00  0.00     0.014 A 
ATOM     31  C   UNL     1       3.260   3.216  -4.614  1.00  0.00     0.014 A 
ATOM     32  C   UNL     1       2.913   4.266  -7.177  1.00  0.00     0.010 A 
ATOM     33  C   UNL     1       3.522   4.564  -4.858  1.00  0.00     0.010 A 
ATOM     34  C   UNL     1       3.332   5.111  -6.137  1.00  0.00    -0.014 A 
BRANCH  34  35
ATOM     35  C   UNL     1       3.536   6.570  -6.352  1.00  0.00     0.031 A 
ATOM     36  C   UNL     1       4.888   7.192  -6.126  1.00  0.00     0.074 A 
ATOM     37  C   UNL     1       2.482   7.355  -6.660  1.00  0.00     0.049 A 
ATOM     38  N   UNL     1       5.230   8.455  -6.141  1.00  0.00    -0.248 NA
ATOM     39  C   UNL     1       5.994   6.274  -5.811  1.00  0.00     0.031 C 
ATOM     40  C   UNL     1       1.107   6.889  -6.855  1.00  0.00     0.029 A 
ATOM     41  N   UNL     1       2.398   8.713  -6.844  1.00  0.00    -0.354 N 
ATOM     42  C   UNL     1       6.581   8.487  -5.815  1.00  0.00     0.074 A 
ATOM     43  C   UNL     1       6.985   7.119  -5.565  1.00  0.00     0.031 C 
ATOM     44  C   UNL     1       0.322   7.939  -7.148  1.00  0.00     0.029 A 
ATOM     45  C   UNL     1       1.126   9.157  -7.123  1.00  0.00     0.049 A 
ATOM     46  H   UNL     1       3.175   9.314  -6.782  1.00  0.00     0.167 HD
ATOM     47  C   UNL     1       7.414   9.553  -5.749  1.00  0.00     0.037 A 
ATOM     48  C   UNL     1       0.654  10.403  -7.325  1.00  0.00     0.037 A 
ATOM     49  C   UNL     1       7.021  10.909  -6.034  1.00  0.00     0.049 A 
ATOM     50  C   UNL     1       1.602  11.570  -7.265  1.00  0.00     0.074 A 
ATOM     51  C   UNL     1       7.808  12.047  -6.055  1.00  0.00     0.029 A 
ATOM     52  N   UNL     1       5.732  11.310  -6.352  1.00  0.00    -0.354 N 
ATOM     53  N   UNL     1       2.888  11.573  -7.007  1.00  0.00    -0.248 NA
ATOM     54  C   UNL     1       1.037  12.902  -7.526  1.00  0.00     0.031 C 
ATOM     55  C   UNL     1       6.989  13.141  -6.356  1.00  0.00     0.029 A 
ATOM     56  C   UNL     1       5.699  12.679  -6.559  1.00  0.00     0.049 A 
ATOM     57  H   UNL     1       4.954  10.710  -6.420  1.00  0.00     0.167 HD
ATOM     58  C   UNL     1       3.290  12.901  -7.100  1.00  0.00     0.074 A 
ATOM     59  C   UNL     1       2.114  13.672  -7.447  1.00  0.00     0.031 C 
ATOM     60  C   UNL     1       4.523  13.433  -6.915  1.00  0.00     0.037 A 
BRANCH  47  61
ATOM     61  C   UNL     1       8.843   9.293  -5.359  1.00  0.00     0.058 A 
ATOM     62  C   UNL     1       9.735   8.646  -6.229  1.00  0.00     0.135 A 
ATOM     63  C   UNL     1       9.334   9.715  -4.113  1.00  0.00     0.135 A 
ATOM     64  F   UNL     1       9.315   8.209  -7.427  1.00  0.00    -0.206 F 
ATOM     65  C   UNL     1      11.053   8.393  -5.864  1.00  0.00     0.059 A 
ATOM     66  C   UNL     1      10.656   9.497  -3.737  1.00  0.00     0.059 A 
ATOM     67  F   UNL     1       8.525  10.341  -3.244  1.00  0.00    -0.206 F 
ATOM     68  C   UNL     1      11.504   8.819  -4.613  1.00  0.00     0.060 A 
BRANCH  68  69
ATOM     69  S   UNL     1      13.214   8.476  -4.149  1.00  0.00     0.124 S 
ATOM     70  O   UNL     1      13.149   7.050  -3.841  1.00  0.00    -0.237 OA
ATOM     71  O   UNL     1      13.946   8.828  -5.361  1.00  0.00    -0.237 OA
ATOM     72  O   UNL     1      13.438   9.355  -3.006  1.00  0.00    -0.744 OA
ENDBRANCH  68  69
ENDBRANCH  47  61
BRANCH  48  73
ATOM     73  C   UNL     1      -0.787  10.613  -7.627  1.00  0.00     0.058 A 
ATOM     74  C   UNL     1      -1.205  10.977  -8.916  1.00  0.00     0.135 A 
ATOM     75  C   UNL     1      -1.773  10.447  -6.642  1.00  0.00     0.135 A 
ATOM     76  F   UNL     1      -0.298  11.155  -9.888  1.00  0.00    -0.206 F 
ATOM     77  C   UNL     1      -2.547  11.182  -9.216  1.00  0.00     0.059 A 
ATOM     78  C   UNL     1      -3.124  10.625  -6.924  1.00  0.00     0.059 A 
ATOM     79  F   UNL     1      -1.426  10.084  -5.397  1.00  0.00    -0.206 F 
ATOM     80  C   UNL     1      -3.500  11.003  -8.213  1.00  0.00     0.060 A 
BRANCH  80  81
ATOM     81  S   UNL     1      -5.245  11.222  -8.625  1.00  0.00     0.124 S 
ATOM     82  O   UNL     1      -5.349  12.675  -8.698  1.00  0.00    -0.237 OA
ATOM     83  O   UNL     1      -5.354  10.509  -9.895  1.00  0.00    -0.237 OA
ATOM     84  O   UNL     1      -5.935  10.594  -7.503  1.00  0.00    -0.744 OA
ENDBRANCH  80  81
ENDBRANCH  48  73
BRANCH  60  85
ATOM     85  C   UNL     1       4.676  14.914  -7.118  1.00  0.00     0.058 A 
ATOM     86  C   UNL     1       4.204  15.839  -6.175  1.00  0.00     0.135 A 
ATOM     87  C   UNL     1       5.351  15.411  -8.245  1.00  0.00     0.135 A 
ATOM     88  F   UNL     1       3.546  15.416  -5.084  1.00  0.00    -0.206 F 
ATOM     89  C   UNL     1       4.380  17.208  -6.350  1.00  0.00     0.059 A 
ATOM     90  C   UNL     1       5.559  16.774  -8.429  1.00  0.00     0.059 A 
ATOM     91  F   UNL     1       5.830  14.567  -9.172  1.00  0.00    -0.206 F 
ATOM     92  C   UNL     1       5.060  17.666  -7.480  1.00  0.00     0.060 A 
BRANCH  92  93
ATOM     93  S   UNL     1       5.318  19.442  -7.678  1.00  0.00     0.124 S 
ATOM     94  O   UNL     1       3.995  19.886  -8.105  1.00  0.00    -0.237 OA
ATOM     95  O   UNL     1       5.722  19.853  -6.337  1.00  0.00    -0.237 OA
ATOM     96  O   UNL     1       6.365  19.522  -8.692  1.00  0.00    -0.744 OA
ENDBRANCH  92  93
ENDBRANCH  60  85
ENDBRANCH  34  35
ENDBRANCH  26  29
ENDBRANCH  24  25
ENDBRANCH   1  24
TORSDOF 17
