REMARK SMILES C=C(C)C[N@@H+]1CC[C@H](C(=O)NCCCCNC(=O)c2ccc(-c3c4nc(c(-c5c(F)cc(S(=O)(=O)[O-])cc5F)c5ccc([nH]5)c(-c5c(F)cc(S(=O)(=O)[O-])cc5F)c5nc(c(-c6c(F)cc(S(=O)(=O)[O-])cc6F)c6ccc3[nH]6)C=C5)C=C4)cc2)[C@H]1C
REMARK SMILES IDX 14 1 13 2 12 3 11 4 9 5 10 6 8 8 5 9 6 10 85 11 7 13 86 14
REMARK SMILES IDX 4 15 2 16 1 17 3 18 15 19 16 20 17 21 18 23 19 24 20 25
REMARK SMILES IDX 84 26 21 27 83 28 22 29 23 30 24 31 77 32 25 33 82 34 76 35
REMARK SMILES IDX 78 36 26 37 81 38 75 39 74 40 27 42 61 43 40 44 60 45 41 46
REMARK SMILES IDX 44 47 59 48 79 49 42 50 43 51 58 53 80 54 45 55 28 56 29 57
REMARK SMILES IDX 38 58 30 59 31 60 37 61 39 62 32 63 33 64 34 65 35 66 36 67
REMARK SMILES IDX 62 68 63 69 72 70 64 71 65 72 71 73 73 74 66 75 67 76 68 77
REMARK SMILES IDX 69 78 70 79 46 80 47 81 56 82 48 83 49 84 55 85 57 86 50 87
REMARK SMILES IDX 51 88 52 89 53 90 54 91
REMARK H PARENT 11 7 5 12 16 22 78 41 44 52
REMARK Flexibility Score: inf
ROOT
ATOM      1  C   UNL     1       6.198  -4.436   1.913  1.00  0.00     0.023 C 
ENDROOT
BRANCH   1   2
ATOM      2  C   UNL     1       4.753  -4.114   1.522  1.00  0.00     0.023 C 
BRANCH   2   3
ATOM      3  C   UNL     1       3.771  -4.047   2.690  1.00  0.00     0.116 C 
BRANCH   3   4
ATOM      4  N   UNL     1       4.089  -2.959   3.594  1.00  0.00    -0.356 N 
ATOM      5  C   UNL     1       3.319  -1.928   4.037  1.00  0.00     0.229 C 
ATOM      6  O   UNL     1       3.826  -1.140   4.837  1.00  0.00    -0.275 OA
ATOM      7  H   UNL     1       5.009  -2.968   3.943  1.00  0.00     0.163 HD
BRANCH   5   8
ATOM      8  C   UNL     1       1.898  -1.755   3.521  1.00  0.00     0.142 C 
ATOM      9  N   UNL     1       0.852   0.167   2.600  1.00  0.00    -0.329 N 
ATOM     10  C   UNL     1       0.997   0.411   4.034  1.00  0.00     0.263 C 
ATOM     11  C   UNL     1       1.890  -0.835   2.279  1.00  0.00     0.193 C 
ATOM     12  H   UNL     1      -0.070  -0.193   2.355  1.00  0.00     0.348 HD
ATOM     13  C   UNL     1       1.042  -1.011   4.555  1.00  0.00     0.081 C 
ATOM     14  C   UNL     1       1.563  -1.595   0.996  1.00  0.00     0.076 C 
BRANCH   9  15
ATOM     15  C   UNL     1       0.912   1.396   1.810  1.00  0.00     0.293 C 
BRANCH  15  16
ATOM     16  C   UNL     1       0.015   1.300   0.594  1.00  0.00    -0.026 C 
ATOM     17  C   UNL     1       0.483   1.420  -0.660  1.00  0.00     0.013 C 
ATOM     18  C   UNL     1      -1.449   1.067   0.860  1.00  0.00     0.045 C 
ENDBRANCH  15  16
ENDBRANCH   9  15
ENDBRANCH   5   8
ENDBRANCH   3   4
ENDBRANCH   2   3
ENDBRANCH   1   2
BRANCH   1  19
ATOM     19  C   UNL     1       6.385  -5.715   2.722  1.00  0.00     0.116 C 
BRANCH  19  20
ATOM     20  N   UNL     1       5.945  -6.907   2.014  1.00  0.00    -0.352 N 
ATOM     21  C   UNL     1       6.556  -8.140   1.955  1.00  0.00     0.251 C 
ATOM     22  H   UNL     1       5.103  -6.821   1.512  1.00  0.00     0.163 HD
ATOM     23  O   UNL     1       6.121  -9.012   1.214  1.00  0.00    -0.269 OA
BRANCH  21  24
ATOM     24  C   UNL     1       7.767  -8.383   2.769  1.00  0.00     0.039 A 
ATOM     25  C   UNL     1       8.911  -8.890   2.150  1.00  0.00     0.014 A 
ATOM     26  C   UNL     1       7.782  -8.060   4.129  1.00  0.00     0.014 A 
ATOM     27  C   UNL     1      10.099  -9.000   2.877  1.00  0.00     0.010 A 
ATOM     28  C   UNL     1       8.981  -8.109   4.833  1.00  0.00     0.010 A 
ATOM     29  C   UNL     1      10.153  -8.570   4.213  1.00  0.00    -0.014 A 
BRANCH  29  30
ATOM     30  C   UNL     1      11.421  -8.576   4.988  1.00  0.00     0.031 A 
ATOM     31  C   UNL     1      11.543  -9.438   6.214  1.00  0.00     0.074 A 
ATOM     32  C   UNL     1      12.418  -7.734   4.651  1.00  0.00     0.049 A 
ATOM     33  N   UNL     1      12.494  -9.470   7.112  1.00  0.00    -0.248 NA
ATOM     34  C   UNL     1      10.432 -10.365   6.482  1.00  0.00     0.031 C 
ATOM     35  C   UNL     1      12.406  -6.820   3.506  1.00  0.00     0.029 A 
ATOM     36  N   UNL     1      13.628  -7.493   5.253  1.00  0.00    -0.354 N 
ATOM     37  C   UNL     1      12.085 -10.395   8.064  1.00  0.00     0.074 A 
ATOM     38  C   UNL     1      10.781 -10.874   7.654  1.00  0.00     0.031 C 
ATOM     39  C   UNL     1      13.554  -6.124   3.486  1.00  0.00     0.029 A 
ATOM     40  C   UNL     1      14.366  -6.509   4.637  1.00  0.00     0.049 A 
ATOM     41  H   UNL     1      13.938  -7.978   6.052  1.00  0.00     0.167 HD
ATOM     42  C   UNL     1      12.742 -10.819   9.170  1.00  0.00     0.037 A 
ATOM     43  C   UNL     1      15.553  -5.966   4.970  1.00  0.00     0.037 A 
ATOM     44  C   UNL     1      14.052 -10.363   9.554  1.00  0.00     0.049 A 
ATOM     45  C   UNL     1      16.271  -6.462   6.196  1.00  0.00     0.074 A 
ATOM     46  C   UNL     1      14.824 -10.771  10.627  1.00  0.00     0.029 A 
ATOM     47  N   UNL     1      14.786  -9.401   8.876  1.00  0.00    -0.354 N 
ATOM     48  N   UNL     1      15.889  -7.369   7.063  1.00  0.00    -0.248 NA
ATOM     49  C   UNL     1      17.582  -5.865   6.488  1.00  0.00     0.031 C 
ATOM     50  C   UNL     1      16.013 -10.033  10.616  1.00  0.00     0.029 A 
ATOM     51  C   UNL     1      15.998  -9.195   9.512  1.00  0.00     0.049 A 
ATOM     52  H   UNL     1      14.488  -8.933   8.062  1.00  0.00     0.167 HD
ATOM     53  C   UNL     1      16.925  -7.474   7.984  1.00  0.00     0.074 A 
ATOM     54  C   UNL     1      17.951  -6.540   7.569  1.00  0.00     0.031 C 
ATOM     55  C   UNL     1      17.018  -8.275   9.074  1.00  0.00     0.037 A 
BRANCH  42  56
ATOM     56  C   UNL     1      12.050 -11.829  10.043  1.00  0.00     0.058 A 
ATOM     57  C   UNL     1      11.872 -13.159   9.632  1.00  0.00     0.135 A 
ATOM     58  C   UNL     1      11.578 -11.468  11.316  1.00  0.00     0.135 A 
ATOM     59  F   UNL     1      12.290 -13.553   8.418  1.00  0.00    -0.206 F 
ATOM     60  C   UNL     1      11.220 -14.088  10.436  1.00  0.00     0.059 A 
ATOM     61  C   UNL     1      10.947 -12.388  12.148  1.00  0.00     0.059 A 
ATOM     62  F   UNL     1      11.723 -10.209  11.759  1.00  0.00    -0.206 F 
ATOM     63  C   UNL     1      10.757 -13.691  11.692  1.00  0.00     0.060 A 
BRANCH  63  64
ATOM     64  S   UNL     1       9.906 -14.905  12.721  1.00  0.00     0.124 S 
ATOM     65  O   UNL     1       8.606 -14.983  12.063  1.00  0.00    -0.237 OA
ATOM     66  O   UNL     1      10.756 -16.084  12.585  1.00  0.00    -0.237 OA
ATOM     67  O   UNL     1       9.905 -14.287  14.044  1.00  0.00    -0.744 OA
ENDBRANCH  63  64
ENDBRANCH  42  56
BRANCH  43  68
ATOM     68  C   UNL     1      16.148  -4.904   4.116  1.00  0.00     0.058 A 
ATOM     69  C   UNL     1      17.261  -5.174   3.306  1.00  0.00     0.135 A 
ATOM     70  C   UNL     1      15.607  -3.610   4.075  1.00  0.00     0.135 A 
ATOM     71  F   UNL     1      17.818  -6.394   3.317  1.00  0.00    -0.206 F 
ATOM     72  C   UNL     1      17.826  -4.196   2.494  1.00  0.00     0.059 A 
ATOM     73  C   UNL     1      16.140  -2.621   3.254  1.00  0.00     0.059 A 
ATOM     74  F   UNL     1      14.531  -3.307   4.818  1.00  0.00    -0.206 F 
ATOM     75  C   UNL     1      17.256  -2.922   2.473  1.00  0.00     0.060 A 
BRANCH  75  76
ATOM     76  S   UNL     1      17.961  -1.675   1.372  1.00  0.00     0.124 S 
ATOM     77  O   UNL     1      19.183  -1.315   2.082  1.00  0.00    -0.237 OA
ATOM     78  O   UNL     1      18.139  -2.425   0.133  1.00  0.00    -0.237 OA
ATOM     79  O   UNL     1      16.927  -0.645   1.328  1.00  0.00    -0.744 OA
ENDBRANCH  75  76
ENDBRANCH  43  68
BRANCH  55  80
ATOM     80  C   UNL     1      18.291  -8.221   9.870  1.00  0.00     0.058 A 
ATOM     81  C   UNL     1      18.581  -7.151  10.729  1.00  0.00     0.135 A 
ATOM     82  C   UNL     1      19.200  -9.291   9.823  1.00  0.00     0.135 A 
ATOM     83  F   UNL     1      17.748  -6.101  10.805  1.00  0.00    -0.206 F 
ATOM     84  C   UNL     1      19.735  -7.137  11.506  1.00  0.00     0.059 A 
ATOM     85  C   UNL     1      20.347  -9.309  10.608  1.00  0.00     0.059 A 
ATOM     86  F   UNL     1      18.964 -10.343   9.023  1.00  0.00    -0.206 F 
ATOM     87  C   UNL     1      20.610  -8.223  11.442  1.00  0.00     0.060 A 
BRANCH  87  88
ATOM     88  S   UNL     1      22.079  -8.218  12.492  1.00  0.00     0.124 S 
ATOM     89  O   UNL     1      22.939  -7.270  11.791  1.00  0.00    -0.237 OA
ATOM     90  O   UNL     1      21.546  -7.763  13.773  1.00  0.00    -0.237 OA
ATOM     91  O   UNL     1      22.521  -9.609  12.464  1.00  0.00    -0.744 OA
ENDBRANCH  87  88
ENDBRANCH  55  80
ENDBRANCH  29  30
ENDBRANCH  21  24
ENDBRANCH  19  20
ENDBRANCH   1  19
TORSDOF 16
