REMARK SMILES O=C(CC1c2ccccc2CCc2ccccc21)NCCCCNC(=O)c1ccc(-c2c3nc(c(-c4c(F)cc(S(=O)(=O)[O-])cc4F)c4ccc([nH]4)c(-c4c(F)cc(S(=O)(=O)[O-])cc4F)c4nc(c(-c5c(F)cc(S(=O)(=O)[O-])cc5F)c5ccc2[nH]5)C=C4)C=C3)cc1
REMARK SMILES IDX 21 1 20 2 19 3 1 4 2 5 3 7 4 8 5 9 6 10 10 11 7 12 9 13 8 14
REMARK SMILES IDX 11 15 18 17 13 18 17 19 14 20 16 21 15 22 12 23 22 25 23 26
REMARK SMILES IDX 24 27 25 28 26 30 27 31 28 32 92 33 29 34 91 35 30 36 31 37
REMARK SMILES IDX 32 38 85 39 33 40 90 41 84 42 86 43 34 44 89 45 83 46 82 47
REMARK SMILES IDX 35 49 69 50 48 51 68 52 49 53 52 54 67 55 87 56 50 57 51 58
REMARK SMILES IDX 66 60 88 61 53 62 36 63 37 64 46 65 38 66 39 67 45 68 47 69
REMARK SMILES IDX 40 70 41 71 42 72 43 73 44 74 70 75 71 76 80 77 72 78 73 79
REMARK SMILES IDX 79 80 81 81 74 82 75 83 76 84 77 85 78 86 54 87 55 88 64 89
REMARK SMILES IDX 56 90 57 91 63 92 65 93 58 94 59 95 60 96 61 97 62 98
REMARK H PARENT 19 6 24 29 86 48 52 59
REMARK Flexibility Score: 90.00
ROOT
ATOM      1  C   UNL     1       2.373   1.124   3.371  1.00  0.00     0.023 C 
ENDROOT
BRANCH   1   2
ATOM      2  C   UNL     1       2.029   1.591   1.958  1.00  0.00     0.116 C 
BRANCH   2   3
ATOM      3  N   UNL     1       2.713   0.802   0.953  1.00  0.00    -0.356 N 
ATOM      4  O   UNL     1       0.803  -0.016  -0.021  1.00  0.00    -0.275 OA
ATOM      5  C   UNL     1       2.029   0.036   0.038  1.00  0.00     0.220 C 
ATOM      6  H   UNL     1       3.697   0.815   0.924  1.00  0.00     0.163 HD
BRANCH   5   7
ATOM      7  C   UNL     1       2.903  -0.823  -0.849  1.00  0.00     0.113 C 
BRANCH   7   8
ATOM      8  C   UNL     1       3.761  -0.056  -1.874  1.00  0.00     0.059 C 
BRANCH   8   9
ATOM      9  C   UNL     1       3.026   0.990  -2.709  1.00  0.00    -0.037 A 
ATOM     10  C   UNL     1       3.096   2.325  -2.233  1.00  0.00     0.004 A 
ATOM     11  C   UNL     1       2.320   0.747  -3.903  1.00  0.00    -0.044 A 
ATOM     12  C   UNL     1       2.499   3.388  -2.908  1.00  0.00     0.000 A 
ATOM     13  C   UNL     1       1.718   1.845  -4.566  1.00  0.00     0.004 A 
ATOM     14  C   UNL     1       1.805   3.147  -4.079  1.00  0.00     0.000 A 
BRANCH  11  15
ATOM     15  C   UNL     1       2.193  -0.570  -4.639  1.00  0.00     0.040 CG0
ATOM     16  G   UNL     1       2.643  -1.878  -3.999  1.00  0.00     0.000 G0
ENDBRANCH  11  15
ENDBRANCH   8   9
BRANCH   8  17
ATOM     17  C   UNL     1       4.638  -1.004  -2.690  1.00  0.00    -0.037 A 
ATOM     18  C   UNL     1       4.106  -1.886  -3.649  1.00  0.00    -0.044 A 
ATOM     19  C   UNL     1       6.029  -1.008  -2.465  1.00  0.00     0.004 A 
ATOM     20  C   UNL     1       4.963  -2.773  -4.324  1.00  0.00     0.004 A 
ATOM     21  C   UNL     1       6.869  -1.881  -3.156  1.00  0.00     0.000 A 
ATOM     22  C   UNL     1       6.335  -2.771  -4.078  1.00  0.00     0.000 A 
BRANCH  18  23
ATOM     23  C   UNL     1       2.643  -1.878  -3.999  1.00  0.00     0.040 CG0
ATOM     24  G   UNL     1       2.193  -0.570  -4.639  1.00  0.00     0.000 G0
ENDBRANCH  18  23
ENDBRANCH   8  17
ENDBRANCH   7   8
ENDBRANCH   5   7
ENDBRANCH   2   3
ENDBRANCH   1   2
BRANCH   1  25
ATOM     25  C   UNL     1       3.857   1.229   3.738  1.00  0.00     0.023 C 
BRANCH  25  26
ATOM     26  C   UNL     1       4.472   2.615   3.571  1.00  0.00     0.116 C 
BRANCH  26  27
ATOM     27  N   UNL     1       3.853   3.613   4.426  1.00  0.00    -0.352 N 
ATOM     28  C   UNL     1       4.445   4.514   5.279  1.00  0.00     0.251 C 
ATOM     29  H   UNL     1       2.870   3.650   4.390  1.00  0.00     0.163 HD
ATOM     30  O   UNL     1       3.749   5.181   6.040  1.00  0.00    -0.269 OA
BRANCH  28  31
ATOM     31  C   UNL     1       5.918   4.659   5.302  1.00  0.00     0.039 A 
ATOM     32  C   UNL     1       6.571   4.715   6.537  1.00  0.00     0.014 A 
ATOM     33  C   UNL     1       6.656   4.733   4.117  1.00  0.00     0.014 A 
ATOM     34  C   UNL     1       7.967   4.775   6.581  1.00  0.00     0.010 A 
ATOM     35  C   UNL     1       8.049   4.716   4.165  1.00  0.00     0.010 A 
ATOM     36  C   UNL     1       8.721   4.736   5.396  1.00  0.00    -0.014 A 
BRANCH  36  37
ATOM     37  C   UNL     1      10.208   4.701   5.428  1.00  0.00     0.031 A 
ATOM     38  C   UNL     1      11.008   5.821   4.818  1.00  0.00     0.074 A 
ATOM     39  C   UNL     1      10.839   3.630   5.952  1.00  0.00     0.049 A 
ATOM     40  N   UNL     1      12.305   5.936   4.693  1.00  0.00    -0.248 NA
ATOM     41  C   UNL     1      10.250   6.948   4.250  1.00  0.00     0.031 C 
ATOM     42  C   UNL     1      10.178   2.460   6.535  1.00  0.00     0.029 A 
ATOM     43  N   UNL     1      12.177   3.345   6.071  1.00  0.00    -0.354 N 
ATOM     44  C   UNL     1      12.519   7.135   4.022  1.00  0.00     0.074 A 
ATOM     45  C   UNL     1      11.215   7.686   3.721  1.00  0.00     0.031 C 
ATOM     46  C   UNL     1      11.110   1.599   6.972  1.00  0.00     0.029 A 
ATOM     47  C   UNL     1      12.434   2.130   6.662  1.00  0.00     0.049 A 
ATOM     48  H   UNL     1      12.886   3.954   5.762  1.00  0.00     0.167 HD
ATOM     49  C   UNL     1      13.693   7.733   3.706  1.00  0.00     0.037 A 
ATOM     50  C   UNL     1      13.602   1.508   6.918  1.00  0.00     0.037 A 
ATOM     51  C   UNL     1      14.987   7.190   4.030  1.00  0.00     0.049 A 
ATOM     52  C   UNL     1      14.893   2.187   6.545  1.00  0.00     0.074 A 
ATOM     53  C   UNL     1      16.233   7.751   3.809  1.00  0.00     0.029 A 
ATOM     54  N   UNL     1      15.205   5.963   4.638  1.00  0.00    -0.354 N 
ATOM     55  N   UNL     1      15.075   3.354   5.973  1.00  0.00    -0.248 NA
ATOM     56  C   UNL     1      16.137   1.469   6.856  1.00  0.00     0.031 C 
ATOM     57  C   UNL     1      17.205   6.839   4.231  1.00  0.00     0.029 A 
ATOM     58  C   UNL     1      16.566   5.736   4.773  1.00  0.00     0.049 A 
ATOM     59  H   UNL     1      14.498   5.343   4.930  1.00  0.00     0.167 HD
ATOM     60  C   UNL     1      16.453   3.523   5.886  1.00  0.00     0.074 A 
ATOM     61  C   UNL     1      17.056   2.344   6.473  1.00  0.00     0.031 C 
ATOM     62  C   UNL     1      17.155   4.561   5.368  1.00  0.00     0.037 A 
BRANCH  49  63
ATOM     63  C   UNL     1      13.636   9.044   2.968  1.00  0.00     0.058 A 
ATOM     64  C   UNL     1      13.177  10.220   3.582  1.00  0.00     0.135 A 
ATOM     65  C   UNL     1      14.093   9.136   1.643  1.00  0.00     0.135 A 
ATOM     66  F   UNL     1      12.715  10.190   4.843  1.00  0.00    -0.206 F 
ATOM     67  C   UNL     1      13.144  11.433   2.901  1.00  0.00     0.059 A 
ATOM     68  C   UNL     1      14.099  10.345   0.952  1.00  0.00     0.059 A 
ATOM     69  F   UNL     1      14.544   8.044   1.006  1.00  0.00    -0.206 F 
ATOM     70  C   UNL     1      13.609  11.485   1.586  1.00  0.00     0.060 A 
BRANCH  70  71
ATOM     71  S   UNL     1      13.568  13.069   0.721  1.00  0.00     0.124 S 
ATOM     72  O   UNL     1      12.135  13.241   0.497  1.00  0.00    -0.237 OA
ATOM     73  O   UNL     1      14.169  13.972   1.696  1.00  0.00    -0.237 OA
ATOM     74  O   UNL     1      14.364  12.824  -0.477  1.00  0.00    -0.744 OA
ENDBRANCH  70  71
ENDBRANCH  49  63
BRANCH  50  75
ATOM     75  C   UNL     1      13.608   0.174   7.580  1.00  0.00     0.058 A 
ATOM     76  C   UNL     1      14.088   0.020   8.889  1.00  0.00     0.135 A 
ATOM     77  C   UNL     1      13.134  -0.971   6.920  1.00  0.00     0.135 A 
ATOM     78  F   UNL     1      14.559   1.083   9.559  1.00  0.00    -0.206 F 
ATOM     79  C   UNL     1      14.117  -1.222   9.514  1.00  0.00     0.059 A 
ATOM     80  C   UNL     1      13.125  -2.219   7.535  1.00  0.00     0.059 A 
ATOM     81  F   UNL     1      12.649  -0.876   5.672  1.00  0.00    -0.206 F 
ATOM     82  C   UNL     1      13.631  -2.336   8.829  1.00  0.00     0.060 A 
BRANCH  82  83
ATOM     83  S   UNL     1      13.635  -3.937   9.665  1.00  0.00     0.124 S 
ATOM     84  O   UNL     1      15.057  -4.259   9.676  1.00  0.00    -0.237 OA
ATOM     85  O   UNL     1      13.044  -3.607  10.959  1.00  0.00    -0.237 OA
ATOM     86  O   UNL     1      12.805  -4.769   8.800  1.00  0.00    -0.744 OA
ENDBRANCH  82  83
ENDBRANCH  50  75
BRANCH  62  87
ATOM     87  C   UNL     1      18.657   4.495   5.447  1.00  0.00     0.058 A 
ATOM     88  C   UNL     1      19.404   3.611   4.654  1.00  0.00     0.135 A 
ATOM     89  C   UNL     1      19.360   5.369   6.293  1.00  0.00     0.135 A 
ATOM     90  F   UNL     1      18.782   2.750   3.833  1.00  0.00    -0.206 F 
ATOM     91  C   UNL     1      20.793   3.578   4.713  1.00  0.00     0.059 A 
ATOM     92  C   UNL     1      20.750   5.375   6.346  1.00  0.00     0.059 A 
ATOM     93  F   UNL     1      18.696   6.243   7.067  1.00  0.00    -0.206 F 
ATOM     94  C   UNL     1      21.458   4.467   5.561  1.00  0.00     0.060 A 
BRANCH  94  95
ATOM     95  S   UNL     1      23.263   4.437   5.601  1.00  0.00     0.124 S 
ATOM     96  O   UNL     1      23.520   3.195   6.322  1.00  0.00    -0.237 OA
ATOM     97  O   UNL     1      23.606   4.431   4.183  1.00  0.00    -0.237 OA
ATOM     98  O   UNL     1      23.608   5.662   6.318  1.00  0.00    -0.744 OA
ENDBRANCH  94  95
ENDBRANCH  62  87
ENDBRANCH  36  37
ENDBRANCH  28  31
ENDBRANCH  26  27
ENDBRANCH  25  26
ENDBRANCH   1  25
TORSDOF 15
