REMARK SMILES CC(C)(C)OC(=O)N[C@H](c1ccccc1)[C@@H](O)CC(=O)NCCCCNC(=O)c1ccc(-c2c3nc(c(-c4c(F)cc(S(=O)(=O)[O-])cc4F)c4ccc([nH]4)c(-c4c(F)cc(S(=O)(=O)[O-])cc4F)c4nc(c(-c5c(F)cc(S(=O)(=O)[O-])cc5F)c5ccc2[nH]5)C=C4)C=C3)cc1
REMARK SMILES IDX 22 1 21 2 19 3 20 4 18 6 16 7 9 8 8 9 6 10 7 11 5 13 2 14
REMARK SMILES IDX 1 15 3 16 4 17 10 18 11 19 15 20 12 21 14 22 13 23 17 24
REMARK SMILES IDX 23 26 24 27 25 28 26 29 27 30 28 32 29 33 30 34 94 35 31 36
REMARK SMILES IDX 93 37 32 38 33 39 34 40 87 41 35 42 92 43 86 44 88 45 36 46
REMARK SMILES IDX 91 47 85 48 84 49 37 51 71 52 50 53 70 54 51 55 54 56 69 57
REMARK SMILES IDX 89 58 52 59 53 60 68 62 90 63 55 64 38 65 39 66 48 67 40 68
REMARK SMILES IDX 41 69 47 70 49 71 42 72 43 73 44 74 45 75 46 76 72 77 73 78
REMARK SMILES IDX 82 79 74 80 75 81 81 82 83 83 76 84 77 85 78 86 79 87 80 88
REMARK SMILES IDX 56 89 57 90 66 91 58 92 59 93 65 94 67 95 60 96 61 97 62 98
REMARK SMILES IDX 63 99 64 100
REMARK H PARENT 21 5 8 12 17 25 26 31 88 50 54 61
REMARK Flexibility Score: inf
ROOT
ATOM      1  C   UNL     1       4.503   1.167   4.400  1.00  0.00     0.116 C 
ENDROOT
BRANCH   1   2
ATOM      2  N   UNL     1       4.454   2.032   5.569  1.00  0.00    -0.356 N 
ATOM      3  C   UNL     1       3.399   2.542   6.257  1.00  0.00     0.222 C 
ATOM      4  O   UNL     1       3.606   3.409   7.106  1.00  0.00    -0.275 OA
ATOM      5  H   UNL     1       5.335   2.292   5.921  1.00  0.00     0.163 HD
BRANCH   3   6
ATOM      6  C   UNL     1       2.005   2.058   5.979  1.00  0.00     0.134 C 
BRANCH   6   7
ATOM      7  C   UNL     1       1.087   3.134   5.387  1.00  0.00     0.150 C 
BRANCH   7   8
ATOM      8  C   UNL     1       1.590   3.705   4.020  1.00  0.00     0.145 C 
BRANCH   8   9
ATOM      9  N   UNL     1       2.715   4.640   4.150  1.00  0.00    -0.312 N 
ATOM     10  C   UNL     1       3.419   5.256   3.139  1.00  0.00     0.408 C 
ATOM     11  O   UNL     1       4.336   6.015   3.402  1.00  0.00    -0.225 OA
ATOM     12  H   UNL     1       3.000   4.851   5.069  1.00  0.00     0.167 HD
BRANCH  10  13
ATOM     13  O   UNL     1       3.001   4.922   1.893  1.00  0.00    -0.444 OA
BRANCH  13  14
ATOM     14  C   UNL     1       3.557   5.487   0.664  1.00  0.00     0.106 C 
ATOM     15  C   UNL     1       2.480   5.232  -0.402  1.00  0.00     0.056 C 
ATOM     16  C   UNL     1       4.813   4.732   0.233  1.00  0.00     0.056 C 
ATOM     17  C   UNL     1       3.839   6.991   0.726  1.00  0.00     0.056 C 
ENDBRANCH  13  14
ENDBRANCH  10  13
ENDBRANCH   8   9
BRANCH   8  18
ATOM     18  C   UNL     1       0.487   4.348   3.191  1.00  0.00    -0.023 A 
ATOM     19  C   UNL     1       0.105   5.680   3.397  1.00  0.00     0.006 A 
ATOM     20  C   UNL     1      -0.038   3.642   2.094  1.00  0.00     0.006 A 
ATOM     21  C   UNL     1      -0.709   6.322   2.466  1.00  0.00     0.000 A 
ATOM     22  C   UNL     1      -0.863   4.284   1.175  1.00  0.00     0.000 A 
ATOM     23  C   UNL     1      -1.178   5.629   1.350  1.00  0.00     0.000 A 
ENDBRANCH   8  18
ENDBRANCH   7   8
BRANCH   7  24
ATOM     24  O   UNL     1      -0.185   2.468   5.243  1.00  0.00    -0.390 OA
ATOM     25  H   UNL     1      -0.084   1.700   4.660  1.00  0.00     0.211 HD
ENDBRANCH   7  24
ENDBRANCH   6   7
ENDBRANCH   3   6
ENDBRANCH   1   2
BRANCH   1  26
ATOM     26  C   UNL     1       4.640   1.948   3.099  1.00  0.00     0.023 C 
BRANCH  26  27
ATOM     27  C   UNL     1       5.792   2.944   3.102  1.00  0.00     0.023 C 
BRANCH  27  28
ATOM     28  C   UNL     1       7.063   2.389   2.505  1.00  0.00     0.116 C 
BRANCH  28  29
ATOM     29  N   UNL     1       6.891   2.013   1.103  1.00  0.00    -0.352 N 
ATOM     30  C   UNL     1       7.431   2.565  -0.034  1.00  0.00     0.251 C 
ATOM     31  H   UNL     1       6.294   1.245   0.949  1.00  0.00     0.163 HD
ATOM     32  O   UNL     1       6.961   2.283  -1.132  1.00  0.00    -0.269 OA
BRANCH  30  33
ATOM     33  C   UNL     1       8.572   3.492   0.078  1.00  0.00     0.039 A 
ATOM     34  C   UNL     1       8.700   4.563  -0.812  1.00  0.00     0.014 A 
ATOM     35  C   UNL     1       9.540   3.272   1.057  1.00  0.00     0.014 A 
ATOM     36  C   UNL     1       9.796   5.421  -0.699  1.00  0.00     0.010 A 
ATOM     37  C   UNL     1      10.537   4.203   1.264  1.00  0.00     0.010 A 
ATOM     38  C   UNL     1      10.716   5.243   0.345  1.00  0.00    -0.014 A 
BRANCH  38  39
ATOM     39  C   UNL     1      11.977   6.008   0.449  1.00  0.00     0.031 A 
ATOM     40  C   UNL     1      13.274   5.244   0.377  1.00  0.00     0.074 A 
ATOM     41  C   UNL     1      11.954   7.324   0.722  1.00  0.00     0.049 A 
ATOM     42  N   UNL     1      14.485   5.633   0.670  1.00  0.00    -0.248 NA
ATOM     43  C   UNL     1      13.184   3.824  -0.016  1.00  0.00     0.031 C 
ATOM     44  C   UNL     1      10.749   8.146   0.850  1.00  0.00     0.029 A 
ATOM     45  N   UNL     1      12.982   8.194   0.969  1.00  0.00    -0.354 N 
ATOM     46  C   UNL     1      15.284   4.502   0.539  1.00  0.00     0.074 A 
ATOM     47  C   UNL     1      14.414   3.397   0.217  1.00  0.00     0.031 C 
ATOM     48  C   UNL     1      11.110   9.407   1.141  1.00  0.00     0.029 A 
ATOM     49  C   UNL     1      12.563   9.468   1.268  1.00  0.00     0.049 A 
ATOM     50  H   UNL     1      13.930   7.932   0.936  1.00  0.00     0.167 HD
ATOM     51  C   UNL     1      16.628   4.404   0.645  1.00  0.00     0.037 A 
ATOM     52  C   UNL     1      13.278  10.551   1.623  1.00  0.00     0.037 A 
ATOM     53  C   UNL     1      17.478   5.532   0.912  1.00  0.00     0.049 A 
ATOM     54  C   UNL     1      14.776  10.424   1.720  1.00  0.00     0.074 A 
ATOM     55  C   UNL     1      18.858   5.576   0.973  1.00  0.00     0.029 A 
ATOM     56  N   UNL     1      17.021   6.821   1.154  1.00  0.00    -0.354 N 
ATOM     57  N   UNL     1      15.528   9.362   1.544  1.00  0.00    -0.248 NA
ATOM     58  C   UNL     1      15.524  11.642   2.056  1.00  0.00     0.031 C 
ATOM     59  C   UNL     1      19.234   6.882   1.299  1.00  0.00     0.029 A 
ATOM     60  C   UNL     1      18.092   7.665   1.381  1.00  0.00     0.049 A 
ATOM     61  H   UNL     1      16.075   7.093   1.162  1.00  0.00     0.167 HD
ATOM     62  C   UNL     1      16.840   9.791   1.715  1.00  0.00     0.074 A 
ATOM     63  C   UNL     1      16.777  11.211   1.997  1.00  0.00     0.031 C 
ATOM     64  C   UNL     1      17.994   9.080   1.645  1.00  0.00     0.037 A 
BRANCH  51  65
ATOM     65  C   UNL     1      17.252   3.046   0.459  1.00  0.00     0.058 A 
ATOM     66  C   UNL     1      17.232   2.384  -0.780  1.00  0.00     0.135 A 
ATOM     67  C   UNL     1      17.897   2.405   1.528  1.00  0.00     0.135 A 
ATOM     68  F   UNL     1      16.612   2.938  -1.835  1.00  0.00    -0.206 F 
ATOM     69  C   UNL     1      17.799   1.124  -0.944  1.00  0.00     0.059 A 
ATOM     70  C   UNL     1      18.503   1.160   1.379  1.00  0.00     0.059 A 
ATOM     71  F   UNL     1      17.942   2.985   2.738  1.00  0.00    -0.206 F 
ATOM     72  C   UNL     1      18.435   0.521   0.141  1.00  0.00     0.060 A 
BRANCH  72  73
ATOM     73  S   UNL     1      19.180  -1.105  -0.095  1.00  0.00     0.124 S 
ATOM     74  O   UNL     1      17.998  -1.954  -0.214  1.00  0.00    -0.237 OA
ATOM     75  O   UNL     1      19.951  -0.919  -1.320  1.00  0.00    -0.237 OA
ATOM     76  O   UNL     1      19.971  -1.298   1.117  1.00  0.00    -0.744 OA
ENDBRANCH  72  73
ENDBRANCH  51  65
BRANCH  52  77
ATOM     77  C   UNL     1      12.593  11.845   1.880  1.00  0.00     0.058 A 
ATOM     78  C   UNL     1      12.743  12.924   0.995  1.00  0.00     0.135 A 
ATOM     79  C   UNL     1      11.758  12.027   2.994  1.00  0.00     0.135 A 
ATOM     80  F   UNL     1      13.532  12.801  -0.084  1.00  0.00    -0.206 F 
ATOM     81  C   UNL     1      12.111  14.142   1.215  1.00  0.00     0.059 A 
ATOM     82  C   UNL     1      11.091  13.228   3.220  1.00  0.00     0.059 A 
ATOM     83  F   UNL     1      11.564  11.021   3.860  1.00  0.00    -0.206 F 
ATOM     84  C   UNL     1      11.283  14.284   2.330  1.00  0.00     0.060 A 
BRANCH  84  85
ATOM     85  S   UNL     1      10.436  15.859   2.580  1.00  0.00     0.124 S 
ATOM     86  O   UNL     1      11.543  16.731   2.956  1.00  0.00    -0.237 OA
ATOM     87  O   UNL     1       9.849  16.102   1.266  1.00  0.00    -0.237 OA
ATOM     88  O   UNL     1       9.478  15.562   3.641  1.00  0.00    -0.744 OA
ENDBRANCH  84  85
ENDBRANCH  52  77
BRANCH  64  89
ATOM     89  C   UNL     1      19.281   9.834   1.828  1.00  0.00     0.058 A 
ATOM     90  C   UNL     1      19.679  10.327   3.079  1.00  0.00     0.135 A 
ATOM     91  C   UNL     1      20.157  10.008   0.743  1.00  0.00     0.135 A 
ATOM     92  F   UNL     1      18.877  10.190   4.147  1.00  0.00    -0.206 F 
ATOM     93  C   UNL     1      20.890  10.991   3.244  1.00  0.00     0.059 A 
ATOM     94  C   UNL     1      21.386  10.638   0.892  1.00  0.00     0.059 A 
ATOM     95  F   UNL     1      19.829   9.541  -0.473  1.00  0.00    -0.206 F 
ATOM     96  C   UNL     1      21.738  11.137   2.145  1.00  0.00     0.060 A 
BRANCH  96  97
ATOM     97  S   UNL     1      23.322  11.969   2.382  1.00  0.00     0.124 S 
ATOM     98  O   UNL     1      22.903  13.356   2.551  1.00  0.00    -0.237 OA
ATOM     99  O   UNL     1      23.841  11.312   3.578  1.00  0.00    -0.237 OA
ATOM    100  O   UNL     1      24.047  11.678   1.149  1.00  0.00    -0.744 OA
ENDBRANCH  96  97
ENDBRANCH  64  89
ENDBRANCH  38  39
ENDBRANCH  30  33
ENDBRANCH  28  29
ENDBRANCH  27  28
ENDBRANCH  26  27
ENDBRANCH   1  26
TORSDOF 21
