REMARK SMILES C[NH+]1CCC2(CC1)OC[C@H](C(=O)NCCCCNC(=O)c1ccc(-c3c4nc(c(-c5c(F)cc(S(=O)(=O)[O-])cc5F)c5ccc([nH]5)c(-c5c(F)cc(S(=O)(=O)[O-])cc5F)c5nc(c(-c6c(F)cc(S(=O)(=O)[O-])cc6F)c6ccc3[nH]6)C=C5)C=C4)cc1)N2C(=O)c1cc(C(F)(F)F)cc(C(F)(F)F)c1
REMARK SMILES IDX 15 1 14 2 13 3 11 4 12 5 10 7 1 8 2 9 3 10 7 11 4 13 6 14
REMARK SMILES IDX 5 15 8 16 87 17 9 18 88 19 89 20 90 21 91 22 103 23 92 24
REMARK SMILES IDX 98 25 97 26 93 27 94 28 95 29 96 30 99 31 100 32 101 33
REMARK SMILES IDX 102 34 16 35 17 36 18 37 19 38 20 40 21 41 22 42 86 43 23 44
REMARK SMILES IDX 85 45 24 46 25 47 26 48 79 49 27 50 84 51 78 52 80 53 28 54
REMARK SMILES IDX 83 55 77 56 76 57 29 59 63 60 42 61 62 62 43 63 46 64 61 65
REMARK SMILES IDX 81 66 44 67 45 68 60 70 82 71 47 72 30 73 31 74 40 75 32 76
REMARK SMILES IDX 33 77 39 78 41 79 34 80 35 81 36 82 37 83 38 84 64 85 65 86
REMARK SMILES IDX 74 87 66 88 67 89 73 90 75 91 68 92 69 93 70 94 71 95 72 96
REMARK SMILES IDX 48 97 49 98 58 99 50 100 51 101 57 102 59 103 52 104 53 105
REMARK SMILES IDX 54 106 55 107 56 108
REMARK H PARENT 13 6 2 12 18 39 80 58 46 69
REMARK Flexibility Score: inf
ROOT
ATOM      1  C   UNL     1      -1.724   7.014  -3.873  1.00  0.00     0.023 C 
ENDROOT
BRANCH   1   2
ATOM      2  C   UNL     1      -0.496   7.485  -3.096  1.00  0.00     0.116 C 
BRANCH   2   3
ATOM      3  N   UNL     1      -0.517   7.029  -1.720  1.00  0.00    -0.354 N 
ATOM      4  C   UNL     1       0.274   6.133  -1.068  1.00  0.00     0.245 C 
ATOM      5  O   UNL     1      -0.013   5.907   0.110  1.00  0.00    -0.273 OA
ATOM      6  H   UNL     1      -1.221   7.434  -1.164  1.00  0.00     0.163 HD
BRANCH   4   7
ATOM      7  C   UNL     1       1.446   5.428  -1.783  1.00  0.00     0.203 C 
ATOM      8  C   UNL     1       1.468  -0.451   0.777  1.00  0.00     0.332 C 
ATOM      9  N   UNL     1       1.075   0.419  -0.320  1.00  0.00    -0.337 N 
ATOM     10  C   UNL     1       0.198   1.513   0.068  1.00  0.00     0.267 C 
ATOM     11  C   UNL     1       2.153   0.719  -1.255  1.00  0.00     0.267 C 
ATOM     12  H   UNL     1       0.449  -0.134  -0.904  1.00  0.00     0.347 HD
ATOM     13  C   UNL     1       0.883   2.838   0.285  1.00  0.00     0.120 C 
ATOM     14  C   UNL     1       2.791   2.100  -1.164  1.00  0.00     0.120 C 
ATOM     15  C   UNL     1       1.833   3.252  -0.845  1.00  0.00     0.155 C 
ATOM     16  O   UNL     1       2.705   4.237  -0.193  1.00  0.00    -0.352 OA
ATOM     17  N   UNL     1       1.238   3.997  -1.986  1.00  0.00    -0.295 N 
ATOM     18  C   UNL     1       2.670   5.471  -0.907  1.00  0.00     0.198 C 
BRANCH  17  19
ATOM     19  C   UNL     1       0.645   3.653  -3.197  1.00  0.00     0.256 C 
ATOM     20  O   UNL     1       0.321   4.498  -4.034  1.00  0.00    -0.269 OA
BRANCH  19  21
ATOM     21  C   UNL     1       0.445   2.268  -3.642  1.00  0.00     0.041 A 
ATOM     22  C   UNL     1       1.248   1.762  -4.674  1.00  0.00     0.027 A 
ATOM     23  C   UNL     1      -0.611   1.505  -3.151  1.00  0.00     0.027 A 
ATOM     24  C   UNL     1       1.081   0.439  -5.121  1.00  0.00     0.057 A 
ATOM     25  C   UNL     1      -0.711   0.144  -3.482  1.00  0.00     0.057 A 
ATOM     26  C   UNL     1       0.127  -0.373  -4.485  1.00  0.00     0.026 A 
BRANCH  24  27
ATOM     27  C   UNL     1       1.922  -0.095  -6.257  1.00  0.00     0.416 C 
ATOM     28  F   UNL     1       1.609   0.478  -7.451  1.00  0.00    -0.166 F 
ATOM     29  F   UNL     1       3.252   0.126  -6.070  1.00  0.00    -0.166 F 
ATOM     30  F   UNL     1       1.792  -1.439  -6.442  1.00  0.00    -0.166 F 
ENDBRANCH  24  27
BRANCH  25  31
ATOM     31  C   UNL     1      -1.631  -0.779  -2.715  1.00  0.00     0.416 C 
ATOM     32  F   UNL     1      -2.571  -1.357  -3.510  1.00  0.00    -0.166 F 
ATOM     33  F   UNL     1      -0.951  -1.810  -2.137  1.00  0.00    -0.166 F 
ATOM     34  F   UNL     1      -2.308  -0.165  -1.707  1.00  0.00    -0.166 F 
ENDBRANCH  25  31
ENDBRANCH  19  21
ENDBRANCH  17  19
ENDBRANCH   4   7
ENDBRANCH   2   3
ENDBRANCH   1   2
BRANCH   1  35
ATOM     35  C   UNL     1      -3.066   7.513  -3.333  1.00  0.00     0.023 C 
BRANCH  35  36
ATOM     36  C   UNL     1      -3.175   9.019  -3.130  1.00  0.00     0.116 C 
BRANCH  36  37
ATOM     37  N   UNL     1      -2.916   9.777  -4.343  1.00  0.00    -0.352 N 
ATOM     38  C   UNL     1      -3.642  10.807  -4.899  1.00  0.00     0.251 C 
ATOM     39  H   UNL     1      -2.106   9.517  -4.839  1.00  0.00     0.163 HD
ATOM     40  O   UNL     1      -3.340  11.247  -5.997  1.00  0.00    -0.269 OA
BRANCH  38  41
ATOM     41  C   UNL     1      -4.809  11.352  -4.168  1.00  0.00     0.039 A 
ATOM     42  C   UNL     1      -6.012  11.525  -4.857  1.00  0.00     0.014 A 
ATOM     43  C   UNL     1      -4.724  11.664  -2.809  1.00  0.00     0.014 A 
ATOM     44  C   UNL     1      -7.150  11.944  -4.164  1.00  0.00     0.010 A 
ATOM     45  C   UNL     1      -5.875  12.009  -2.107  1.00  0.00     0.010 A 
ATOM     46  C   UNL     1      -7.101  12.151  -2.776  1.00  0.00    -0.014 A 
BRANCH  46  47
ATOM     47  C   UNL     1      -8.320  12.503  -2.002  1.00  0.00     0.031 A 
ATOM     48  C   UNL     1      -8.399  13.816  -1.272  1.00  0.00     0.074 A 
ATOM     49  C   UNL     1      -9.321  11.606  -1.890  1.00  0.00     0.049 A 
ATOM     50  N   UNL     1      -9.336  14.263  -0.476  1.00  0.00    -0.248 NA
ATOM     51  C   UNL     1      -7.261  14.734  -1.435  1.00  0.00     0.031 C 
ATOM     52  C   UNL     1      -9.338  10.277  -2.505  1.00  0.00     0.029 A 
ATOM     53  N   UNL     1     -10.509  11.669  -1.205  1.00  0.00    -0.354 N 
ATOM     54  C   UNL     1      -8.893  15.502  -0.027  1.00  0.00     0.074 A 
ATOM     55  C   UNL     1      -7.582  15.713  -0.601  1.00  0.00     0.031 C 
ATOM     56  C   UNL     1     -10.485   9.657  -2.182  1.00  0.00     0.029 A 
ATOM     57  C   UNL     1     -11.266  10.525  -1.306  1.00  0.00     0.049 A 
ATOM     58  H   UNL     1     -10.793  12.459  -0.690  1.00  0.00     0.167 HD
ATOM     59  C   UNL     1      -9.529  16.390   0.774  1.00  0.00     0.037 A 
ATOM     60  C   UNL     1     -12.449  10.204  -0.746  1.00  0.00     0.037 A 
ATOM     61  C   UNL     1     -10.845  16.183   1.319  1.00  0.00     0.049 A 
ATOM     62  C   UNL     1     -13.144  11.211   0.130  1.00  0.00     0.074 A 
ATOM     63  C   UNL     1     -11.606  17.052   2.082  1.00  0.00     0.029 A 
ATOM     64  N   UNL     1     -11.596  15.026   1.166  1.00  0.00    -0.354 N 
ATOM     65  N   UNL     1     -12.743  12.408   0.485  1.00  0.00    -0.248 NA
ATOM     66  C   UNL     1     -14.454  10.829   0.675  1.00  0.00     0.031 C 
ATOM     67  C   UNL     1     -12.795  16.402   2.431  1.00  0.00     0.029 A 
ATOM     68  C   UNL     1     -12.800  15.149   1.839  1.00  0.00     0.049 A 
ATOM     69  H   UNL     1     -11.313  14.234   0.653  1.00  0.00     0.167 HD
ATOM     70  C   UNL     1     -13.762  12.933   1.273  1.00  0.00     0.074 A 
ATOM     71  C   UNL     1     -14.802  11.926   1.333  1.00  0.00     0.031 C 
ATOM     72  C   UNL     1     -13.831  14.141   1.886  1.00  0.00     0.037 A 
BRANCH  59  73
ATOM     73  C   UNL     1      -8.806  17.666   1.112  1.00  0.00     0.058 A 
ATOM     74  C   UNL     1      -8.569  18.660   0.149  1.00  0.00     0.135 A 
ATOM     75  C   UNL     1      -8.367  17.910   2.424  1.00  0.00     0.135 A 
ATOM     76  F   UNL     1      -8.954  18.475  -1.123  1.00  0.00    -0.206 F 
ATOM     77  C   UNL     1      -7.891  19.833   0.465  1.00  0.00     0.059 A 
ATOM     78  C   UNL     1      -7.714  19.090   2.769  1.00  0.00     0.059 A 
ATOM     79  F   UNL     1      -8.568  16.996   3.386  1.00  0.00    -0.206 F 
ATOM     80  C   UNL     1      -7.465  20.038   1.778  1.00  0.00     0.060 A 
BRANCH  80  81
ATOM     81  S   UNL     1      -6.582  21.562   2.170  1.00  0.00     0.124 S 
ATOM     82  O   UNL     1      -5.285  21.315   1.546  1.00  0.00    -0.237 OA
ATOM     83  O   UNL     1      -7.410  22.578   1.527  1.00  0.00    -0.237 OA
ATOM     84  O   UNL     1      -6.580  21.590   3.629  1.00  0.00    -0.744 OA
ENDBRANCH  80  81
ENDBRANCH  59  73
BRANCH  60  85
ATOM     85  C   UNL     1     -13.057   8.874  -1.017  1.00  0.00     0.058 A 
ATOM     86  C   UNL     1     -14.193   8.751  -1.830  1.00  0.00     0.135 A 
ATOM     87  C   UNL     1     -12.496   7.697  -0.495  1.00  0.00     0.135 A 
ATOM     88  F   UNL     1     -14.770   9.847  -2.346  1.00  0.00    -0.206 F 
ATOM     89  C   UNL     1     -14.759   7.511  -2.110  1.00  0.00     0.059 A 
ATOM     90  C   UNL     1     -13.029   6.444  -0.781  1.00  0.00     0.059 A 
ATOM     91  F   UNL     1     -11.399   7.759   0.275  1.00  0.00    -0.206 F 
ATOM     92  C   UNL     1     -14.165   6.362  -1.584  1.00  0.00     0.060 A 
BRANCH  92  93
ATOM     93  S   UNL     1     -14.870   4.753  -2.007  1.00  0.00     0.124 S 
ATOM     94  O   UNL     1     -16.095   4.752  -1.216  1.00  0.00    -0.237 OA
ATOM     95  O   UNL     1     -15.042   4.865  -3.452  1.00  0.00    -0.237 OA
ATOM     96  O   UNL     1     -13.839   3.812  -1.578  1.00  0.00    -0.744 OA
ENDBRANCH  92  93
ENDBRANCH  60  85
BRANCH  72  97
ATOM     97  C   UNL     1     -15.086  14.462   2.650  1.00  0.00     0.058 A 
ATOM     98  C   UNL     1     -15.379  13.856   3.881  1.00  0.00     0.135 A 
ATOM     99  C   UNL     1     -15.978  15.435   2.169  1.00  0.00     0.135 A 
ATOM    100  F   UNL     1     -14.564  12.915   4.383  1.00  0.00    -0.206 F 
ATOM    101  C   UNL     1     -16.523  14.189   4.600  1.00  0.00     0.059 A 
ATOM    102  C   UNL     1     -17.113  15.804   2.885  1.00  0.00     0.059 A 
ATOM    103  F   UNL     1     -15.739  16.053   1.002  1.00  0.00    -0.206 F 
ATOM    104  C   UNL     1     -17.383  15.167   4.095  1.00  0.00     0.060 A 
BRANCH 104 105
ATOM    105  S   UNL     1     -18.843  15.617   5.056  1.00  0.00     0.124 S 
ATOM    106  O   UNL     1     -19.702  14.457   4.847  1.00  0.00    -0.237 OA
ATOM    107  O   UNL     1     -18.297  15.768   6.402  1.00  0.00    -0.237 OA
ATOM    108  O   UNL     1     -19.294  16.855   4.428  1.00  0.00    -0.744 OA
ENDBRANCH 104 105
ENDBRANCH  72  97
ENDBRANCH  46  47
ENDBRANCH  38  41
ENDBRANCH  36  37
ENDBRANCH  35  36
ENDBRANCH   1  35
TORSDOF 18
