REMARK SMILES C[C@H](c1ccccc1)[N@@H+](CC(=O)NCCCCNC(=O)c1ccc(-c2c3nc(c(-c4c(F)cc(S(=O)(=O)[O-])cc4F)c4ccc([nH]4)c(-c4c(F)cc(S(=O)(=O)[O-])cc4F)c4nc(c(-c5c(F)cc(S(=O)(=O)[O-])cc5F)c5ccc2[nH]5)C=C4)C=C3)cc1)CC(F)(F)F
REMARK SMILES IDX 15 1 14 2 13 3 11 4 12 5 10 7 9 8 2 10 1 11 3 12 4 13 8 14
REMARK SMILES IDX 5 15 7 16 6 17 87 18 88 19 89 20 90 21 91 22 16 23 17 24
REMARK SMILES IDX 18 25 19 26 20 28 21 29 22 30 86 31 23 32 85 33 24 34 25 35
REMARK SMILES IDX 26 36 79 37 27 38 84 39 78 40 80 41 28 42 83 43 77 44 76 45
REMARK SMILES IDX 29 47 63 48 42 49 62 50 43 51 46 52 61 53 81 54 44 55 45 56
REMARK SMILES IDX 60 58 82 59 47 60 30 61 31 62 40 63 32 64 33 65 39 66 41 67
REMARK SMILES IDX 34 68 35 69 36 70 37 71 38 72 64 73 65 74 74 75 66 76 67 77
REMARK SMILES IDX 73 78 75 79 68 80 69 81 70 82 71 83 72 84 48 85 49 86 58 87
REMARK SMILES IDX 50 88 51 89 57 90 59 91 52 92 53 93 54 94 55 95 56 96
REMARK H PARENT 13 6 9 9 18 27 80 46 46 57
REMARK Flexibility Score: inf
ROOT
ATOM      1  C   UNL     1       2.626  -2.388   1.850  1.00  0.00     0.023 C 
ENDROOT
BRANCH   1   2
ATOM      2  C   UNL     1       1.399  -3.281   2.089  1.00  0.00     0.116 C 
BRANCH   2   3
ATOM      3  N   UNL     1       0.391  -2.779   3.015  1.00  0.00    -0.351 N 
ATOM      4  C   UNL     1      -0.882  -2.310   2.824  1.00  0.00     0.275 C 
ATOM      5  O   UNL     1      -1.596  -2.179   3.822  1.00  0.00    -0.269 OA
ATOM      6  H   UNL     1       0.679  -2.776   3.956  1.00  0.00     0.163 HD
BRANCH   4   7
ATOM      7  C   UNL     1      -1.405  -1.925   1.433  1.00  0.00     0.364 C 
BRANCH   7   8
ATOM      8  N   UNL     1      -1.213  -0.500   1.050  1.00  0.00    -0.314 N 
ATOM      9  H   UNL     1      -1.293  -0.497   0.033  1.00  0.00     0.349 HD
BRANCH   8  10
ATOM     10  C   UNL     1       0.156  -0.014   1.249  1.00  0.00     0.212 C 
ATOM     11  C   UNL     1       0.492   0.492   2.659  1.00  0.00     0.081 C 
BRANCH  10  12
ATOM     12  C   UNL     1       0.786   0.809   0.123  1.00  0.00     0.009 A 
ATOM     13  C   UNL     1       0.353   0.706  -1.208  1.00  0.00     0.010 A 
ATOM     14  C   UNL     1       1.974   1.531   0.365  1.00  0.00     0.010 A 
ATOM     15  C   UNL     1       1.064   1.325  -2.244  1.00  0.00     0.001 A 
ATOM     16  C   UNL     1       2.682   2.148  -0.666  1.00  0.00     0.001 A 
ATOM     17  C   UNL     1       2.225   2.046  -1.973  1.00  0.00     0.000 A 
ENDBRANCH  10  12
ENDBRANCH   8  10
BRANCH   8  18
ATOM     18  C   UNL     1      -2.333   0.420   1.328  1.00  0.00     0.380 C 
BRANCH  18  19
ATOM     19  C   UNL     1      -2.526   1.241   2.623  1.00  0.00     0.438 C 
ATOM     20  F   UNL     1      -1.612   2.226   2.743  1.00  0.00    -0.165 F 
ATOM     21  F   UNL     1      -3.739   1.852   2.595  1.00  0.00    -0.165 F 
ATOM     22  F   UNL     1      -2.491   0.484   3.733  1.00  0.00    -0.165 F 
ENDBRANCH  18  19
ENDBRANCH   8  18
ENDBRANCH   7   8
ENDBRANCH   4   7
ENDBRANCH   2   3
ENDBRANCH   1   2
BRANCH   1  23
ATOM     23  C   UNL     1       3.247  -1.742   3.087  1.00  0.00     0.023 C 
BRANCH  23  24
ATOM     24  C   UNL     1       4.389  -2.545   3.667  1.00  0.00     0.116 C 
BRANCH  24  25
ATOM     25  N   UNL     1       5.492  -2.680   2.723  1.00  0.00    -0.352 N 
ATOM     26  C   UNL     1       6.836  -2.535   2.933  1.00  0.00     0.251 C 
ATOM     27  H   UNL     1       5.231  -2.910   1.802  1.00  0.00     0.163 HD
ATOM     28  O   UNL     1       7.607  -2.516   1.973  1.00  0.00    -0.269 OA
BRANCH  26  29
ATOM     29  C   UNL     1       7.342  -2.374   4.307  1.00  0.00     0.039 A 
ATOM     30  C   UNL     1       8.379  -1.472   4.548  1.00  0.00     0.014 A 
ATOM     31  C   UNL     1       6.772  -3.097   5.357  1.00  0.00     0.014 A 
ATOM     32  C   UNL     1       8.817  -1.271   5.854  1.00  0.00     0.010 A 
ATOM     33  C   UNL     1       7.117  -2.800   6.663  1.00  0.00     0.010 A 
ATOM     34  C   UNL     1       8.171  -1.916   6.921  1.00  0.00    -0.014 A 
BRANCH  34  35
ATOM     35  C   UNL     1       8.620  -1.737   8.318  1.00  0.00     0.031 A 
ATOM     36  C   UNL     1       9.110  -2.932   9.090  1.00  0.00     0.074 A 
ATOM     37  C   UNL     1       8.522  -0.524   8.894  1.00  0.00     0.049 A 
ATOM     38  N   UNL     1       9.480  -3.011  10.340  1.00  0.00    -0.248 NA
ATOM     39  C   UNL     1       9.149  -4.221   8.374  1.00  0.00     0.031 C 
ATOM     40  C   UNL     1       7.993   0.680   8.249  1.00  0.00     0.029 A 
ATOM     41  N   UNL     1       8.858  -0.105  10.153  1.00  0.00    -0.354 N 
ATOM     42  C   UNL     1       9.769  -4.353  10.562  1.00  0.00     0.074 A 
ATOM     43  C   UNL     1       9.463  -5.065   9.344  1.00  0.00     0.031 C 
ATOM     44  C   UNL     1       8.073   1.710   9.106  1.00  0.00     0.029 A 
ATOM     45  C   UNL     1       8.619   1.231  10.371  1.00  0.00     0.049 A 
ATOM     46  H   UNL     1       9.236  -0.703  10.838  1.00  0.00     0.167 HD
ATOM     47  C   UNL     1      10.278  -4.931  11.674  1.00  0.00     0.037 A 
ATOM     48  C   UNL     1       8.819   1.979  11.472  1.00  0.00     0.037 A 
ATOM     49  C   UNL     1      10.619  -4.193  12.859  1.00  0.00     0.049 A 
ATOM     50  C   UNL     1       9.418   1.321  12.685  1.00  0.00     0.074 A 
ATOM     51  C   UNL     1      11.210  -4.654  14.021  1.00  0.00     0.029 A 
ATOM     52  N   UNL     1      10.402  -2.832  13.030  1.00  0.00    -0.354 N 
ATOM     53  N   UNL     1       9.757   0.064  12.857  1.00  0.00    -0.248 NA
ATOM     54  C   UNL     1       9.675   2.180  13.847  1.00  0.00     0.031 C 
ATOM     55  C   UNL     1      11.305  -3.582  14.913  1.00  0.00     0.029 A 
ATOM     56  C   UNL     1      10.828  -2.440  14.286  1.00  0.00     0.049 A 
ATOM     57  H   UNL     1      10.004  -2.235  12.357  1.00  0.00     0.167 HD
ATOM     58  C   UNL     1      10.289  -0.015  14.138  1.00  0.00     0.074 A 
ATOM     59  C   UNL     1      10.242   1.326  14.688  1.00  0.00     0.031 C 
ATOM     60  C   UNL     1      10.772  -1.094  14.802  1.00  0.00     0.037 A 
BRANCH  47  61
ATOM     61  C   UNL     1      10.505  -6.418  11.652  1.00  0.00     0.058 A 
ATOM     62  C   UNL     1      11.489  -7.006  10.840  1.00  0.00     0.135 A 
ATOM     63  C   UNL     1       9.747  -7.266  12.475  1.00  0.00     0.135 A 
ATOM     64  F   UNL     1      12.229  -6.248  10.016  1.00  0.00    -0.206 F 
ATOM     65  C   UNL     1      11.696  -8.382  10.825  1.00  0.00     0.059 A 
ATOM     66  C   UNL     1       9.959  -8.642  12.500  1.00  0.00     0.059 A 
ATOM     67  F   UNL     1       8.788  -6.761  13.266  1.00  0.00    -0.206 F 
ATOM     68  C   UNL     1      10.927  -9.192  11.662  1.00  0.00     0.060 A 
BRANCH  68  69
ATOM     69  S   UNL     1      11.223 -10.972  11.645  1.00  0.00     0.124 S 
ATOM     70  O   UNL     1      10.669 -11.347  10.347  1.00  0.00    -0.237 OA
ATOM     71  O   UNL     1      12.677 -11.046  11.758  1.00  0.00    -0.237 OA
ATOM     72  O   UNL     1      10.481 -11.452  12.806  1.00  0.00    -0.744 OA
ENDBRANCH  68  69
ENDBRANCH  47  61
BRANCH  48  73
ATOM     73  C   UNL     1       8.480   3.427  11.457  1.00  0.00     0.058 A 
ATOM     74  C   UNL     1       9.483   4.406  11.479  1.00  0.00     0.135 A 
ATOM     75  C   UNL     1       7.146   3.861  11.388  1.00  0.00     0.135 A 
ATOM     76  F   UNL     1      10.774   4.043  11.544  1.00  0.00    -0.206 F 
ATOM     77  C   UNL     1       9.180   5.763  11.451  1.00  0.00     0.059 A 
ATOM     78  C   UNL     1       6.818   5.212  11.332  1.00  0.00     0.059 A 
ATOM     79  F   UNL     1       6.149   2.965  11.342  1.00  0.00    -0.206 F 
ATOM     80  C   UNL     1       7.842   6.157  11.374  1.00  0.00     0.060 A 
BRANCH  80  81
ATOM     81  S   UNL     1       7.463   7.920  11.290  1.00  0.00     0.124 S 
ATOM     82  O   UNL     1       7.768   8.351  12.649  1.00  0.00    -0.237 OA
ATOM     83  O   UNL     1       8.380   8.381  10.252  1.00  0.00    -0.237 OA
ATOM     84  O   UNL     1       6.050   7.942  10.922  1.00  0.00    -0.744 OA
ENDBRANCH  80  81
ENDBRANCH  48  73
BRANCH  60  85
ATOM     85  C   UNL     1      11.318  -0.864  16.182  1.00  0.00     0.058 A 
ATOM     86  C   UNL     1      10.478  -0.589  17.271  1.00  0.00     0.135 A 
ATOM     87  C   UNL     1      12.697  -0.980  16.426  1.00  0.00     0.135 A 
ATOM     88  F   UNL     1       9.153  -0.464  17.089  1.00  0.00    -0.206 F 
ATOM     89  C   UNL     1      10.988  -0.409  18.552  1.00  0.00     0.059 A 
ATOM     90  C   UNL     1      13.225  -0.836  17.703  1.00  0.00     0.059 A 
ATOM     91  F   UNL     1      13.541  -1.256  15.419  1.00  0.00    -0.206 F 
ATOM     92  C   UNL     1      12.363  -0.538  18.758  1.00  0.00     0.060 A 
BRANCH  92  93
ATOM     93  S   UNL     1      13.008  -0.335  20.430  1.00  0.00     0.124 S 
ATOM     94  O   UNL     1      12.886   1.107  20.618  1.00  0.00    -0.237 OA
ATOM     95  O   UNL     1      12.094  -1.156  21.218  1.00  0.00    -0.237 OA
ATOM     96  O   UNL     1      14.373  -0.843  20.333  1.00  0.00    -0.744 OA
ENDBRANCH  92  93
ENDBRANCH  60  85
ENDBRANCH  34  35
ENDBRANCH  26  29
ENDBRANCH  24  25
ENDBRANCH  23  24
ENDBRANCH   1  23
TORSDOF 19
