REMARK SMILES CCc1ccc(N(C)C(=O)N2CC[C@@H](C(=O)NCCCCNC(=O)c3ccc(-c4c5nc(c(-c6c(F)cc(S(=O)(=O)[O-])cc6F)c6ccc([nH]6)c(-c6c(F)cc(S(=O)(=O)[O-])cc6F)c6nc(c(-c7c(F)cc(S(=O)(=O)[O-])cc7F)c7ccc4[nH]7)C=C6)C=C5)cc3)[C@@H]2C)cc1
REMARK SMILES IDX 19 1 18 2 17 3 15 4 16 5 14 7 11 8 12 9 91 10 13 11 92 12
REMARK SMILES IDX 9 13 10 14 7 15 8 16 6 17 3 18 4 19 94 20 5 21 93 22 2 23
REMARK SMILES IDX 1 24 20 25 21 26 22 27 23 28 24 30 25 31 26 32 90 33 27 34
REMARK SMILES IDX 89 35 28 36 29 37 30 38 83 39 31 40 88 41 82 42 84 43 32 44
REMARK SMILES IDX 87 45 81 46 80 47 33 49 67 50 46 51 66 52 47 53 50 54 65 55
REMARK SMILES IDX 85 56 48 57 49 58 64 60 86 61 51 62 34 63 35 64 44 65 36 66
REMARK SMILES IDX 37 67 43 68 45 69 38 70 39 71 40 72 41 73 42 74 68 75 69 76
REMARK SMILES IDX 78 77 70 78 71 79 77 80 79 81 72 82 73 83 74 84 75 85 76 86
REMARK SMILES IDX 52 87 53 88 62 89 54 90 55 91 61 92 63 93 56 94 57 95 58 96
REMARK SMILES IDX 59 97 60 98
REMARK H PARENT 17 6 22 29 84 48 50 59
REMARK Flexibility Score: inf
ROOT
ATOM      1  C   UNL     1       4.540   8.108   4.582  1.00  0.00     0.023 C 
ENDROOT
BRANCH   1   2
ATOM      2  C   UNL     1       3.745   9.369   4.248  1.00  0.00     0.116 C 
BRANCH   2   3
ATOM      3  N   UNL     1       4.540  10.313   3.485  1.00  0.00    -0.356 N 
ATOM      4  C   UNL     1       4.425  10.767   2.207  1.00  0.00     0.225 C 
ATOM      5  O   UNL     1       5.287  11.559   1.815  1.00  0.00    -0.275 OA
ATOM      6  H   UNL     1       5.300  10.695   3.981  1.00  0.00     0.163 HD
BRANCH   4   7
ATOM      7  C   UNL     1       3.303  10.351   1.260  1.00  0.00     0.102 C 
ATOM      8  N   UNL     1       1.936   8.379   1.257  1.00  0.00    -0.321 N 
ATOM      9  C   UNL     1       1.044   9.526   1.321  1.00  0.00     0.122 C 
ATOM     10  C   UNL     1       3.297   8.846   0.919  1.00  0.00     0.096 C 
ATOM     11  C   UNL     1       1.904  10.692   1.768  1.00  0.00     0.037 C 
ATOM     12  C   UNL     1       3.594   8.616  -0.564  1.00  0.00     0.032 C 
BRANCH   8  13
ATOM     13  C   UNL     1       1.349   7.111   1.264  1.00  0.00     0.324 C 
ATOM     14  O   UNL     1       0.125   7.057   1.109  1.00  0.00    -0.248 OA
BRANCH  13  15
ATOM     15  N   UNL     1       2.142   5.976   1.507  1.00  0.00    -0.297 N 
ATOM     16  C   UNL     1       3.400   6.103   2.212  1.00  0.00     0.155 C 
BRANCH  15  17
ATOM     17  C   UNL     1       1.661   4.609   1.341  1.00  0.00     0.045 A 
ATOM     18  C   UNL     1       0.713   1.913   1.223  1.00  0.00    -0.048 A 
ATOM     19  C   UNL     1       1.983   2.195   1.714  1.00  0.00     0.006 A 
ATOM     20  C   UNL     1      -0.061   2.970   0.745  1.00  0.00     0.006 A 
ATOM     21  C   UNL     1       2.451   3.512   1.750  1.00  0.00     0.027 A 
ATOM     22  C   UNL     1       0.410   4.293   0.799  1.00  0.00     0.027 A 
BRANCH  18  23
ATOM     23  C   UNL     1       0.220   0.492   1.171  1.00  0.00     0.032 C 
ATOM     24  C   UNL     1       0.772  -0.238  -0.043  1.00  0.00     0.009 C 
ENDBRANCH  18  23
ENDBRANCH  15  17
ENDBRANCH  13  15
ENDBRANCH   8  13
ENDBRANCH   4   7
ENDBRANCH   2   3
ENDBRANCH   1   2
BRANCH   1  25
ATOM     25  C   UNL     1       5.487   8.201   5.764  1.00  0.00     0.023 C 
BRANCH  25  26
ATOM     26  C   UNL     1       4.823   8.544   7.087  1.00  0.00     0.116 C 
BRANCH  26  27
ATOM     27  N   UNL     1       3.713   7.666   7.444  1.00  0.00    -0.352 N 
ATOM     28  C   UNL     1       3.440   7.067   8.653  1.00  0.00     0.251 C 
ATOM     29  H   UNL     1       3.071   7.477   6.721  1.00  0.00     0.163 HD
ATOM     30  O   UNL     1       2.498   6.287   8.761  1.00  0.00    -0.269 OA
BRANCH  28  31
ATOM     31  C   UNL     1       4.326   7.339   9.802  1.00  0.00     0.039 A 
ATOM     32  C   UNL     1       4.829   6.268  10.544  1.00  0.00     0.014 A 
ATOM     33  C   UNL     1       4.729   8.646  10.082  1.00  0.00     0.014 A 
ATOM     34  C   UNL     1       5.815   6.502  11.503  1.00  0.00     0.010 A 
ATOM     35  C   UNL     1       5.784   8.862  10.956  1.00  0.00     0.010 A 
ATOM     36  C   UNL     1       6.338   7.794  11.678  1.00  0.00    -0.014 A 
BRANCH  36  37
ATOM     37  C   UNL     1       7.455   8.066  12.616  1.00  0.00     0.031 A 
ATOM     38  C   UNL     1       7.248   9.022  13.759  1.00  0.00     0.074 A 
ATOM     39  C   UNL     1       8.669   7.527  12.390  1.00  0.00     0.049 A 
ATOM     40  N   UNL     1       8.118   9.481  14.620  1.00  0.00    -0.248 NA
ATOM     41  C   UNL     1       5.891   9.566  13.928  1.00  0.00     0.031 C 
ATOM     42  C   UNL     1       9.011   6.633  11.281  1.00  0.00     0.029 A 
ATOM     43  N   UNL     1       9.847   7.658  13.082  1.00  0.00    -0.354 N 
ATOM     44  C   UNL     1       7.421  10.386  15.412  1.00  0.00     0.074 A 
ATOM     45  C   UNL     1       6.075  10.460  14.886  1.00  0.00     0.031 C 
ATOM     46  C   UNL     1      10.298   6.264  11.391  1.00  0.00     0.029 A 
ATOM     47  C   UNL     1      10.883   6.924  12.554  1.00  0.00     0.049 A 
ATOM     48  H   UNL     1       9.941   8.225  13.881  1.00  0.00     0.167 HD
ATOM     49  C   UNL     1       7.851  11.070  16.498  1.00  0.00     0.037 A 
ATOM     50  C   UNL     1      12.158   6.795  12.967  1.00  0.00     0.037 A 
ATOM     51  C   UNL     1       9.176  10.957  17.043  1.00  0.00     0.049 A 
ATOM     52  C   UNL     1      12.607   7.539  14.194  1.00  0.00     0.074 A 
ATOM     53  C   UNL     1       9.700  11.561  18.171  1.00  0.00     0.029 A 
ATOM     54  N   UNL     1      10.186  10.174  16.501  1.00  0.00    -0.354 N 
ATOM     55  N   UNL     1      11.923   8.357  14.957  1.00  0.00    -0.248 NA
ATOM     56  C   UNL     1      14.000   7.339  14.618  1.00  0.00     0.031 C 
ATOM     57  C   UNL     1      11.036  11.161  18.299  1.00  0.00     0.029 A 
ATOM     58  C   UNL     1      11.332  10.282  17.269  1.00  0.00     0.049 A 
ATOM     59  H   UNL     1      10.099   9.623  15.690  1.00  0.00     0.167 HD
ATOM     60  C   UNL     1      12.792   8.749  15.969  1.00  0.00     0.074 A 
ATOM     61  C   UNL     1      14.050   8.073  15.722  1.00  0.00     0.031 C 
ATOM     62  C   UNL     1      12.570   9.591  17.009  1.00  0.00     0.037 A 
BRANCH  49  63
ATOM     63  C   UNL     1       6.861  11.985  17.165  1.00  0.00     0.058 A 
ATOM     64  C   UNL     1       5.754  11.481  17.868  1.00  0.00     0.135 A 
ATOM     65  C   UNL     1       7.003  13.379  17.079  1.00  0.00     0.135 A 
ATOM     66  F   UNL     1       5.561  10.155  17.964  1.00  0.00    -0.206 F 
ATOM     67  C   UNL     1       4.795  12.324  18.418  1.00  0.00     0.059 A 
ATOM     68  C   UNL     1       6.070  14.242  17.647  1.00  0.00     0.059 A 
ATOM     69  F   UNL     1       8.041  13.914  16.419  1.00  0.00    -0.206 F 
ATOM     70  C   UNL     1       4.957  13.704  18.293  1.00  0.00     0.060 A 
BRANCH  70  71
ATOM     71  S   UNL     1       3.687  14.789  18.977  1.00  0.00     0.124 S 
ATOM     72  O   UNL     1       2.641  14.684  17.964  1.00  0.00    -0.237 OA
ATOM     73  O   UNL     1       3.392  14.160  20.260  1.00  0.00    -0.237 OA
ATOM     74  O   UNL     1       4.356  16.084  19.058  1.00  0.00    -0.744 OA
ENDBRANCH  70  71
ENDBRANCH  49  63
BRANCH  50  75
ATOM     75  C   UNL     1      13.081   5.880  12.246  1.00  0.00     0.058 A 
ATOM     76  C   UNL     1      13.446   4.648  12.810  1.00  0.00     0.135 A 
ATOM     77  C   UNL     1      13.591   6.196  10.979  1.00  0.00     0.135 A 
ATOM     78  F   UNL     1      12.987   4.305  14.023  1.00  0.00    -0.206 F 
ATOM     79  C   UNL     1      14.291   3.764  12.148  1.00  0.00     0.059 A 
ATOM     80  C   UNL     1      14.423   5.320  10.287  1.00  0.00     0.059 A 
ATOM     81  F   UNL     1      13.257   7.354  10.389  1.00  0.00    -0.206 F 
ATOM     82  C   UNL     1      14.772   4.108  10.884  1.00  0.00     0.060 A 
BRANCH  82  83
ATOM     83  S   UNL     1      15.816   2.925  10.004  1.00  0.00     0.124 S 
ATOM     84  O   UNL     1      17.081   3.064  10.716  1.00  0.00    -0.237 OA
ATOM     85  O   UNL     1      15.101   1.670  10.211  1.00  0.00    -0.237 OA
ATOM     86  O   UNL     1      15.803   3.424   8.632  1.00  0.00    -0.744 OA
ENDBRANCH  82  83
ENDBRANCH  50  75
BRANCH  62  87
ATOM     87  C   UNL     1      13.699   9.798  17.977  1.00  0.00     0.058 A 
ATOM     88  C   UNL     1      14.804  10.601  17.656  1.00  0.00     0.135 A 
ATOM     89  C   UNL     1      13.648   9.227  19.258  1.00  0.00     0.135 A 
ATOM     90  F   UNL     1      14.901  11.163  16.441  1.00  0.00    -0.206 F 
ATOM     91  C   UNL     1      15.832  10.814  18.567  1.00  0.00     0.059 A 
ATOM     92  C   UNL     1      14.654   9.445  20.192  1.00  0.00     0.059 A 
ATOM     93  F   UNL     1      12.606   8.459  19.615  1.00  0.00    -0.206 F 
ATOM     94  C   UNL     1      15.748  10.232  19.834  1.00  0.00     0.060 A 
BRANCH  94  95
ATOM     95  S   UNL     1      17.071  10.543  21.022  1.00  0.00     0.124 S 
ATOM     96  O   UNL     1      18.119   9.652  20.533  1.00  0.00    -0.237 OA
ATOM     97  O   UNL     1      17.321  11.971  20.848  1.00  0.00    -0.237 OA
ATOM     98  O   UNL     1      16.473  10.169  22.300  1.00  0.00    -0.744 OA
ENDBRANCH  94  95
ENDBRANCH  62  87
ENDBRANCH  36  37
ENDBRANCH  28  31
ENDBRANCH  26  27
ENDBRANCH  25  26
ENDBRANCH   1  25
TORSDOF 18
