REMARK SMILES [NH3+][C@@H](CCCCC(=O)NCCCCNC(=O)c1ccc(-c2c3nc(c(-c4c(F)cc(S(=O)(=O)[O-])cc4F)c4ccc([nH]4)c(-c4c(F)cc(S(=O)(=O)[O-])cc4F)c4nc(c(-c5c(F)cc(S(=O)(=O)[O-])cc5F)c5ccc2[nH]5)C=C4)C=C3)cc1)c1ccc2[nH]c(=O)[nH]c2c1
REMARK SMILES IDX 10 1 9 2 7 3 8 4 6 6 5 7 4 8 3 9 2 10 1 11 83 15 84 16 92 17
REMARK SMILES IDX 85 18 91 19 86 20 90 21 87 22 88 23 89 26 11 27 12 28 13 29
REMARK SMILES IDX 14 30 15 31 16 33 17 34 18 35 82 36 19 37 81 38 20 39 21 40
REMARK SMILES IDX 22 41 75 42 23 43 80 44 74 45 76 46 24 47 79 48 73 49 72 50
REMARK SMILES IDX 25 52 59 53 38 54 58 55 39 56 42 57 57 58 77 59 40 60 41 61
REMARK SMILES IDX 56 63 78 64 43 65 26 66 27 67 36 68 28 69 29 70 35 71 37 72
REMARK SMILES IDX 30 73 31 74 32 75 33 76 34 77 60 78 61 79 70 80 62 81 63 82
REMARK SMILES IDX 69 83 71 84 64 85 65 86 66 87 67 88 68 89 44 90 45 91 54 92
REMARK SMILES IDX 46 93 47 94 53 95 55 96 48 97 49 98 50 99 51 100 52 101
REMARK H PARENT 9 5 1 12 1 13 1 14 90 24 87 25 14 32 76 51 42 62
REMARK Flexibility Score: inf
ROOT
ATOM      1  C   UNL     1       1.415  -3.228  -4.185  1.00  0.00     0.116 C 
ENDROOT
BRANCH   1   2
ATOM      2  N   UNL     1       0.264  -4.053  -4.465  1.00  0.00    -0.356 N 
ATOM      3  C   UNL     1      -1.002  -3.926  -3.981  1.00  0.00     0.219 C 
ATOM      4  O   UNL     1      -1.863  -4.725  -4.349  1.00  0.00    -0.275 OA
ATOM      5  H   UNL     1       0.413  -4.803  -5.086  1.00  0.00     0.163 HD
BRANCH   3   6
ATOM      6  C   UNL     1      -1.337  -2.793  -3.024  1.00  0.00     0.100 C 
BRANCH   6   7
ATOM      7  C   UNL     1      -0.798  -2.996  -1.605  1.00  0.00     0.010 C 
BRANCH   7   8
ATOM      8  C   UNL     1       0.302  -2.071  -1.024  1.00  0.00     0.007 C 
BRANCH   8   9
ATOM      9  C   UNL     1       0.637  -0.720  -1.685  1.00  0.00     0.070 C 
BRANCH   9  10
ATOM     10  C   UNL     1       0.202   0.581  -0.971  1.00  0.00     0.212 C 
BRANCH  10  11
ATOM     11  N   UNL     1       0.720   0.691   0.389  1.00  0.00    -0.351 N 
ATOM     12  H   UNL     1       1.726   0.520   0.385  1.00  0.00     0.345 HD
ATOM     13  H   UNL     1       0.261   0.003   0.985  1.00  0.00     0.345 HD
ATOM     14  H   UNL     1       0.536   1.628   0.747  1.00  0.00     0.345 HD
ENDBRANCH  10  11
BRANCH  10  15
ATOM     15  C   UNL     1      -1.294   0.826  -1.030  1.00  0.00     0.011 A 
ATOM     16  C   UNL     1      -1.791   2.007  -1.648  1.00  0.00     0.012 A 
ATOM     17  C   UNL     1      -2.204  -0.110  -0.514  1.00  0.00     0.038 A 
ATOM     18  C   UNL     1      -3.165   2.235  -1.812  1.00  0.00     0.029 A 
ATOM     19  C   UNL     1      -3.538   0.107  -0.735  1.00  0.00     0.067 A 
ATOM     20  C   UNL     1      -4.011   1.250  -1.365  1.00  0.00     0.066 A 
ATOM     21  N   UNL     1      -4.622  -0.703  -0.425  1.00  0.00    -0.306 N 
ATOM     22  N   UNL     1      -5.396   1.154  -1.431  1.00  0.00    -0.306 N 
ATOM     23  C   UNL     1      -5.793  -0.065  -0.855  1.00  0.00     0.323 A 
ATOM     24  H   UNL     1      -4.577  -1.580   0.021  1.00  0.00     0.171 HD
ATOM     25  H   UNL     1      -6.000   1.828  -1.818  1.00  0.00     0.171 HD
ATOM     26  O   UNL     1      -6.930  -0.483  -0.750  1.00  0.00    -0.248 OA
ENDBRANCH  10  15
ENDBRANCH   9  10
ENDBRANCH   8   9
ENDBRANCH   7   8
ENDBRANCH   6   7
ENDBRANCH   3   6
ENDBRANCH   1   2
BRANCH   1  27
ATOM     27  C   UNL     1       2.275  -3.821  -3.073  1.00  0.00     0.023 C 
BRANCH  27  28
ATOM     28  C   UNL     1       3.272  -4.869  -3.534  1.00  0.00     0.023 C 
BRANCH  28  29
ATOM     29  C   UNL     1       4.302  -4.350  -4.521  1.00  0.00     0.116 C 
BRANCH  29  30
ATOM     30  N   UNL     1       5.121  -3.261  -3.995  1.00  0.00    -0.352 N 
ATOM     31  C   UNL     1       6.487  -3.113  -4.099  1.00  0.00     0.251 C 
ATOM     32  H   UNL     1       4.642  -2.552  -3.509  1.00  0.00     0.163 HD
ATOM     33  O   UNL     1       7.071  -2.199  -3.531  1.00  0.00    -0.269 OA
BRANCH  31  34
ATOM     34  C   UNL     1       7.225  -4.128  -4.875  1.00  0.00     0.039 A 
ATOM     35  C   UNL     1       8.202  -4.888  -4.233  1.00  0.00     0.014 A 
ATOM     36  C   UNL     1       6.794  -4.449  -6.165  1.00  0.00     0.014 A 
ATOM     37  C   UNL     1       8.668  -6.050  -4.848  1.00  0.00     0.010 A 
ATOM     38  C   UNL     1       7.184  -5.658  -6.725  1.00  0.00     0.010 A 
ATOM     39  C   UNL     1       8.110  -6.481  -6.064  1.00  0.00    -0.014 A 
BRANCH  39  40
ATOM     40  C   UNL     1       8.445  -7.807  -6.644  1.00  0.00     0.031 A 
ATOM     41  C   UNL     1       9.057  -7.888  -8.015  1.00  0.00     0.074 A 
ATOM     42  C   UNL     1       8.113  -8.932  -5.976  1.00  0.00     0.049 A 
ATOM     43  N   UNL     1       9.330  -8.946  -8.732  1.00  0.00    -0.248 NA
ATOM     44  C   UNL     1       9.375  -6.614  -8.683  1.00  0.00     0.031 C 
ATOM     45  C   UNL     1       7.450  -8.982  -4.669  1.00  0.00     0.029 A 
ATOM     46  N   UNL     1       8.268 -10.255  -6.312  1.00  0.00    -0.354 N 
ATOM     47  C   UNL     1       9.830  -8.467  -9.937  1.00  0.00     0.074 A 
ATOM     48  C   UNL     1       9.778  -7.024  -9.877  1.00  0.00     0.031 C 
ATOM     49  C   UNL     1       7.275 -10.264  -4.308  1.00  0.00     0.029 A 
ATOM     50  C   UNL     1       7.767 -11.130  -5.373  1.00  0.00     0.049 A 
ATOM     51  H   UNL     1       8.698 -10.551  -7.146  1.00  0.00     0.167 HD
ATOM     52  C   UNL     1      10.311  -9.169 -10.988  1.00  0.00     0.037 A 
ATOM     53  C   UNL     1       7.694 -12.476  -5.379  1.00  0.00     0.037 A 
ATOM     54  C   UNL     1      10.401 -10.605 -11.021  1.00  0.00     0.049 A 
ATOM     55  C   UNL     1       8.240 -13.230  -6.564  1.00  0.00     0.074 A 
ATOM     56  C   UNL     1      10.965 -11.404 -11.999  1.00  0.00     0.029 A 
ATOM     57  N   UNL     1       9.909 -11.454 -10.041  1.00  0.00    -0.354 N 
ATOM     58  N   UNL     1       8.807 -12.758  -7.649  1.00  0.00    -0.248 NA
ATOM     59  C   UNL     1       8.138 -14.695  -6.529  1.00  0.00     0.031 C 
ATOM     60  C   UNL     1      10.764 -12.739 -11.639  1.00  0.00     0.029 A 
ATOM     61  C   UNL     1      10.122 -12.771 -10.411  1.00  0.00     0.049 A 
ATOM     62  H   UNL     1       9.474 -11.164  -9.207  1.00  0.00     0.167 HD
ATOM     63  C   UNL     1       9.141 -13.869  -8.416  1.00  0.00     0.074 A 
ATOM     64  C   UNL     1       8.740 -15.036  -7.660  1.00  0.00     0.031 C 
ATOM     65  C   UNL     1       9.720 -13.920  -9.641  1.00  0.00     0.037 A 
BRANCH  52  66
ATOM     66  C   UNL     1      10.796  -8.408 -12.188  1.00  0.00     0.058 A 
ATOM     67  C   UNL     1      11.992  -7.675 -12.162  1.00  0.00     0.135 A 
ATOM     68  C   UNL     1      10.102  -8.489 -13.407  1.00  0.00     0.135 A 
ATOM     69  F   UNL     1      12.683  -7.547 -11.018  1.00  0.00    -0.206 F 
ATOM     70  C   UNL     1      12.485  -7.049 -13.301  1.00  0.00     0.059 A 
ATOM     71  C   UNL     1      10.590  -7.893 -14.565  1.00  0.00     0.059 A 
ATOM     72  F   UNL     1       8.948  -9.170 -13.483  1.00  0.00    -0.206 F 
ATOM     73  C   UNL     1      11.782  -7.173 -14.501  1.00  0.00     0.060 A 
BRANCH  73  74
ATOM     74  S   UNL     1      12.470  -6.406 -15.983  1.00  0.00     0.124 S 
ATOM     75  O   UNL     1      12.271  -4.988 -15.696  1.00  0.00    -0.237 OA
ATOM     76  O   UNL     1      13.854  -6.869 -15.956  1.00  0.00    -0.237 OA
ATOM     77  O   UNL     1      11.650  -6.949 -17.061  1.00  0.00    -0.744 OA
ENDBRANCH  73  74
ENDBRANCH  52  66
BRANCH  53  78
ATOM     78  C   UNL     1       7.064 -13.207  -4.244  1.00  0.00     0.058 A 
ATOM     79  C   UNL     1       7.822 -14.042  -3.408  1.00  0.00     0.135 A 
ATOM     80  C   UNL     1       5.686 -13.114  -3.993  1.00  0.00     0.135 A 
ATOM     81  F   UNL     1       9.142 -14.171  -3.608  1.00  0.00    -0.206 F 
ATOM     82  C   UNL     1       7.232 -14.787  -2.390  1.00  0.00     0.059 A 
ATOM     83  C   UNL     1       5.079 -13.824  -2.962  1.00  0.00     0.059 A 
ATOM     84  F   UNL     1       4.916 -12.316  -4.750  1.00  0.00    -0.206 F 
ATOM     85  C   UNL     1       5.858 -14.674  -2.178  1.00  0.00     0.060 A 
BRANCH  85  86
ATOM     86  S   UNL     1       5.102 -15.637  -0.850  1.00  0.00     0.124 S 
ATOM     87  O   UNL     1       5.123 -16.981  -1.415  1.00  0.00    -0.237 OA
ATOM     88  O   UNL     1       6.016 -15.396   0.262  1.00  0.00    -0.237 OA
ATOM     89  O   UNL     1       3.781 -15.031  -0.708  1.00  0.00    -0.744 OA
ENDBRANCH  85  86
ENDBRANCH  53  78
BRANCH  65  90
ATOM     90  C   UNL     1       9.967 -15.278 -10.237  1.00  0.00     0.058 A 
ATOM     91  C   UNL     1       8.913 -16.065 -10.725  1.00  0.00     0.135 A 
ATOM     92  C   UNL     1      11.275 -15.766 -10.384  1.00  0.00     0.135 A 
ATOM     93  F   UNL     1       7.643 -15.647 -10.602  1.00  0.00    -0.206 F 
ATOM     94  C   UNL     1       9.146 -17.299 -11.323  1.00  0.00     0.059 A 
ATOM     95  C   UNL     1      11.534 -16.983 -11.006  1.00  0.00     0.059 A 
ATOM     96  F   UNL     1      12.319 -15.047  -9.943  1.00  0.00    -0.206 F 
ATOM     97  C   UNL     1      10.461 -17.746 -11.465  1.00  0.00     0.060 A 
BRANCH  97  98
ATOM     98  S   UNL     1      10.749 -19.327 -12.287  1.00  0.00     0.124 S 
ATOM     99  O   UNL     1      10.282 -20.272 -11.279  1.00  0.00    -0.237 OA
ATOM    100  O   UNL     1       9.920 -19.212 -13.483  1.00  0.00    -0.237 OA
ATOM    101  O   UNL     1      12.189 -19.327 -12.528  1.00  0.00    -0.744 OA
ENDBRANCH  97  98
ENDBRANCH  65  90
ENDBRANCH  39  40
ENDBRANCH  31  34
ENDBRANCH  29  30
ENDBRANCH  28  29
ENDBRANCH  27  28
ENDBRANCH   1  27
TORSDOF 20
