REMARK SMILES CCCc1cc2c(cc1Cl)C=C(C(=O)NCCCCNC(=O)c1ccc(-c3c4nc(c(-c5c(F)cc(S(=O)(=O)[O-])cc5F)c5ccc([nH]5)c(-c5c(F)cc(S(=O)(=O)[O-])cc5F)c5nc(c(-c6c(F)cc(S(=O)(=O)[O-])cc6F)c6ccc3[nH]6)C=C5)C=C4)cc1)[C@H](C(F)(F)F)O2
REMARK SMILES IDX 18 1 17 2 16 3 15 4 13 5 14 6 12 8 4 9 5 10 9 11 6 12 8 13
REMARK SMILES IDX 10 14 7 15 94 16 11 17 89 18 3 19 2 20 1 21 90 22 91 23
REMARK SMILES IDX 92 24 93 25 19 26 20 27 21 28 22 30 23 31 24 32 88 33 25 34
REMARK SMILES IDX 87 35 26 36 27 37 28 38 81 39 29 40 86 41 80 42 82 43 30 44
REMARK SMILES IDX 85 45 79 46 78 47 31 49 65 50 44 51 64 52 45 53 48 54 63 55
REMARK SMILES IDX 83 56 46 57 47 58 62 60 84 61 49 62 32 63 33 64 42 65 34 66
REMARK SMILES IDX 35 67 41 68 43 69 36 70 37 71 38 72 39 73 40 74 66 75 67 76
REMARK SMILES IDX 76 77 68 78 69 79 75 80 77 81 70 82 71 83 72 84 73 85 74 86
REMARK SMILES IDX 50 87 51 88 60 89 52 90 53 91 59 92 61 93 54 94 55 95 56 96
REMARK SMILES IDX 57 97 58 98
REMARK H PARENT 15 7 20 29 82 48 48 59
REMARK Flexibility Score: inf
ROOT
ATOM      1  C   UNL     1       0.175  -9.649  -2.471  1.00  0.00     0.023 C 
ENDROOT
BRANCH   1   2
ATOM      2  C   UNL     1       0.769  -8.238  -2.532  1.00  0.00     0.023 C 
BRANCH   2   3
ATOM      3  C   UNL     1       1.186  -7.781  -3.930  1.00  0.00     0.116 C 
BRANCH   3   4
ATOM      4  N   UNL     1       0.062  -7.255  -4.683  1.00  0.00    -0.352 N 
ATOM      5  C   UNL     1      -0.444  -6.025  -4.933  1.00  0.00     0.251 C 
ATOM      6  O   UNL     1      -1.364  -5.982  -5.756  1.00  0.00    -0.270 OA
ATOM      7  H   UNL     1      -0.459  -7.968  -5.119  1.00  0.00     0.163 HD
BRANCH   5   8
ATOM      8  C   UNL     1       0.021  -4.760  -4.294  1.00  0.00     0.067 C 
ATOM      9  C   UNL     1       0.635   0.069  -2.995  1.00  0.00    -0.026 A 
ATOM     10  C   UNL     1       1.309  -1.125  -2.685  1.00  0.00     0.052 A 
ATOM     11  C   UNL     1      -0.388   0.027  -3.960  1.00  0.00     0.045 A 
ATOM     12  C   UNL     1       0.936  -2.323  -3.286  1.00  0.00     0.128 A 
ATOM     13  C   UNL     1      -0.713  -1.172  -4.609  1.00  0.00     0.032 A 
ATOM     14  Cl  UNL     1      -1.299   1.432  -4.387  1.00  0.00    -0.084 Cl
ATOM     15  C   UNL     1      -0.054  -2.353  -4.268  1.00  0.00     0.019 A 
ATOM     16  O   UNL     1       1.569  -3.463  -2.864  1.00  0.00    -0.475 OA
ATOM     17  C   UNL     1      -0.373  -3.625  -4.904  1.00  0.00     0.025 C 
ATOM     18  C   UNL     1       0.753  -4.670  -2.981  1.00  0.00     0.314 C 
BRANCH   9  19
ATOM     19  C   UNL     1       1.013   1.325  -2.243  1.00  0.00     0.037 C 
BRANCH  19  20
ATOM     20  C   UNL     1       0.246   1.510  -0.927  1.00  0.00     0.001 C 
ATOM     21  C   UNL     1       0.657   0.528   0.162  1.00  0.00     0.004 C 
ENDBRANCH  19  20
ENDBRANCH   9  19
BRANCH  18  22
ATOM     22  C   UNL     1      -0.167  -4.826  -1.754  1.00  0.00     0.429 C 
ATOM     23  F   UNL     1       0.538  -5.325  -0.706  1.00  0.00    -0.167 F 
ATOM     24  F   UNL     1      -0.713  -3.659  -1.346  1.00  0.00    -0.167 F 
ATOM     25  F   UNL     1      -1.189  -5.682  -1.982  1.00  0.00    -0.167 F 
ENDBRANCH  18  22
ENDBRANCH   5   8
ENDBRANCH   3   4
ENDBRANCH   2   3
ENDBRANCH   1   2
BRANCH   1  26
ATOM     26  C   UNL     1       1.151 -10.772  -2.803  1.00  0.00     0.116 C 
BRANCH  26  27
ATOM     27  N   UNL     1       2.327 -10.806  -1.941  1.00  0.00    -0.352 N 
ATOM     28  C   UNL     1       3.146 -11.883  -1.688  1.00  0.00     0.251 C 
ATOM     29  H   UNL     1       2.562  -9.963  -1.490  1.00  0.00     0.163 HD
ATOM     30  O   UNL     1       4.076 -11.799  -0.896  1.00  0.00    -0.269 OA
BRANCH  28  31
ATOM     31  C   UNL     1       2.826 -13.163  -2.349  1.00  0.00     0.039 A 
ATOM     32  C   UNL     1       2.727 -13.222  -3.741  1.00  0.00     0.014 A 
ATOM     33  C   UNL     1       2.471 -14.257  -1.556  1.00  0.00     0.014 A 
ATOM     34  C   UNL     1       2.107 -14.317  -4.330  1.00  0.00     0.010 A 
ATOM     35  C   UNL     1       1.904 -15.380  -2.158  1.00  0.00     0.010 A 
ATOM     36  C   UNL     1       1.657 -15.388  -3.541  1.00  0.00    -0.014 A 
BRANCH  36  37
ATOM     37  C   UNL     1       0.848 -16.465  -4.162  1.00  0.00     0.031 A 
ATOM     38  C   UNL     1      -0.616 -16.595  -3.830  1.00  0.00     0.074 A 
ATOM     39  C   UNL     1       1.406 -17.276  -5.079  1.00  0.00     0.049 A 
ATOM     40  N   UNL     1      -1.479 -17.489  -4.239  1.00  0.00    -0.248 NA
ATOM     41  C   UNL     1      -1.187 -15.588  -2.918  1.00  0.00     0.031 C 
ATOM     42  C   UNL     1       2.802 -17.220  -5.516  1.00  0.00     0.029 A 
ATOM     43  N   UNL     1       0.861 -18.285  -5.827  1.00  0.00    -0.354 N 
ATOM     44  C   UNL     1      -2.680 -17.176  -3.613  1.00  0.00     0.074 A 
ATOM     45  C   UNL     1      -2.437 -16.010  -2.792  1.00  0.00     0.031 C 
ATOM     46  C   UNL     1       2.991 -18.123  -6.491  1.00  0.00     0.029 A 
ATOM     47  C   UNL     1       1.746 -18.854  -6.709  1.00  0.00     0.049 A 
ATOM     48  H   UNL     1      -0.076 -18.575  -5.741  1.00  0.00     0.167 HD
ATOM     49  C   UNL     1      -3.877 -17.802  -3.717  1.00  0.00     0.037 A 
ATOM     50  C   UNL     1       1.577 -19.861  -7.585  1.00  0.00     0.037 A 
ATOM     51  C   UNL     1      -4.127 -18.938  -4.563  1.00  0.00     0.049 A 
ATOM     52  C   UNL     1       0.248 -20.550  -7.669  1.00  0.00     0.074 A 
ATOM     53  C   UNL     1      -5.305 -19.645  -4.733  1.00  0.00     0.029 A 
ATOM     54  N   UNL     1      -3.186 -19.523  -5.396  1.00  0.00    -0.354 N 
ATOM     55  N   UNL     1      -0.859 -20.283  -7.019  1.00  0.00    -0.248 NA
ATOM     56  C   UNL     1       0.151 -21.694  -8.586  1.00  0.00     0.031 C 
ATOM     57  C   UNL     1      -5.071 -20.669  -5.658  1.00  0.00     0.029 A 
ATOM     58  C   UNL     1      -3.754 -20.586  -6.078  1.00  0.00     0.049 A 
ATOM     59  H   UNL     1      -2.252 -19.227  -5.489  1.00  0.00     0.167 HD
ATOM     60  C   UNL     1      -1.780 -21.236  -7.434  1.00  0.00     0.074 A 
ATOM     61  C   UNL     1      -1.110 -22.068  -8.414  1.00  0.00     0.031 C 
ATOM     62  C   UNL     1      -3.061 -21.414  -7.030  1.00  0.00     0.037 A 
BRANCH  49  63
ATOM     63  C   UNL     1      -5.006 -17.279  -2.878  1.00  0.00     0.058 A 
ATOM     64  C   UNL     1      -5.729 -16.136  -3.249  1.00  0.00     0.135 A 
ATOM     65  C   UNL     1      -5.388 -17.949  -1.705  1.00  0.00     0.135 A 
ATOM     66  F   UNL     1      -5.387 -15.449  -4.351  1.00  0.00    -0.206 F 
ATOM     67  C   UNL     1      -6.787 -15.666  -2.478  1.00  0.00     0.059 A 
ATOM     68  C   UNL     1      -6.452 -17.505  -0.926  1.00  0.00     0.059 A 
ATOM     69  F   UNL     1      -4.722 -19.043  -1.304  1.00  0.00    -0.206 F 
ATOM     70  C   UNL     1      -7.139 -16.355  -1.315  1.00  0.00     0.060 A 
BRANCH  70  71
ATOM     71  S   UNL     1      -8.515 -15.738  -0.322  1.00  0.00     0.124 S 
ATOM     72  O   UNL     1      -7.889 -14.619   0.375  1.00  0.00    -0.237 OA
ATOM     73  O   UNL     1      -9.502 -15.380  -1.336  1.00  0.00    -0.237 OA
ATOM     74  O   UNL     1      -8.868 -16.881   0.514  1.00  0.00    -0.744 OA
ENDBRANCH  70  71
ENDBRANCH  49  63
BRANCH  50  75
ATOM     75  C   UNL     1       2.714 -20.282  -8.438  1.00  0.00     0.058 A 
ATOM     76  C   UNL     1       2.765 -19.923  -9.792  1.00  0.00     0.135 A 
ATOM     77  C   UNL     1       3.792 -21.003  -7.904  1.00  0.00     0.135 A 
ATOM     78  F   UNL     1       1.752 -19.238 -10.343  1.00  0.00    -0.206 F 
ATOM     79  C   UNL     1       3.854 -20.258 -10.589  1.00  0.00     0.059 A 
ATOM     80  C   UNL     1       4.898 -21.335  -8.677  1.00  0.00     0.059 A 
ATOM     81  F   UNL     1       3.789 -21.355  -6.609  1.00  0.00    -0.206 F 
ATOM     82  C   UNL     1       4.919 -20.960 -10.021  1.00  0.00     0.060 A 
BRANCH  82  83
ATOM     83  S   UNL     1       6.373 -21.315 -11.032  1.00  0.00     0.124 S 
ATOM     84  O   UNL     1       5.944 -22.508 -11.752  1.00  0.00    -0.237 OA
ATOM     85  O   UNL     1       6.503 -20.099 -11.831  1.00  0.00    -0.237 OA
ATOM     86  O   UNL     1       7.424 -21.515 -10.039  1.00  0.00    -0.744 OA
ENDBRANCH  82  83
ENDBRANCH  50  75
BRANCH  62  87
ATOM     87  C   UNL     1      -3.805 -22.567  -7.631  1.00  0.00     0.058 A 
ATOM     88  C   UNL     1      -3.614 -23.873  -7.157  1.00  0.00     0.135 A 
ATOM     89  C   UNL     1      -4.732 -22.367  -8.665  1.00  0.00     0.135 A 
ATOM     90  F   UNL     1      -2.733 -24.112  -6.172  1.00  0.00    -0.206 F 
ATOM     91  C   UNL     1      -4.306 -24.950  -7.701  1.00  0.00     0.059 A 
ATOM     92  C   UNL     1      -5.444 -23.427  -9.216  1.00  0.00     0.059 A 
ATOM     93  F   UNL     1      -4.950 -21.133  -9.147  1.00  0.00    -0.206 F 
ATOM     94  C   UNL     1      -5.215 -24.717  -8.735  1.00  0.00     0.060 A 
BRANCH  94  95
ATOM     95  S   UNL     1      -6.122 -26.116  -9.427  1.00  0.00     0.124 S 
ATOM     96  O   UNL     1      -5.133 -26.684 -10.336  1.00  0.00    -0.237 OA
ATOM     97  O   UNL     1      -6.428 -26.914  -8.244  1.00  0.00    -0.237 OA
ATOM     98  O   UNL     1      -7.275 -25.486 -10.064  1.00  0.00    -0.744 OA
ENDBRANCH  94  95
ENDBRANCH  62  87
ENDBRANCH  36  37
ENDBRANCH  28  31
ENDBRANCH  26  27
ENDBRANCH   1  26
TORSDOF 17
