REMARK SMILES CCCCCCC(=O)N[C@@H](C)C(=O)NCCCCNC(=O)c1ccc(-c2c3nc(c(-c4c(F)cc(S(=O)(=O)[O-])cc4F)c4ccc([nH]4)c(-c4c(F)cc(S(=O)(=O)[O-])cc4F)c4nc(c(-c5c(F)cc(S(=O)(=O)[O-])cc5F)c5ccc2[nH]5)C=C4)C=C3)cc1
REMARK SMILES IDX 15 1 14 2 12 3 13 4 10 6 11 7 9 8 7 9 8 10 6 12 5 13 4 14
REMARK SMILES IDX 3 15 2 16 1 17 16 18 17 19 18 20 19 21 20 22 21 24 22 25
REMARK SMILES IDX 23 26 87 27 24 28 86 29 25 30 26 31 27 32 80 33 28 34 85 35
REMARK SMILES IDX 79 36 81 37 29 38 84 39 78 40 77 41 30 43 64 44 43 45 63 46
REMARK SMILES IDX 44 47 47 48 62 49 82 50 45 51 46 52 61 54 83 55 48 56 31 57
REMARK SMILES IDX 32 58 41 59 33 60 34 61 40 62 42 63 35 64 36 65 37 66 38 67
REMARK SMILES IDX 39 68 65 69 66 70 75 71 67 72 68 73 74 74 76 75 69 76 70 77
REMARK SMILES IDX 71 78 72 79 73 80 49 81 50 82 59 83 51 84 52 85 58 86 60 87
REMARK SMILES IDX 53 88 54 89 55 90 56 91 57 92
REMARK H PARENT 14 5 9 11 19 23 81 42 47 53
REMARK Flexibility Score: inf
ROOT
ATOM      1  C   UNL     1       3.131   4.973  -5.363  1.00  0.00     0.116 C 
ENDROOT
BRANCH   1   2
ATOM      2  N   UNL     1       3.145   5.112  -3.924  1.00  0.00    -0.354 N 
ATOM      3  C   UNL     1       2.459   4.417  -2.980  1.00  0.00     0.242 C 
ATOM      4  O   UNL     1       2.594   4.752  -1.800  1.00  0.00    -0.273 OA
ATOM      5  H   UNL     1       3.740   5.815  -3.577  1.00  0.00     0.163 HD
BRANCH   3   6
ATOM      6  C   UNL     1       1.628   3.186  -3.356  1.00  0.00     0.168 C 
ATOM      7  C   UNL     1       2.508   2.052  -3.883  1.00  0.00     0.041 C 
BRANCH   6   8
ATOM      8  N   UNL     1       0.487   3.433  -4.232  1.00  0.00    -0.345 N 
ATOM      9  C   UNL     1      -0.839   3.277  -3.970  1.00  0.00     0.220 C 
ATOM     10  O   UNL     1      -1.636   3.453  -4.894  1.00  0.00    -0.275 OA
ATOM     11  H   UNL     1       0.708   3.756  -5.136  1.00  0.00     0.164 HD
BRANCH   9  12
ATOM     12  C   UNL     1      -1.326   2.918  -2.576  1.00  0.00     0.100 C 
BRANCH  12  13
ATOM     13  C   UNL     1      -1.410   1.417  -2.272  1.00  0.00     0.010 C 
BRANCH  13  14
ATOM     14  C   UNL     1      -0.127   0.699  -1.829  1.00  0.00     0.001 C 
BRANCH  14  15
ATOM     15  C   UNL     1       0.590   1.303  -0.610  1.00  0.00    -0.000 C 
BRANCH  15  16
ATOM     16  C   UNL     1       0.305   0.604   0.714  1.00  0.00    -0.003 C 
ATOM     17  C   UNL     1       1.023  -0.732   0.829  1.00  0.00     0.004 C 
ENDBRANCH  15  16
ENDBRANCH  14  15
ENDBRANCH  13  14
ENDBRANCH  12  13
ENDBRANCH   9  12
ENDBRANCH   6   8
ENDBRANCH   3   6
ENDBRANCH   1   2
BRANCH   1  18
ATOM     18  C   UNL     1       2.548   6.218  -6.018  1.00  0.00     0.023 C 
BRANCH  18  19
ATOM     19  C   UNL     1       3.385   7.479  -5.796  1.00  0.00     0.023 C 
BRANCH  19  20
ATOM     20  C   UNL     1       4.871   7.312  -6.088  1.00  0.00     0.116 C 
BRANCH  20  21
ATOM     21  N   UNL     1       5.127   6.763  -7.410  1.00  0.00    -0.352 N 
ATOM     22  C   UNL     1       6.103   7.124  -8.308  1.00  0.00     0.251 C 
ATOM     23  H   UNL     1       4.524   6.040  -7.699  1.00  0.00     0.163 HD
ATOM     24  O   UNL     1       6.123   6.654  -9.431  1.00  0.00    -0.269 OA
BRANCH  22  25
ATOM     25  C   UNL     1       7.102   8.122  -7.880  1.00  0.00     0.039 A 
ATOM     26  C   UNL     1       7.286   9.264  -8.658  1.00  0.00     0.014 A 
ATOM     27  C   UNL     1       7.791   7.950  -6.676  1.00  0.00     0.014 A 
ATOM     28  C   UNL     1       8.138  10.268  -8.201  1.00  0.00     0.010 A 
ATOM     29  C   UNL     1       8.576   8.985  -6.187  1.00  0.00     0.010 A 
ATOM     30  C   UNL     1       8.769  10.146  -6.951  1.00  0.00    -0.014 A 
BRANCH  30  31
ATOM     31  C   UNL     1       9.671  11.207  -6.442  1.00  0.00     0.031 A 
ATOM     32  C   UNL     1      11.129  10.900  -6.236  1.00  0.00     0.074 A 
ATOM     33  C   UNL     1       9.172  12.414  -6.116  1.00  0.00     0.049 A 
ATOM     34  N   UNL     1      12.070  11.658  -5.739  1.00  0.00    -0.248 NA
ATOM     35  C   UNL     1      11.581   9.547  -6.607  1.00  0.00     0.031 C 
ATOM     36  C   UNL     1       7.765  12.808  -6.223  1.00  0.00     0.029 A 
ATOM     37  N   UNL     1       9.791  13.532  -5.619  1.00  0.00    -0.354 N 
ATOM     38  C   UNL     1      13.216  10.871  -5.719  1.00  0.00     0.074 A 
ATOM     39  C   UNL     1      12.839   9.559  -6.196  1.00  0.00     0.031 C 
ATOM     40  C   UNL     1       7.634  14.085  -5.826  1.00  0.00     0.029 A 
ATOM     41  C   UNL     1       8.938  14.590  -5.408  1.00  0.00     0.049 A 
ATOM     42  H   UNL     1      10.757  13.574  -5.431  1.00  0.00     0.167 HD
ATOM     43  C   UNL     1      14.475  11.219  -5.363  1.00  0.00     0.037 A 
ATOM     44  C   UNL     1       9.183  15.825  -4.930  1.00  0.00     0.037 A 
ATOM     45  C   UNL     1      14.846  12.539  -4.928  1.00  0.00     0.049 A 
ATOM     46  C   UNL     1      10.595  16.198  -4.566  1.00  0.00     0.074 A 
ATOM     47  C   UNL     1      16.102  13.015  -4.599  1.00  0.00     0.029 A 
ATOM     48  N   UNL     1      13.961  13.595  -4.766  1.00  0.00    -0.354 N 
ATOM     49  N   UNL     1      11.680  15.460  -4.610  1.00  0.00    -0.248 NA
ATOM     50  C   UNL     1      10.821  17.572  -4.099  1.00  0.00     0.031 C 
ATOM     51  C   UNL     1      15.971  14.351  -4.205  1.00  0.00     0.029 A 
ATOM     52  C   UNL     1      14.641  14.720  -4.333  1.00  0.00     0.049 A 
ATOM     53  H   UNL     1      12.992  13.551  -4.935  1.00  0.00     0.167 HD
ATOM     54  C   UNL     1      12.721  16.290  -4.208  1.00  0.00     0.074 A 
ATOM     55  C   UNL     1      12.137  17.587  -3.933  1.00  0.00     0.031 C 
ATOM     56  C   UNL     1      14.041  16.006  -4.082  1.00  0.00     0.037 A 
BRANCH  43  57
ATOM     57  C   UNL     1      15.537  10.159  -5.442  1.00  0.00     0.058 A 
ATOM     58  C   UNL     1      15.991   9.660  -6.674  1.00  0.00     0.135 A 
ATOM     59  C   UNL     1      16.123   9.646  -4.274  1.00  0.00     0.135 A 
ATOM     60  F   UNL     1      15.451  10.100  -7.822  1.00  0.00    -0.206 F 
ATOM     61  C   UNL     1      16.962   8.667  -6.745  1.00  0.00     0.059 A 
ATOM     62  C   UNL     1      17.118   8.674  -4.322  1.00  0.00     0.059 A 
ATOM     63  F   UNL     1      15.726  10.085  -3.069  1.00  0.00    -0.206 F 
ATOM     64  C   UNL     1      17.519   8.179  -5.562  1.00  0.00     0.060 A 
BRANCH  64  65
ATOM     65  S   UNL     1      18.779   6.891  -5.671  1.00  0.00     0.124 S 
ATOM     66  O   UNL     1      17.973   5.725  -6.021  1.00  0.00    -0.237 OA
ATOM     67  O   UNL     1      19.653   7.396  -6.725  1.00  0.00    -0.237 OA
ATOM     68  O   UNL     1      19.361   6.872  -4.333  1.00  0.00    -0.744 OA
ENDBRANCH  64  65
ENDBRANCH  43  57
BRANCH  44  69
ATOM     69  C   UNL     1       8.075  16.808  -4.804  1.00  0.00     0.058 A 
ATOM     70  C   UNL     1       7.992  17.915  -5.663  1.00  0.00     0.135 A 
ATOM     71  C   UNL     1       7.071  16.657  -3.836  1.00  0.00     0.135 A 
ATOM     72  F   UNL     1       8.929  18.105  -6.604  1.00  0.00    -0.206 F 
ATOM     73  C   UNL     1       6.965  18.847  -5.555  1.00  0.00     0.059 A 
ATOM     74  C   UNL     1       6.020  17.563  -3.723  1.00  0.00     0.059 A 
ATOM     75  F   UNL     1       7.094  15.605  -3.002  1.00  0.00    -0.206 F 
ATOM     76  C   UNL     1       5.982  18.662  -4.581  1.00  0.00     0.060 A 
BRANCH  76  77
ATOM     77  S   UNL     1       4.630  19.854  -4.477  1.00  0.00     0.124 S 
ATOM     78  O   UNL     1       5.298  21.004  -3.880  1.00  0.00    -0.237 OA
ATOM     79  O   UNL     1       4.239  19.997  -5.877  1.00  0.00    -0.237 OA
ATOM     80  O   UNL     1       3.653  19.179  -3.628  1.00  0.00    -0.744 OA
ENDBRANCH  76  77
ENDBRANCH  44  69
BRANCH  56  81
ATOM     81  C   UNL     1      14.954  17.128  -3.673  1.00  0.00     0.058 A 
ATOM     82  C   UNL     1      14.978  17.622  -2.360  1.00  0.00     0.135 A 
ATOM     83  C   UNL     1      15.858  17.675  -4.599  1.00  0.00     0.135 A 
ATOM     84  F   UNL     1      14.130  17.136  -1.440  1.00  0.00    -0.206 F 
ATOM     85  C   UNL     1      15.851  18.636  -1.984  1.00  0.00     0.059 A 
ATOM     86  C   UNL     1      16.759  18.671  -4.237  1.00  0.00     0.059 A 
ATOM     87  F   UNL     1      15.883  17.229  -5.865  1.00  0.00    -0.206 F 
ATOM     88  C   UNL     1      16.740  19.153  -2.929  1.00  0.00     0.060 A 
BRANCH  88  89
ATOM     89  S   UNL     1      17.893  20.445  -2.419  1.00  0.00     0.124 S 
ATOM     90  O   UNL     1      17.015  21.608  -2.340  1.00  0.00    -0.237 OA
ATOM     91  O   UNL     1      18.389  19.936  -1.144  1.00  0.00    -0.237 OA
ATOM     92  O   UNL     1      18.873  20.471  -3.501  1.00  0.00    -0.744 OA
ENDBRANCH  88  89
ENDBRANCH  56  81
ENDBRANCH  30  31
ENDBRANCH  22  25
ENDBRANCH  20  21
ENDBRANCH  19  20
ENDBRANCH  18  19
ENDBRANCH   1  18
TORSDOF 20
