REMARK SMILES Nc1ccc(O)c(C(=O)NCCCCNC(=O)c2ccc(-c3c4nc(c(-c5c(F)cc(S(=O)(=O)[O-])cc5F)c5ccc([nH]5)c(-c5c(F)cc(S(=O)(=O)[O-])cc5F)c5nc(c(-c6c(F)cc(S(=O)(=O)[O-])cc6F)c6ccc3[nH]6)C=C5)C=C4)cc2)c1
REMARK SMILES IDX 13 1 12 2 11 3 10 4 8 5 9 6 7 8 2 9 3 10 84 11 4 12 5 13
REMARK SMILES IDX 1 14 6 17 14 19 15 20 16 21 17 23 18 24 19 25 83 26 20 27
REMARK SMILES IDX 82 28 21 29 22 30 23 31 76 32 24 33 81 34 75 35 77 36 25 37
REMARK SMILES IDX 80 38 74 39 73 40 26 42 60 43 39 44 59 45 40 46 43 47 58 48
REMARK SMILES IDX 78 49 41 50 42 51 57 53 79 54 44 55 27 56 28 57 37 58 29 59
REMARK SMILES IDX 30 60 36 61 38 62 31 63 32 64 33 65 34 66 35 67 61 68 62 69
REMARK SMILES IDX 71 70 63 71 64 72 70 73 72 74 65 75 66 76 67 77 68 78 69 79
REMARK SMILES IDX 45 80 46 81 55 82 47 83 48 84 54 85 56 86 49 87 50 88 51 89
REMARK SMILES IDX 52 90 53 91
REMARK H PARENT 10 7 1 15 1 16 6 18 15 22 77 41 43 52
REMARK Flexibility Score: inf
ROOT
ATOM      1  C   UNL     1      -0.971  -5.784  -1.390  1.00  0.00     0.023 C 
ENDROOT
BRANCH   1   2
ATOM      2  C   UNL     1      -1.346  -4.372  -0.921  1.00  0.00     0.023 C 
BRANCH   2   3
ATOM      3  C   UNL     1      -0.638  -3.928   0.361  1.00  0.00     0.116 C 
BRANCH   3   4
ATOM      4  N   UNL     1       0.721  -3.512   0.076  1.00  0.00    -0.352 N 
ATOM      5  C   UNL     1       1.300  -2.288  -0.136  1.00  0.00     0.255 C 
ATOM      6  O   UNL     1       2.521  -2.271  -0.319  1.00  0.00    -0.269 OA
ATOM      7  H   UNL     1       1.358  -4.261   0.023  1.00  0.00     0.163 HD
BRANCH   5   8
ATOM      8  C   UNL     1       0.583  -0.979  -0.102  1.00  0.00     0.083 A 
ATOM      9  C   UNL     1      -1.427   0.415  -0.192  1.00  0.00     0.032 A 
ATOM     10  C   UNL     1      -0.648   1.550   0.027  1.00  0.00     0.029 A 
ATOM     11  C   UNL     1      -0.793  -0.829  -0.320  1.00  0.00     0.043 A 
ATOM     12  C   UNL     1       0.731   1.440   0.183  1.00  0.00     0.049 A 
ATOM     13  C   UNL     1       1.338   0.188   0.124  1.00  0.00     0.128 A 
BRANCH   9  14
ATOM     14  N   UNL     1      -2.791   0.534  -0.414  1.00  0.00    -0.399 N 
ATOM     15  H   UNL     1      -3.230   1.410  -0.322  1.00  0.00     0.156 HD
ATOM     16  H   UNL     1      -3.320  -0.258  -0.663  1.00  0.00     0.156 HD
ENDBRANCH   9  14
BRANCH  13  17
ATOM     17  O   UNL     1       2.701   0.190   0.284  1.00  0.00    -0.507 OA
ATOM     18  H   UNL     1       3.154   0.996   0.433  1.00  0.00     0.293 HD
ENDBRANCH  13  17
ENDBRANCH   5   8
ENDBRANCH   3   4
ENDBRANCH   2   3
ENDBRANCH   1   2
BRANCH   1  19
ATOM     19  C   UNL     1      -1.367  -6.909  -0.438  1.00  0.00     0.116 C 
BRANCH  19  20
ATOM     20  N   UNL     1      -2.791  -6.938  -0.144  1.00  0.00    -0.352 N 
ATOM     21  C   UNL     1      -3.580  -8.021   0.171  1.00  0.00     0.251 C 
ATOM     22  H   UNL     1      -3.251  -6.068  -0.174  1.00  0.00     0.163 HD
ATOM     23  O   UNL     1      -4.788  -7.885   0.292  1.00  0.00    -0.269 OA
BRANCH  21  24
ATOM     24  C   UNL     1      -2.955  -9.353   0.315  1.00  0.00     0.039 A 
ATOM     25  C   UNL     1      -3.505 -10.430  -0.383  1.00  0.00     0.014 A 
ATOM     26  C   UNL     1      -1.818  -9.530   1.108  1.00  0.00     0.014 A 
ATOM     27  C   UNL     1      -2.873 -11.674  -0.342  1.00  0.00     0.010 A 
ATOM     28  C   UNL     1      -1.156 -10.755   1.100  1.00  0.00     0.010 A 
ATOM     29  C   UNL     1      -1.673 -11.836   0.370  1.00  0.00    -0.014 A 
BRANCH  29  30
ATOM     30  C   UNL     1      -0.936 -13.124   0.352  1.00  0.00     0.031 A 
ATOM     31  C   UNL     1      -0.777 -13.922   1.615  1.00  0.00     0.074 A 
ATOM     32  C   UNL     1      -0.344 -13.532  -0.787  1.00  0.00     0.049 A 
ATOM     33  N   UNL     1      -0.104 -15.025   1.816  1.00  0.00    -0.248 NA
ATOM     34  C   UNL     1      -1.440 -13.395   2.819  1.00  0.00     0.031 C 
ATOM     35  C   UNL     1      -0.380 -12.815  -2.064  1.00  0.00     0.029 A 
ATOM     36  N   UNL     1       0.416 -14.643  -1.053  1.00  0.00    -0.354 N 
ATOM     37  C   UNL     1      -0.245 -15.314   3.168  1.00  0.00     0.074 A 
ATOM     38  C   UNL     1      -1.031 -14.246   3.748  1.00  0.00     0.031 C 
ATOM     39  C   UNL     1       0.312 -13.512  -2.980  1.00  0.00     0.029 A 
ATOM     40  C   UNL     1       0.866 -14.707  -2.351  1.00  0.00     0.049 A 
ATOM     41  H   UNL     1       0.621 -15.330  -0.378  1.00  0.00     0.167 HD
ATOM     42  C   UNL     1       0.220 -16.383   3.858  1.00  0.00     0.037 A 
ATOM     43  C   UNL     1       1.641 -15.623  -2.963  1.00  0.00     0.037 A 
ATOM     44  C   UNL     1       0.976 -17.457   3.268  1.00  0.00     0.049 A 
ATOM     45  C   UNL     1       2.125 -16.814  -2.184  1.00  0.00     0.074 A 
ATOM     46  C   UNL     1       1.439 -18.615   3.868  1.00  0.00     0.029 A 
ATOM     47  N   UNL     1       1.378 -17.506   1.941  1.00  0.00    -0.354 N 
ATOM     48  N   UNL     1       1.929 -17.105  -0.920  1.00  0.00    -0.248 NA
ATOM     49  C   UNL     1       2.928 -17.805  -2.913  1.00  0.00     0.031 C 
ATOM     50  C   UNL     1       2.148 -19.349   2.911  1.00  0.00     0.029 A 
ATOM     51  C   UNL     1       2.094 -18.668   1.706  1.00  0.00     0.049 A 
ATOM     52  H   UNL     1       1.183 -16.816   1.266  1.00  0.00     0.167 HD
ATOM     53  C   UNL     1       2.563 -18.323  -0.708  1.00  0.00     0.074 A 
ATOM     54  C   UNL     1       3.141 -18.720  -1.976  1.00  0.00     0.031 C 
ATOM     55  C   UNL     1       2.656 -19.049   0.434  1.00  0.00     0.037 A 
BRANCH  42  56
ATOM     56  C   UNL     1      -0.084 -16.441   5.329  1.00  0.00     0.058 A 
ATOM     57  C   UNL     1      -1.382 -16.692   5.802  1.00  0.00     0.135 A 
ATOM     58  C   UNL     1       0.935 -16.258   6.277  1.00  0.00     0.135 A 
ATOM     59  F   UNL     1      -2.395 -16.859   4.938  1.00  0.00    -0.206 F 
ATOM     60  C   UNL     1      -1.667 -16.721   7.163  1.00  0.00     0.059 A 
ATOM     61  C   UNL     1       0.677 -16.309   7.645  1.00  0.00     0.059 A 
ATOM     62  F   UNL     1       2.194 -16.016   5.880  1.00  0.00    -0.206 F 
ATOM     63  C   UNL     1      -0.631 -16.523   8.077  1.00  0.00     0.060 A 
BRANCH  63  64
ATOM     64  S   UNL     1      -1.018 -16.549   9.840  1.00  0.00     0.124 S 
ATOM     65  O   UNL     1      -1.649 -15.244  10.017  1.00  0.00    -0.237 OA
ATOM     66  O   UNL     1      -1.906 -17.701   9.950  1.00  0.00    -0.237 OA
ATOM     67  O   UNL     1       0.288 -16.705  10.471  1.00  0.00    -0.744 OA
ENDBRANCH  63  64
ENDBRANCH  42  56
BRANCH  43  68
ATOM     68  C   UNL     1       1.975 -15.463  -4.402  1.00  0.00     0.058 A 
ATOM     69  C   UNL     1       1.376 -16.278  -5.373  1.00  0.00     0.135 A 
ATOM     70  C   UNL     1       2.874 -14.477  -4.838  1.00  0.00     0.135 A 
ATOM     71  F   UNL     1       0.514 -17.238  -5.004  1.00  0.00    -0.206 F 
ATOM     72  C   UNL     1       1.662 -16.130  -6.726  1.00  0.00     0.059 A 
ATOM     73  C   UNL     1       3.160 -14.295  -6.187  1.00  0.00     0.059 A 
ATOM     74  F   UNL     1       3.459 -13.661  -3.948  1.00  0.00    -0.206 F 
ATOM     75  C   UNL     1       2.554 -15.132  -7.124  1.00  0.00     0.060 A 
BRANCH  75  76
ATOM     76  S   UNL     1       2.870 -14.905  -8.888  1.00  0.00     0.124 S 
ATOM     77  O   UNL     1       3.746 -16.035  -9.176  1.00  0.00    -0.237 OA
ATOM     78  O   UNL     1       1.526 -14.977  -9.453  1.00  0.00    -0.237 OA
ATOM     79  O   UNL     1       3.496 -13.588  -8.948  1.00  0.00    -0.744 OA
ENDBRANCH  75  76
ENDBRANCH  43  68
BRANCH  55  80
ATOM     80  C   UNL     1       3.384 -20.362   0.360  1.00  0.00     0.058 A 
ATOM     81  C   UNL     1       4.783 -20.424   0.286  1.00  0.00     0.135 A 
ATOM     82  C   UNL     1       2.673 -21.571   0.419  1.00  0.00     0.135 A 
ATOM     83  F   UNL     1       5.507 -19.295   0.220  1.00  0.00    -0.206 F 
ATOM     84  C   UNL     1       5.454 -21.642   0.257  1.00  0.00     0.059 A 
ATOM     85  C   UNL     1       3.324 -22.800   0.413  1.00  0.00     0.059 A 
ATOM     86  F   UNL     1       1.333 -21.565   0.498  1.00  0.00    -0.206 F 
ATOM     87  C   UNL     1       4.715 -22.825   0.322  1.00  0.00     0.060 A 
BRANCH  87  88
ATOM     88  S   UNL     1       5.598 -24.401   0.324  1.00  0.00     0.124 S 
ATOM     89  O   UNL     1       5.963 -24.534  -1.083  1.00  0.00    -0.237 OA
ATOM     90  O   UNL     1       6.701 -24.142   1.244  1.00  0.00    -0.237 OA
ATOM     91  O   UNL     1       4.598 -25.348   0.806  1.00  0.00    -0.744 OA
ENDBRANCH  87  88
ENDBRANCH  55  80
ENDBRANCH  29  30
ENDBRANCH  21  24
ENDBRANCH  19  20
ENDBRANCH   1  19
TORSDOF 16
