REMARK SMILES CC(C)[C@H](Sc1ccncc1)C(=O)NCCCCNC(=O)c1ccc(-c2c3nc(c(-c4c(F)cc(S(=O)(=O)[O-])cc4F)c4ccc([nH]4)c(-c4c(F)cc(S(=O)(=O)[O-])cc4F)c4nc(c(-c5c(F)cc(S(=O)(=O)[O-])cc5F)c5ccc2[nH]5)C=C4)C=C3)cc1
REMARK SMILES IDX 17 1 16 2 15 3 14 4 12 5 13 6 4 8 2 9 1 10 3 11 5 12 6 13
REMARK SMILES IDX 7 14 11 15 8 16 10 17 9 18 18 19 19 20 20 21 21 23 22 24
REMARK SMILES IDX 23 25 87 26 24 27 86 28 25 29 26 30 27 31 80 32 28 33 85 34
REMARK SMILES IDX 79 35 81 36 29 37 84 38 78 39 77 40 30 42 64 43 43 44 63 45
REMARK SMILES IDX 44 46 47 47 62 48 82 49 45 50 46 51 61 53 83 54 48 55 31 56
REMARK SMILES IDX 32 57 41 58 33 59 34 60 40 61 42 62 35 63 36 64 37 65 38 66
REMARK SMILES IDX 39 67 65 68 66 69 75 70 67 71 68 72 74 73 76 74 69 75 70 76
REMARK SMILES IDX 71 77 72 78 73 79 49 80 50 81 59 82 51 83 52 84 58 85 60 86
REMARK SMILES IDX 53 87 54 88 55 89 56 90 57 91
REMARK H PARENT 14 7 19 22 81 41 47 52
REMARK Flexibility Score: inf
ROOT
ATOM      1  C   UNL     1       0.706   3.657   5.078  1.00  0.00     0.023 C 
ENDROOT
BRANCH   1   2
ATOM      2  C   UNL     1       1.005   2.543   4.078  1.00  0.00     0.023 C 
BRANCH   2   3
ATOM      3  C   UNL     1      -0.220   1.773   3.597  1.00  0.00     0.116 C 
BRANCH   3   4
ATOM      4  N   UNL     1      -1.082   2.572   2.742  1.00  0.00    -0.355 N 
ATOM      5  C   UNL     1      -1.524   2.330   1.469  1.00  0.00     0.233 C 
ATOM      6  O   UNL     1      -2.265   3.168   0.945  1.00  0.00    -0.274 OA
ATOM      7  H   UNL     1      -1.396   3.416   3.139  1.00  0.00     0.163 HD
BRANCH   5   8
ATOM      8  C   UNL     1      -1.149   1.031   0.714  1.00  0.00     0.143 C 
BRANCH   8   9
ATOM      9  C   UNL     1      -1.709  -0.229   1.447  1.00  0.00     0.006 C 
ATOM     10  C   UNL     1      -3.152   0.002   1.942  1.00  0.00     0.009 C 
ATOM     11  C   UNL     1      -1.725  -1.490   0.582  1.00  0.00     0.009 C 
ENDBRANCH   8   9
BRANCH   8  12
ATOM     12  S   UNL     1       0.692   1.201   0.415  1.00  0.00    -0.112 SA
BRANCH  12  13
ATOM     13  C   UNL     1       1.203  -0.103  -0.665  1.00  0.00     0.011 A 
ATOM     14  C   UNL     1       0.427  -0.657  -1.674  1.00  0.00     0.035 A 
ATOM     15  C   UNL     1       2.517  -0.551  -0.508  1.00  0.00     0.035 A 
ATOM     16  C   UNL     1       0.966  -1.696  -2.418  1.00  0.00     0.112 A 
ATOM     17  C   UNL     1       2.976  -1.574  -1.318  1.00  0.00     0.112 A 
ATOM     18  N   UNL     1       2.220  -2.171  -2.260  1.00  0.00    -0.265 NA
ENDBRANCH  12  13
ENDBRANCH   8  12
ENDBRANCH   5   8
ENDBRANCH   3   4
ENDBRANCH   2   3
ENDBRANCH   1   2
BRANCH   1  19
ATOM     19  C   UNL     1      -0.096   3.232   6.303  1.00  0.00     0.116 C 
BRANCH  19  20
ATOM     20  N   UNL     1       0.519   2.135   7.036  1.00  0.00    -0.352 N 
ATOM     21  C   UNL     1       0.757   2.007   8.381  1.00  0.00     0.251 C 
ATOM     22  H   UNL     1       0.806   1.372   6.484  1.00  0.00     0.163 HD
ATOM     23  O   UNL     1       1.418   1.053   8.789  1.00  0.00    -0.269 OA
BRANCH  21  24
ATOM     24  C   UNL     1       0.255   3.023   9.331  1.00  0.00     0.039 A 
ATOM     25  C   UNL     1       1.099   3.456  10.355  1.00  0.00     0.014 A 
ATOM     26  C   UNL     1      -1.035   3.552   9.218  1.00  0.00     0.014 A 
ATOM     27  C   UNL     1       0.673   4.463  11.223  1.00  0.00     0.010 A 
ATOM     28  C   UNL     1      -1.425   4.616  10.029  1.00  0.00     0.010 A 
ATOM     29  C   UNL     1      -0.578   5.080  11.045  1.00  0.00    -0.014 A 
BRANCH  29  30
ATOM     30  C   UNL     1      -0.979   6.225  11.904  1.00  0.00     0.031 A 
ATOM     31  C   UNL     1      -2.174   6.129  12.814  1.00  0.00     0.074 A 
ATOM     32  C   UNL     1      -0.271   7.371  11.841  1.00  0.00     0.049 A 
ATOM     33  N   UNL     1      -2.629   7.007  13.671  1.00  0.00    -0.248 NA
ATOM     34  C   UNL     1      -2.979   4.900  12.735  1.00  0.00     0.031 C 
ATOM     35  C   UNL     1       0.857   7.617  10.939  1.00  0.00     0.029 A 
ATOM     36  N   UNL     1      -0.387   8.540  12.551  1.00  0.00    -0.354 N 
ATOM     37  C   UNL     1      -3.770   6.442  14.228  1.00  0.00     0.074 A 
ATOM     38  C   UNL     1      -3.974   5.171  13.567  1.00  0.00     0.031 C 
ATOM     39  C   UNL     1       1.356   8.840  11.180  1.00  0.00     0.029 A 
ATOM     40  C   UNL     1       0.567   9.477  12.229  1.00  0.00     0.049 A 
ATOM     41  H   UNL     1      -1.086   8.693  13.226  1.00  0.00     0.167 HD
ATOM     42  C   UNL     1      -4.561   6.925  15.217  1.00  0.00     0.037 A 
ATOM     43  C   UNL     1       0.790  10.708  12.729  1.00  0.00     0.037 A 
ATOM     44  C   UNL     1      -4.342   8.187  15.879  1.00  0.00     0.049 A 
ATOM     45  C   UNL     1      -0.077  11.208  13.851  1.00  0.00     0.074 A 
ATOM     46  C   UNL     1      -5.046   8.738  16.936  1.00  0.00     0.029 A 
ATOM     47  N   UNL     1      -3.351   9.099  15.543  1.00  0.00    -0.354 N 
ATOM     48  N   UNL     1      -1.099  10.620  14.429  1.00  0.00    -0.248 NA
ATOM     49  C   UNL     1       0.250  12.528  14.403  1.00  0.00     0.031 C 
ATOM     50  C   UNL     1      -4.514  10.004  17.205  1.00  0.00     0.029 A 
ATOM     51  C   UNL     1      -3.439  10.218  16.357  1.00  0.00     0.049 A 
ATOM     52  H   UNL     1      -2.684   8.970  14.831  1.00  0.00     0.167 HD
ATOM     53  C   UNL     1      -1.521  11.489  15.429  1.00  0.00     0.074 A 
ATOM     54  C   UNL     1      -0.629  12.631  15.390  1.00  0.00     0.031 C 
ATOM     55  C   UNL     1      -2.551  11.353  16.302  1.00  0.00     0.037 A 
BRANCH  42  56
ATOM     56  C   UNL     1      -5.737   6.087  15.645  1.00  0.00     0.058 A 
ATOM     57  C   UNL     1      -5.570   4.865  16.319  1.00  0.00     0.135 A 
ATOM     58  C   UNL     1      -7.051   6.526  15.410  1.00  0.00     0.135 A 
ATOM     59  F   UNL     1      -4.339   4.387  16.559  1.00  0.00    -0.206 F 
ATOM     60  C   UNL     1      -6.660   4.095  16.714  1.00  0.00     0.059 A 
ATOM     61  C   UNL     1      -8.156   5.787  15.825  1.00  0.00     0.059 A 
ATOM     62  F   UNL     1      -7.272   7.686  14.771  1.00  0.00    -0.206 F 
ATOM     63  C   UNL     1      -7.950   4.565  16.463  1.00  0.00     0.060 A 
BRANCH  63  64
ATOM     64  S   UNL     1      -9.352   3.555  16.985  1.00  0.00     0.124 S 
ATOM     65  O   UNL     1      -9.294   2.458  16.024  1.00  0.00    -0.237 OA
ATOM     66  O   UNL     1      -8.995   3.214  18.359  1.00  0.00    -0.237 OA
ATOM     67  O   UNL     1     -10.492   4.455  16.842  1.00  0.00    -0.744 OA
ENDBRANCH  63  64
ENDBRANCH  42  56
BRANCH  43  68
ATOM     68  C   UNL     1       1.909  11.531  12.195  1.00  0.00     0.058 A 
ATOM     69  C   UNL     1       3.055  11.786  12.963  1.00  0.00     0.135 A 
ATOM     70  C   UNL     1       1.865  12.057  10.895  1.00  0.00     0.135 A 
ATOM     71  F   UNL     1       3.143  11.308  14.214  1.00  0.00    -0.206 F 
ATOM     72  C   UNL     1       4.111  12.544  12.469  1.00  0.00     0.059 A 
ATOM     73  C   UNL     1       2.920  12.794  10.367  1.00  0.00     0.059 A 
ATOM     74  F   UNL     1       0.800  11.825  10.111  1.00  0.00    -0.206 F 
ATOM     75  C   UNL     1       4.035  13.041  11.166  1.00  0.00     0.060 A 
BRANCH  75  76
ATOM     76  S   UNL     1       5.437  13.973  10.512  1.00  0.00     0.124 S 
ATOM     77  O   UNL     1       5.317  15.232  11.238  1.00  0.00    -0.237 OA
ATOM     78  O   UNL     1       6.567  13.127  10.880  1.00  0.00    -0.237 OA
ATOM     79  O   UNL     1       5.155  14.041   9.081  1.00  0.00    -0.744 OA
ENDBRANCH  75  76
ENDBRANCH  43  68
BRANCH  55  80
ATOM     80  C   UNL     1      -2.745  12.456  17.309  1.00  0.00     0.058 A 
ATOM     81  C   UNL     1      -3.188  13.735  16.935  1.00  0.00     0.135 A 
ATOM     82  C   UNL     1      -2.487  12.227  18.671  1.00  0.00     0.135 A 
ATOM     83  F   UNL     1      -3.449  14.010  15.647  1.00  0.00    -0.206 F 
ATOM     84  C   UNL     1      -3.316  14.761  17.865  1.00  0.00     0.059 A 
ATOM     85  C   UNL     1      -2.641  13.229  19.623  1.00  0.00     0.059 A 
ATOM     86  F   UNL     1      -2.078  11.018  19.088  1.00  0.00    -0.206 F 
ATOM     87  C   UNL     1      -3.032  14.500  19.207  1.00  0.00     0.060 A 
BRANCH  87  88
ATOM     88  S   UNL     1      -3.183  15.843  20.403  1.00  0.00     0.124 S 
ATOM     89  O   UNL     1      -1.996  16.638  20.102  1.00  0.00    -0.237 OA
ATOM     90  O   UNL     1      -4.460  16.447  20.037  1.00  0.00    -0.237 OA
ATOM     91  O   UNL     1      -3.167  15.155  21.691  1.00  0.00    -0.744 OA
ENDBRANCH  87  88
ENDBRANCH  55  80
ENDBRANCH  29  30
ENDBRANCH  21  24
ENDBRANCH  19  20
ENDBRANCH   1  19
TORSDOF 17
