REMARK SMILES CC1=NN(c2ccc(Cl)c(C(=O)NCCCCNC(=O)c3ccc(-c4c5nc(c(-c6c(F)cc(S(=O)(=O)[O-])cc6F)c6ccc([nH]6)c(-c6c(F)cc(S(=O)(=O)[O-])cc6F)c6nc(c(-c7c(F)cc(S(=O)(=O)[O-])cc7F)c7ccc4[nH]7)C=C6)C=C5)cc3)c2)C(=O)/C1=C\c1ccccc1Cl
REMARK SMILES IDX 16 1 15 2 14 3 13 4 11 5 12 6 10 8 5 9 6 10 87 11 7 12 8 13
REMARK SMILES IDX 9 14 4 15 1 16 2 17 3 18 90 19 88 20 91 21 89 22 92 23 93 24
REMARK SMILES IDX 97 25 94 26 96 27 98 28 95 29 17 30 18 31 19 32 20 34 21 35
REMARK SMILES IDX 22 36 86 37 23 38 85 39 24 40 25 41 26 42 79 43 27 44 84 45
REMARK SMILES IDX 78 46 80 47 28 48 83 49 77 50 76 51 29 53 63 54 42 55 62 56
REMARK SMILES IDX 43 57 46 58 61 59 81 60 44 61 45 62 60 64 82 65 47 66 30 67
REMARK SMILES IDX 31 68 40 69 32 70 33 71 39 72 41 73 34 74 35 75 36 76 37 77
REMARK SMILES IDX 38 78 64 79 65 80 74 81 66 82 67 83 73 84 75 85 68 86 69 87
REMARK SMILES IDX 70 88 71 89 72 90 48 91 49 92 58 93 50 94 51 95 57 96 59 97
REMARK SMILES IDX 52 98 53 99 54 100 55 101 56 102
REMARK H PARENT 13 7 18 33 80 52 46 63
REMARK Flexibility Score: inf
ROOT
ATOM      1  C   UNL     1       2.429  10.033   1.466  1.00  0.00     0.023 C 
ENDROOT
BRANCH   1   2
ATOM      2  C   UNL     1       2.228   8.979   0.380  1.00  0.00     0.023 C 
BRANCH   2   3
ATOM      3  C   UNL     1       2.802   7.598   0.662  1.00  0.00     0.116 C 
BRANCH   3   4
ATOM      4  N   UNL     1       2.185   6.886   1.768  1.00  0.00    -0.352 N 
ATOM      5  C   UNL     1       1.895   5.545   1.909  1.00  0.00     0.252 C 
ATOM      6  O   UNL     1       1.398   5.154   2.965  1.00  0.00    -0.269 OA
ATOM      7  H   UNL     1       1.935   7.448   2.536  1.00  0.00     0.163 HD
BRANCH   5   8
ATOM      8  C   UNL     1       2.088   4.565   0.807  1.00  0.00     0.060 A 
ATOM      9  C   UNL     1       1.232   2.587  -0.335  1.00  0.00     0.070 A 
ATOM     10  C   UNL     1       2.303   2.671  -1.231  1.00  0.00     0.030 A 
ATOM     11  C   UNL     1       1.066   3.600   0.618  1.00  0.00     0.044 A 
ATOM     12  C   UNL     1       3.318   3.596  -1.040  1.00  0.00     0.023 A 
ATOM     13  C   UNL     1       3.264   4.462   0.050  1.00  0.00     0.053 A 
ATOM     14  Cl  UNL     1       4.772   5.187   0.486  1.00  0.00    -0.083 Cl
BRANCH   9  15
ATOM     15  N   UNL     1       0.499   1.383  -0.290  1.00  0.00    -0.196 N 
ATOM     16  C   UNL     1      -2.539  -0.474   0.257  1.00  0.00     0.069 C 
ATOM     17  C   UNL     1      -1.160   0.063   0.067  1.00  0.00     0.071 C 
ATOM     18  N   UNL     1      -0.848   1.338   0.045  1.00  0.00    -0.169 NA
ATOM     19  C   UNL     1       0.015  -0.807  -0.131  1.00  0.00     0.065 C 
ATOM     20  C   UNL     1       1.103   0.128  -0.471  1.00  0.00     0.280 C 
ATOM     21  C   UNL     1       0.129  -2.126   0.091  1.00  0.00     0.025 C 
ATOM     22  O   UNL     1       2.240  -0.167  -0.794  1.00  0.00    -0.267 OA
BRANCH  21  23
ATOM     23  C   UNL     1       1.445  -2.793   0.123  1.00  0.00    -0.006 A 
ATOM     24  C   UNL     1       1.879  -3.504  -1.004  1.00  0.00     0.009 A 
ATOM     25  C   UNL     1       2.326  -2.651   1.215  1.00  0.00     0.048 A 
ATOM     26  C   UNL     1       3.172  -4.036  -1.050  1.00  0.00     0.001 A 
ATOM     27  C   UNL     1       3.620  -3.177   1.161  1.00  0.00     0.021 A 
ATOM     28  Cl  UNL     1       1.862  -1.812   2.658  1.00  0.00    -0.084 Cl
ATOM     29  C   UNL     1       4.045  -3.864   0.025  1.00  0.00     0.002 A 
ENDBRANCH  21  23
ENDBRANCH   9  15
ENDBRANCH   5   8
ENDBRANCH   3   4
ENDBRANCH   2   3
ENDBRANCH   1   2
BRANCH   1  30
ATOM     30  C   UNL     1       3.841  10.188   2.027  1.00  0.00     0.116 C 
BRANCH  30  31
ATOM     31  N   UNL     1       4.859  10.457   1.022  1.00  0.00    -0.352 N 
ATOM     32  C   UNL     1       5.817  11.445   0.978  1.00  0.00     0.251 C 
ATOM     33  H   UNL     1       4.864   9.837   0.257  1.00  0.00     0.163 HD
ATOM     34  O   UNL     1       6.549  11.538  -0.004  1.00  0.00    -0.269 OA
BRANCH  32  35
ATOM     35  C   UNL     1       5.939  12.421   2.085  1.00  0.00     0.039 A 
ATOM     36  C   UNL     1       6.068  13.779   1.776  1.00  0.00     0.014 A 
ATOM     37  C   UNL     1       5.906  12.012   3.420  1.00  0.00     0.014 A 
ATOM     38  C   UNL     1       6.074  14.728   2.802  1.00  0.00     0.010 A 
ATOM     39  C   UNL     1       5.823  12.962   4.434  1.00  0.00     0.010 A 
ATOM     40  C   UNL     1       5.904  14.332   4.139  1.00  0.00    -0.014 A 
BRANCH  40  41
ATOM     41  C   UNL     1       5.811  15.331   5.238  1.00  0.00     0.031 A 
ATOM     42  C   UNL     1       6.835  15.339   6.342  1.00  0.00     0.074 A 
ATOM     43  C   UNL     1       4.769  16.186   5.279  1.00  0.00     0.049 A 
ATOM     44  N   UNL     1       6.889  16.088   7.414  1.00  0.00    -0.248 NA
ATOM     45  C   UNL     1       7.926  14.356   6.243  1.00  0.00     0.031 C 
ATOM     46  C   UNL     1       3.678  16.242   4.303  1.00  0.00     0.029 A 
ATOM     47  N   UNL     1       4.451  17.171   6.183  1.00  0.00    -0.354 N 
ATOM     48  C   UNL     1       8.005  15.656   8.122  1.00  0.00     0.074 A 
ATOM     49  C   UNL     1       8.563  14.540   7.390  1.00  0.00     0.031 C 
ATOM     50  C   UNL     1       2.831  17.226   4.643  1.00  0.00     0.029 A 
ATOM     51  C   UNL     1       3.294  17.850   5.879  1.00  0.00     0.049 A 
ATOM     52  H   UNL     1       5.000  17.372   6.975  1.00  0.00     0.167 HD
ATOM     53  C   UNL     1       8.535  16.159   9.263  1.00  0.00     0.037 A 
ATOM     54  C   UNL     1       2.675  18.860   6.522  1.00  0.00     0.037 A 
ATOM     55  C   UNL     1       7.993  17.289   9.972  1.00  0.00     0.049 A 
ATOM     56  C   UNL     1       3.288  19.411   7.781  1.00  0.00     0.074 A 
ATOM     57  C   UNL     1       8.487  17.913  11.104  1.00  0.00     0.029 A 
ATOM     58  N   UNL     1       6.835  17.966   9.616  1.00  0.00    -0.354 N 
ATOM     59  N   UNL     1       4.380  19.032   8.401  1.00  0.00    -0.248 NA
ATOM     60  C   UNL     1       2.590  20.533   8.425  1.00  0.00     0.031 C 
ATOM     61  C   UNL     1       7.608  18.942  11.455  1.00  0.00     0.029 A 
ATOM     62  C   UNL     1       6.591  18.992  10.514  1.00  0.00     0.049 A 
ATOM     63  H   UNL     1       6.271  17.750   8.839  1.00  0.00     0.167 HD
ATOM     64  C   UNL     1       4.516  19.887   9.489  1.00  0.00     0.074 A 
ATOM     65  C   UNL     1       3.400  20.809   9.438  1.00  0.00     0.031 C 
ATOM     66  C   UNL     1       5.481  19.909  10.442  1.00  0.00     0.037 A 
BRANCH  53  67
ATOM     67  C   UNL     1       9.771  15.495   9.806  1.00  0.00     0.058 A 
ATOM     68  C   UNL     1      11.008  15.590   9.147  1.00  0.00     0.135 A 
ATOM     69  C   UNL     1       9.727  14.772  11.009  1.00  0.00     0.135 A 
ATOM     70  F   UNL     1      11.105  16.257   7.986  1.00  0.00    -0.206 F 
ATOM     71  C   UNL     1      12.146  14.961   9.639  1.00  0.00     0.059 A 
ATOM     72  C   UNL     1      10.861  14.160  11.537  1.00  0.00     0.059 A 
ATOM     73  F   UNL     1       8.573  14.650  11.684  1.00  0.00    -0.206 F 
ATOM     74  C   UNL     1      12.062  14.245  10.834  1.00  0.00     0.060 A 
BRANCH  74  75
ATOM     75  S   UNL     1      13.548  13.431  11.456  1.00  0.00     0.124 S 
ATOM     76  O   UNL     1      13.667  12.302  10.538  1.00  0.00    -0.237 OA
ATOM     77  O   UNL     1      14.560  14.473  11.313  1.00  0.00    -0.237 OA
ATOM     78  O   UNL     1      13.197  13.086  12.831  1.00  0.00    -0.744 OA
ENDBRANCH  74  75
ENDBRANCH  53  67
BRANCH  54  79
ATOM     79  C   UNL     1       1.425  19.442   5.963  1.00  0.00     0.058 A 
ATOM     80  C   UNL     1       1.421  20.724   5.394  1.00  0.00     0.135 A 
ATOM     81  C   UNL     1       0.217  18.727   5.970  1.00  0.00     0.135 A 
ATOM     82  F   UNL     1       2.549  21.450   5.369  1.00  0.00    -0.206 F 
ATOM     83  C   UNL     1       0.262  21.284   4.865  1.00  0.00     0.059 A 
ATOM     84  C   UNL     1      -0.949  19.256   5.425  1.00  0.00     0.059 A 
ATOM     85  F   UNL     1       0.171  17.490   6.488  1.00  0.00    -0.206 F 
ATOM     86  C   UNL     1      -0.918  20.540   4.882  1.00  0.00     0.060 A 
BRANCH  86  87
ATOM     87  S   UNL     1      -2.404  21.256   4.144  1.00  0.00     0.124 S 
ATOM     88  O   UNL     1      -2.770  22.260   5.136  1.00  0.00    -0.237 OA
ATOM     89  O   UNL     1      -1.899  21.768   2.874  1.00  0.00    -0.237 OA
ATOM     90  O   UNL     1      -3.308  20.114   4.036  1.00  0.00    -0.744 OA
ENDBRANCH  86  87
ENDBRANCH  54  79
BRANCH  66  91
ATOM     91  C   UNL     1       5.399  20.987  11.487  1.00  0.00     0.058 A 
ATOM     92  C   UNL     1       4.442  20.953  12.513  1.00  0.00     0.135 A 
ATOM     93  C   UNL     1       6.331  22.039  11.494  1.00  0.00     0.135 A 
ATOM     94  F   UNL     1       3.526  19.973  12.549  1.00  0.00    -0.206 F 
ATOM     95  C   UNL     1       4.397  21.935  13.497  1.00  0.00     0.059 A 
ATOM     96  C   UNL     1       6.321  23.017  12.483  1.00  0.00     0.059 A 
ATOM     97  F   UNL     1       7.274  22.113  10.541  1.00  0.00    -0.206 F 
ATOM     98  C   UNL     1       5.343  22.962  13.475  1.00  0.00     0.060 A 
BRANCH  98  99
ATOM     99  S   UNL     1       5.298  24.210  14.779  1.00  0.00     0.124 S 
ATOM    100  O   UNL     1       4.140  25.006  14.384  1.00  0.00    -0.237 OA
ATOM    101  O   UNL     1       5.130  23.400  15.981  1.00  0.00    -0.237 OA
ATOM    102  O   UNL     1       6.590  24.878  14.655  1.00  0.00    -0.744 OA
ENDBRANCH  98  99
ENDBRANCH  66  91
ENDBRANCH  40  41
ENDBRANCH  32  35
ENDBRANCH  30  31
ENDBRANCH   1  30
TORSDOF 16
