REMARK SMILES [NH3+][C@@](Cc1ccc(F)cc1)(C(=O)NCCCCNC(=O)c1ccc(-c2c3nc(c(-c4c(F)cc(S(=O)(=O)[O-])cc4F)c4ccc([nH]4)c(-c4c(F)cc(S(=O)(=O)[O-])cc4F)c4nc(c(-c5c(F)cc(S(=O)(=O)[O-])cc5F)c5ccc2[nH]5)C=C4)C=C3)cc1)c1ccccc1
REMARK SMILES IDX 16 1 15 2 14 3 13 4 11 5 12 6 2 8 1 9 3 13 4 14 5 15 10 16
REMARK SMILES IDX 6 17 9 18 7 19 8 20 87 21 88 22 92 23 89 24 91 25 90 26
REMARK SMILES IDX 17 27 18 28 19 29 20 31 21 32 22 33 86 34 23 35 85 36 24 37
REMARK SMILES IDX 25 38 26 39 79 40 27 41 84 42 78 43 80 44 28 45 83 46 77 47
REMARK SMILES IDX 76 48 29 50 63 51 42 52 62 53 43 54 46 55 61 56 81 57 44 58
REMARK SMILES IDX 45 59 60 61 82 62 47 63 30 64 31 65 40 66 32 67 33 68 39 69
REMARK SMILES IDX 41 70 34 71 35 72 36 73 37 74 38 75 64 76 65 77 74 78 66 79
REMARK SMILES IDX 67 80 73 81 75 82 68 83 69 84 70 85 71 86 72 87 48 88 49 89
REMARK SMILES IDX 58 90 50 91 51 92 57 93 59 94 52 95 53 96 54 97 55 98 56 99
REMARK H PARENT 13 7 1 10 1 11 1 12 18 30 80 49 46 60
REMARK Flexibility Score: inf
ROOT
ATOM      1  C   UNL     1      -3.511  -0.365   2.757  1.00  0.00     0.023 C 
ENDROOT
BRANCH   1   2
ATOM      2  C   UNL     1      -2.060  -0.192   2.329  1.00  0.00     0.023 C 
BRANCH   2   3
ATOM      3  C   UNL     1      -1.522  -1.271   1.404  1.00  0.00     0.116 C 
BRANCH   3   4
ATOM      4  N   UNL     1      -1.787  -1.069   0.001  1.00  0.00    -0.350 N 
ATOM      5  C   UNL     1      -0.955  -1.163  -1.085  1.00  0.00     0.286 C 
ATOM      6  O   UNL     1      -1.536  -1.354  -2.163  1.00  0.00    -0.267 OA
ATOM      7  H   UNL     1      -2.716  -0.822  -0.212  1.00  0.00     0.163 HD
BRANCH   5   8
ATOM      8  C   UNL     1       0.636  -1.059  -1.005  1.00  0.00     0.203 C 
BRANCH   8   9
ATOM      9  N   UNL     1       1.041   0.066  -0.114  1.00  0.00    -0.341 N 
ATOM     10  H   UNL     1       0.733  -0.128   0.839  1.00  0.00     0.345 HD
ATOM     11  H   UNL     1       0.611   0.931  -0.441  1.00  0.00     0.345 HD
ATOM     12  H   UNL     1       2.057   0.164  -0.129  1.00  0.00     0.345 HD
ENDBRANCH   8   9
BRANCH   8  13
ATOM     13  C   UNL     1       1.286  -2.428  -0.570  1.00  0.00     0.120 C 
BRANCH  13  14
ATOM     14  C   UNL     1       1.116  -3.015   0.820  1.00  0.00    -0.041 A 
ATOM     15  C   UNL     1       0.406  -4.221   0.978  1.00  0.00     0.007 A 
ATOM     16  C   UNL     1       1.669  -2.407   1.960  1.00  0.00     0.007 A 
ATOM     17  C   UNL     1       0.195  -4.764   2.246  1.00  0.00     0.039 A 
ATOM     18  C   UNL     1       1.421  -2.932   3.232  1.00  0.00     0.039 A 
ATOM     19  C   UNL     1       0.685  -4.103   3.363  1.00  0.00     0.123 A 
ATOM     20  F   UNL     1       0.450  -4.602   4.582  1.00  0.00    -0.207 F 
ENDBRANCH  13  14
ENDBRANCH   8  13
BRANCH   8  21
ATOM     21  C   UNL     1       1.155  -0.664  -2.437  1.00  0.00     0.022 A 
ATOM     22  C   UNL     1       1.735  -1.583  -3.333  1.00  0.00     0.011 A 
ATOM     23  C   UNL     1       1.002   0.664  -2.893  1.00  0.00     0.011 A 
ATOM     24  C   UNL     1       2.172  -1.188  -4.602  1.00  0.00     0.001 A 
ATOM     25  C   UNL     1       1.441   1.058  -4.161  1.00  0.00     0.001 A 
ATOM     26  C   UNL     1       2.031   0.132  -5.013  1.00  0.00     0.000 A 
ENDBRANCH   8  21
ENDBRANCH   5   8
ENDBRANCH   3   4
ENDBRANCH   2   3
ENDBRANCH   1   2
BRANCH   1  27
ATOM     27  C   UNL     1      -3.888  -1.735   3.316  1.00  0.00     0.116 C 
BRANCH  27  28
ATOM     28  N   UNL     1      -3.051  -2.195   4.417  1.00  0.00    -0.352 N 
ATOM     29  C   UNL     1      -3.438  -2.840   5.576  1.00  0.00     0.251 C 
ATOM     30  H   UNL     1      -2.086  -2.025   4.322  1.00  0.00     0.163 HD
ATOM     31  O   UNL     1      -2.624  -3.106   6.445  1.00  0.00    -0.269 OA
BRANCH  29  32
ATOM     32  C   UNL     1      -4.873  -3.148   5.769  1.00  0.00     0.039 A 
ATOM     33  C   UNL     1      -5.508  -2.698   6.927  1.00  0.00     0.014 A 
ATOM     34  C   UNL     1      -5.602  -3.780   4.758  1.00  0.00     0.014 A 
ATOM     35  C   UNL     1      -6.899  -2.780   7.021  1.00  0.00     0.010 A 
ATOM     36  C   UNL     1      -6.991  -3.783   4.817  1.00  0.00     0.010 A 
ATOM     37  C   UNL     1      -7.656  -3.264   5.940  1.00  0.00    -0.014 A 
BRANCH  37  38
ATOM     38  C   UNL     1      -9.140  -3.200   5.943  1.00  0.00     0.031 A 
ATOM     39  C   UNL     1      -9.950  -4.463   5.856  1.00  0.00     0.074 A 
ATOM     40  C   UNL     1      -9.757  -1.999   5.941  1.00  0.00     0.049 A 
ATOM     41  N   UNL     1     -11.246  -4.605   5.747  1.00  0.00    -0.248 NA
ATOM     42  C   UNL     1      -9.205  -5.732   5.860  1.00  0.00     0.031 C 
ATOM     43  C   UNL     1      -9.081  -0.699   5.965  1.00  0.00     0.029 A 
ATOM     44  N   UNL     1     -11.091  -1.675   5.911  1.00  0.00    -0.354 N 
ATOM     45  C   UNL     1     -11.469  -5.973   5.656  1.00  0.00     0.074 A 
ATOM     46  C   UNL     1     -10.174  -6.616   5.667  1.00  0.00     0.031 C 
ATOM     47  C   UNL     1     -10.003   0.277   5.983  1.00  0.00     0.029 A 
ATOM     48  C   UNL     1     -11.333  -0.321   5.932  1.00  0.00     0.049 A 
ATOM     49  H   UNL     1     -11.807  -2.349   5.878  1.00  0.00     0.167 HD
ATOM     50  C   UNL     1     -12.649  -6.635   5.597  1.00  0.00     0.037 A 
ATOM     51  C   UNL     1     -12.494   0.363   5.910  1.00  0.00     0.037 A 
ATOM     52  C   UNL     1     -13.936  -5.994   5.626  1.00  0.00     0.049 A 
ATOM     53  C   UNL     1     -13.792  -0.395   5.860  1.00  0.00     0.074 A 
ATOM     54  C   UNL     1     -15.188  -6.582   5.624  1.00  0.00     0.029 A 
ATOM     55  N   UNL     1     -14.138  -4.622   5.671  1.00  0.00    -0.354 N 
ATOM     56  N   UNL     1     -13.984  -1.691   5.816  1.00  0.00    -0.248 NA
ATOM     57  C   UNL     1     -15.029   0.399   5.856  1.00  0.00     0.031 C 
ATOM     58  C   UNL     1     -16.149  -5.566   5.640  1.00  0.00     0.029 A 
ATOM     59  C   UNL     1     -15.495  -4.345   5.689  1.00  0.00     0.049 A 
ATOM     60  H   UNL     1     -13.423  -3.946   5.688  1.00  0.00     0.167 HD
ATOM     61  C   UNL     1     -15.363  -1.870   5.799  1.00  0.00     0.074 A 
ATOM     62  C   UNL     1     -15.957  -0.550   5.848  1.00  0.00     0.031 C 
ATOM     63  C   UNL     1     -16.070  -3.025   5.745  1.00  0.00     0.037 A 
BRANCH  50  64
ATOM     64  C   UNL     1     -12.603  -8.134   5.523  1.00  0.00     0.058 A 
ATOM     65  C   UNL     1     -12.976  -8.807   4.349  1.00  0.00     0.135 A 
ATOM     66  C   UNL     1     -12.234  -8.909   6.635  1.00  0.00     0.135 A 
ATOM     67  F   UNL     1     -13.329  -8.114   3.255  1.00  0.00    -0.206 F 
ATOM     68  C   UNL     1     -12.995 -10.196   4.283  1.00  0.00     0.059 A 
ATOM     69  C   UNL     1     -12.223 -10.299   6.584  1.00  0.00     0.059 A 
ATOM     70  F   UNL     1     -11.846  -8.314   7.774  1.00  0.00    -0.206 F 
ATOM     71  C   UNL     1     -12.618 -10.934   5.407  1.00  0.00     0.060 A 
BRANCH  71  72
ATOM     72  S   UNL     1     -12.611 -12.736   5.296  1.00  0.00     0.124 S 
ATOM     73  O   UNL     1     -14.037 -13.042   5.296  1.00  0.00    -0.237 OA
ATOM     74  O   UNL     1     -11.909 -12.964   4.037  1.00  0.00    -0.237 OA
ATOM     75  O   UNL     1     -11.878 -13.144   6.492  1.00  0.00    -0.744 OA
ENDBRANCH  71  72
ENDBRANCH  50  64
BRANCH  51  76
ATOM     76  C   UNL     1     -12.477   1.848   5.975  1.00  0.00     0.058 A 
ATOM     77  C   UNL     1     -12.044   2.624   4.890  1.00  0.00     0.135 A 
ATOM     78  C   UNL     1     -12.859   2.518   7.147  1.00  0.00     0.135 A 
ATOM     79  F   UNL     1     -11.658   2.031   3.749  1.00  0.00    -0.206 F 
ATOM     80  C   UNL     1     -11.967   4.011   4.971  1.00  0.00     0.059 A 
ATOM     81  C   UNL     1     -12.811   3.906   7.246  1.00  0.00     0.059 A 
ATOM     82  F   UNL     1     -13.292   1.818   8.207  1.00  0.00    -0.206 F 
ATOM     83  C   UNL     1     -12.346   4.642   6.157  1.00  0.00     0.060 A 
BRANCH  83  84
ATOM     84  S   UNL     1     -12.218   6.441   6.253  1.00  0.00     0.124 S 
ATOM     85  O   UNL     1     -10.771   6.627   6.300  1.00  0.00    -0.237 OA
ATOM     86  O   UNL     1     -12.873   6.861   5.018  1.00  0.00    -0.237 OA
ATOM     87  O   UNL     1     -12.935   6.766   7.482  1.00  0.00    -0.744 OA
ENDBRANCH  83  84
ENDBRANCH  51  76
BRANCH  63  88
ATOM     88  C   UNL     1     -17.569  -2.927   5.754  1.00  0.00     0.058 A 
ATOM     89  C   UNL     1     -18.300  -3.312   6.888  1.00  0.00     0.135 A 
ATOM     90  C   UNL     1     -18.283  -2.538   4.610  1.00  0.00     0.135 A 
ATOM     91  F   UNL     1     -17.663  -3.695   8.006  1.00  0.00    -0.206 F 
ATOM     92  C   UNL     1     -19.690  -3.337   6.882  1.00  0.00     0.059 A 
ATOM     93  C   UNL     1     -19.675  -2.535   4.588  1.00  0.00     0.059 A 
ATOM     94  F   UNL     1     -17.628  -2.150   3.505  1.00  0.00    -0.206 F 
ATOM     95  C   UNL     1     -20.369  -2.955   5.724  1.00  0.00     0.060 A 
BRANCH  95  96
ATOM     96  S   UNL     1     -22.173  -2.998   5.729  1.00  0.00     0.124 S 
ATOM     97  O   UNL     1     -22.438  -4.432   5.686  1.00  0.00    -0.237 OA
ATOM     98  O   UNL     1     -22.495  -2.331   6.987  1.00  0.00    -0.237 OA
ATOM     99  O   UNL     1     -22.533  -2.255   4.525  1.00  0.00    -0.744 OA
ENDBRANCH  95  96
ENDBRANCH  63  88
ENDBRANCH  37  38
ENDBRANCH  29  32
ENDBRANCH  27  28
ENDBRANCH   1  27
TORSDOF 18
