REMARK SMILES CC(=O)N[C@H]1[C@@H](Oc2ccc(C)c(C)c2)O[C@H]2CO[C@H](c3ccco3)O[C@@H]2[C@H]1OCC(=O)NCCCCNC(=O)c1ccc(-c2c3nc(c(-c4c(F)cc(S(=O)(=O)[O-])cc4F)c4ccc([nH]4)c(-c4c(F)cc(S(=O)(=O)[O-])cc4F)c4nc(c(-c5c(F)cc(S(=O)(=O)[O-])cc5F)c5ccc2[nH]5)C=C4)C=C3)cc1
REMARK SMILES IDX 35 1 34 2 33 3 31 4 32 5 30 7 29 8 28 9 5 10 6 11 16 12
REMARK SMILES IDX 27 13 17 14 26 15 18 16 20 17 19 18 4 19 1 20 2 21 3 22 7 24
REMARK SMILES IDX 8 25 9 26 15 27 10 28 13 29 11 30 14 31 12 32 21 33 22 34
REMARK SMILES IDX 25 35 23 36 24 37 36 38 37 39 38 40 39 41 40 43 41 44 42 45
REMARK SMILES IDX 106 46 43 47 105 48 44 49 45 50 46 51 99 52 47 53 104 54
REMARK SMILES IDX 98 55 100 56 48 57 103 58 97 59 96 60 49 62 83 63 62 64
REMARK SMILES IDX 82 65 63 66 66 67 81 68 101 69 64 70 65 71 80 73 102 74
REMARK SMILES IDX 67 75 50 76 51 77 60 78 52 79 53 80 59 81 61 82 54 83 55 84
REMARK SMILES IDX 56 85 57 86 58 87 84 88 85 89 94 90 86 91 87 92 93 93 95 94
REMARK SMILES IDX 88 95 89 96 90 97 91 98 92 99 68 100 69 101 78 102 70 103
REMARK SMILES IDX 71 104 77 105 79 106 72 107 73 108 74 109 75 110 76 111
REMARK H PARENT 33 6 4 23 38 42 100 61 66 72
REMARK Flexibility Score: inf
ROOT
ATOM      1  C   UNL     1       1.218   4.071   5.584  1.00  0.00     0.023 C 
ENDROOT
BRANCH   1   2
ATOM      2  C   UNL     1       1.125   5.452   4.937  1.00  0.00     0.116 C 
BRANCH   2   3
ATOM      3  N   UNL     1       2.433   6.045   4.762  1.00  0.00    -0.354 N 
ATOM      4  C   UNL     1       3.128   6.296   3.617  1.00  0.00     0.246 C 
ATOM      5  O   UNL     1       4.204   6.887   3.715  1.00  0.00    -0.272 OA
ATOM      6  H   UNL     1       2.889   6.305   5.595  1.00  0.00     0.163 HD
BRANCH   4   7
ATOM      7  C   UNL     1       2.505   5.977   2.249  1.00  0.00     0.260 C 
BRANCH   7   8
ATOM      8  O   UNL     1       1.803   4.787   1.977  1.00  0.00    -0.363 OA
BRANCH   8   9
ATOM      9  C   UNL     1       2.495   3.530   2.029  1.00  0.00     0.179 C 
ATOM     10  C   UNL     1       1.552   2.574   1.214  1.00  0.00     0.182 C 
ATOM     11  C   UNL     1       1.966   1.118   1.422  1.00  0.00     0.333 C 
ATOM     12  O   UNL     1       3.347   0.942   0.964  1.00  0.00    -0.332 OA
ATOM     13  C   UNL     1       3.831   3.426   1.300  1.00  0.00     0.184 C 
ATOM     14  C   UNL     1       4.324   1.962   1.344  1.00  0.00     0.180 C 
ATOM     15  O   UNL     1       4.877   4.338   1.623  1.00  0.00    -0.337 OA
ATOM     16  C   UNL     1       5.556   1.914   0.398  1.00  0.00     0.199 C 
ATOM     17  C   UNL     1       5.797   4.245   0.516  1.00  0.00     0.319 C 
ATOM     18  O   UNL     1       6.484   2.996   0.593  1.00  0.00    -0.343 OA
BRANCH  10  19
ATOM     19  N   UNL     1       1.617   3.091  -0.209  1.00  0.00    -0.345 N 
ATOM     20  C   UNL     1       2.680   1.296  -1.694  1.00  0.00     0.114 C 
ATOM     21  C   UNL     1       2.281   2.719  -1.353  1.00  0.00     0.217 C 
ATOM     22  O   UNL     1       2.503   3.614  -2.175  1.00  0.00    -0.275 OA
ATOM     23  H   UNL     1       1.047   3.881  -0.347  1.00  0.00     0.164 HD
ENDBRANCH  10  19
BRANCH  11  24
ATOM     24  O   UNL     1       0.987   0.072   1.011  1.00  0.00    -0.463 OA
BRANCH  24  25
ATOM     25  C   UNL     1      -0.059   0.091   0.114  1.00  0.00     0.123 A 
ATOM     26  C   UNL     1      -0.321   1.036  -0.857  1.00  0.00     0.047 A 
ATOM     27  C   UNL     1      -0.957  -0.990   0.084  1.00  0.00     0.050 A 
ATOM     28  C   UNL     1      -1.269   0.929  -1.874  1.00  0.00     0.007 A 
ATOM     29  C   UNL     1      -2.000  -1.107  -0.907  1.00  0.00    -0.045 A 
ATOM     30  C   UNL     1      -2.135  -0.137  -1.916  1.00  0.00    -0.048 A 
ATOM     31  C   UNL     1      -2.927  -2.292  -0.872  1.00  0.00     0.045 C 
ATOM     32  C   UNL     1      -3.132  -0.160  -3.039  1.00  0.00     0.044 C 
ENDBRANCH  24  25
ENDBRANCH  11  24
BRANCH  17  33
ATOM     33  C   UNL     1       6.750   5.384   0.436  1.00  0.00     0.159 A 
ATOM     34  C   UNL     1       7.606   5.771  -0.584  1.00  0.00     0.051 A 
ATOM     35  O   UNL     1       6.727   6.348   1.399  1.00  0.00    -0.464 OA
ATOM     36  C   UNL     1       8.149   7.021  -0.209  1.00  0.00     0.042 A 
ATOM     37  C   UNL     1       7.583   7.328   1.006  1.00  0.00     0.195 A 
ENDBRANCH  17  33
ENDBRANCH   8   9
ENDBRANCH   7   8
ENDBRANCH   4   7
ENDBRANCH   2   3
ENDBRANCH   1   2
BRANCH   1  38
ATOM     38  C   UNL     1       1.863   4.061   6.971  1.00  0.00     0.023 C 
BRANCH  38  39
ATOM     39  C   UNL     1       1.170   4.944   7.997  1.00  0.00     0.116 C 
BRANCH  39  40
ATOM     40  N   UNL     1      -0.211   4.549   8.221  1.00  0.00    -0.352 N 
ATOM     41  C   UNL     1      -0.864   4.330   9.413  1.00  0.00     0.251 C 
ATOM     42  H   UNL     1      -0.754   4.422   7.410  1.00  0.00     0.163 HD
ATOM     43  O   UNL     1      -1.977   3.830   9.420  1.00  0.00    -0.269 OA
BRANCH  41  44
ATOM     44  C   UNL     1      -0.183   4.681  10.680  1.00  0.00     0.039 A 
ATOM     45  C   UNL     1      -0.199   3.764  11.732  1.00  0.00     0.014 A 
ATOM     46  C   UNL     1       0.495   5.895  10.809  1.00  0.00     0.014 A 
ATOM     47  C   UNL     1       0.524   4.041  12.894  1.00  0.00     0.010 A 
ATOM     48  C   UNL     1       1.286   6.127  11.928  1.00  0.00     0.010 A 
ATOM     49  C   UNL     1       1.303   5.207  12.986  1.00  0.00    -0.014 A 
BRANCH  49  50
ATOM     50  C   UNL     1       2.138   5.487  14.181  1.00  0.00     0.031 A 
ATOM     51  C   UNL     1       1.864   6.702  15.025  1.00  0.00     0.074 A 
ATOM     52  C   UNL     1       3.181   4.684  14.471  1.00  0.00     0.049 A 
ATOM     53  N   UNL     1       2.510   7.145  16.073  1.00  0.00    -0.248 NA
ATOM     54  C   UNL     1       0.729   7.546  14.619  1.00  0.00     0.031 C 
ATOM     55  C   UNL     1       3.574   3.499  13.706  1.00  0.00     0.029 A 
ATOM     56  N   UNL     1       4.103   4.745  15.485  1.00  0.00    -0.354 N 
ATOM     57  C   UNL     1       1.866   8.319  16.445  1.00  0.00     0.074 A 
ATOM     58  C   UNL     1       0.827   8.557  15.468  1.00  0.00     0.031 C 
ATOM     59  C   UNL     1       4.630   2.922  14.301  1.00  0.00     0.029 A 
ATOM     60  C   UNL     1       5.019   3.720  15.460  1.00  0.00     0.049 A 
ATOM     61  H   UNL     1       4.107   5.455  16.167  1.00  0.00     0.167 HD
ATOM     62  C   UNL     1       2.099   9.112  17.519  1.00  0.00     0.037 A 
ATOM     63  C   UNL     1       6.057   3.454  16.277  1.00  0.00     0.037 A 
ATOM     64  C   UNL     1       3.136   8.866  18.488  1.00  0.00     0.049 A 
ATOM     65  C   UNL     1       6.326   4.370  17.440  1.00  0.00     0.074 A 
ATOM     66  C   UNL     1       3.433   9.583  19.632  1.00  0.00     0.029 A 
ATOM     67  N   UNL     1       4.054   7.826  18.419  1.00  0.00    -0.354 N 
ATOM     68  N   UNL     1       5.671   5.444  17.814  1.00  0.00    -0.248 NA
ATOM     69  C   UNL     1       7.474   4.037  18.293  1.00  0.00     0.031 C 
ATOM     70  C   UNL     1       4.564   9.011  20.225  1.00  0.00     0.029 A 
ATOM     71  C   UNL     1       4.935   7.899  19.486  1.00  0.00     0.049 A 
ATOM     72  H   UNL     1       4.075   7.138  17.716  1.00  0.00     0.167 HD
ATOM     73  C   UNL     1       6.307   5.896  18.966  1.00  0.00     0.074 A 
ATOM     74  C   UNL     1       7.394   4.974  19.229  1.00  0.00     0.031 C 
ATOM     75  C   UNL     1       6.014   6.973  19.737  1.00  0.00     0.037 A 
BRANCH  62  76
ATOM     76  C   UNL     1       1.217  10.322  17.686  1.00  0.00     0.058 A 
ATOM     77  C   UNL     1      -0.156  10.204  17.963  1.00  0.00     0.135 A 
ATOM     78  C   UNL     1       1.743  11.617  17.551  1.00  0.00     0.135 A 
ATOM     79  F   UNL     1      -0.719   8.991  18.091  1.00  0.00    -0.206 F 
ATOM     80  C   UNL     1      -0.984  11.319  18.041  1.00  0.00     0.059 A 
ATOM     81  C   UNL     1       0.940  12.749  17.662  1.00  0.00     0.059 A 
ATOM     82  F   UNL     1       3.048  11.793  17.292  1.00  0.00    -0.206 F 
ATOM     83  C   UNL     1      -0.427  12.588  17.880  1.00  0.00     0.060 A 
BRANCH  83  84
ATOM     84  S   UNL     1      -1.521  14.022  17.939  1.00  0.00     0.124 S 
ATOM     85  O   UNL     1      -2.228  13.900  16.668  1.00  0.00    -0.237 OA
ATOM     86  O   UNL     1      -2.318  13.758  19.133  1.00  0.00    -0.237 OA
ATOM     87  O   UNL     1      -0.601  15.149  18.039  1.00  0.00    -0.744 OA
ENDBRANCH  83  84
ENDBRANCH  62  76
BRANCH  63  88
ATOM     88  C   UNL     1       6.885   2.240  16.049  1.00  0.00     0.058 A 
ATOM     89  C   UNL     1       6.811   1.149  16.927  1.00  0.00     0.135 A 
ATOM     90  C   UNL     1       7.732   2.126  14.935  1.00  0.00     0.135 A 
ATOM     91  F   UNL     1       6.022   1.213  18.010  1.00  0.00    -0.206 F 
ATOM     92  C   UNL     1       7.549  -0.010  16.714  1.00  0.00     0.059 A 
ATOM     93  C   UNL     1       8.461   0.967  14.687  1.00  0.00     0.059 A 
ATOM     94  F   UNL     1       7.827   3.136  14.056  1.00  0.00    -0.206 F 
ATOM     95  C   UNL     1       8.365  -0.095  15.585  1.00  0.00     0.060 A 
BRANCH  95  96
ATOM     96  S   UNL     1       9.259  -1.635  15.282  1.00  0.00     0.124 S 
ATOM     97  O   UNL     1      10.259  -1.609  16.343  1.00  0.00    -0.237 OA
ATOM     98  O   UNL     1       8.202  -2.632  15.423  1.00  0.00    -0.237 OA
ATOM     99  O   UNL     1       9.772  -1.464  13.926  1.00  0.00    -0.744 OA
ENDBRANCH  95  96
ENDBRANCH  63  88
BRANCH  75 100
ATOM    100  C   UNL     1       6.856   7.197  20.965  1.00  0.00     0.058 A 
ATOM    101  C   UNL     1       8.190   7.626  20.882  1.00  0.00     0.135 A 
ATOM    102  C   UNL     1       6.302   7.030  22.245  1.00  0.00     0.135 A 
ATOM    103  F   UNL     1       8.774   7.795  19.685  1.00  0.00    -0.206 F 
ATOM    104  C   UNL     1       8.951   7.858  22.024  1.00  0.00     0.059 A 
ATOM    105  C   UNL     1       7.034   7.287  23.399  1.00  0.00     0.059 A 
ATOM    106  F   UNL     1       5.027   6.630  22.383  1.00  0.00    -0.206 F 
ATOM    107  C   UNL     1       8.363   7.689  23.279  1.00  0.00     0.060 A 
BRANCH 107 108
ATOM    108  S   UNL     1       9.351   8.030  24.750  1.00  0.00     0.124 S 
ATOM    109  O   UNL     1      10.269   6.896  24.758  1.00  0.00    -0.237 OA
ATOM    110  O   UNL     1       9.945   9.325  24.433  1.00  0.00    -0.237 OA
ATOM    111  O   UNL     1       8.365   8.046  25.827  1.00  0.00    -0.744 OA
ENDBRANCH 107 108
ENDBRANCH  75 100
ENDBRANCH  49  50
ENDBRANCH  41  44
ENDBRANCH  39  40
ENDBRANCH  38  39
ENDBRANCH   1  38
TORSDOF 20
