REMARK SMILES C[C@@H]1CN(C(=O)Nc2ccc(O)c(C(=O)NCCCCNC(=O)c3ccc(-c4c5nc(c(-c6c(F)cc(S(=O)(=O)[O-])cc6F)c6ccc([nH]6)c(-c6c(F)cc(S(=O)(=O)[O-])cc6F)c6nc(c(-c7c(F)cc(S(=O)(=O)[O-])cc7F)c7ccc4[nH]7)C=C6)C=C5)cc3)c2)C[C@H]1C
REMARK SMILES IDX 19 1 18 2 17 3 16 4 14 5 15 6 13 8 8 9 9 10 90 11 10 12
REMARK SMILES IDX 11 13 7 14 1 15 2 16 3 17 92 18 4 19 91 20 93 21 5 22 6 23
REMARK SMILES IDX 12 25 20 27 21 28 22 29 23 31 24 32 25 33 89 34 26 35 88 36
REMARK SMILES IDX 27 37 28 38 29 39 82 40 30 41 87 42 81 43 83 44 31 45 86 46
REMARK SMILES IDX 80 47 79 48 32 50 66 51 45 52 65 53 46 54 49 55 64 56 84 57
REMARK SMILES IDX 47 58 48 59 63 61 85 62 50 63 33 64 34 65 43 66 35 67 36 68
REMARK SMILES IDX 42 69 44 70 37 71 38 72 39 73 40 74 41 75 67 76 68 77 77 78
REMARK SMILES IDX 69 79 70 80 76 81 78 82 71 83 72 84 73 85 74 86 75 87 51 88
REMARK SMILES IDX 52 89 61 90 53 91 54 92 60 93 62 94 55 95 56 96 57 97 58 98
REMARK SMILES IDX 59 99
REMARK H PARENT 16 7 7 24 12 26 21 30 83 49 49 60
REMARK Flexibility Score: inf
ROOT
ATOM      1  C   UNL     1      -5.218   6.274   1.624  1.00  0.00     0.023 C 
ENDROOT
BRANCH   1   2
ATOM      2  C   UNL     1      -4.370   5.328   0.781  1.00  0.00     0.023 C 
BRANCH   2   3
ATOM      3  C   UNL     1      -3.875   4.069   1.499  1.00  0.00     0.116 C 
BRANCH   3   4
ATOM      4  N   UNL     1      -4.904   3.054   1.511  1.00  0.00    -0.352 N 
ATOM      5  C   UNL     1      -5.179   2.015   0.664  1.00  0.00     0.255 C 
ATOM      6  O   UNL     1      -6.163   1.324   0.949  1.00  0.00    -0.269 OA
ATOM      7  H   UNL     1      -5.523   3.123   2.273  1.00  0.00     0.163 HD
BRANCH   5   8
ATOM      8  C   UNL     1      -4.354   1.595  -0.510  1.00  0.00     0.083 A 
ATOM      9  C   UNL     1      -3.604  -0.366  -1.760  1.00  0.00     0.043 A 
ATOM     10  C   UNL     1      -3.004   0.449  -2.712  1.00  0.00     0.030 A 
ATOM     11  C   UNL     1      -4.344   0.202  -0.724  1.00  0.00     0.044 A 
ATOM     12  C   UNL     1      -3.005   1.825  -2.531  1.00  0.00     0.049 A 
ATOM     13  C   UNL     1      -3.642   2.391  -1.419  1.00  0.00     0.128 A 
BRANCH   9  14
ATOM     14  N   UNL     1      -3.474  -1.754  -1.800  1.00  0.00    -0.308 N 
ATOM     15  C   UNL     1       1.339  -0.187   0.168  1.00  0.00     0.010 C 
ATOM     16  C   UNL     1       0.820  -0.978  -1.022  1.00  0.00     0.010 C 
ATOM     17  C   UNL     1      -0.694  -0.863  -1.167  1.00  0.00     0.125 C 
ATOM     18  C   UNL     1       1.023  -2.491  -0.939  1.00  0.00     0.010 C 
ATOM     19  N   UNL     1      -1.122  -2.081  -1.850  1.00  0.00    -0.324 N 
ATOM     20  C   UNL     1      -0.003  -3.008  -1.953  1.00  0.00     0.125 C 
ATOM     21  C   UNL     1       2.442  -2.929  -1.256  1.00  0.00     0.010 C 
ATOM     22  C   UNL     1      -2.397  -2.531  -2.105  1.00  0.00     0.321 C 
ATOM     23  O   UNL     1      -2.612  -3.688  -2.477  1.00  0.00    -0.248 OA
ATOM     24  H   UNL     1      -4.292  -2.252  -1.571  1.00  0.00     0.171 HD
ENDBRANCH   9  14
BRANCH  13  25
ATOM     25  O   UNL     1      -3.543   3.742  -1.308  1.00  0.00    -0.507 OA
ATOM     26  H   UNL     1      -3.055   4.229  -1.942  1.00  0.00     0.293 HD
ENDBRANCH  13  25
ENDBRANCH   5   8
ENDBRANCH   3   4
ENDBRANCH   2   3
ENDBRANCH   1   2
BRANCH   1  27
ATOM     27  C   UNL     1      -4.497   6.908   2.802  1.00  0.00     0.116 C 
BRANCH  27  28
ATOM     28  N   UNL     1      -3.278   7.609   2.429  1.00  0.00    -0.352 N 
ATOM     29  C   UNL     1      -2.721   8.729   3.007  1.00  0.00     0.251 C 
ATOM     30  H   UNL     1      -2.787   7.234   1.663  1.00  0.00     0.163 HD
ATOM     31  O   UNL     1      -1.734   9.249   2.515  1.00  0.00    -0.269 OA
BRANCH  29  32
ATOM     32  C   UNL     1      -3.369   9.312   4.202  1.00  0.00     0.039 A 
ATOM     33  C   UNL     1      -3.628  10.683   4.219  1.00  0.00     0.014 A 
ATOM     34  C   UNL     1      -3.762   8.502   5.271  1.00  0.00     0.014 A 
ATOM     35  C   UNL     1      -4.346  11.232   5.282  1.00  0.00     0.010 A 
ATOM     36  C   UNL     1      -4.546   9.036   6.288  1.00  0.00     0.010 A 
ATOM     37  C   UNL     1      -4.843  10.406   6.305  1.00  0.00    -0.014 A 
BRANCH  37  38
ATOM     38  C   UNL     1      -5.683  10.964   7.394  1.00  0.00     0.031 A 
ATOM     39  C   UNL     1      -5.196  10.937   8.816  1.00  0.00     0.074 A 
ATOM     40  C   UNL     1      -6.905  11.450   7.103  1.00  0.00     0.049 A 
ATOM     41  N   UNL     1      -5.788  11.369   9.899  1.00  0.00    -0.248 NA
ATOM     42  C   UNL     1      -3.883  10.316   9.058  1.00  0.00     0.031 C 
ATOM     43  C   UNL     1      -7.515  11.466   5.771  1.00  0.00     0.029 A 
ATOM     44  N   UNL     1      -7.856  12.024   7.908  1.00  0.00    -0.354 N 
ATOM     45  C   UNL     1      -4.928  11.067  10.947  1.00  0.00     0.074 A 
ATOM     46  C   UNL     1      -3.801  10.359  10.379  1.00  0.00     0.031 C 
ATOM     47  C   UNL     1      -8.721  12.052   5.845  1.00  0.00     0.029 A 
ATOM     48  C   UNL     1      -8.982  12.428   7.231  1.00  0.00     0.049 A 
ATOM     49  H   UNL     1      -7.742  12.135   8.880  1.00  0.00     0.167 HD
ATOM     50  C   UNL     1      -5.051  11.377  12.260  1.00  0.00     0.037 A 
ATOM     51  C   UNL     1     -10.096  13.040   7.676  1.00  0.00     0.037 A 
ATOM     52  C   UNL     1      -6.165  12.101  12.815  1.00  0.00     0.049 A 
ATOM     53  C   UNL     1     -10.199  13.396   9.134  1.00  0.00     0.074 A 
ATOM     54  C   UNL     1      -6.359  12.518  14.120  1.00  0.00     0.029 A 
ATOM     55  N   UNL     1      -7.276  12.516  12.094  1.00  0.00    -0.354 N 
ATOM     56  N   UNL     1      -9.342  13.169  10.101  1.00  0.00    -0.248 NA
ATOM     57  C   UNL     1     -11.414  14.104   9.558  1.00  0.00     0.031 C 
ATOM     58  C   UNL     1      -7.604  13.152  14.196  1.00  0.00     0.029 A 
ATOM     59  C   UNL     1      -8.167  13.170  12.930  1.00  0.00     0.049 A 
ATOM     60  H   UNL     1      -7.412  12.367  11.130  1.00  0.00     0.167 HD
ATOM     61  C   UNL     1      -9.904  13.725  11.245  1.00  0.00     0.074 A 
ATOM     62  C   UNL     1     -11.165  14.315  10.843  1.00  0.00     0.031 C 
ATOM     63  C   UNL     1      -9.421  13.745  12.513  1.00  0.00     0.037 A 
BRANCH  50  64
ATOM     64  C   UNL     1      -3.944  10.940  13.181  1.00  0.00     0.058 A 
ATOM     65  C   UNL     1      -2.668  11.526  13.127  1.00  0.00     0.135 A 
ATOM     66  C   UNL     1      -4.161   9.934  14.135  1.00  0.00     0.135 A 
ATOM     67  F   UNL     1      -2.400  12.481  12.222  1.00  0.00    -0.206 F 
ATOM     68  C   UNL     1      -1.638  11.105  13.961  1.00  0.00     0.059 A 
ATOM     69  C   UNL     1      -3.152   9.517  15.000  1.00  0.00     0.059 A 
ATOM     70  F   UNL     1      -5.360   9.338  14.230  1.00  0.00    -0.206 F 
ATOM     71  C   UNL     1      -1.889  10.097  14.893  1.00  0.00     0.060 A 
BRANCH  71  72
ATOM     72  S   UNL     1      -0.539   9.557  15.963  1.00  0.00     0.124 S 
ATOM     73  O   UNL     1       0.275   8.779  15.033  1.00  0.00    -0.237 OA
ATOM     74  O   UNL     1       0.038  10.823  16.403  1.00  0.00    -0.237 OA
ATOM     75  O   UNL     1      -1.216   8.786  17.001  1.00  0.00    -0.744 OA
ENDBRANCH  71  72
ENDBRANCH  50  64
BRANCH  51  76
ATOM     76  C   UNL     1     -11.179  13.395   6.722  1.00  0.00     0.058 A 
ATOM     77  C   UNL     1     -11.410  14.730   6.360  1.00  0.00     0.135 A 
ATOM     78  C   UNL     1     -11.989  12.409   6.137  1.00  0.00     0.135 A 
ATOM     79  F   UNL     1     -10.664  15.709   6.896  1.00  0.00    -0.206 F 
ATOM     80  C   UNL     1     -12.414  15.080   5.463  1.00  0.00     0.059 A 
ATOM     81  C   UNL     1     -12.983  12.731   5.219  1.00  0.00     0.059 A 
ATOM     82  F   UNL     1     -11.795  11.116   6.437  1.00  0.00    -0.206 F 
ATOM     83  C   UNL     1     -13.194  14.071   4.895  1.00  0.00     0.060 A 
BRANCH  83  84
ATOM     84  S   UNL     1     -14.457  14.530   3.688  1.00  0.00     0.124 S 
ATOM     85  O   UNL     1     -15.484  15.111   4.545  1.00  0.00    -0.237 OA
ATOM     86  O   UNL     1     -13.736  15.466   2.830  1.00  0.00    -0.237 OA
ATOM     87  O   UNL     1     -14.801  13.257   3.063  1.00  0.00    -0.744 OA
ENDBRANCH  83  84
ENDBRANCH  51  76
BRANCH  63  88
ATOM     88  C   UNL     1     -10.254  14.448  13.549  1.00  0.00     0.058 A 
ATOM     89  C   UNL     1     -11.457  13.902  14.022  1.00  0.00     0.135 A 
ATOM     90  C   UNL     1      -9.834  15.675  14.086  1.00  0.00     0.135 A 
ATOM     91  F   UNL     1     -11.905  12.732  13.538  1.00  0.00    -0.206 F 
ATOM     92  C   UNL     1     -12.236  14.567  14.964  1.00  0.00     0.059 A 
ATOM     93  C   UNL     1     -10.583  16.344  15.049  1.00  0.00     0.059 A 
ATOM     94  F   UNL     1      -8.684  16.235  13.678  1.00  0.00    -0.206 F 
ATOM     95  C   UNL     1     -11.792  15.791  15.467  1.00  0.00     0.060 A 
BRANCH  95  96
ATOM     96  S   UNL     1     -12.809  16.646  16.690  1.00  0.00     0.124 S 
ATOM     97  O   UNL     1     -13.871  17.194  15.854  1.00  0.00    -0.237 OA
ATOM     98  O   UNL     1     -13.202  15.562  17.585  1.00  0.00    -0.237 OA
ATOM     99  O   UNL     1     -11.893  17.626  17.266  1.00  0.00    -0.744 OA
ENDBRANCH  95  96
ENDBRANCH  63  88
ENDBRANCH  37  38
ENDBRANCH  29  32
ENDBRANCH  27  28
ENDBRANCH   1  27
TORSDOF 16
