REMARK SMILES Cc1c(CC(=O)NCCCCNC(=O)c2ccc(-c3c4nc(c(-c5c(F)cc(S(=O)(=O)[O-])cc5F)c5ccc([nH]5)c(-c5c(F)cc(S(=O)(=O)[O-])cc5F)c5nc(c(-c6c(F)cc(S(=O)(=O)[O-])cc6F)c6ccc3[nH]6)C=C5)C=C4)cc2)cc(-c2ccccc2)cc1-c1ccccc1
REMARK SMILES IDX 10 1 9 2 8 3 7 4 5 5 6 6 4 8 3 9 1 10 2 11 90 12 81 13 89 14
REMARK SMILES IDX 82 15 91 16 92 17 96 18 93 19 95 20 94 21 83 22 84 23 88 24
REMARK SMILES IDX 85 25 87 26 86 27 11 28 12 29 13 30 14 32 15 33 16 34 80 35
REMARK SMILES IDX 17 36 79 37 18 38 19 39 20 40 73 41 21 42 78 43 72 44 74 45
REMARK SMILES IDX 22 46 77 47 71 48 70 49 23 51 57 52 36 53 56 54 37 55 40 56
REMARK SMILES IDX 55 57 75 58 38 59 39 60 54 62 76 63 41 64 24 65 25 66 34 67
REMARK SMILES IDX 26 68 27 69 33 70 35 71 28 72 29 73 30 74 31 75 32 76 58 77
REMARK SMILES IDX 59 78 68 79 60 80 61 81 67 82 69 83 62 84 63 85 64 86 65 87
REMARK SMILES IDX 66 88 42 89 43 90 52 91 44 92 45 93 51 94 53 95 46 96 47 97
REMARK SMILES IDX 48 98 49 99 50 100
REMARK H PARENT 7 7 12 31 74 50 40 61
REMARK Flexibility Score: inf
ROOT
ATOM      1  C   UNL     1      -0.376  -0.553   4.485  1.00  0.00     0.023 C 
ENDROOT
BRANCH   1   2
ATOM      2  C   UNL     1       0.541  -0.318   3.281  1.00  0.00     0.023 C 
BRANCH   2   3
ATOM      3  C   UNL     1       1.472  -1.487   2.920  1.00  0.00     0.116 C 
BRANCH   3   4
ATOM      4  N   UNL     1       0.763  -2.698   2.531  1.00  0.00    -0.356 N 
ATOM      5  C   UNL     1       0.529  -3.208   1.286  1.00  0.00     0.224 C 
ATOM      6  O   UNL     1      -0.083  -4.276   1.194  1.00  0.00    -0.275 OA
ATOM      7  H   UNL     1       0.399  -3.228   3.276  1.00  0.00     0.163 HD
BRANCH   5   8
ATOM      8  C   UNL     1       1.024  -2.481   0.039  1.00  0.00     0.135 C 
BRANCH   8   9
ATOM      9  C   UNL     1       0.346  -1.142  -0.178  1.00  0.00    -0.035 A 
ATOM     10  C   UNL     1       2.556   0.114  -0.391  1.00  0.00     0.045 C 
ATOM     11  C   UNL     1       1.046   0.085  -0.286  1.00  0.00    -0.040 A 
ATOM     12  C   UNL     1       0.305   1.296  -0.328  1.00  0.00    -0.015 A 
ATOM     13  C   UNL     1      -1.066  -1.142  -0.203  1.00  0.00     0.013 A 
ATOM     14  C   UNL     1      -1.105   1.247  -0.311  1.00  0.00     0.017 A 
ATOM     15  C   UNL     1      -1.810   0.039  -0.261  1.00  0.00    -0.017 A 
BRANCH  12  16
ATOM     16  C   UNL     1       0.950   2.621  -0.307  1.00  0.00    -0.018 A 
ATOM     17  C   UNL     1       0.877   3.421   0.847  1.00  0.00     0.009 A 
ATOM     18  C   UNL     1       1.673   3.104  -1.408  1.00  0.00     0.009 A 
ATOM     19  C   UNL     1       1.518   4.659   0.904  1.00  0.00     0.001 A 
ATOM     20  C   UNL     1       2.322   4.340  -1.348  1.00  0.00     0.001 A 
ATOM     21  C   UNL     1       2.243   5.116  -0.193  1.00  0.00     0.000 A 
ENDBRANCH  12  16
BRANCH  15  22
ATOM     22  C   UNL     1      -3.281   0.006  -0.234  1.00  0.00    -0.018 A 
ATOM     23  C   UNL     1      -3.972  -0.668   0.787  1.00  0.00     0.009 A 
ATOM     24  C   UNL     1      -4.035   0.637  -1.236  1.00  0.00     0.009 A 
ATOM     25  C   UNL     1      -5.369  -0.717   0.802  1.00  0.00     0.001 A 
ATOM     26  C   UNL     1      -5.432   0.588  -1.224  1.00  0.00     0.001 A 
ATOM     27  C   UNL     1      -6.098  -0.090  -0.206  1.00  0.00     0.000 A 
ENDBRANCH  15  22
ENDBRANCH   8   9
ENDBRANCH   5   8
ENDBRANCH   3   4
ENDBRANCH   2   3
ENDBRANCH   1   2
BRANCH   1  28
ATOM     28  C   UNL     1       0.378  -0.761   5.790  1.00  0.00     0.116 C 
BRANCH  28  29
ATOM     29  N   UNL     1       0.540   0.421   6.613  1.00  0.00    -0.352 N 
ATOM     30  C   UNL     1       1.024   0.428   7.915  1.00  0.00     0.251 C 
ATOM     31  H   UNL     1       0.286   1.286   6.218  1.00  0.00     0.163 HD
ATOM     32  O   UNL     1       0.622   1.204   8.766  1.00  0.00    -0.269 OA
BRANCH  30  33
ATOM     33  C   UNL     1       2.195  -0.445   8.179  1.00  0.00     0.039 A 
ATOM     34  C   UNL     1       3.429   0.171   8.425  1.00  0.00     0.014 A 
ATOM     35  C   UNL     1       2.122  -1.813   7.939  1.00  0.00     0.014 A 
ATOM     36  C   UNL     1       4.609  -0.563   8.277  1.00  0.00     0.010 A 
ATOM     37  C   UNL     1       3.291  -2.508   7.687  1.00  0.00     0.010 A 
ATOM     38  C   UNL     1       4.538  -1.883   7.826  1.00  0.00    -0.014 A 
BRANCH  38  39
ATOM     39  C   UNL     1       5.689  -2.666   7.376  1.00  0.00     0.031 A 
ATOM     40  C   UNL     1       6.171  -3.839   8.153  1.00  0.00     0.074 A 
ATOM     41  C   UNL     1       6.275  -2.405   6.184  1.00  0.00     0.049 A 
ATOM     42  N   UNL     1       7.389  -4.277   8.119  1.00  0.00    -0.248 NA
ATOM     43  C   UNL     1       5.313  -4.605   9.053  1.00  0.00     0.031 C 
ATOM     44  C   UNL     1       7.175  -3.291   5.451  1.00  0.00     0.029 A 
ATOM     45  N   UNL     1       6.336  -1.205   5.472  1.00  0.00    -0.354 N 
ATOM     46  C   UNL     1       7.407  -5.505   8.741  1.00  0.00     0.074 A 
ATOM     47  C   UNL     1       6.107  -5.637   9.360  1.00  0.00     0.031 C 
ATOM     48  C   UNL     1       7.916  -2.555   4.611  1.00  0.00     0.029 A 
ATOM     49  C   UNL     1       7.604  -1.160   4.870  1.00  0.00     0.049 A 
ATOM     50  H   UNL     1       5.628  -0.524   5.404  1.00  0.00     0.167 HD
ATOM     51  C   UNL     1       8.452  -6.362   8.559  1.00  0.00     0.037 A 
ATOM     52  C   UNL     1       8.524  -0.165   5.027  1.00  0.00     0.037 A 
ATOM     53  C   UNL     1       9.450  -5.819   7.648  1.00  0.00     0.049 A 
ATOM     54  C   UNL     1       9.872  -0.663   5.497  1.00  0.00     0.074 A 
ATOM     55  C   UNL     1       9.648  -5.992   6.288  1.00  0.00     0.029 A 
ATOM     56  N   UNL     1      10.250  -4.751   8.031  1.00  0.00    -0.354 N 
ATOM     57  N   UNL     1      10.065  -1.849   5.999  1.00  0.00    -0.248 NA
ATOM     58  C   UNL     1      11.090   0.143   5.496  1.00  0.00     0.031 C 
ATOM     59  C   UNL     1      10.558  -5.010   5.844  1.00  0.00     0.029 A 
ATOM     60  C   UNL     1      10.912  -4.234   6.933  1.00  0.00     0.049 A 
ATOM     61  H   UNL     1      10.334  -4.411   8.951  1.00  0.00     0.167 HD
ATOM     62  C   UNL     1      11.363  -1.965   6.425  1.00  0.00     0.074 A 
ATOM     63  C   UNL     1      11.972  -0.700   6.063  1.00  0.00     0.031 C 
ATOM     64  C   UNL     1      11.807  -3.094   7.053  1.00  0.00     0.037 A 
BRANCH  51  65
ATOM     65  C   UNL     1       8.394  -7.818   8.966  1.00  0.00     0.058 A 
ATOM     66  C   UNL     1       8.942  -8.831   8.149  1.00  0.00     0.135 A 
ATOM     67  C   UNL     1       7.770  -8.277  10.143  1.00  0.00     0.135 A 
ATOM     68  F   UNL     1       9.640  -8.544   7.043  1.00  0.00    -0.206 F 
ATOM     69  C   UNL     1       8.778 -10.190   8.412  1.00  0.00     0.059 A 
ATOM     70  C   UNL     1       7.552  -9.635  10.405  1.00  0.00     0.059 A 
ATOM     71  F   UNL     1       7.357  -7.413  11.083  1.00  0.00    -0.206 F 
ATOM     72  C   UNL     1       8.048 -10.586   9.523  1.00  0.00     0.060 A 
BRANCH  72  73
ATOM     73  S   UNL     1       7.736 -12.345   9.763  1.00  0.00     0.124 S 
ATOM     74  O   UNL     1       7.237 -12.753   8.452  1.00  0.00    -0.237 OA
ATOM     75  O   UNL     1       9.059 -12.842  10.121  1.00  0.00    -0.237 OA
ATOM     76  O   UNL     1       6.742 -12.369  10.833  1.00  0.00    -0.744 OA
ENDBRANCH  72  73
ENDBRANCH  51  65
BRANCH  52  77
ATOM     77  C   UNL     1       7.947   1.157   5.371  1.00  0.00     0.058 A 
ATOM     78  C   UNL     1       7.236   1.842   4.370  1.00  0.00     0.135 A 
ATOM     79  C   UNL     1       7.691   1.494   6.708  1.00  0.00     0.135 A 
ATOM     80  F   UNL     1       7.475   1.576   3.075  1.00  0.00    -0.206 F 
ATOM     81  C   UNL     1       6.177   2.685   4.683  1.00  0.00     0.059 A 
ATOM     82  C   UNL     1       6.635   2.339   7.044  1.00  0.00     0.059 A 
ATOM     83  F   UNL     1       8.336   0.862   7.699  1.00  0.00    -0.206 F 
ATOM     84  C   UNL     1       5.838   2.861   6.024  1.00  0.00     0.060 A 
BRANCH  84  85
ATOM     85  S   UNL     1       4.232   3.604   6.401  1.00  0.00     0.124 S 
ATOM     86  O   UNL     1       4.295   4.862   5.667  1.00  0.00    -0.237 OA
ATOM     87  O   UNL     1       3.315   2.600   5.864  1.00  0.00    -0.237 OA
ATOM     88  O   UNL     1       4.256   3.716   7.854  1.00  0.00    -0.744 OA
ENDBRANCH  84  85
ENDBRANCH  52  77
BRANCH  64  89
ATOM     89  C   UNL     1      13.142  -3.279   7.735  1.00  0.00     0.058 A 
ATOM     90  C   UNL     1      13.865  -2.240   8.343  1.00  0.00     0.135 A 
ATOM     91  C   UNL     1      13.679  -4.579   7.911  1.00  0.00     0.135 A 
ATOM     92  F   UNL     1      13.407  -0.980   8.344  1.00  0.00    -0.206 F 
ATOM     93  C   UNL     1      15.068  -2.460   9.019  1.00  0.00     0.059 A 
ATOM     94  C   UNL     1      14.849  -4.827   8.625  1.00  0.00     0.059 A 
ATOM     95  F   UNL     1      13.072  -5.662   7.402  1.00  0.00    -0.206 F 
ATOM     96  C   UNL     1      15.554  -3.757   9.154  1.00  0.00     0.060 A 
BRANCH  96  97
ATOM     97  S   UNL     1      17.074  -4.065  10.073  1.00  0.00     0.124 S 
ATOM     98  O   UNL     1      18.064  -4.076   9.002  1.00  0.00    -0.237 OA
ATOM     99  O   UNL     1      17.144  -2.925  10.982  1.00  0.00    -0.237 OA
ATOM    100  O   UNL     1      16.817  -5.351  10.713  1.00  0.00    -0.744 OA
ENDBRANCH  96  97
ENDBRANCH  64  89
ENDBRANCH  38  39
ENDBRANCH  30  33
ENDBRANCH  28  29
ENDBRANCH   1  28
TORSDOF 17
