REMARK SMILES O=C(NCCCCNC(=O)[C@@H]1[C@@H](C(=O)Nc2cccc([N+](=O)[O-])c2)[C@@H]2C=C[C@H]1O2)c1ccc(-c2c3nc(c(-c4c(F)cc(S(=O)(=O)[O-])cc4F)c4ccc([nH]4)c(-c4c(F)cc(S(=O)(=O)[O-])cc4F)c4nc(c(-c5c(F)cc(S(=O)(=O)[O-])cc5F)c5ccc2[nH]5)C=C4)C=C3)cc1
REMARK SMILES IDX 5 1 4 2 3 3 1 4 2 5 30 7 31 8 95 9 32 10 94 11 33 12 34 13
REMARK SMILES IDX 35 14 88 15 36 16 93 17 87 18 89 19 37 20 92 21 86 22 85 23
REMARK SMILES IDX 38 25 72 26 51 27 71 28 52 29 55 30 70 31 90 32 53 33 54 34
REMARK SMILES IDX 69 36 91 37 56 38 39 39 40 40 49 41 41 42 42 43 48 44 50 45
REMARK SMILES IDX 43 46 44 47 45 48 46 49 47 50 73 51 74 52 83 53 75 54 76 55
REMARK SMILES IDX 82 56 84 57 77 58 78 59 79 60 80 61 81 62 57 63 58 64 67 65
REMARK SMILES IDX 59 66 60 67 66 68 68 69 61 70 62 71 63 72 64 73 65 74 6 75
REMARK SMILES IDX 7 76 8 77 9 78 10 80 11 81 12 82 28 83 25 84 27 85 29 86
REMARK SMILES IDX 26 87 13 88 14 89 15 90 16 92 17 93 24 94 18 95 20 96 19 97
REMARK SMILES IDX 21 98 22 99 23 100
REMARK H PARENT 3 6 89 24 55 35 8 79 15 91
REMARK Flexibility Score: inf
ROOT
ATOM      1  C   UNL     1       5.383  -1.236   2.369  1.00  0.00     0.023 C 
ENDROOT
BRANCH   1   2
ATOM      2  C   UNL     1       4.831  -0.742   1.032  1.00  0.00     0.116 C 
BRANCH   2   3
ATOM      3  N   UNL     1       3.403  -0.926   0.823  1.00  0.00    -0.352 N 
ATOM      4  O   UNL     1       1.329  -0.270   0.153  1.00  0.00    -0.269 OA
ATOM      5  C   UNL     1       2.519  -0.005   0.289  1.00  0.00     0.251 C 
ATOM      6  H   UNL     1       3.026  -1.796   1.089  1.00  0.00     0.163 HD
BRANCH   5   7
ATOM      7  C   UNL     1       3.039   1.335  -0.061  1.00  0.00     0.039 A 
ATOM      8  C   UNL     1       4.114   1.448  -0.946  1.00  0.00     0.014 A 
ATOM      9  C   UNL     1       2.565   2.450   0.633  1.00  0.00     0.014 A 
ATOM     10  C   UNL     1       4.832   2.638  -0.988  1.00  0.00     0.010 A 
ATOM     11  C   UNL     1       3.237   3.671   0.514  1.00  0.00     0.010 A 
ATOM     12  C   UNL     1       4.407   3.762  -0.256  1.00  0.00    -0.014 A 
BRANCH  12  13
ATOM     13  C   UNL     1       5.186   5.027  -0.340  1.00  0.00     0.031 A 
ATOM     14  C   UNL     1       5.859   5.623   0.870  1.00  0.00     0.074 A 
ATOM     15  C   UNL     1       5.307   5.624  -1.542  1.00  0.00     0.049 A 
ATOM     16  N   UNL     1       6.562   6.725   0.961  1.00  0.00    -0.248 NA
ATOM     17  C   UNL     1       5.722   4.898   2.143  1.00  0.00     0.031 C 
ATOM     18  C   UNL     1       4.696   5.141  -2.784  1.00  0.00     0.029 A 
ATOM     19  N   UNL     1       5.992   6.747  -1.926  1.00  0.00    -0.354 N 
ATOM     20  C   UNL     1       6.929   6.840   2.298  1.00  0.00     0.074 A 
ATOM     21  C   UNL     1       6.357   5.703   2.987  1.00  0.00     0.031 C 
ATOM     22  C   UNL     1       5.070   5.934  -3.796  1.00  0.00     0.029 A 
ATOM     23  C   UNL     1       5.883   7.022  -3.268  1.00  0.00     0.049 A 
ATOM     24  H   UNL     1       6.511   7.303  -1.301  1.00  0.00     0.167 HD
ATOM     25  C   UNL     1       7.677   7.805   2.891  1.00  0.00     0.037 A 
ATOM     26  C   UNL     1       6.359   8.050  -3.995  1.00  0.00     0.037 A 
ATOM     27  C   UNL     1       8.258   8.923   2.189  1.00  0.00     0.049 A 
ATOM     28  C   UNL     1       7.167   9.112  -3.311  1.00  0.00     0.074 A 
ATOM     29  C   UNL     1       9.059   9.935   2.694  1.00  0.00     0.029 A 
ATOM     30  N   UNL     1       8.102   9.180   0.834  1.00  0.00    -0.354 N 
ATOM     31  N   UNL     1       7.514   9.195  -2.049  1.00  0.00    -0.248 NA
ATOM     32  C   UNL     1       7.641  10.223  -4.144  1.00  0.00     0.031 C 
ATOM     33  C   UNL     1       9.349  10.825   1.654  1.00  0.00     0.029 A 
ATOM     34  C   UNL     1       8.772  10.344   0.491  1.00  0.00     0.049 A 
ATOM     35  H   UNL     1       7.591   8.618   0.209  1.00  0.00     0.167 HD
ATOM     36  C   UNL     1       8.257  10.363  -1.938  1.00  0.00     0.074 A 
ATOM     37  C   UNL     1       8.327  10.941  -3.265  1.00  0.00     0.031 C 
ATOM     38  C   UNL     1       8.826  10.909  -0.835  1.00  0.00     0.037 A 
BRANCH  25  39
ATOM     39  C   UNL     1       7.898   7.714   4.379  1.00  0.00     0.058 A 
ATOM     40  C   UNL     1       8.752   6.756   4.947  1.00  0.00     0.135 A 
ATOM     41  C   UNL     1       7.291   8.639   5.246  1.00  0.00     0.135 A 
ATOM     42  F   UNL     1       9.351   5.840   4.169  1.00  0.00    -0.206 F 
ATOM     43  C   UNL     1       8.977   6.702   6.320  1.00  0.00     0.059 A 
ATOM     44  C   UNL     1       7.520   8.619   6.620  1.00  0.00     0.059 A 
ATOM     45  F   UNL     1       6.468   9.581   4.759  1.00  0.00    -0.206 F 
ATOM     46  C   UNL     1       8.355   7.637   7.149  1.00  0.00     0.060 A 
BRANCH  46  47
ATOM     47  S   UNL     1       8.657   7.552   8.928  1.00  0.00     0.124 S 
ATOM     48  O   UNL     1       7.882   6.371   9.297  1.00  0.00    -0.237 OA
ATOM     49  O   UNL     1      10.107   7.402   8.993  1.00  0.00    -0.237 OA
ATOM     50  O   UNL     1       8.137   8.823   9.423  1.00  0.00    -0.744 OA
ENDBRANCH  46  47
ENDBRANCH  25  39
BRANCH  26  51
ATOM     51  C   UNL     1       6.059   8.118  -5.448  1.00  0.00     0.058 A 
ATOM     52  C   UNL     1       7.060   7.907  -6.405  1.00  0.00     0.135 A 
ATOM     53  C   UNL     1       4.750   8.346  -5.905  1.00  0.00     0.135 A 
ATOM     54  F   UNL     1       8.325   7.688  -6.016  1.00  0.00    -0.206 F 
ATOM     55  C   UNL     1       6.778   7.927  -7.767  1.00  0.00     0.059 A 
ATOM     56  C   UNL     1       4.439   8.341  -7.259  1.00  0.00     0.059 A 
ATOM     57  F   UNL     1       3.753   8.532  -5.026  1.00  0.00    -0.206 F 
ATOM     58  C   UNL     1       5.463   8.140  -8.183  1.00  0.00     0.060 A 
BRANCH  58  59
ATOM     59  S   UNL     1       5.094   8.101  -9.950  1.00  0.00     0.124 S 
ATOM     60  O   UNL     1       5.620   9.389 -10.386  1.00  0.00    -0.237 OA
ATOM     61  O   UNL     1       5.835   6.924 -10.394  1.00  0.00    -0.237 OA
ATOM     62  O   UNL     1       3.640   7.966  -9.985  1.00  0.00    -0.744 OA
ENDBRANCH  58  59
ENDBRANCH  26  51
BRANCH  38  63
ATOM     63  C   UNL     1       9.592  12.188  -1.026  1.00  0.00     0.058 A 
ATOM     64  C   UNL     1       8.938  13.409  -1.255  1.00  0.00     0.135 A 
ATOM     65  C   UNL     1      10.994  12.196  -0.953  1.00  0.00     0.135 A 
ATOM     66  F   UNL     1       7.600  13.452  -1.345  1.00  0.00    -0.206 F 
ATOM     67  C   UNL     1       9.650  14.591  -1.430  1.00  0.00     0.059 A 
ATOM     68  C   UNL     1      11.725  13.370  -1.099  1.00  0.00     0.059 A 
ATOM     69  F   UNL     1      11.666  11.055  -0.729  1.00  0.00    -0.206 F 
ATOM     70  C   UNL     1      11.044  14.561  -1.351  1.00  0.00     0.060 A 
BRANCH  70  71
ATOM     71  S   UNL     1      11.956  16.105  -1.556  1.00  0.00     0.124 S 
ATOM     72  O   UNL     1      11.864  16.311  -2.997  1.00  0.00    -0.237 OA
ATOM     73  O   UNL     1      11.188  17.034  -0.732  1.00  0.00    -0.237 OA
ATOM     74  O   UNL     1      13.287  15.782  -1.050  1.00  0.00    -0.744 OA
ENDBRANCH  70  71
ENDBRANCH  38  63
ENDBRANCH  12  13
ENDBRANCH   5   7
ENDBRANCH   2   3
ENDBRANCH   1   2
BRANCH   1  75
ATOM     75  C   UNL     1       5.314  -2.731   2.686  1.00  0.00     0.023 C 
BRANCH  75  76
ATOM     76  C   UNL     1       5.560  -3.635   1.491  1.00  0.00     0.116 C 
BRANCH  76  77
ATOM     77  N   UNL     1       6.554  -4.678   1.641  1.00  0.00    -0.356 N 
ATOM     78  C   UNL     1       6.709  -5.795   0.854  1.00  0.00     0.227 C 
ATOM     79  H   UNL     1       7.188  -4.576   2.388  1.00  0.00     0.163 HD
ATOM     80  O   UNL     1       7.863  -6.191   0.669  1.00  0.00    -0.275 OA
BRANCH  78  81
ATOM     81  C   UNL     1       5.516  -6.627   0.381  1.00  0.00     0.127 C 
ATOM     82  C   UNL     1       5.835  -7.533  -0.893  1.00  0.00     0.127 C 
ATOM     83  C   UNL     1       4.254  -5.885  -0.091  1.00  0.00     0.155 C 
ATOM     84  C   UNL     1       4.736  -7.030  -1.839  1.00  0.00     0.155 C 
ATOM     85  C   UNL     1       4.569  -4.888  -1.172  1.00  0.00     0.004 C 
ATOM     86  O   UNL     1       3.636  -6.897  -0.910  1.00  0.00    -0.365 OA
ATOM     87  C   UNL     1       4.944  -5.604  -2.232  1.00  0.00     0.004 C 
BRANCH  82  88
ATOM     88  C   UNL     1       5.704  -9.031  -0.554  1.00  0.00     0.231 C 
ATOM     89  O   UNL     1       5.899  -9.448   0.592  1.00  0.00    -0.274 OA
ATOM     90  N   UNL     1       5.361  -9.975  -1.498  1.00  0.00    -0.325 N 
ATOM     91  H   UNL     1       5.253 -10.895  -1.164  1.00  0.00     0.169 HD
BRANCH  90  92
ATOM     92  C   UNL     1       5.148  -9.794  -2.868  1.00  0.00     0.048 A 
ATOM     93  C   UNL     1       3.867 -10.062  -3.368  1.00  0.00     0.026 A 
ATOM     94  C   UNL     1       6.104  -9.162  -3.667  1.00  0.00     0.111 A 
ATOM     95  C   UNL     1       3.490  -9.556  -4.616  1.00  0.00     0.009 A 
ATOM     96  C   UNL     1       5.723  -8.678  -4.926  1.00  0.00     0.271 A 
ATOM     97  C   UNL     1       4.410  -8.846  -5.392  1.00  0.00     0.086 A 
BRANCH  96  98
ATOM     98  N   UNL     1       6.679  -7.893  -5.714  1.00  0.00     0.062 N 
ATOM     99  O   UNL     1       6.304  -7.463  -6.813  1.00  0.00    -0.258 OA
ATOM    100  O   UNL     1       7.801  -7.699  -5.226  1.00  0.00    -0.258 OA
ENDBRANCH  96  98
ENDBRANCH  90  92
ENDBRANCH  82  88
ENDBRANCH  78  81
ENDBRANCH  76  77
ENDBRANCH  75  76
ENDBRANCH   1  75
TORSDOF 17
