REMARK SMILES C[C@@H](C(=O)NCCCCNC(=O)c1ccc(-c2c3nc(c(-c4c(F)cc(S(=O)(=O)[O-])cc4F)c4ccc([nH]4)c(-c4c(F)cc(S(=O)(=O)[O-])cc4F)c4nc(c(-c5c(F)cc(S(=O)(=O)[O-])cc5F)c5ccc2[nH]5)C=C4)C=C3)cc1)c1ccc(C[C@H]2CCC[C@H]2O)cc1
REMARK SMILES IDX 7 1 6 2 5 3 3 4 4 5 2 7 1 8 79 9 80 10 91 11 81 12 90 13
REMARK SMILES IDX 82 14 83 15 84 16 85 17 88 18 86 19 87 20 89 21 8 23 9 24
REMARK SMILES IDX 10 25 11 26 12 28 13 29 14 30 78 31 15 32 77 33 16 34 17 35
REMARK SMILES IDX 18 36 71 37 19 38 76 39 70 40 72 41 20 42 75 43 69 44 68 45
REMARK SMILES IDX 21 47 55 48 34 49 54 50 35 51 38 52 53 53 73 54 36 55 37 56
REMARK SMILES IDX 52 58 74 59 39 60 22 61 23 62 32 63 24 64 25 65 31 66 33 67
REMARK SMILES IDX 26 68 27 69 28 70 29 71 30 72 56 73 57 74 66 75 58 76 59 77
REMARK SMILES IDX 65 78 67 79 60 80 61 81 62 82 63 83 64 84 40 85 41 86 50 87
REMARK SMILES IDX 42 88 43 89 49 90 51 91 44 92 45 93 46 94 47 95 48 96
REMARK H PARENT 5 6 89 22 10 27 72 46 38 57
REMARK Flexibility Score: inf
ROOT
ATOM      1  C   UNL     1       4.411   0.917  -0.422  1.00  0.00     0.023 C 
ENDROOT
BRANCH   1   2
ATOM      2  C   UNL     1       3.530   1.540   0.666  1.00  0.00     0.116 C 
BRANCH   2   3
ATOM      3  N   UNL     1       2.526   2.403   0.079  1.00  0.00    -0.356 N 
ATOM      4  C   UNL     1       1.258   2.094  -0.328  1.00  0.00     0.227 C 
ATOM      5  O   UNL     1       0.781   2.808  -1.211  1.00  0.00    -0.274 OA
ATOM      6  H   UNL     1       2.793   3.343  -0.043  1.00  0.00     0.163 HD
BRANCH   4   7
ATOM      7  C   UNL     1       0.526   0.896   0.302  1.00  0.00     0.105 C 
ATOM      8  C   UNL     1       0.890  -0.365  -0.490  1.00  0.00     0.023 C 
BRANCH   7   9
ATOM      9  C   UNL     1      -0.996   1.030   0.451  1.00  0.00    -0.036 A 
ATOM     10  C   UNL     1      -1.696   2.210   0.172  1.00  0.00     0.005 A 
ATOM     11  C   UNL     1      -1.745  -0.061   0.932  1.00  0.00     0.005 A 
ATOM     12  C   UNL     1      -3.083   2.286   0.319  1.00  0.00     0.004 A 
ATOM     13  C   UNL     1      -3.131   0.020   1.097  1.00  0.00     0.004 A 
ATOM     14  C   UNL     1      -3.813   1.205   0.813  1.00  0.00    -0.048 A 
BRANCH  14  15
ATOM     15  C   UNL     1      -5.293   1.331   1.063  1.00  0.00     0.041 C 
BRANCH  15  16
ATOM     16  C   UNL     1      -5.731   1.841   2.447  1.00  0.00     0.022 C 
ATOM     17  C   UNL     1      -5.142   1.104   3.662  1.00  0.00     0.007 C 
ATOM     18  C   UNL     1      -5.532   3.331   2.764  1.00  0.00     0.117 C 
ATOM     19  C   UNL     1      -5.089   2.130   4.797  1.00  0.00     0.003 C 
ATOM     20  C   UNL     1      -5.780   3.383   4.268  1.00  0.00     0.032 C 
BRANCH  18  21
ATOM     21  O   UNL     1      -4.234   3.831   2.504  1.00  0.00    -0.393 OA
ATOM     22  H   UNL     1      -3.585   3.335   3.028  1.00  0.00     0.210 HD
ENDBRANCH  18  21
ENDBRANCH  15  16
ENDBRANCH  14  15
ENDBRANCH   7   9
ENDBRANCH   4   7
ENDBRANCH   2   3
ENDBRANCH   1   2
BRANCH   1  23
ATOM     23  C   UNL     1       5.180   1.924  -1.282  1.00  0.00     0.023 C 
BRANCH  23  24
ATOM     24  C   UNL     1       6.145   2.813  -0.513  1.00  0.00     0.116 C 
BRANCH  24  25
ATOM     25  N   UNL     1       7.184   2.051   0.164  1.00  0.00    -0.352 N 
ATOM     26  C   UNL     1       8.527   2.334   0.253  1.00  0.00     0.251 C 
ATOM     27  H   UNL     1       6.887   1.229   0.617  1.00  0.00     0.163 HD
ATOM     28  O   UNL     1       9.302   1.521   0.738  1.00  0.00    -0.269 OA
BRANCH  26  29
ATOM     29  C   UNL     1       9.019   3.622  -0.279  1.00  0.00     0.039 A 
ATOM     30  C   UNL     1      10.091   3.624  -1.173  1.00  0.00     0.014 A 
ATOM     31  C   UNL     1       8.382   4.815   0.073  1.00  0.00     0.014 A 
ATOM     32  C   UNL     1      10.487   4.822  -1.770  1.00  0.00     0.010 A 
ATOM     33  C   UNL     1       8.734   5.994  -0.571  1.00  0.00     0.010 A 
ATOM     34  C   UNL     1       9.789   6.009  -1.498  1.00  0.00    -0.014 A 
BRANCH  34  35
ATOM     35  C   UNL     1      10.138   7.295  -2.151  1.00  0.00     0.031 A 
ATOM     36  C   UNL     1      10.627   8.439  -1.309  1.00  0.00     0.074 A 
ATOM     37  C   UNL     1       9.906   7.468  -3.466  1.00  0.00     0.049 A 
ATOM     38  N   UNL     1      10.807   9.691  -1.637  1.00  0.00    -0.248 NA
ATOM     39  C   UNL     1      10.914   8.137   0.103  1.00  0.00     0.031 C 
ATOM     40  C   UNL     1       9.394   6.444  -4.378  1.00  0.00     0.029 A 
ATOM     41  N   UNL     1      10.041   8.581  -4.257  1.00  0.00    -0.354 N 
ATOM     42  C   UNL     1      11.188  10.335  -0.467  1.00  0.00     0.074 A 
ATOM     43  C   UNL     1      11.181   9.342   0.585  1.00  0.00     0.031 C 
ATOM     44  C   UNL     1       9.260   6.976  -5.604  1.00  0.00     0.029 A 
ATOM     45  C   UNL     1       9.636   8.386  -5.556  1.00  0.00     0.049 A 
ATOM     46  H   UNL     1      10.395   9.438  -3.925  1.00  0.00     0.167 HD
ATOM     47  C   UNL     1      11.524  11.635  -0.288  1.00  0.00     0.037 A 
ATOM     48  C   UNL     1       9.556   9.251  -6.585  1.00  0.00     0.037 A 
ATOM     49  C   UNL     1      11.566  12.606  -1.349  1.00  0.00     0.049 A 
ATOM     50  C   UNL     1       9.970  10.681  -6.377  1.00  0.00     0.074 A 
ATOM     51  C   UNL     1      11.952  13.933  -1.287  1.00  0.00     0.029 A 
ATOM     52  N   UNL     1      11.213  12.352  -2.667  1.00  0.00    -0.354 N 
ATOM     53  N   UNL     1      10.370  11.268  -5.274  1.00  0.00    -0.248 NA
ATOM     54  C   UNL     1       9.928  11.566  -7.549  1.00  0.00     0.031 C 
ATOM     55  C   UNL     1      11.808  14.488  -2.564  1.00  0.00     0.029 A 
ATOM     56  C   UNL     1      11.367  13.498  -3.427  1.00  0.00     0.049 A 
ATOM     57  H   UNL     1      10.899  11.484  -3.010  1.00  0.00     0.167 HD
ATOM     58  C   UNL     1      10.654  12.583  -5.624  1.00  0.00     0.074 A 
ATOM     59  C   UNL     1      10.380  12.706  -7.042  1.00  0.00     0.031 C 
ATOM     60  C   UNL     1      11.106  13.595  -4.843  1.00  0.00     0.037 A 
BRANCH  47  61
ATOM     61  C   UNL     1      11.860  12.071   1.110  1.00  0.00     0.058 A 
ATOM     62  C   UNL     1      13.042  11.660   1.747  1.00  0.00     0.135 A 
ATOM     63  C   UNL     1      10.980  12.895   1.829  1.00  0.00     0.135 A 
ATOM     64  F   UNL     1      13.910  10.858   1.109  1.00  0.00    -0.206 F 
ATOM     65  C   UNL     1      13.317  12.009   3.065  1.00  0.00     0.059 A 
ATOM     66  C   UNL     1      11.248  13.280   3.140  1.00  0.00     0.059 A 
ATOM     67  F   UNL     1       9.837  13.319   1.268  1.00  0.00    -0.206 F 
ATOM     68  C   UNL     1      12.408  12.811   3.757  1.00  0.00     0.060 A 
BRANCH  68  69
ATOM     69  S   UNL     1      12.753  13.226   5.479  1.00  0.00     0.124 S 
ATOM     70  O   UNL     1      12.373  11.989   6.155  1.00  0.00    -0.237 OA
ATOM     71  O   UNL     1      14.183  13.519   5.454  1.00  0.00    -0.237 OA
ATOM     72  O   UNL     1      11.887  14.373   5.731  1.00  0.00    -0.744 OA
ENDBRANCH  68  69
ENDBRANCH  47  61
BRANCH  48  73
ATOM     73  C   UNL     1       9.089   8.768  -7.910  1.00  0.00     0.058 A 
ATOM     74  C   UNL     1       9.997   8.559  -8.957  1.00  0.00     0.135 A 
ATOM     75  C   UNL     1       7.741   8.451  -8.138  1.00  0.00     0.135 A 
ATOM     76  F   UNL     1      11.295   8.854  -8.788  1.00  0.00    -0.206 F 
ATOM     77  C   UNL     1       9.588   8.048 -10.184  1.00  0.00     0.059 A 
ATOM     78  C   UNL     1       7.311   7.920  -9.351  1.00  0.00     0.059 A 
ATOM     79  F   UNL     1       6.836   8.619  -7.161  1.00  0.00    -0.206 F 
ATOM     80  C   UNL     1       8.243   7.724 -10.369  1.00  0.00     0.060 A 
BRANCH  80  81
ATOM     81  S   UNL     1       7.739   6.978 -11.935  1.00  0.00     0.124 S 
ATOM     82  O   UNL     1       7.766   8.128 -12.831  1.00  0.00    -0.237 OA
ATOM     83  O   UNL     1       8.782   5.979 -12.149  1.00  0.00    -0.237 OA
ATOM     84  O   UNL     1       6.417   6.436 -11.638  1.00  0.00    -0.744 OA
ENDBRANCH  80  81
ENDBRANCH  48  73
BRANCH  60  85
ATOM     85  C   UNL     1      11.379  14.916  -5.502  1.00  0.00     0.058 A 
ATOM     86  C   UNL     1      10.343  15.796  -5.847  1.00  0.00     0.135 A 
ATOM     87  C   UNL     1      12.702  15.340  -5.709  1.00  0.00     0.135 A 
ATOM     88  F   UNL     1       9.063  15.432  -5.675  1.00  0.00    -0.206 F 
ATOM     89  C   UNL     1      10.609  17.053  -6.379  1.00  0.00     0.059 A 
ATOM     90  C   UNL     1      12.991  16.601  -6.221  1.00  0.00     0.059 A 
ATOM     91  F   UNL     1      13.728  14.536  -5.388  1.00  0.00    -0.206 F 
ATOM     92  C   UNL     1      11.937  17.449  -6.557  1.00  0.00     0.060 A 
BRANCH  92  93
ATOM     93  S   UNL     1      12.272  19.109  -7.185  1.00  0.00     0.124 S 
ATOM     94  O   UNL     1      11.977  18.951  -8.605  1.00  0.00    -0.237 OA
ATOM     95  O   UNL     1      11.329  19.928  -6.429  1.00  0.00    -0.237 OA
ATOM     96  O   UNL     1      13.678  19.318  -6.854  1.00  0.00    -0.744 OA
ENDBRANCH  92  93
ENDBRANCH  60  85
ENDBRANCH  34  35
ENDBRANCH  26  29
ENDBRANCH  24  25
ENDBRANCH  23  24
ENDBRANCH   1  23
TORSDOF 18
