REMARK SMILES CCN(C(=O)Cc1c(C(=O)NCCCCNC(=O)c2ccc(-c3c4nc(c(-c5c(F)cc(S(=O)(=O)[O-])cc5F)c5ccc([nH]5)c(-c5c(F)cc(S(=O)(=O)[O-])cc5F)c5nc(c(-c6c(F)cc(S(=O)(=O)[O-])cc6F)c6ccc3[nH]6)C=C5)C=C4)cc2)[nH]c2ccc(Cl)cc12)c1ccc(C)c(C)c1
REMARK SMILES IDX 13 1 12 2 11 3 9 4 10 5 8 7 7 8 92 9 85 10 86 11 91 12 87 14
REMARK SMILES IDX 89 15 88 16 90 17 6 18 4 19 5 20 3 21 2 22 1 23 93 24 94 25
REMARK SMILES IDX 100 26 95 27 98 28 96 29 99 30 97 31 14 32 15 33 16 34 17 35
REMARK SMILES IDX 18 37 19 38 20 39 84 40 21 41 83 42 22 43 23 44 24 45 77 46
REMARK SMILES IDX 25 47 82 48 76 49 78 50 26 51 81 52 75 53 74 54 27 56 61 57
REMARK SMILES IDX 40 58 60 59 41 60 44 61 59 62 79 63 42 64 43 65 58 67 80 68
REMARK SMILES IDX 45 69 28 70 29 71 38 72 30 73 31 74 37 75 39 76 32 77 33 78
REMARK SMILES IDX 34 79 35 80 36 81 62 82 63 83 72 84 64 85 65 86 71 87 73 88
REMARK SMILES IDX 66 89 67 90 68 91 69 92 70 93 46 94 47 95 56 96 48 97 49 98
REMARK SMILES IDX 55 99 57 100 50 101 51 102 52 103 53 104 54 105
REMARK H PARENT 11 6 85 13 16 36 78 55 44 66
REMARK Flexibility Score: inf
ROOT
ATOM      1  C   UNL     1      -2.493   4.684  -3.045  1.00  0.00     0.023 C 
ENDROOT
BRANCH   1   2
ATOM      2  C   UNL     1      -3.459   3.959  -2.105  1.00  0.00     0.116 C 
BRANCH   2   3
ATOM      3  N   UNL     1      -4.146   2.881  -2.773  1.00  0.00    -0.351 N 
ATOM      4  C   UNL     1      -3.990   1.526  -2.815  1.00  0.00     0.268 C 
ATOM      5  O   UNL     1      -4.928   0.933  -3.362  1.00  0.00    -0.268 OA
ATOM      6  H   UNL     1      -4.898   3.194  -3.326  1.00  0.00     0.163 HD
BRANCH   4   7
ATOM      7  C   UNL     1      -2.881   0.740  -2.280  1.00  0.00     0.109 A 
ATOM      8  C   UNL     1      -1.559   0.897  -1.825  1.00  0.00    -0.000 A 
ATOM      9  C   UNL     1      -1.010  -0.434  -1.644  1.00  0.00     0.005 A 
ATOM     10  N   UNL     1      -3.124  -0.626  -2.231  1.00  0.00    -0.350 N 
ATOM     11  C   UNL     1      -2.034  -1.348  -1.846  1.00  0.00     0.046 A 
ATOM     12  C   UNL     1       0.264  -0.961  -1.337  1.00  0.00     0.031 A 
ATOM     13  H   UNL     1      -3.994  -1.031  -2.451  1.00  0.00     0.167 HD
ATOM     14  C   UNL     1      -1.882  -2.733  -1.697  1.00  0.00     0.028 A 
ATOM     15  C   UNL     1       0.443  -2.339  -1.190  1.00  0.00     0.041 A 
ATOM     16  C   UNL     1      -0.619  -3.216  -1.351  1.00  0.00     0.022 A 
ATOM     17  Cl  UNL     1       2.009  -2.947  -0.803  1.00  0.00    -0.084 Cl
BRANCH   8  18
ATOM     18  C   UNL     1      -0.812   2.177  -1.596  1.00  0.00     0.139 C 
BRANCH  18  19
ATOM     19  C   UNL     1       0.694   2.162  -1.741  1.00  0.00     0.231 C 
ATOM     20  O   UNL     1       1.180   2.230  -2.876  1.00  0.00    -0.274 OA
BRANCH  19  21
ATOM     21  N   UNL     1       1.482   2.117  -0.586  1.00  0.00    -0.312 N 
BRANCH  21  22
ATOM     22  C   UNL     1       0.996   1.916   0.789  1.00  0.00     0.122 C 
ATOM     23  C   UNL     1       1.750   0.865   1.598  1.00  0.00     0.028 C 
ENDBRANCH  21  22
BRANCH  21  24
ATOM     24  C   UNL     1       2.870   2.364  -0.759  1.00  0.00     0.044 A 
ATOM     25  C   UNL     1       3.332   3.670  -0.901  1.00  0.00     0.026 A 
ATOM     26  C   UNL     1       3.746   1.291  -0.937  1.00  0.00     0.030 A 
ATOM     27  C   UNL     1       4.673   3.897  -1.209  1.00  0.00     0.006 A 
ATOM     28  C   UNL     1       5.096   1.505  -1.257  1.00  0.00    -0.046 A 
ATOM     29  C   UNL     1       5.568   2.825  -1.389  1.00  0.00    -0.048 A 
ATOM     30  C   UNL     1       5.974   0.308  -1.490  1.00  0.00     0.044 C 
ATOM     31  C   UNL     1       6.979   3.149  -1.798  1.00  0.00     0.044 C 
ENDBRANCH  21  24
ENDBRANCH  19  21
ENDBRANCH  18  19
ENDBRANCH   8  18
ENDBRANCH   4   7
ENDBRANCH   2   3
ENDBRANCH   1   2
BRANCH   1  32
ATOM     32  C   UNL     1      -3.081   5.850  -3.833  1.00  0.00     0.023 C 
BRANCH  32  33
ATOM     33  C   UNL     1      -3.559   7.024  -2.990  1.00  0.00     0.116 C 
BRANCH  33  34
ATOM     34  N   UNL     1      -2.540   7.586  -2.113  1.00  0.00    -0.352 N 
ATOM     35  C   UNL     1      -2.435   8.886  -1.669  1.00  0.00     0.251 C 
ATOM     36  H   UNL     1      -1.844   6.964  -1.802  1.00  0.00     0.163 HD
ATOM     37  O   UNL     1      -1.488   9.236  -0.973  1.00  0.00    -0.269 OA
BRANCH  35  38
ATOM     38  C   UNL     1      -3.457   9.861  -2.102  1.00  0.00     0.039 A 
ATOM     39  C   UNL     1      -3.045  11.017  -2.767  1.00  0.00     0.014 A 
ATOM     40  C   UNL     1      -4.815   9.566  -1.957  1.00  0.00     0.014 A 
ATOM     41  C   UNL     1      -3.999  11.832  -3.375  1.00  0.00     0.010 A 
ATOM     42  C   UNL     1      -5.755  10.335  -2.630  1.00  0.00     0.010 A 
ATOM     43  C   UNL     1      -5.356  11.467  -3.358  1.00  0.00    -0.014 A 
BRANCH  43  44
ATOM     44  C   UNL     1      -6.372  12.232  -4.122  1.00  0.00     0.031 A 
ATOM     45  C   UNL     1      -7.492  12.924  -3.399  1.00  0.00     0.074 A 
ATOM     46  C   UNL     1      -6.334  12.226  -5.469  1.00  0.00     0.049 A 
ATOM     47  N   UNL     1      -8.518  13.567  -3.891  1.00  0.00    -0.248 NA
ATOM     48  C   UNL     1      -7.472  12.856  -1.929  1.00  0.00     0.031 C 
ATOM     49  C   UNL     1      -5.331  11.537  -6.286  1.00  0.00     0.029 A 
ATOM     50  N   UNL     1      -7.167  12.807  -6.391  1.00  0.00    -0.354 N 
ATOM     51  C   UNL     1      -9.274  13.965  -2.795  1.00  0.00     0.074 A 
ATOM     52  C   UNL     1      -8.617  13.444  -1.616  1.00  0.00     0.031 C 
ATOM     53  C   UNL     1      -5.594  11.757  -7.585  1.00  0.00     0.029 A 
ATOM     54  C   UNL     1      -6.800  12.571  -7.695  1.00  0.00     0.049 A 
ATOM     55  H   UNL     1      -7.955  13.344  -6.143  1.00  0.00     0.167 HD
ATOM     56  C   UNL     1     -10.400  14.717  -2.772  1.00  0.00     0.037 A 
ATOM     57  C   UNL     1      -7.374  12.962  -8.850  1.00  0.00     0.037 A 
ATOM     58  C   UNL     1     -11.031  15.257  -3.947  1.00  0.00     0.049 A 
ATOM     59  C   UNL     1      -8.619  13.803  -8.800  1.00  0.00     0.074 A 
ATOM     60  C   UNL     1     -12.131  16.093  -4.027  1.00  0.00     0.029 A 
ATOM     61  N   UNL     1     -10.619  15.012  -5.249  1.00  0.00    -0.354 N 
ATOM     62  N   UNL     1      -9.281  14.232  -7.752  1.00  0.00    -0.248 NA
ATOM     63  C   UNL     1      -9.194  14.216 -10.088  1.00  0.00     0.031 C 
ATOM     64  C   UNL     1     -12.405  16.325  -5.379  1.00  0.00     0.029 A 
ATOM     65  C   UNL     1     -11.455  15.663  -6.141  1.00  0.00     0.049 A 
ATOM     66  H   UNL     1      -9.846  14.457  -5.502  1.00  0.00     0.167 HD
ATOM     67  C   UNL     1     -10.342  14.977  -8.252  1.00  0.00     0.074 A 
ATOM     68  C   UNL     1     -10.225  14.953  -9.696  1.00  0.00     0.031 C 
ATOM     69  C   UNL     1     -11.325  15.623  -7.576  1.00  0.00     0.037 A 
BRANCH  56  70
ATOM     70  C   UNL     1     -11.010  15.000  -1.428  1.00  0.00     0.058 A 
ATOM     71  C   UNL     1     -10.392  15.861  -0.507  1.00  0.00     0.135 A 
ATOM     72  C   UNL     1     -12.226  14.405  -1.054  1.00  0.00     0.135 A 
ATOM     73  F   UNL     1      -9.220  16.444  -0.808  1.00  0.00    -0.206 F 
ATOM     74  C   UNL     1     -10.933  16.090   0.752  1.00  0.00     0.059 A 
ATOM     75  C   UNL     1     -12.800  14.641   0.192  1.00  0.00     0.059 A 
ATOM     76  F   UNL     1     -12.859  13.573  -1.896  1.00  0.00    -0.206 F 
ATOM     77  C   UNL     1     -12.135  15.469   1.096  1.00  0.00     0.060 A 
BRANCH  77  78
ATOM     78  S   UNL     1     -12.815  15.755   2.743  1.00  0.00     0.124 S 
ATOM     79  O   UNL     1     -11.950  14.912   3.563  1.00  0.00    -0.237 OA
ATOM     80  O   UNL     1     -12.639  17.194   2.911  1.00  0.00    -0.237 OA
ATOM     81  O   UNL     1     -14.198  15.305   2.622  1.00  0.00    -0.744 OA
ENDBRANCH  77  78
ENDBRANCH  56  70
BRANCH  57  82
ATOM     82  C   UNL     1      -6.755  12.586 -10.147  1.00  0.00     0.058 A 
ATOM     83  C   UNL     1      -6.077  13.539 -10.920  1.00  0.00     0.135 A 
ATOM     84  C   UNL     1      -6.797  11.266 -10.623  1.00  0.00     0.135 A 
ATOM     85  F   UNL     1      -6.016  14.815 -10.508  1.00  0.00    -0.206 F 
ATOM     86  C   UNL     1      -5.466  13.202 -12.123  1.00  0.00     0.059 A 
ATOM     87  C   UNL     1      -6.176  10.900 -11.814  1.00  0.00     0.059 A 
ATOM     88  F   UNL     1      -7.420  10.314  -9.912  1.00  0.00    -0.206 F 
ATOM     89  C   UNL     1      -5.517  11.877 -12.560  1.00  0.00     0.060 A 
BRANCH  89  90
ATOM     90  S   UNL     1      -4.663  11.436 -14.089  1.00  0.00     0.124 S 
ATOM     91  O   UNL     1      -5.558  11.992 -15.096  1.00  0.00    -0.237 OA
ATOM     92  O   UNL     1      -3.380  12.113 -13.931  1.00  0.00    -0.237 OA
ATOM     93  O   UNL     1      -4.604   9.978 -14.030  1.00  0.00    -0.744 OA
ENDBRANCH  89  90
ENDBRANCH  57  82
BRANCH  69  94
ATOM     94  C   UNL     1     -12.345  16.367  -8.389  1.00  0.00     0.058 A 
ATOM     95  C   UNL     1     -13.358  15.692  -9.086  1.00  0.00     0.135 A 
ATOM     96  C   UNL     1     -12.345  17.770  -8.423  1.00  0.00     0.135 A 
ATOM     97  F   UNL     1     -13.396  14.350  -9.091  1.00  0.00    -0.206 F 
ATOM     98  C   UNL     1     -14.330  16.383  -9.803  1.00  0.00     0.059 A 
ATOM     99  C   UNL     1     -13.320  18.482  -9.114  1.00  0.00     0.059 A 
ATOM    100  F   UNL     1     -11.402  18.463  -7.765  1.00  0.00    -0.206 F 
ATOM    101  C   UNL     1     -14.304  17.779  -9.808  1.00  0.00     0.060 A 
BRANCH 101 102
ATOM    102  S   UNL     1     -15.597  18.666 -10.703  1.00  0.00     0.124 S 
ATOM    103  O   UNL     1     -15.168  18.492 -12.087  1.00  0.00    -0.237 OA
ATOM    104  O   UNL     1     -16.802  17.938 -10.317  1.00  0.00    -0.237 OA
ATOM    105  O   UNL     1     -15.499  20.025 -10.181  1.00  0.00    -0.744 OA
ENDBRANCH 101 102
ENDBRANCH  69  94
ENDBRANCH  43  44
ENDBRANCH  35  38
ENDBRANCH  33  34
ENDBRANCH  32  33
ENDBRANCH   1  32
TORSDOF 19
