REMARK SMILES Cc1ccc(Br)cc1C(=O)N1CCO[C@H](CC(=O)NCCCCNC(=O)c2ccc(-c3c4nc(c(-c5c(F)cc(S(=O)(=O)[O-])cc5F)c5ccc([nH]5)c(-c5c(F)cc(S(=O)(=O)[O-])cc5F)c5nc(c(-c6c(F)cc(S(=O)(=O)[O-])cc6F)c6ccc3[nH]6)C=C5)C=C4)cc2)C1
REMARK SMILES IDX 21 1 20 2 19 3 17 4 18 5 16 7 15 8 11 9 12 10 93 11 13 12
REMARK SMILES IDX 14 13 9 14 10 15 8 16 1 17 2 18 3 19 4 20 7 21 5 22 6 23
REMARK SMILES IDX 22 24 23 25 24 26 25 27 26 29 27 30 28 31 92 32 29 33 91 34
REMARK SMILES IDX 30 35 31 36 32 37 85 38 33 39 90 40 84 41 86 42 34 43 89 44
REMARK SMILES IDX 83 45 82 46 35 48 69 49 48 50 68 51 49 52 52 53 67 54 87 55
REMARK SMILES IDX 50 56 51 57 66 59 88 60 53 61 36 62 37 63 46 64 38 65 39 66
REMARK SMILES IDX 45 67 47 68 40 69 41 70 42 71 43 72 44 73 70 74 71 75 80 76
REMARK SMILES IDX 72 77 73 78 79 79 81 80 74 81 75 82 76 83 77 84 78 85 54 86
REMARK SMILES IDX 55 87 64 88 56 89 57 90 63 91 65 92 58 93 59 94 60 95 61 96
REMARK SMILES IDX 62 97
REMARK H PARENT 19 6 24 28 86 47 52 58
REMARK Flexibility Score: inf
ROOT
ATOM      1  C   UNL     1       9.190   0.254   2.200  1.00  0.00     0.023 C 
ENDROOT
BRANCH   1   2
ATOM      2  C   UNL     1       7.854  -0.465   2.341  1.00  0.00     0.116 C 
BRANCH   2   3
ATOM      3  N   UNL     1       7.168  -0.011   3.533  1.00  0.00    -0.356 N 
ATOM      4  C   UNL     1       6.184   0.928   3.618  1.00  0.00     0.222 C 
ATOM      5  O   UNL     1       5.877   1.393   4.714  1.00  0.00    -0.275 OA
ATOM      6  H   UNL     1       7.444  -0.430   4.381  1.00  0.00     0.163 HD
BRANCH   4   7
ATOM      7  C   UNL     1       5.431   1.294   2.368  1.00  0.00     0.133 C 
BRANCH   7   8
ATOM      8  C   UNL     1       6.000   2.484   1.581  1.00  0.00     0.147 C 
ATOM      9  N   UNL     1       4.190   2.374  -0.034  1.00  0.00    -0.334 N 
ATOM     10  C   UNL     1       5.070   2.015  -1.137  1.00  0.00     0.148 C 
ATOM     11  C   UNL     1       4.844   3.260   0.935  1.00  0.00     0.152 C 
ATOM     12  C   UNL     1       6.431   1.495  -0.629  1.00  0.00     0.182 C 
ATOM     13  O   UNL     1       6.955   2.135   0.550  1.00  0.00    -0.374 OA
BRANCH   9  14
ATOM     14  C   UNL     1       2.806   2.317  -0.027  1.00  0.00     0.254 C 
ATOM     15  O   UNL     1       2.180   3.324   0.321  1.00  0.00    -0.269 OA
BRANCH  14  16
ATOM     16  C   UNL     1       2.007   1.045  -0.256  1.00  0.00     0.044 A 
ATOM     17  C   UNL     1       3.838  -0.809  -0.252  1.00  0.00     0.045 C 
ATOM     18  C   UNL     1       2.433  -0.304  -0.267  1.00  0.00    -0.038 A 
ATOM     19  C   UNL     1       1.471  -1.344  -0.293  1.00  0.00     0.005 A 
ATOM     20  C   UNL     1       0.108  -1.082  -0.276  1.00  0.00     0.016 A 
ATOM     21  C   UNL     1       0.609   1.275  -0.274  1.00  0.00     0.029 A 
ATOM     22  C   UNL     1      -0.319   0.233  -0.271  1.00  0.00     0.018 A 
ATOM     23  Br  UNL     1      -2.169   0.613  -0.214  1.00  0.00    -0.051 Br
ENDBRANCH  14  16
ENDBRANCH   9  14
ENDBRANCH   7   8
ENDBRANCH   4   7
ENDBRANCH   2   3
ENDBRANCH   1   2
BRANCH   1  24
ATOM     24  C   UNL     1      10.220  -0.185   3.242  1.00  0.00     0.023 C 
BRANCH  24  25
ATOM     25  C   UNL     1      10.548  -1.673   3.216  1.00  0.00     0.116 C 
BRANCH  25  26
ATOM     26  N   UNL     1      11.070  -2.105   1.930  1.00  0.00    -0.352 N 
ATOM     27  C   UNL     1      12.126  -2.946   1.671  1.00  0.00     0.251 C 
ATOM     28  H   UNL     1      10.606  -1.748   1.139  1.00  0.00     0.163 HD
ATOM     29  O   UNL     1      12.537  -3.077   0.525  1.00  0.00    -0.269 OA
BRANCH  27  30
ATOM     30  C   UNL     1      12.775  -3.660   2.791  1.00  0.00     0.039 A 
ATOM     31  C   UNL     1      14.168  -3.663   2.865  1.00  0.00     0.014 A 
ATOM     32  C   UNL     1      12.013  -4.299   3.774  1.00  0.00     0.014 A 
ATOM     33  C   UNL     1      14.795  -4.262   3.958  1.00  0.00     0.010 A 
ATOM     34  C   UNL     1      12.637  -4.823   4.903  1.00  0.00     0.010 A 
ATOM     35  C   UNL     1      14.036  -4.815   5.005  1.00  0.00    -0.014 A 
BRANCH  35  36
ATOM     36  C   UNL     1      14.703  -5.369   6.211  1.00  0.00     0.031 A 
ATOM     37  C   UNL     1      14.578  -6.829   6.554  1.00  0.00     0.074 A 
ATOM     38  C   UNL     1      15.401  -4.542   7.016  1.00  0.00     0.049 A 
ATOM     39  N   UNL     1      15.110  -7.489   7.550  1.00  0.00    -0.248 NA
ATOM     40  C   UNL     1      13.726  -7.651   5.680  1.00  0.00     0.031 C 
ATOM     41  C   UNL     1      15.540  -3.096   6.825  1.00  0.00     0.029 A 
ATOM     42  N   UNL     1      16.129  -4.796   8.150  1.00  0.00    -0.354 N 
ATOM     43  C   UNL     1      14.660  -8.798   7.423  1.00  0.00     0.074 A 
ATOM     44  C   UNL     1      13.758  -8.825   6.293  1.00  0.00     0.031 C 
ATOM     45  C   UNL     1      16.338  -2.600   7.783  1.00  0.00     0.029 A 
ATOM     46  C   UNL     1      16.738  -3.681   8.677  1.00  0.00     0.049 A 
ATOM     47  H   UNL     1      16.207  -5.693   8.550  1.00  0.00     0.167 HD
ATOM     48  C   UNL     1      14.989  -9.884   8.164  1.00  0.00     0.037 A 
ATOM     49  C   UNL     1      17.532  -3.545   9.757  1.00  0.00     0.037 A 
ATOM     50  C   UNL     1      15.897  -9.851   9.282  1.00  0.00     0.049 A 
ATOM     51  C   UNL     1      17.883  -4.766  10.563  1.00  0.00     0.074 A 
ATOM     52  C   UNL     1      16.340 -10.904  10.063  1.00  0.00     0.029 A 
ATOM     53  N   UNL     1      16.497  -8.704   9.784  1.00  0.00    -0.354 N 
ATOM     54  N   UNL     1      17.511  -6.011  10.380  1.00  0.00    -0.248 NA
ATOM     55  C   UNL     1      18.771  -4.566  11.715  1.00  0.00     0.031 C 
ATOM     56  C   UNL     1      17.163 -10.388  11.069  1.00  0.00     0.029 A 
ATOM     57  C   UNL     1      17.284  -9.021  10.880  1.00  0.00     0.049 A 
ATOM     58  H   UNL     1      16.381  -7.799   9.416  1.00  0.00     0.167 HD
ATOM     59  C   UNL     1      18.138  -6.746  11.381  1.00  0.00     0.074 A 
ATOM     60  C   UNL     1      18.931  -5.808  12.149  1.00  0.00     0.031 C 
ATOM     61  C   UNL     1      18.063  -8.075  11.642  1.00  0.00     0.037 A 
BRANCH  48  62
ATOM     62  C   UNL     1      14.368 -11.203   7.785  1.00  0.00     0.058 A 
ATOM     63  C   UNL     1      14.707 -11.863   6.592  1.00  0.00     0.135 A 
ATOM     64  C   UNL     1      13.453 -11.835   8.642  1.00  0.00     0.135 A 
ATOM     65  F   UNL     1      15.565 -11.299   5.727  1.00  0.00    -0.206 F 
ATOM     66  C   UNL     1      14.139 -13.086   6.249  1.00  0.00     0.059 A 
ATOM     67  C   UNL     1      12.896 -13.074   8.334  1.00  0.00     0.059 A 
ATOM     68  F   UNL     1      13.091 -11.251   9.795  1.00  0.00    -0.206 F 
ATOM     69  C   UNL     1      13.235 -13.684   7.127  1.00  0.00     0.060 A 
BRANCH  69  70
ATOM     70  S   UNL     1      12.514 -15.274   6.668  1.00  0.00     0.124 S 
ATOM     71  O   UNL     1      11.615 -14.884   5.585  1.00  0.00    -0.237 OA
ATOM     72  O   UNL     1      13.687 -16.045   6.270  1.00  0.00    -0.237 OA
ATOM     73  O   UNL     1      11.861 -15.719   7.895  1.00  0.00    -0.744 OA
ENDBRANCH  69  70
ENDBRANCH  48  62
BRANCH  49  74
ATOM     74  C   UNL     1      18.071  -2.207  10.120  1.00  0.00     0.058 A 
ATOM     75  C   UNL     1      19.438  -1.918   9.995  1.00  0.00     0.135 A 
ATOM     76  C   UNL     1      17.230  -1.186  10.591  1.00  0.00     0.135 A 
ATOM     77  F   UNL     1      20.285  -2.861   9.554  1.00  0.00    -0.206 F 
ATOM     78  C   UNL     1      19.956  -0.674  10.341  1.00  0.00     0.059 A 
ATOM     79  C   UNL     1      17.719   0.075  10.915  1.00  0.00     0.059 A 
ATOM     80  F   UNL     1      15.911  -1.404  10.712  1.00  0.00    -0.206 F 
ATOM     81  C   UNL     1      19.087   0.318  10.798  1.00  0.00     0.060 A 
BRANCH  81  82
ATOM     82  S   UNL     1      19.763   1.943  11.201  1.00  0.00     0.124 S 
ATOM     83  O   UNL     1      20.482   1.664  12.438  1.00  0.00    -0.237 OA
ATOM     84  O   UNL     1      20.589   2.228  10.031  1.00  0.00    -0.237 OA
ATOM     85  O   UNL     1      18.572   2.777  11.336  1.00  0.00    -0.744 OA
ENDBRANCH  81  82
ENDBRANCH  49  74
BRANCH  61  86
ATOM     86  C   UNL     1      18.882  -8.596  12.793  1.00  0.00     0.058 A 
ATOM     87  C   UNL     1      18.564  -8.288  14.126  1.00  0.00     0.135 A 
ATOM     88  C   UNL     1      19.988  -9.430  12.560  1.00  0.00     0.135 A 
ATOM     89  F   UNL     1      17.520  -7.493  14.405  1.00  0.00    -0.206 F 
ATOM     90  C   UNL     1      19.340  -8.751  15.184  1.00  0.00     0.059 A 
ATOM     91  C   UNL     1      20.757  -9.932  13.605  1.00  0.00     0.059 A 
ATOM     92  F   UNL     1      20.329  -9.769  11.307  1.00  0.00    -0.206 F 
ATOM     93  C   UNL     1      20.437  -9.570  14.912  1.00  0.00     0.060 A 
BRANCH  93  94
ATOM     94  S   UNL     1      21.435 -10.165  16.294  1.00  0.00     0.124 S 
ATOM     95  O   UNL     1      22.152  -8.955  16.680  1.00  0.00    -0.237 OA
ATOM     96  O   UNL     1      20.421 -10.629  17.235  1.00  0.00    -0.237 OA
ATOM     97  O   UNL     1      22.253 -11.216  15.696  1.00  0.00    -0.744 OA
ENDBRANCH  93  94
ENDBRANCH  61  86
ENDBRANCH  35  36
ENDBRANCH  27  30
ENDBRANCH  25  26
ENDBRANCH  24  25
ENDBRANCH   1  24
TORSDOF 17
