REMARK SMILES CS(=O)(=O)Nc1ccc(-c2cc(Cl)cc3c2O[C@H](C(F)(F)F)C(C(=O)NCCCCNC(=O)c2ccc(-c4c5nc(c(-c6c(F)cc(S(=O)(=O)[O-])cc6F)c6ccc([nH]6)c(-c6c(F)cc(S(=O)(=O)[O-])cc6F)c6nc(c(-c7c(F)cc(S(=O)(=O)[O-])cc7F)c7ccc4[nH]7)C=C6)C=C5)cc2)=C3)cc1
REMARK SMILES IDX 28 1 27 2 26 3 24 4 25 5 23 7 10 8 11 9 16 10 12 11 15 12
REMARK SMILES IDX 17 13 13 14 14 15 100 16 18 17 9 18 6 19 7 20 102 21 8 22
REMARK SMILES IDX 101 23 5 24 2 26 1 27 3 28 4 29 19 30 20 31 21 32 22 33
REMARK SMILES IDX 29 34 30 35 31 36 32 37 33 39 34 40 35 41 99 42 36 43 98 44
REMARK SMILES IDX 37 45 38 46 39 47 92 48 40 49 97 50 91 51 93 52 41 53 96 54
REMARK SMILES IDX 90 55 89 56 42 58 76 59 55 60 75 61 56 62 59 63 74 64 94 65
REMARK SMILES IDX 57 66 58 67 73 69 95 70 60 71 43 72 44 73 53 74 45 75 46 76
REMARK SMILES IDX 52 77 54 78 47 79 48 80 49 81 50 82 51 83 77 84 78 85 87 86
REMARK SMILES IDX 79 87 80 88 86 89 88 90 81 91 82 92 83 93 84 94 85 95 61 96
REMARK SMILES IDX 62 97 71 98 63 99 64 100 70 101 72 102 65 103 66 104 67 105
REMARK SMILES IDX 68 106 69 107
REMARK H PARENT 26 6 5 25 31 38 93 57 59 68
REMARK Flexibility Score: inf
ROOT
ATOM      1  C   UNL     1      10.635  -8.133  -7.272  1.00  0.00     0.023 C 
ENDROOT
BRANCH   1   2
ATOM      2  C   UNL     1      10.209  -6.702  -6.914  1.00  0.00     0.116 C 
BRANCH   2   3
ATOM      3  N   UNL     1       8.773  -6.572  -7.045  1.00  0.00    -0.352 N 
ATOM      4  C   UNL     1       7.879  -6.048  -6.176  1.00  0.00     0.251 C 
ATOM      5  O   UNL     1       6.747  -6.519  -6.145  1.00  0.00    -0.270 OA
ATOM      6  H   UNL     1       8.394  -6.914  -7.887  1.00  0.00     0.163 HD
BRANCH   4   7
ATOM      7  C   UNL     1       8.275  -4.850  -5.373  1.00  0.00     0.067 C 
ATOM      8  C   UNL     1       4.862  -4.397  -3.191  1.00  0.00     0.026 A 
ATOM      9  C   UNL     1       3.784  -4.556  -4.103  1.00  0.00     0.033 A 
ATOM     10  C   UNL     1       6.134  -4.224  -3.764  1.00  0.00     0.135 A 
ATOM     11  C   UNL     1       3.922  -4.364  -5.475  1.00  0.00     0.042 A 
ATOM     12  C   UNL     1       6.233  -3.910  -5.144  1.00  0.00     0.019 A 
ATOM     13  O   UNL     1       7.318  -4.413  -3.065  1.00  0.00    -0.475 OA
ATOM     14  Cl  UNL     1       2.569  -4.601  -6.507  1.00  0.00    -0.084 Cl
ATOM     15  C   UNL     1       5.132  -3.957  -5.995  1.00  0.00     0.032 A 
ATOM     16  C   UNL     1       7.586  -3.744  -5.720  1.00  0.00     0.025 C 
ATOM     17  C   UNL     1       8.381  -5.096  -3.871  1.00  0.00     0.314 C 
BRANCH   8  18
ATOM     18  C   UNL     1       4.441  -4.196  -1.774  1.00  0.00    -0.014 A 
ATOM     19  C   UNL     1       2.585  -3.198   0.140  1.00  0.00     0.048 A 
ATOM     20  C   UNL     1       2.524  -4.527  -0.290  1.00  0.00     0.027 A 
ATOM     21  C   UNL     1       3.686  -2.434  -0.237  1.00  0.00     0.027 A 
ATOM     22  C   UNL     1       3.458  -5.031  -1.209  1.00  0.00     0.011 A 
ATOM     23  C   UNL     1       4.609  -2.930  -1.183  1.00  0.00     0.011 A 
BRANCH  19  24
ATOM     24  N   UNL     1       1.426  -2.692   0.797  1.00  0.00    -0.284 N 
ATOM     25  H   UNL     1       0.697  -3.337   0.945  1.00  0.00     0.180 HD
BRANCH  24  26
ATOM     26  S   UNL     1       1.155  -1.149   1.346  1.00  0.00     0.229 S 
ATOM     27  C   UNL     1       1.073  -0.155  -0.136  1.00  0.00     0.183 C 
ATOM     28  O   UNL     1       2.280  -0.712   2.144  1.00  0.00    -0.207 OA
ATOM     29  O   UNL     1      -0.180  -1.183   1.905  1.00  0.00    -0.207 OA
ENDBRANCH  24  26
ENDBRANCH  19  24
ENDBRANCH   8  18
BRANCH  17  30
ATOM     30  C   UNL     1       9.796  -4.679  -3.412  1.00  0.00     0.429 C 
ATOM     31  F   UNL     1       9.788  -3.574  -2.633  1.00  0.00    -0.167 F 
ATOM     32  F   UNL     1      10.396  -5.670  -2.708  1.00  0.00    -0.167 F 
ATOM     33  F   UNL     1      10.624  -4.405  -4.455  1.00  0.00    -0.167 F 
ENDBRANCH  17  30
ENDBRANCH   4   7
ENDBRANCH   2   3
ENDBRANCH   1   2
BRANCH   1  34
ATOM     34  C   UNL     1      10.296  -8.580  -8.702  1.00  0.00     0.023 C 
BRANCH  34  35
ATOM     35  C   UNL     1      10.845  -7.682  -9.804  1.00  0.00     0.116 C 
BRANCH  35  36
ATOM     36  N   UNL     1      12.298  -7.691  -9.837  1.00  0.00    -0.352 N 
ATOM     37  C   UNL     1      13.139  -8.028 -10.871  1.00  0.00     0.251 C 
ATOM     38  H   UNL     1      12.742  -7.417  -9.003  1.00  0.00     0.163 HD
ATOM     39  O   UNL     1      14.340  -8.171 -10.659  1.00  0.00    -0.269 OA
BRANCH  37  40
ATOM     40  C   UNL     1      12.591  -8.242 -12.228  1.00  0.00     0.039 A 
ATOM     41  C   UNL     1      12.994  -9.366 -12.954  1.00  0.00     0.014 A 
ATOM     42  C   UNL     1      11.675  -7.342 -12.780  1.00  0.00     0.014 A 
ATOM     43  C   UNL     1      12.426  -9.623 -14.204  1.00  0.00     0.010 A 
ATOM     44  C   UNL     1      11.057  -7.640 -13.993  1.00  0.00     0.010 A 
ATOM     45  C   UNL     1      11.423  -8.784 -14.718  1.00  0.00    -0.014 A 
BRANCH  45  46
ATOM     46  C   UNL     1      10.736  -9.092 -16.001  1.00  0.00     0.031 A 
ATOM     47  C   UNL     1      10.839  -8.139 -17.163  1.00  0.00     0.074 A 
ATOM     48  C   UNL     1       9.954 -10.188 -16.093  1.00  0.00     0.049 A 
ATOM     49  N   UNL     1      10.239  -8.188 -18.324  1.00  0.00    -0.248 NA
ATOM     50  C   UNL     1      11.707  -6.963 -16.986  1.00  0.00     0.031 C 
ATOM     51  C   UNL     1       9.728 -11.159 -15.019  1.00  0.00     0.029 A 
ATOM     52  N   UNL     1       9.185 -10.660 -17.129  1.00  0.00    -0.354 N 
ATOM     53  C   UNL     1      10.634  -7.041 -19.005  1.00  0.00     0.074 A 
ATOM     54  C   UNL     1      11.496  -6.297 -18.113  1.00  0.00     0.031 C 
ATOM     55  C   UNL     1       8.887 -12.111 -15.454  1.00  0.00     0.029 A 
ATOM     56  C   UNL     1       8.479 -11.800 -16.821  1.00  0.00     0.049 A 
ATOM     57  H   UNL     1       9.144 -10.223 -18.010  1.00  0.00     0.167 HD
ATOM     58  C   UNL     1      10.318  -6.654 -20.263  1.00  0.00     0.037 A 
ATOM     59  C   UNL     1       7.589 -12.505 -17.547  1.00  0.00     0.037 A 
ATOM     60  C   UNL     1       9.493  -7.422 -21.160  1.00  0.00     0.049 A 
ATOM     61  C   UNL     1       7.270 -12.060 -18.950  1.00  0.00     0.074 A 
ATOM     62  C   UNL     1       9.195  -7.159 -22.485  1.00  0.00     0.029 A 
ATOM     63  N   UNL     1       8.831  -8.593 -20.825  1.00  0.00    -0.354 N 
ATOM     64  N   UNL     1       7.728 -11.022 -19.608  1.00  0.00    -0.248 NA
ATOM     65  C   UNL     1       6.322 -12.884 -19.713  1.00  0.00     0.031 C 
ATOM     66  C   UNL     1       8.306  -8.139 -22.935  1.00  0.00     0.029 A 
ATOM     67  C   UNL     1       8.099  -9.047 -21.910  1.00  0.00     0.049 A 
ATOM     68  H   UNL     1       8.875  -9.036 -19.947  1.00  0.00     0.167 HD
ATOM     69  C   UNL     1       7.146 -11.086 -20.870  1.00  0.00     0.074 A 
ATOM     70  C   UNL     1       6.315 -12.271 -20.888  1.00  0.00     0.031 C 
ATOM     71  C   UNL     1       7.288 -10.239 -21.920  1.00  0.00     0.037 A 
BRANCH  58  72
ATOM     72  C   UNL     1      10.861  -5.342 -20.760  1.00  0.00     0.058 A 
ATOM     73  C   UNL     1      12.220  -5.168 -21.063  1.00  0.00     0.135 A 
ATOM     74  C   UNL     1       9.992  -4.267 -21.012  1.00  0.00     0.135 A 
ATOM     75  F   UNL     1      13.098  -6.157 -20.828  1.00  0.00    -0.206 F 
ATOM     76  C   UNL     1      12.702  -3.972 -21.585  1.00  0.00     0.059 A 
ATOM     77  C   UNL     1      10.447  -3.071 -21.561  1.00  0.00     0.059 A 
ATOM     78  F   UNL     1       8.683  -4.378 -20.738  1.00  0.00    -0.206 F 
ATOM     79  C   UNL     1      11.806  -2.931 -21.837  1.00  0.00     0.060 A 
BRANCH  79  80
ATOM     80  S   UNL     1      12.442  -1.400 -22.551  1.00  0.00     0.124 S 
ATOM     81  O   UNL     1      13.180  -0.838 -21.424  1.00  0.00    -0.237 OA
ATOM     82  O   UNL     1      13.255  -1.889 -23.660  1.00  0.00    -0.237 OA
ATOM     83  O   UNL     1      11.235  -0.675 -22.934  1.00  0.00    -0.744 OA
ENDBRANCH  79  80
ENDBRANCH  58  72
BRANCH  59  84
ATOM     84  C   UNL     1       6.925 -13.704 -16.962  1.00  0.00     0.058 A 
ATOM     85  C   UNL     1       7.193 -14.992 -17.448  1.00  0.00     0.135 A 
ATOM     86  C   UNL     1       5.997 -13.582 -15.916  1.00  0.00     0.135 A 
ATOM     87  F   UNL     1       8.068 -15.163 -18.450  1.00  0.00    -0.206 F 
ATOM     88  C   UNL     1       6.541 -16.113 -16.942  1.00  0.00     0.059 A 
ATOM     89  C   UNL     1       5.355 -14.690 -15.373  1.00  0.00     0.059 A 
ATOM     90  F   UNL     1       5.718 -12.374 -15.401  1.00  0.00    -0.206 F 
ATOM     91  C   UNL     1       5.622 -15.951 -15.904  1.00  0.00     0.060 A 
BRANCH  91  92
ATOM     92  S   UNL     1       4.796 -17.413 -15.240  1.00  0.00     0.124 S 
ATOM     93  O   UNL     1       3.863 -17.735 -16.313  1.00  0.00    -0.237 OA
ATOM     94  O   UNL     1       5.910 -18.340 -15.062  1.00  0.00    -0.237 OA
ATOM     95  O   UNL     1       4.194 -16.925 -14.003  1.00  0.00    -0.744 OA
ENDBRANCH  91  92
ENDBRANCH  59  84
BRANCH  71  96
ATOM     96  C   UNL     1       6.566 -10.579 -23.195  1.00  0.00     0.058 A 
ATOM     97  C   UNL     1       5.174 -10.451 -23.316  1.00  0.00     0.135 A 
ATOM     98  C   UNL     1       7.289 -10.975 -24.333  1.00  0.00     0.135 A 
ATOM     99  F   UNL     1       4.435 -10.082 -22.257  1.00  0.00    -0.206 F 
ATOM    100  C   UNL     1       4.521 -10.722 -24.514  1.00  0.00     0.059 A 
ATOM    101  C   UNL     1       6.661 -11.221 -25.549  1.00  0.00     0.059 A 
ATOM    102  F   UNL     1       8.624 -11.103 -24.275  1.00  0.00    -0.206 F 
ATOM    103  C   UNL     1       5.274 -11.102 -25.627  1.00  0.00     0.060 A 
BRANCH 103 104
ATOM    104  S   UNL     1       4.419 -11.407 -27.187  1.00  0.00     0.124 S 
ATOM    105  O   UNL     1       3.759 -12.680 -26.917  1.00  0.00    -0.237 OA
ATOM    106  O   UNL     1       3.539 -10.247 -27.293  1.00  0.00    -0.237 OA
ATOM    107  O   UNL     1       5.502 -11.456 -28.165  1.00  0.00    -0.744 OA
ENDBRANCH 103 104
ENDBRANCH  71  96
ENDBRANCH  45  46
ENDBRANCH  37  40
ENDBRANCH  35  36
ENDBRANCH  34  35
ENDBRANCH   1  34
TORSDOF 18
