REMARK SMILES CC(=O)C1=C(NCCCCNC(=O)c2ccc(-c3c4nc(c(-c5c(F)cc(S(=O)(=O)[O-])cc5F)c5ccc([nH]5)c(-c5c(F)cc(S(=O)(=O)[O-])cc5F)c5nc(c(-c6c(F)cc(S(=O)(=O)[O-])cc6F)c6ccc3[nH]6)C=C5)C=C4)cc2)C(=O)N(c2ccc(C(=O)[O-])cc2)[C@H]1c1ccc([N+](=O)[O-])cc1
REMARK SMILES IDX 9 1 8 2 7 3 6 4 5 6 4 7 92 8 80 9 82 10 81 11 2 12 1 13 3 14
REMARK SMILES IDX 93 15 94 16 101 17 95 18 100 19 96 20 97 21 98 22 99 23
REMARK SMILES IDX 83 24 84 25 91 26 85 27 90 28 86 29 87 30 88 31 89 32 10 33
REMARK SMILES IDX 11 34 12 35 13 37 14 38 15 39 79 40 16 41 78 42 17 43 18 44
REMARK SMILES IDX 19 45 72 46 20 47 77 48 71 49 73 50 21 51 76 52 70 53 69 54
REMARK SMILES IDX 22 56 56 57 35 58 55 59 36 60 39 61 54 62 74 63 37 64 38 65
REMARK SMILES IDX 53 67 75 68 40 69 23 70 24 71 33 72 25 73 26 74 32 75 34 76
REMARK SMILES IDX 27 77 28 78 29 79 30 80 31 81 57 82 58 83 67 84 59 85 60 86
REMARK SMILES IDX 66 87 68 88 61 89 62 90 63 91 64 92 65 93 41 94 42 95 51 96
REMARK SMILES IDX 43 97 44 98 50 99 52 100 45 101 46 102 47 103 48 104 49 105
REMARK H PARENT 6 5 11 36 73 55 39 66
REMARK Flexibility Score: inf
ROOT
ATOM      1  C   UNL     1      -4.284  -2.800   0.915  1.00  0.00     0.023 C 
ENDROOT
BRANCH   1   2
ATOM      2  C   UNL     1      -3.185  -1.760   0.702  1.00  0.00     0.023 C 
BRANCH   2   3
ATOM      3  C   UNL     1      -2.052  -1.811   1.724  1.00  0.00     0.113 C 
BRANCH   3   4
ATOM      4  N   UNL     1      -1.267  -3.011   1.545  1.00  0.00    -0.380 N 
ATOM      5  H   UNL     1      -1.768  -3.857   1.587  1.00  0.00     0.160 HD
BRANCH   4   6
ATOM      6  C   UNL     1       0.078  -3.132   1.323  1.00  0.00     0.110 C 
ATOM      7  C   UNL     1       1.098  -2.277   1.199  1.00  0.00     0.051 C 
ATOM      8  C   UNL     1       2.415  -2.918   0.947  1.00  0.00     0.157 C 
ATOM      9  C   UNL     1       0.714  -4.499   1.206  1.00  0.00     0.275 C 
ATOM     10  N   UNL     1       2.086  -4.310   1.126  1.00  0.00    -0.295 N 
ATOM     11  O   UNL     1       0.077  -5.539   1.248  1.00  0.00    -0.267 OA
BRANCH   7  12
ATOM     12  C   UNL     1       1.040  -0.820   1.365  1.00  0.00     0.160 C 
ATOM     13  C   UNL     1       1.033   0.035   0.128  1.00  0.00     0.093 C 
ATOM     14  O   UNL     1       1.085  -0.332   2.492  1.00  0.00    -0.295 OA
ENDBRANCH   7  12
BRANCH   8  15
ATOM     15  C   UNL     1       2.928  -2.647  -0.470  1.00  0.00    -0.020 A 
ATOM     16  C   UNL     1       2.182  -3.029  -1.607  1.00  0.00     0.013 A 
ATOM     17  C   UNL     1       4.158  -1.999  -0.660  1.00  0.00     0.013 A 
ATOM     18  C   UNL     1       2.645  -2.763  -2.897  1.00  0.00     0.086 A 
ATOM     19  C   UNL     1       4.630  -1.732  -1.949  1.00  0.00     0.086 A 
ATOM     20  C   UNL     1       3.870  -2.113  -3.064  1.00  0.00     0.269 A 
BRANCH  20  21
ATOM     21  N   UNL     1       4.364  -1.827  -4.417  1.00  0.00     0.062 N 
ATOM     22  O   UNL     1       3.664  -2.184  -5.375  1.00  0.00    -0.258 OA
ATOM     23  O   UNL     1       5.450  -1.238  -4.520  1.00  0.00    -0.258 OA
ENDBRANCH  20  21
ENDBRANCH   8  15
BRANCH  10  24
ATOM     24  C   UNL     1       3.066  -5.321   1.144  1.00  0.00     0.045 A 
ATOM     25  C   UNL     1       2.907  -6.494   0.403  1.00  0.00     0.027 A 
ATOM     26  C   UNL     1       4.236  -5.137   1.894  1.00  0.00     0.027 A 
ATOM     27  C   UNL     1       3.930  -7.449   0.370  1.00  0.00     0.012 A 
ATOM     28  C   UNL     1       5.234  -6.113   1.906  1.00  0.00     0.012 A 
ATOM     29  C   UNL     1       5.094  -7.266   1.128  1.00  0.00    -0.003 A 
BRANCH  29  30
ATOM     30  C   UNL     1       6.151  -8.303   1.080  1.00  0.00     0.071 C 
ATOM     31  O   UNL     1       6.168  -9.278   0.349  1.00  0.00    -0.545 OA
ATOM     32  O   UNL     1       7.147  -8.071   1.954  1.00  0.00    -0.545 OA
ENDBRANCH  29  30
ENDBRANCH  10  24
ENDBRANCH   4   6
ENDBRANCH   3   4
ENDBRANCH   2   3
ENDBRANCH   1   2
BRANCH   1  33
ATOM     33  C   UNL     1      -4.934  -2.775   2.293  1.00  0.00     0.116 C 
BRANCH  33  34
ATOM     34  N   UNL     1      -5.535  -1.487   2.612  1.00  0.00    -0.352 N 
ATOM     35  C   UNL     1      -6.806  -1.210   3.058  1.00  0.00     0.251 C 
ATOM     36  H   UNL     1      -4.949  -0.705   2.493  1.00  0.00     0.163 HD
ATOM     37  O   UNL     1      -7.192  -0.047   3.128  1.00  0.00    -0.269 OA
BRANCH  35  38
ATOM     38  C   UNL     1      -7.710  -2.322   3.420  1.00  0.00     0.039 A 
ATOM     39  C   UNL     1      -9.024  -2.310   2.946  1.00  0.00     0.014 A 
ATOM     40  C   UNL     1      -7.252  -3.387   4.199  1.00  0.00     0.014 A 
ATOM     41  C   UNL     1      -9.855  -3.404   3.194  1.00  0.00     0.010 A 
ATOM     42  C   UNL     1      -8.052  -4.512   4.369  1.00  0.00     0.010 A 
ATOM     43  C   UNL     1      -9.364  -4.532   3.873  1.00  0.00    -0.014 A 
BRANCH  43  44
ATOM     44  C   UNL     1     -10.205  -5.740   4.077  1.00  0.00     0.031 A 
ATOM     45  C   UNL     1     -10.542  -6.197   5.471  1.00  0.00     0.074 A 
ATOM     46  C   UNL     1     -10.610  -6.462   3.013  1.00  0.00     0.049 A 
ATOM     47  N   UNL     1     -11.202  -7.259   5.856  1.00  0.00    -0.248 NA
ATOM     48  C   UNL     1     -10.046  -5.366   6.580  1.00  0.00     0.031 C 
ATOM     49  C   UNL     1     -10.304  -6.152   1.615  1.00  0.00     0.029 A 
ATOM     50  N   UNL     1     -11.355  -7.613   2.941  1.00  0.00    -0.354 N 
ATOM     51  C   UNL     1     -11.190  -7.229   7.246  1.00  0.00     0.074 A 
ATOM     52  C   UNL     1     -10.403  -6.081   7.636  1.00  0.00     0.031 C 
ATOM     53  C   UNL     1     -10.877  -7.073   0.824  1.00  0.00     0.029 A 
ATOM     54  C   UNL     1     -11.552  -8.064   1.657  1.00  0.00     0.049 A 
ATOM     55  H   UNL     1     -11.715  -8.072   3.734  1.00  0.00     0.167 HD
ATOM     56  C   UNL     1     -11.802  -8.067   8.117  1.00  0.00     0.037 A 
ATOM     57  C   UNL     1     -12.195  -9.157   1.200  1.00  0.00     0.037 A 
ATOM     58  C   UNL     1     -12.596  -9.200   7.719  1.00  0.00     0.049 A 
ATOM     59  C   UNL     1     -12.858 -10.081   2.186  1.00  0.00     0.074 A 
ATOM     60  C   UNL     1     -13.300 -10.081   8.521  1.00  0.00     0.029 A 
ATOM     61  N   UNL     1     -12.787  -9.614   6.408  1.00  0.00    -0.354 N 
ATOM     62  N   UNL     1     -12.893 -10.002   3.495  1.00  0.00    -0.248 NA
ATOM     63  C   UNL     1     -13.575 -11.238   1.635  1.00  0.00     0.031 C 
ATOM     64  C   UNL     1     -13.870 -11.059   7.700  1.00  0.00     0.029 A 
ATOM     65  C   UNL     1     -13.577 -10.752   6.381  1.00  0.00     0.049 A 
ATOM     66  H   UNL     1     -12.415  -9.166   5.615  1.00  0.00     0.167 HD
ATOM     67  C   UNL     1     -13.660 -11.081   3.922  1.00  0.00     0.074 A 
ATOM     68  C   UNL     1     -14.078 -11.790   2.731  1.00  0.00     0.031 C 
ATOM     69  C   UNL     1     -13.991 -11.447   5.186  1.00  0.00     0.037 A 
BRANCH  56  70
ATOM     70  C   UNL     1     -11.631  -7.787   9.587  1.00  0.00     0.058 A 
ATOM     71  C   UNL     1     -12.196  -6.653  10.195  1.00  0.00     0.135 A 
ATOM     72  C   UNL     1     -10.912  -8.674  10.406  1.00  0.00     0.135 A 
ATOM     73  F   UNL     1     -12.882  -5.763   9.460  1.00  0.00    -0.206 F 
ATOM     74  C   UNL     1     -12.019  -6.386  11.548  1.00  0.00     0.059 A 
ATOM     75  C   UNL     1     -10.751  -8.445  11.770  1.00  0.00     0.059 A 
ATOM     76  F   UNL     1     -10.352  -9.775   9.882  1.00  0.00    -0.206 F 
ATOM     77  C   UNL     1     -11.293  -7.288  12.328  1.00  0.00     0.060 A 
BRANCH  77  78
ATOM     78  S   UNL     1     -11.067  -6.922  14.081  1.00  0.00     0.124 S 
ATOM     79  O   UNL     1     -10.125  -5.808  14.026  1.00  0.00    -0.237 OA
ATOM     80  O   UNL     1     -12.422  -6.585  14.506  1.00  0.00    -0.237 OA
ATOM     81  O   UNL     1     -10.534  -8.168  14.623  1.00  0.00    -0.744 OA
ENDBRANCH  77  78
ENDBRANCH  56  70
BRANCH  57  82
ATOM     82  C   UNL     1     -12.261  -9.420  -0.263  1.00  0.00     0.058 A 
ATOM     83  C   UNL     1     -13.468  -9.296  -0.967  1.00  0.00     0.135 A 
ATOM     84  C   UNL     1     -11.115  -9.775  -0.992  1.00  0.00     0.135 A 
ATOM     85  F   UNL     1     -14.594  -8.967  -0.315  1.00  0.00    -0.206 F 
ATOM     86  C   UNL     1     -13.540  -9.524  -2.338  1.00  0.00     0.059 A 
ATOM     87  C   UNL     1     -11.156  -9.981  -2.368  1.00  0.00     0.059 A 
ATOM     88  F   UNL     1      -9.931  -9.892  -0.369  1.00  0.00    -0.206 F 
ATOM     89  C   UNL     1     -12.376  -9.860  -3.031  1.00  0.00     0.060 A 
BRANCH  89  90
ATOM     90  S   UNL     1     -12.471 -10.093  -4.819  1.00  0.00     0.124 S 
ATOM     91  O   UNL     1     -13.199 -11.352  -4.915  1.00  0.00    -0.237 OA
ATOM     92  O   UNL     1     -13.198  -8.900  -5.243  1.00  0.00    -0.237 OA
ATOM     93  O   UNL     1     -11.070 -10.141  -5.227  1.00  0.00    -0.744 OA
ENDBRANCH  89  90
ENDBRANCH  57  82
BRANCH  69  94
ATOM     94  C   UNL     1     -14.884 -12.648   5.351  1.00  0.00     0.058 A 
ATOM     95  C   UNL     1     -14.429 -13.952   5.103  1.00  0.00     0.135 A 
ATOM     96  C   UNL     1     -16.199 -12.492   5.820  1.00  0.00     0.135 A 
ATOM     97  F   UNL     1     -13.183 -14.158   4.647  1.00  0.00    -0.206 F 
ATOM     98  C   UNL     1     -15.253 -15.057   5.290  1.00  0.00     0.059 A 
ATOM     99  C   UNL     1     -17.030 -13.585   6.045  1.00  0.00     0.059 A 
ATOM    100  F   UNL     1     -16.683 -11.268   6.084  1.00  0.00    -0.206 F 
ATOM    101  C   UNL     1     -16.552 -14.864   5.766  1.00  0.00     0.060 A 
BRANCH 101 102
ATOM    102  S   UNL     1     -17.598 -16.309   6.038  1.00  0.00     0.124 S 
ATOM    103  O   UNL     1     -17.901 -16.715   4.669  1.00  0.00    -0.237 OA
ATOM    104  O   UNL     1     -16.712 -17.199   6.782  1.00  0.00    -0.237 OA
ATOM    105  O   UNL     1     -18.724 -15.777   6.798  1.00  0.00    -0.744 OA
ENDBRANCH 101 102
ENDBRANCH  69  94
ENDBRANCH  43  44
ENDBRANCH  35  38
ENDBRANCH  33  34
ENDBRANCH   1  33
TORSDOF 19
