REMARK SMILES O=C(Nc1c(F)cc(F)cc1F)N[C@H]1C=C[C@@H](C(=O)NCCCCNC(=O)c2ccc(-c3c4nc(c(-c5c(F)cc(S(=O)(=O)[O-])cc5F)c5ccc([nH]5)c(-c5c(F)cc(S(=O)(=O)[O-])cc5F)c5nc(c(-c6c(F)cc(S(=O)(=O)[O-])cc6F)c6ccc3[nH]6)C=C5)C=C4)cc2)C1
REMARK SMILES IDX 23 1 22 2 21 3 20 4 18 5 19 6 17 8 14 9 15 10 94 11 16 12
REMARK SMILES IDX 13 13 1 14 2 15 3 16 4 19 5 20 11 21 6 22 7 23 10 24 12 25
REMARK SMILES IDX 8 26 9 27 24 28 25 29 26 30 27 32 28 33 29 34 93 35 30 36
REMARK SMILES IDX 92 37 31 38 32 39 33 40 86 41 34 42 91 43 85 44 87 45 35 46
REMARK SMILES IDX 90 47 84 48 83 49 36 51 70 52 49 53 69 54 50 55 53 56 68 57
REMARK SMILES IDX 88 58 51 59 52 60 67 62 89 63 54 64 37 65 38 66 47 67 39 68
REMARK SMILES IDX 40 69 46 70 48 71 41 72 42 73 43 74 44 75 45 76 71 77 72 78
REMARK SMILES IDX 81 79 73 80 74 81 80 82 82 83 75 84 76 85 77 86 78 87 79 88
REMARK SMILES IDX 55 89 56 90 65 91 57 92 58 93 64 94 66 95 59 96 60 97 61 98
REMARK SMILES IDX 62 99 63 100
REMARK H PARENT 20 7 3 17 13 18 25 31 87 50 53 61
REMARK Flexibility Score: inf
ROOT
ATOM      1  C   UNL     1      -0.805  -1.072   2.425  1.00  0.00     0.023 C 
ENDROOT
BRANCH   1   2
ATOM      2  C   UNL     1       0.195  -1.032   1.272  1.00  0.00     0.023 C 
BRANCH   2   3
ATOM      3  C   UNL     1       0.301  -2.313   0.447  1.00  0.00     0.116 C 
BRANCH   3   4
ATOM      4  N   UNL     1      -0.868  -2.548  -0.374  1.00  0.00    -0.356 N 
ATOM      5  C   UNL     1      -1.029  -2.501  -1.724  1.00  0.00     0.227 C 
ATOM      6  O   UNL     1      -2.126  -2.857  -2.171  1.00  0.00    -0.274 OA
ATOM      7  H   UNL     1      -1.682  -2.781   0.128  1.00  0.00     0.163 HD
BRANCH   5   8
ATOM      8  C   UNL     1       0.071  -2.047  -2.693  1.00  0.00     0.103 C 
ATOM      9  C   UNL     1       2.165  -0.749  -2.450  1.00  0.00     0.107 C 
ATOM     10  C   UNL     1       2.412  -2.216  -2.654  1.00  0.00    -0.006 C 
ATOM     11  C   UNL     1       0.628  -0.644  -2.439  1.00  0.00     0.047 C 
ATOM     12  C   UNL     1       1.281  -2.924  -2.748  1.00  0.00    -0.016 C 
BRANCH   9  13
ATOM     13  N   UNL     1       2.854  -0.372  -1.235  1.00  0.00    -0.332 N 
ATOM     14  O   UNL     1       1.647   1.501  -0.697  1.00  0.00    -0.248 OA
ATOM     15  C   UNL     1       2.599   0.752  -0.503  1.00  0.00     0.319 C 
ATOM     16  N   UNL     1       3.367   0.892   0.619  1.00  0.00    -0.303 N 
ATOM     17  H   UNL     1       2.883   1.158   1.434  1.00  0.00     0.172 HD
ATOM     18  H   UNL     1       3.563  -0.973  -0.911  1.00  0.00     0.165 HD
BRANCH  16  19
ATOM     19  C   UNL     1       4.756   0.708   0.771  1.00  0.00     0.115 A 
ATOM     20  C   UNL     1       5.663   0.733  -0.295  1.00  0.00     0.152 A 
ATOM     21  C   UNL     1       5.270   0.603   2.068  1.00  0.00     0.152 A 
ATOM     22  F   UNL     1       5.242   0.901  -1.556  1.00  0.00    -0.204 F 
ATOM     23  C   UNL     1       7.035   0.659  -0.075  1.00  0.00     0.081 A 
ATOM     24  C   UNL     1       6.637   0.497   2.304  1.00  0.00     0.081 A 
ATOM     25  F   UNL     1       4.430   0.587   3.113  1.00  0.00    -0.204 F 
ATOM     26  C   UNL     1       7.509   0.536   1.225  1.00  0.00     0.129 A 
ATOM     27  F   UNL     1       8.829   0.469   1.438  1.00  0.00    -0.207 F 
ENDBRANCH  16  19
ENDBRANCH   9  13
ENDBRANCH   5   8
ENDBRANCH   3   4
ENDBRANCH   2   3
ENDBRANCH   1   2
BRANCH   1  28
ATOM     28  C   UNL     1      -0.597  -2.191   3.439  1.00  0.00     0.116 C 
BRANCH  28  29
ATOM     29  N   UNL     1       0.745  -2.226   4.003  1.00  0.00    -0.352 N 
ATOM     30  C   UNL     1       1.134  -2.480   5.298  1.00  0.00     0.251 C 
ATOM     31  H   UNL     1       1.476  -2.044   3.369  1.00  0.00     0.163 HD
ATOM     32  O   UNL     1       2.317  -2.390   5.612  1.00  0.00    -0.269 OA
BRANCH  30  33
ATOM     33  C   UNL     1       0.115  -2.819   6.315  1.00  0.00     0.039 A 
ATOM     34  C   UNL     1       0.134  -2.144   7.538  1.00  0.00     0.014 A 
ATOM     35  C   UNL     1      -0.876  -3.768   6.049  1.00  0.00     0.014 A 
ATOM     36  C   UNL     1      -0.889  -2.362   8.464  1.00  0.00     0.010 A 
ATOM     37  C   UNL     1      -1.931  -3.932   6.942  1.00  0.00     0.010 A 
ATOM     38  C   UNL     1      -1.952  -3.226   8.154  1.00  0.00    -0.014 A 
BRANCH  38  39
ATOM     39  C   UNL     1      -3.104  -3.398   9.074  1.00  0.00     0.031 A 
ATOM     40  C   UNL     1      -3.374  -4.738   9.699  1.00  0.00     0.074 A 
ATOM     41  C   UNL     1      -3.955  -2.373   9.277  1.00  0.00     0.049 A 
ATOM     42  N   UNL     1      -4.386  -5.117  10.436  1.00  0.00    -0.248 NA
ATOM     43  C   UNL     1      -2.392  -5.802   9.433  1.00  0.00     0.031 C 
ATOM     44  C   UNL     1      -3.834  -1.039   8.682  1.00  0.00     0.029 A 
ATOM     45  N   UNL     1      -5.100  -2.296  10.029  1.00  0.00    -0.354 N 
ATOM     46  C   UNL     1      -4.180  -6.466  10.697  1.00  0.00     0.074 A 
ATOM     47  C   UNL     1      -2.965  -6.849  10.009  1.00  0.00     0.031 C 
ATOM     48  C   UNL     1      -4.853  -0.273   9.107  1.00  0.00     0.029 A 
ATOM     49  C   UNL     1      -5.714  -1.067   9.977  1.00  0.00     0.049 A 
ATOM     50  H   UNL     1      -5.449  -3.050  10.557  1.00  0.00     0.167 HD
ATOM     51  C   UNL     1      -4.925  -7.306  11.455  1.00  0.00     0.037 A 
ATOM     52  C   UNL     1      -6.846  -0.631  10.562  1.00  0.00     0.037 A 
ATOM     53  C   UNL     1      -6.107  -6.912  12.174  1.00  0.00     0.049 A 
ATOM     54  C   UNL     1      -7.629  -1.567  11.440  1.00  0.00     0.074 A 
ATOM     55  C   UNL     1      -6.896  -7.673  13.018  1.00  0.00     0.029 A 
ATOM     56  N   UNL     1      -6.665  -5.643  12.140  1.00  0.00    -0.354 N 
ATOM     57  N   UNL     1      -7.393  -2.828  11.713  1.00  0.00    -0.248 NA
ATOM     58  C   UNL     1      -8.827  -1.022  12.092  1.00  0.00     0.031 C 
ATOM     59  C   UNL     1      -7.943  -6.868  13.482  1.00  0.00     0.029 A 
ATOM     60  C   UNL     1      -7.790  -5.599  12.947  1.00  0.00     0.049 A 
ATOM     61  H   UNL     1      -6.314  -4.885  11.619  1.00  0.00     0.167 HD
ATOM     62  C   UNL     1      -8.400  -3.221  12.586  1.00  0.00     0.074 A 
ATOM     63  C   UNL     1      -9.243  -2.062  12.802  1.00  0.00     0.031 C 
ATOM     64  C   UNL     1      -8.608  -4.432  13.158  1.00  0.00     0.037 A 
BRANCH  51  65
ATOM     65  C   UNL     1      -4.468  -8.734  11.550  1.00  0.00     0.058 A 
ATOM     66  C   UNL     1      -3.336  -9.093  12.299  1.00  0.00     0.135 A 
ATOM     67  C   UNL     1      -5.172  -9.755  10.892  1.00  0.00     0.135 A 
ATOM     68  F   UNL     1      -2.619  -8.152  12.932  1.00  0.00    -0.206 F 
ATOM     69  C   UNL     1      -2.896 -10.410  12.363  1.00  0.00     0.059 A 
ATOM     70  C   UNL     1      -4.763 -11.084  10.962  1.00  0.00     0.059 A 
ATOM     71  F   UNL     1      -6.260  -9.465  10.162  1.00  0.00    -0.206 F 
ATOM     72  C   UNL     1      -3.612 -11.398  11.685  1.00  0.00     0.060 A 
BRANCH  72  73
ATOM     73  S   UNL     1      -3.023 -13.103  11.763  1.00  0.00     0.124 S 
ATOM     74  O   UNL     1      -1.930 -13.075  10.796  1.00  0.00    -0.237 OA
ATOM     75  O   UNL     1      -2.628 -13.239  13.161  1.00  0.00    -0.237 OA
ATOM     76  O   UNL     1      -4.193 -13.882  11.367  1.00  0.00    -0.744 OA
ENDBRANCH  72  73
ENDBRANCH  51  65
BRANCH  52  77
ATOM     77  C   UNL     1      -7.288   0.773  10.364  1.00  0.00     0.058 A 
ATOM     78  C   UNL     1      -7.136   1.721  11.387  1.00  0.00     0.135 A 
ATOM     79  C   UNL     1      -7.847   1.200   9.151  1.00  0.00     0.135 A 
ATOM     80  F   UNL     1      -6.610   1.356  12.566  1.00  0.00    -0.206 F 
ATOM     81  C   UNL     1      -7.536   3.042  11.220  1.00  0.00     0.059 A 
ATOM     82  C   UNL     1      -8.237   2.521   8.953  1.00  0.00     0.059 A 
ATOM     83  F   UNL     1      -7.996   0.333   8.137  1.00  0.00    -0.206 F 
ATOM     84  C   UNL     1      -8.085   3.433   9.997  1.00  0.00     0.060 A 
BRANCH  84  85
ATOM     85  S   UNL     1      -8.550   5.163   9.768  1.00  0.00     0.124 S 
ATOM     86  O   UNL     1      -9.820   5.222  10.481  1.00  0.00    -0.237 OA
ATOM     87  O   UNL     1      -7.435   5.870  10.390  1.00  0.00    -0.237 OA
ATOM     88  O   UNL     1      -8.631   5.296   8.316  1.00  0.00    -0.744 OA
ENDBRANCH  84  85
ENDBRANCH  52  77
BRANCH  64  89
ATOM     89  C   UNL     1      -9.774  -4.558  14.094  1.00  0.00     0.058 A 
ATOM     90  C   UNL     1     -11.089  -4.668  13.617  1.00  0.00     0.135 A 
ATOM     91  C   UNL     1      -9.568  -4.618  15.481  1.00  0.00     0.135 A 
ATOM     92  F   UNL     1     -11.336  -4.609  12.299  1.00  0.00    -0.206 F 
ATOM     93  C   UNL     1     -12.164  -4.817  14.486  1.00  0.00     0.059 A 
ATOM     94  C   UNL     1     -10.626  -4.784  16.367  1.00  0.00     0.059 A 
ATOM     95  F   UNL     1      -8.327  -4.524  15.985  1.00  0.00    -0.206 F 
ATOM     96  C   UNL     1     -11.923  -4.873  15.861  1.00  0.00     0.060 A 
BRANCH  96  97
ATOM     97  S   UNL     1     -13.319  -5.104  16.982  1.00  0.00     0.124 S 
ATOM     98  O   UNL     1     -13.871  -3.754  17.045  1.00  0.00    -0.237 OA
ATOM     99  O   UNL     1     -14.133  -6.089  16.276  1.00  0.00    -0.237 OA
ATOM    100  O   UNL     1     -12.691  -5.585  18.208  1.00  0.00    -0.744 OA
ENDBRANCH  96  97
ENDBRANCH  64  89
ENDBRANCH  38  39
ENDBRANCH  30  33
ENDBRANCH  28  29
ENDBRANCH   1  28
TORSDOF 16
