REMARK SMILES O=C(NCCCCNC(=O)c1cc(-c2cccc(Cl)c2)oc1C(F)(F)F)c1ccc(-c2c3nc(c(-c4c(F)cc(S(=O)(=O)[O-])cc4F)c4ccc([nH]4)c(-c4c(F)cc(S(=O)(=O)[O-])cc4F)c4nc(c(-c5c(F)cc(S(=O)(=O)[O-])cc5F)c5ccc2[nH]5)C=C4)C=C3)cc1
REMARK SMILES IDX 4 1 3 2 1 3 2 4 27 6 28 7 92 8 29 9 91 10 30 11 31 12 32 13
REMARK SMILES IDX 85 14 33 15 90 16 84 17 86 18 34 19 89 20 83 21 82 22 35 24
REMARK SMILES IDX 69 25 48 26 68 27 49 28 52 29 67 30 87 31 50 32 51 33 66 35
REMARK SMILES IDX 88 36 53 37 36 38 37 39 46 40 38 41 39 42 45 43 47 44 40 45
REMARK SMILES IDX 41 46 42 47 43 48 44 49 70 50 71 51 80 52 72 53 73 54 79 55
REMARK SMILES IDX 81 56 74 57 75 58 76 59 77 60 78 61 54 62 55 63 64 64 56 65
REMARK SMILES IDX 57 66 63 67 65 68 58 69 59 70 60 71 61 72 62 73 5 74 6 75
REMARK SMILES IDX 7 76 8 77 9 78 10 80 11 81 12 82 22 83 13 84 21 85 23 86
REMARK SMILES IDX 24 87 25 88 26 89 14 90 15 91 20 92 16 93 18 94 17 95 19 96
REMARK H PARENT 3 5 86 23 52 34 8 79
REMARK Flexibility Score: inf
ROOT
ATOM      1  C   UNL     1       4.587  -0.837   0.736  1.00  0.00     0.116 C 
ENDROOT
BRANCH   1   2
ATOM      2  N   UNL     1       3.151  -0.874   0.508  1.00  0.00    -0.352 N 
ATOM      3  O   UNL     1       1.123  -0.080  -0.070  1.00  0.00    -0.269 OA
ATOM      4  C   UNL     1       2.342   0.059  -0.097  1.00  0.00     0.251 C 
ATOM      5  H   UNL     1       2.693  -1.683   0.832  1.00  0.00     0.163 HD
BRANCH   4   6
ATOM      6  C   UNL     1       2.946   1.241  -0.749  1.00  0.00     0.039 A 
ATOM      7  C   UNL     1       4.045   1.103  -1.601  1.00  0.00     0.014 A 
ATOM      8  C   UNL     1       2.409   2.504  -0.491  1.00  0.00     0.014 A 
ATOM      9  C   UNL     1       4.697   2.237  -2.078  1.00  0.00     0.010 A 
ATOM     10  C   UNL     1       3.015   3.636  -1.039  1.00  0.00     0.010 A 
ATOM     11  C   UNL     1       4.184   3.515  -1.809  1.00  0.00    -0.014 A 
BRANCH  11  12
ATOM     12  C   UNL     1       4.847   4.719  -2.369  1.00  0.00     0.031 A 
ATOM     13  C   UNL     1       5.447   5.758  -1.463  1.00  0.00     0.074 A 
ATOM     14  C   UNL     1       4.882   4.884  -3.705  1.00  0.00     0.049 A 
ATOM     15  N   UNL     1       5.988   6.909  -1.772  1.00  0.00    -0.248 NA
ATOM     16  C   UNL     1       5.430   5.471  -0.021  1.00  0.00     0.031 C 
ATOM     17  C   UNL     1       4.336   3.942  -4.684  1.00  0.00     0.029 A 
ATOM     18  N   UNL     1       5.387   5.904  -4.471  1.00  0.00    -0.354 N 
ATOM     19  C   UNL     1       6.353   7.496  -0.566  1.00  0.00     0.074 A 
ATOM     20  C   UNL     1       5.947   6.583   0.483  1.00  0.00     0.031 C 
ATOM     21  C   UNL     1       4.543   4.420  -5.919  1.00  0.00     0.029 A 
ATOM     22  C   UNL     1       5.175   5.732  -5.818  1.00  0.00     0.049 A 
ATOM     23  H   UNL     1       5.855   6.683  -4.093  1.00  0.00     0.167 HD
ATOM     24  C   UNL     1       6.971   8.684  -0.356  1.00  0.00     0.037 A 
ATOM     25  C   UNL     1       5.423   6.551  -6.858  1.00  0.00     0.037 A 
ATOM     26  C   UNL     1       7.366   9.583  -1.412  1.00  0.00     0.049 A 
ATOM     27  C   UNL     1       6.067   7.882  -6.601  1.00  0.00     0.074 A 
ATOM     28  C   UNL     1       8.024  10.796  -1.308  1.00  0.00     0.029 A 
ATOM     29  N   UNL     1       7.130   9.374  -2.764  1.00  0.00    -0.354 N 
ATOM     30  N   UNL     1       6.430   8.412  -5.457  1.00  0.00    -0.248 NA
ATOM     31  C   UNL     1       6.338   8.727  -7.771  1.00  0.00     0.031 C 
ATOM     32  C   UNL     1       8.131  11.347  -2.589  1.00  0.00     0.029 A 
ATOM     33  C   UNL     1       7.605  10.447  -3.502  1.00  0.00     0.049 A 
ATOM     34  H   UNL     1       6.689   8.579  -3.144  1.00  0.00     0.167 HD
ATOM     35  C   UNL     1       7.003   9.639  -5.771  1.00  0.00     0.074 A 
ATOM     36  C   UNL     1       6.937   9.772  -7.213  1.00  0.00     0.031 C 
ATOM     37  C   UNL     1       7.544  10.563  -4.939  1.00  0.00     0.037 A 
BRANCH  24  38
ATOM     38  C   UNL     1       7.220   9.099   1.071  1.00  0.00     0.058 A 
ATOM     39  C   UNL     1       8.146   8.432   1.891  1.00  0.00     0.135 A 
ATOM     40  C   UNL     1       6.529  10.190   1.625  1.00  0.00     0.135 A 
ATOM     41  F   UNL     1       8.830   7.377   1.420  1.00  0.00    -0.206 F 
ATOM     42  C   UNL     1       8.340   8.800   3.219  1.00  0.00     0.059 A 
ATOM     43  C   UNL     1       6.732  10.596   2.942  1.00  0.00     0.059 A 
ATOM     44  F   UNL     1       5.637  10.871   0.888  1.00  0.00    -0.206 F 
ATOM     45  C   UNL     1       7.622   9.879   3.738  1.00  0.00     0.060 A 
BRANCH  45  46
ATOM     46  S   UNL     1       7.856  10.318   5.473  1.00  0.00     0.124 S 
ATOM     47  O   UNL     1       7.175   9.215   6.145  1.00  0.00    -0.237 OA
ATOM     48  O   UNL     1       9.310  10.333   5.599  1.00  0.00    -0.237 OA
ATOM     49  O   UNL     1       7.205  11.619   5.587  1.00  0.00    -0.744 OA
ENDBRANCH  45  46
ENDBRANCH  24  38
BRANCH  25  50
ATOM     50  C   UNL     1       5.049   6.116  -8.229  1.00  0.00     0.058 A 
ATOM     51  C   UNL     1       6.027   5.755  -9.165  1.00  0.00     0.135 A 
ATOM     52  C   UNL     1       3.701   5.986  -8.604  1.00  0.00     0.135 A 
ATOM     53  F   UNL     1       7.327   5.867  -8.854  1.00  0.00    -0.206 F 
ATOM     54  C   UNL     1       5.685   5.276 -10.425  1.00  0.00     0.059 A 
ATOM     55  C   UNL     1       3.334   5.483  -9.847  1.00  0.00     0.059 A 
ATOM     56  F   UNL     1       2.728   6.301  -7.736  1.00  0.00    -0.206 F 
ATOM     57  C   UNL     1       4.335   5.133 -10.753  1.00  0.00     0.060 A 
BRANCH  57  58
ATOM     58  S   UNL     1       3.906   4.429 -12.359  1.00  0.00     0.124 S 
ATOM     59  O   UNL     1       4.276   5.511 -13.263  1.00  0.00    -0.237 OA
ATOM     60  O   UNL     1       4.751   3.240 -12.405  1.00  0.00    -0.237 OA
ATOM     61  O   UNL     1       2.474   4.166 -12.240  1.00  0.00    -0.744 OA
ENDBRANCH  57  58
ENDBRANCH  25  50
BRANCH  37  62
ATOM     62  C   UNL     1       8.164  11.785  -5.561  1.00  0.00     0.058 A 
ATOM     63  C   UNL     1       7.389  12.813  -6.120  1.00  0.00     0.135 A 
ATOM     64  C   UNL     1       9.557  11.962  -5.521  1.00  0.00     0.135 A 
ATOM     65  F   UNL     1       6.054  12.690  -6.195  1.00  0.00    -0.206 F 
ATOM     66  C   UNL     1       7.974  13.970  -6.624  1.00  0.00     0.059 A 
ATOM     67  C   UNL     1      10.161  13.123  -5.992  1.00  0.00     0.059 A 
ATOM     68  F   UNL     1      10.344  11.012  -4.992  1.00  0.00    -0.206 F 
ATOM     69  C   UNL     1       9.361  14.120  -6.547  1.00  0.00     0.060 A 
BRANCH  69  70
ATOM     70  S   UNL     1      10.101  15.655  -7.144  1.00  0.00     0.124 S 
ATOM     71  O   UNL     1       9.957  15.509  -8.588  1.00  0.00    -0.237 OA
ATOM     72  O   UNL     1       9.257  16.670  -6.522  1.00  0.00    -0.237 OA
ATOM     73  O   UNL     1      11.470  15.592  -6.640  1.00  0.00    -0.744 OA
ENDBRANCH  69  70
ENDBRANCH  37  62
ENDBRANCH  11  12
ENDBRANCH   4   6
ENDBRANCH   1   2
BRANCH   1  74
ATOM     74  C   UNL     1       4.958  -0.981   2.207  1.00  0.00     0.023 C 
BRANCH  74  75
ATOM     75  C   UNL     1       4.500  -2.280   2.865  1.00  0.00     0.023 C 
BRANCH  75  76
ATOM     76  C   UNL     1       4.900  -3.552   2.124  1.00  0.00     0.116 C 
BRANCH  76  77
ATOM     77  N   UNL     1       6.344  -3.724   2.045  1.00  0.00    -0.352 N 
ATOM     78  C   UNL     1       7.126  -4.718   2.575  1.00  0.00     0.255 C 
ATOM     79  H   UNL     1       6.827  -3.030   1.540  1.00  0.00     0.163 HD
ATOM     80  O   UNL     1       8.349  -4.653   2.513  1.00  0.00    -0.269 OA
BRANCH  78  81
ATOM     81  C   UNL     1       6.451  -5.833   3.197  1.00  0.00     0.091 A 
ATOM     82  C   UNL     1       5.458  -6.681   2.636  1.00  0.00     0.065 A 
ATOM     83  C   UNL     1       6.660  -6.285   4.488  1.00  0.00     0.221 A 
ATOM     84  C   UNL     1       5.016  -7.492   3.653  1.00  0.00     0.135 A 
ATOM     85  O   UNL     1       5.748  -7.274   4.780  1.00  0.00    -0.451 OA
BRANCH  83  86
ATOM     86  C   UNL     1       7.591  -5.881   5.572  1.00  0.00     0.450 C 
ATOM     87  F   UNL     1       6.927  -5.617   6.730  1.00  0.00    -0.163 F 
ATOM     88  F   UNL     1       8.492  -6.858   5.855  1.00  0.00    -0.163 F 
ATOM     89  F   UNL     1       8.299  -4.762   5.281  1.00  0.00    -0.163 F 
ENDBRANCH  83  86
BRANCH  84  90
ATOM     90  C   UNL     1       3.940  -8.459   3.731  1.00  0.00     0.019 A 
ATOM     91  C   UNL     1       3.830  -9.458   2.754  1.00  0.00     0.012 A 
ATOM     92  C   UNL     1       2.946  -8.342   4.710  1.00  0.00     0.032 A 
ATOM     93  C   UNL     1       2.738 -10.326   2.748  1.00  0.00     0.002 A 
ATOM     94  C   UNL     1       1.849  -9.203   4.689  1.00  0.00     0.041 A 
ATOM     95  C   UNL     1       1.741 -10.193   3.713  1.00  0.00     0.020 A 
ATOM     96  Cl  UNL     1       0.600  -9.025   5.859  1.00  0.00    -0.084 Cl
ENDBRANCH  84  90
ENDBRANCH  78  81
ENDBRANCH  76  77
ENDBRANCH  75  76
ENDBRANCH  74  75
ENDBRANCH   1  74
TORSDOF 16
