REMARK SMILES COCCCC(=O)N[C@H]1CC[C@@H](C(=O)NCCCCNC(=O)c2ccc(-c3c4nc(c(-c5c(F)cc(S(=O)(=O)[O-])cc5F)c5ccc([nH]5)c(-c5c(F)cc(S(=O)(=O)[O-])cc5F)c5nc(c(-c6c(F)cc(S(=O)(=O)[O-])cc6F)c6ccc3[nH]6)C=C5)C=C4)cc2)CC1
REMARK SMILES IDX 16 1 15 2 13 3 14 4 12 6 9 7 10 8 90 9 11 10 89 11 8 12 6 13
REMARK SMILES IDX 7 14 5 16 4 17 3 18 2 19 1 20 17 21 18 22 19 23 20 24 21 25
REMARK SMILES IDX 22 27 23 28 24 29 88 30 25 31 87 32 26 33 27 34 28 35 81 36
REMARK SMILES IDX 29 37 86 38 80 39 82 40 30 41 85 42 79 43 78 44 31 46 65 47
REMARK SMILES IDX 44 48 64 49 45 50 48 51 63 52 83 53 46 54 47 55 62 57 84 58
REMARK SMILES IDX 49 59 32 60 33 61 42 62 34 63 35 64 41 65 43 66 36 67 37 68
REMARK SMILES IDX 38 69 39 70 40 71 66 72 67 73 76 74 68 75 69 76 75 77 77 78
REMARK SMILES IDX 70 79 71 80 72 81 73 82 74 83 50 84 51 85 60 86 52 87 53 88
REMARK SMILES IDX 59 89 61 90 54 91 55 92 56 93 57 94 58 95
REMARK H PARENT 15 5 8 15 20 26 82 45 48 56
REMARK Flexibility Score: inf
ROOT
ATOM      1  C   UNL     1       3.212   1.652   3.608  1.00  0.00     0.116 C 
ENDROOT
BRANCH   1   2
ATOM      2  N   UNL     1       2.725   2.979   3.878  1.00  0.00    -0.356 N 
ATOM      3  C   UNL     1       2.086   3.867   3.075  1.00  0.00     0.223 C 
ATOM      4  O   UNL     1       1.549   4.827   3.642  1.00  0.00    -0.275 OA
ATOM      5  H   UNL     1       2.882   3.296   4.797  1.00  0.00     0.163 HD
BRANCH   3   6
ATOM      6  C   UNL     1       1.970   3.752   1.540  1.00  0.00     0.078 C 
ATOM      7  C   UNL     1       2.549   1.056   0.209  1.00  0.00     0.082 C 
ATOM      8  C   UNL     1       1.208   1.410   0.859  1.00  0.00     0.026 C 
ATOM      9  C   UNL     1       3.615   2.186   0.242  1.00  0.00     0.026 C 
ATOM     10  C   UNL     1       0.851   2.876   1.007  1.00  0.00     0.015 C 
ATOM     11  C   UNL     1       3.246   3.587   0.732  1.00  0.00     0.015 C 
BRANCH   7  12
ATOM     12  N   UNL     1       3.181  -0.139   0.822  1.00  0.00    -0.353 N 
ATOM     13  C   UNL     1       2.775  -1.305   1.373  1.00  0.00     0.220 C 
ATOM     14  O   UNL     1       3.610  -1.877   2.078  1.00  0.00    -0.275 OA
ATOM     15  H   UNL     1       4.162  -0.061   0.830  1.00  0.00     0.163 HD
BRANCH  13  16
ATOM     16  C   UNL     1       1.416  -1.908   1.146  1.00  0.00     0.102 C 
BRANCH  16  17
ATOM     17  C   UNL     1       0.376  -1.607   2.227  1.00  0.00     0.038 C 
BRANCH  17  18
ATOM     18  C   UNL     1      -0.968  -1.075   1.714  1.00  0.00     0.160 C 
BRANCH  18  19
ATOM     19  O   UNL     1      -1.415  -1.779   0.558  1.00  0.00    -0.385 OA
ATOM     20  C   UNL     1      -1.366  -1.012  -0.640  1.00  0.00     0.194 C 
ENDBRANCH  18  19
ENDBRANCH  17  18
ENDBRANCH  16  17
ENDBRANCH  13  16
ENDBRANCH   7  12
ENDBRANCH   3   6
ENDBRANCH   1   2
BRANCH   1  21
ATOM     21  C   UNL     1       4.718   1.477   3.742  1.00  0.00     0.023 C 
BRANCH  21  22
ATOM     22  C   UNL     1       5.162   0.898   5.079  1.00  0.00     0.023 C 
BRANCH  22  23
ATOM     23  C   UNL     1       4.578  -0.468   5.435  1.00  0.00     0.116 C 
BRANCH  23  24
ATOM     24  N   UNL     1       4.928  -1.550   4.521  1.00  0.00    -0.352 N 
ATOM     25  C   UNL     1       5.463  -2.786   4.819  1.00  0.00     0.251 C 
ATOM     26  H   UNL     1       4.761  -1.375   3.567  1.00  0.00     0.163 HD
ATOM     27  O   UNL     1       5.793  -3.578   3.941  1.00  0.00    -0.269 OA
BRANCH  25  28
ATOM     28  C   UNL     1       5.676  -3.138   6.234  1.00  0.00     0.039 A 
ATOM     29  C   UNL     1       6.945  -3.545   6.645  1.00  0.00     0.014 A 
ATOM     30  C   UNL     1       4.647  -2.955   7.161  1.00  0.00     0.014 A 
ATOM     31  C   UNL     1       7.216  -3.653   8.008  1.00  0.00     0.010 A 
ATOM     32  C   UNL     1       4.948  -2.961   8.516  1.00  0.00     0.010 A 
ATOM     33  C   UNL     1       6.239  -3.297   8.953  1.00  0.00    -0.014 A 
BRANCH  33  34
ATOM     34  C   UNL     1       6.551  -3.243  10.403  1.00  0.00     0.031 A 
ATOM     35  C   UNL     1       5.788  -4.110  11.365  1.00  0.00     0.074 A 
ATOM     36  C   UNL     1       7.455  -2.351  10.857  1.00  0.00     0.049 A 
ATOM     37  N   UNL     1       5.844  -4.140  12.671  1.00  0.00    -0.248 NA
ATOM     38  C   UNL     1       4.801  -5.036  10.786  1.00  0.00     0.031 C 
ATOM     39  C   UNL     1       8.204  -1.402  10.028  1.00  0.00     0.029 A 
ATOM     40  N   UNL     1       7.892  -2.088  12.131  1.00  0.00    -0.354 N 
ATOM     41  C   UNL     1       4.885  -5.064  13.068  1.00  0.00     0.074 A 
ATOM     42  C   UNL     1       4.221  -5.529  11.870  1.00  0.00     0.031 C 
ATOM     43  C   UNL     1       9.030  -0.687  10.809  1.00  0.00     0.029 A 
ATOM     44  C   UNL     1       8.844  -1.097  12.197  1.00  0.00     0.049 A 
ATOM     45  H   UNL     1       7.556  -2.564  12.924  1.00  0.00     0.167 HD
ATOM     46  C   UNL     1       4.604  -5.509  14.315  1.00  0.00     0.037 A 
ATOM     47  C   UNL     1       9.494  -0.578  13.257  1.00  0.00     0.037 A 
ATOM     48  C   UNL     1       5.305  -5.079  15.495  1.00  0.00     0.049 A 
ATOM     49  C   UNL     1       9.198  -1.122  14.628  1.00  0.00     0.074 A 
ATOM     50  C   UNL     1       5.151  -5.521  16.797  1.00  0.00     0.029 A 
ATOM     51  N   UNL     1       6.299  -4.111  15.514  1.00  0.00    -0.354 N 
ATOM     52  N   UNL     1       8.336  -2.047  14.978  1.00  0.00    -0.248 NA
ATOM     53  C   UNL     1       9.966  -0.559  15.747  1.00  0.00     0.031 C 
ATOM     54  C   UNL     1       6.033  -4.800  17.609  1.00  0.00     0.029 A 
ATOM     55  C   UNL     1       6.762  -3.935  16.807  1.00  0.00     0.049 A 
ATOM     56  H   UNL     1       6.627  -3.622  14.725  1.00  0.00     0.167 HD
ATOM     57  C   UNL     1       8.475  -2.195  16.353  1.00  0.00     0.074 A 
ATOM     58  C   UNL     1       9.512  -1.272  16.769  1.00  0.00     0.031 C 
ATOM     59  C   UNL     1       7.804  -3.018  17.196  1.00  0.00     0.037 A 
BRANCH  46  60
ATOM     60  C   UNL     1       3.505  -6.525  14.457  1.00  0.00     0.058 A 
ATOM     61  C   UNL     1       3.658  -7.842  13.994  1.00  0.00     0.135 A 
ATOM     62  C   UNL     1       2.291  -6.183  15.072  1.00  0.00     0.135 A 
ATOM     63  F   UNL     1       4.792  -8.216  13.381  1.00  0.00    -0.206 F 
ATOM     64  C   UNL     1       2.632  -8.775  14.103  1.00  0.00     0.059 A 
ATOM     65  C   UNL     1       1.262  -7.109  15.219  1.00  0.00     0.059 A 
ATOM     66  F   UNL     1       2.091  -4.938  15.531  1.00  0.00    -0.206 F 
ATOM     67  C   UNL     1       1.436  -8.398  14.715  1.00  0.00     0.060 A 
BRANCH  67  68
ATOM     68  S   UNL     1       0.114  -9.619  14.850  1.00  0.00     0.124 S 
ATOM     69  O   UNL     1      -0.386  -9.657  13.479  1.00  0.00    -0.237 OA
ATOM     70  O   UNL     1       0.831 -10.810  15.295  1.00  0.00    -0.237 OA
ATOM     71  O   UNL     1      -0.791  -9.032  15.832  1.00  0.00    -0.744 OA
ENDBRANCH  67  68
ENDBRANCH  46  60
BRANCH  47  72
ATOM     72  C   UNL     1      10.512   0.488  13.059  1.00  0.00     0.058 A 
ATOM     73  C   UNL     1      11.879   0.214  13.214  1.00  0.00     0.135 A 
ATOM     74  C   UNL     1      10.144   1.792  12.696  1.00  0.00     0.135 A 
ATOM     75  F   UNL     1      12.280  -1.018  13.565  1.00  0.00    -0.206 F 
ATOM     76  C   UNL     1      12.846   1.198  13.034  1.00  0.00     0.059 A 
ATOM     77  C   UNL     1      11.094   2.788  12.487  1.00  0.00     0.059 A 
ATOM     78  F   UNL     1       8.851   2.101  12.516  1.00  0.00    -0.206 F 
ATOM     79  C   UNL     1      12.443   2.483  12.669  1.00  0.00     0.060 A 
BRANCH  79  80
ATOM     80  S   UNL     1      13.708   3.742  12.389  1.00  0.00     0.124 S 
ATOM     81  O   UNL     1      14.111   4.062  13.753  1.00  0.00    -0.237 OA
ATOM     82  O   UNL     1      14.690   3.019  11.586  1.00  0.00    -0.237 OA
ATOM     83  O   UNL     1      12.983   4.793  11.680  1.00  0.00    -0.744 OA
ENDBRANCH  79  80
ENDBRANCH  47  72
BRANCH  59  84
ATOM     84  C   UNL     1       8.192  -2.984  18.646  1.00  0.00     0.058 A 
ATOM     85  C   UNL     1       7.818  -1.921  19.482  1.00  0.00     0.135 A 
ATOM     86  C   UNL     1       8.894  -4.057  19.218  1.00  0.00     0.135 A 
ATOM     87  F   UNL     1       7.151  -0.870  18.981  1.00  0.00    -0.206 F 
ATOM     88  C   UNL     1       8.144  -1.915  20.834  1.00  0.00     0.059 A 
ATOM     89  C   UNL     1       9.209  -4.082  20.572  1.00  0.00     0.059 A 
ATOM     90  F   UNL     1       9.265  -5.102  18.461  1.00  0.00    -0.206 F 
ATOM     91  C   UNL     1       8.838  -3.001  21.370  1.00  0.00     0.060 A 
BRANCH  91  92
ATOM     92  S   UNL     1       9.220  -3.000  23.134  1.00  0.00     0.124 S 
ATOM     93  O   UNL     1      10.331  -2.055  23.194  1.00  0.00    -0.237 OA
ATOM     94  O   UNL     1       7.967  -2.543  23.727  1.00  0.00    -0.237 OA
ATOM     95  O   UNL     1       9.564  -4.392  23.407  1.00  0.00    -0.744 OA
ENDBRANCH  91  92
ENDBRANCH  59  84
ENDBRANCH  33  34
ENDBRANCH  25  28
ENDBRANCH  23  24
ENDBRANCH  22  23
ENDBRANCH  21  22
ENDBRANCH   1  21
TORSDOF 19
