REMARK SMILES N#Cc1cccnc1N1CC[NH+]([C@@H](C(=O)NCCCCNC(=O)c2ccc(-c3c4nc(c(-c5c(F)cc(S(=O)(=O)[O-])cc5F)c5ccc([nH]5)c(-c5c(F)cc(S(=O)(=O)[O-])cc5F)c5nc(c(-c6c(F)cc(S(=O)(=O)[O-])cc6F)c6ccc3[nH]6)C=C5)C=C4)cc2)c2c[nH]c3cc(CO)ccc23)CC1
REMARK SMILES IDX 18 1 17 2 16 3 14 4 15 5 13 7 12 8 9 9 10 10 102 11 11 12
REMARK SMILES IDX 101 13 8 15 3 16 4 17 5 18 7 19 6 20 2 21 1 22 90 23 91 24
REMARK SMILES IDX 100 25 92 26 93 27 99 28 94 30 98 31 95 32 96 33 97 34 19 36
REMARK SMILES IDX 20 37 21 38 22 39 23 41 24 42 25 43 89 44 26 45 88 46 27 47
REMARK SMILES IDX 28 48 29 49 82 50 30 51 87 52 81 53 83 54 31 55 86 56 80 57
REMARK SMILES IDX 79 58 32 60 66 61 45 62 65 63 46 64 49 65 64 66 84 67 47 68
REMARK SMILES IDX 48 69 63 71 85 72 50 73 33 74 34 75 43 76 35 77 36 78 42 79
REMARK SMILES IDX 44 80 37 81 38 82 39 83 40 84 41 85 67 86 68 87 77 88 69 89
REMARK SMILES IDX 70 90 76 91 78 92 71 93 72 94 73 95 74 96 75 97 51 98 52 99
REMARK SMILES IDX 61 100 53 101 54 102 60 103 62 104 55 105 56 106 57 107
REMARK SMILES IDX 58 108 59 109
REMARK H PARENT 16 6 12 14 92 29 97 35 21 40 83 59 49 70
REMARK Flexibility Score: inf
ROOT
ATOM      1  C   UNL     1       2.151  -3.374   3.115  1.00  0.00     0.023 C 
ENDROOT
BRANCH   1   2
ATOM      2  C   UNL     1       1.363  -4.669   2.767  1.00  0.00     0.116 C 
BRANCH   2   3
ATOM      3  N   UNL     1       0.099  -4.498   2.053  1.00  0.00    -0.351 N 
ATOM      4  C   UNL     1      -0.401  -4.801   0.807  1.00  0.00     0.283 C 
ATOM      5  O   UNL     1      -1.614  -4.585   0.709  1.00  0.00    -0.268 OA
ATOM      6  H   UNL     1      -0.574  -4.047   2.612  1.00  0.00     0.163 HD
BRANCH   4   7
ATOM      7  C   UNL     1       0.447  -5.409  -0.351  1.00  0.00     0.307 C 
BRANCH   7   8
ATOM      8  N   UNL     1       1.432  -4.491  -1.066  1.00  0.00    -0.318 N 
ATOM      9  N   UNL     1       0.668  -1.611  -1.061  1.00  0.00    -0.344 N 
ATOM     10  C   UNL     1       0.009  -2.578  -1.947  1.00  0.00     0.179 C 
ATOM     11  C   UNL     1       1.330  -2.218   0.105  1.00  0.00     0.179 C 
ATOM     12  C   UNL     1       0.995  -3.715  -2.248  1.00  0.00     0.284 C 
ATOM     13  C   UNL     1       2.130  -3.507  -0.238  1.00  0.00     0.284 C 
ATOM     14  H   UNL     1       2.030  -5.259  -1.370  1.00  0.00     0.349 HD
BRANCH   9  15
ATOM     15  C   UNL     1      -0.109  -0.486  -0.738  1.00  0.00     0.146 A 
ATOM     16  C   UNL     1       0.484   0.733  -0.385  1.00  0.00     0.095 A 
ATOM     17  C   UNL     1      -0.326   1.799   0.022  1.00  0.00     0.025 A 
ATOM     18  C   UNL     1      -1.704   1.636   0.063  1.00  0.00     0.022 A 
ATOM     19  N   UNL     1      -1.459  -0.627  -0.731  1.00  0.00    -0.238 NA
ATOM     20  C   UNL     1      -2.221   0.416  -0.326  1.00  0.00     0.113 A 
BRANCH  16  21
ATOM     21  C   UNL     1       1.908   0.918  -0.454  1.00  0.00     0.103 C 
ATOM     22  N   UNL     1       3.052   1.058  -0.481  1.00  0.00    -0.192 NA
ENDBRANCH  16  21
ENDBRANCH   9  15
ENDBRANCH   7   8
BRANCH   7  23
ATOM     23  C   UNL     1      -0.354  -6.180  -1.440  1.00  0.00     0.044 A 
ATOM     24  C   UNL     1       0.135  -7.274  -2.147  1.00  0.00     0.094 A 
ATOM     25  C   UNL     1      -1.466  -5.740  -2.250  1.00  0.00     0.009 A 
ATOM     26  N   UNL     1      -0.069  -6.940  -3.471  1.00  0.00    -0.361 N 
ATOM     27  C   UNL     1      -1.017  -5.945  -3.558  1.00  0.00     0.046 A 
ATOM     28  C   UNL     1      -2.615  -4.948  -2.075  1.00  0.00     0.011 A 
ATOM     29  H   UNL     1       0.393  -7.350  -4.237  1.00  0.00     0.166 HD
ATOM     30  C   UNL     1      -1.401  -5.103  -4.617  1.00  0.00     0.032 A 
ATOM     31  C   UNL     1      -3.106  -4.201  -3.150  1.00  0.00     0.007 A 
ATOM     32  C   UNL     1      -2.403  -4.151  -4.358  1.00  0.00    -0.021 A 
BRANCH  32  33
ATOM     33  C   UNL     1      -2.687  -3.039  -5.339  1.00  0.00     0.191 C 
BRANCH  33  34
ATOM     34  O   UNL     1      -2.628  -1.755  -4.719  1.00  0.00    -0.392 OA
ATOM     35  H   UNL     1      -3.299  -1.702  -4.020  1.00  0.00     0.211 HD
ENDBRANCH  33  34
ENDBRANCH  32  33
ENDBRANCH   7  23
ENDBRANCH   4   7
ENDBRANCH   2   3
ENDBRANCH   1   2
BRANCH   1  36
ATOM     36  C   UNL     1       1.341  -2.092   3.351  1.00  0.00     0.023 C 
BRANCH  36  37
ATOM     37  C   UNL     1       1.364  -1.599   4.783  1.00  0.00     0.116 C 
BRANCH  37  38
ATOM     38  N   UNL     1       2.657  -1.056   5.170  1.00  0.00    -0.352 N 
ATOM     39  C   UNL     1       2.934   0.036   5.961  1.00  0.00     0.251 C 
ATOM     40  H   UNL     1       3.441  -1.535   4.817  1.00  0.00     0.163 HD
ATOM     41  O   UNL     1       4.094   0.421   6.076  1.00  0.00    -0.269 OA
BRANCH  39  42
ATOM     42  C   UNL     1       1.836   0.765   6.643  1.00  0.00     0.039 A 
ATOM     43  C   UNL     1       1.908   2.158   6.747  1.00  0.00     0.014 A 
ATOM     44  C   UNL     1       0.738   0.087   7.177  1.00  0.00     0.014 A 
ATOM     45  C   UNL     1       0.860   2.865   7.343  1.00  0.00     0.010 A 
ATOM     46  C   UNL     1      -0.351   0.797   7.667  1.00  0.00     0.010 A 
ATOM     47  C   UNL     1      -0.290   2.191   7.783  1.00  0.00    -0.014 A 
BRANCH  47  48
ATOM     48  C   UNL     1      -1.425   2.916   8.404  1.00  0.00     0.031 A 
ATOM     49  C   UNL     1      -1.808   2.625   9.831  1.00  0.00     0.074 A 
ATOM     50  C   UNL     1      -2.144   3.783   7.666  1.00  0.00     0.049 A 
ATOM     51  N   UNL     1      -2.783   3.125  10.545  1.00  0.00    -0.248 NA
ATOM     52  C   UNL     1      -1.013   1.607  10.539  1.00  0.00     0.031 C 
ATOM     53  C   UNL     1      -1.904   4.094   6.255  1.00  0.00     0.029 A 
ATOM     54  N   UNL     1      -3.220   4.564   7.999  1.00  0.00    -0.354 N 
ATOM     55  C   UNL     1      -2.732   2.468  11.770  1.00  0.00     0.074 A 
ATOM     56  C   UNL     1      -1.674   1.488  11.679  1.00  0.00     0.031 C 
ATOM     57  C   UNL     1      -2.776   5.034   5.857  1.00  0.00     0.029 A 
ATOM     58  C   UNL     1      -3.657   5.367   6.972  1.00  0.00     0.049 A 
ATOM     59  H   UNL     1      -3.640   4.552   8.889  1.00  0.00     0.167 HD
ATOM     60  C   UNL     1      -3.478   2.683  12.879  1.00  0.00     0.037 A 
ATOM     61  C   UNL     1      -4.649   6.277   6.940  1.00  0.00     0.037 A 
ATOM     62  C   UNL     1      -4.503   3.689  12.965  1.00  0.00     0.049 A 
ATOM     63  C   UNL     1      -5.448   6.521   8.190  1.00  0.00     0.074 A 
ATOM     64  C   UNL     1      -5.268   4.053  14.058  1.00  0.00     0.029 A 
ATOM     65  N   UNL     1      -4.909   4.493  11.907  1.00  0.00    -0.354 N 
ATOM     66  N   UNL     1      -5.335   5.948   9.365  1.00  0.00    -0.248 NA
ATOM     67  C   UNL     1      -6.503   7.539   8.112  1.00  0.00     0.031 C 
ATOM     68  C   UNL     1      -6.168   5.044  13.650  1.00  0.00     0.029 A 
ATOM     69  C   UNL     1      -5.931   5.333  12.315  1.00  0.00     0.049 A 
ATOM     70  H   UNL     1      -4.527   4.468  11.001  1.00  0.00     0.167 HD
ATOM     71  C   UNL     1      -6.291   6.550  10.175  1.00  0.00     0.074 A 
ATOM     72  C   UNL     1      -6.961   7.543   9.357  1.00  0.00     0.031 C 
ATOM     73  C   UNL     1      -6.589   6.306  11.476  1.00  0.00     0.037 A 
BRANCH  60  74
ATOM     74  C   UNL     1      -3.208   1.809  14.076  1.00  0.00     0.058 A 
ATOM     75  C   UNL     1      -2.002   1.886  14.795  1.00  0.00     0.135 A 
ATOM     76  C   UNL     1      -4.159   0.867  14.501  1.00  0.00     0.135 A 
ATOM     77  F   UNL     1      -1.050   2.757  14.427  1.00  0.00    -0.206 F 
ATOM     78  C   UNL     1      -1.728   1.025  15.853  1.00  0.00     0.059 A 
ATOM     79  C   UNL     1      -3.919   0.018  15.579  1.00  0.00     0.059 A 
ATOM     80  F   UNL     1      -5.330   0.750  13.855  1.00  0.00    -0.206 F 
ATOM     81  C   UNL     1      -2.690   0.088  16.232  1.00  0.00     0.060 A 
BRANCH  81  82
ATOM     82  S   UNL     1      -2.305  -1.046  17.583  1.00  0.00     0.124 S 
ATOM     83  O   UNL     1      -1.375  -1.965  16.933  1.00  0.00    -0.237 OA
ATOM     84  O   UNL     1      -1.722  -0.158  18.583  1.00  0.00    -0.237 OA
ATOM     85  O   UNL     1      -3.605  -1.611  17.932  1.00  0.00    -0.744 OA
ENDBRANCH  81  82
ENDBRANCH  60  74
BRANCH  61  86
ATOM     86  C   UNL     1      -4.889   7.060   5.700  1.00  0.00     0.058 A 
ATOM     87  C   UNL     1      -4.531   8.415   5.630  1.00  0.00     0.135 A 
ATOM     88  C   UNL     1      -5.424   6.465   4.547  1.00  0.00     0.135 A 
ATOM     89  F   UNL     1      -4.019   9.029   6.707  1.00  0.00    -0.206 F 
ATOM     90  C   UNL     1      -4.694   9.153   4.462  1.00  0.00     0.059 A 
ATOM     91  C   UNL     1      -5.577   7.177   3.361  1.00  0.00     0.059 A 
ATOM     92  F   UNL     1      -5.765   5.167   4.556  1.00  0.00    -0.206 F 
ATOM     93  C   UNL     1      -5.209   8.522   3.329  1.00  0.00     0.060 A 
BRANCH  93  94
ATOM     94  S   UNL     1      -5.333   9.466   1.794  1.00  0.00     0.124 S 
ATOM     95  O   UNL     1      -6.454  10.353   2.084  1.00  0.00    -0.237 OA
ATOM     96  O   UNL     1      -4.020  10.098   1.718  1.00  0.00    -0.237 OA
ATOM     97  O   UNL     1      -5.583   8.437   0.789  1.00  0.00    -0.744 OA
ENDBRANCH  93  94
ENDBRANCH  61  86
BRANCH  73  98
ATOM     98  C   UNL     1      -7.678   7.138  12.094  1.00  0.00     0.058 A 
ATOM     99  C   UNL     1      -9.028   6.947  11.760  1.00  0.00     0.135 A 
ATOM    100  C   UNL     1      -7.369   8.114  13.054  1.00  0.00     0.135 A 
ATOM    101  F   UNL     1      -9.375   6.030  10.843  1.00  0.00    -0.206 F 
ATOM    102  C   UNL     1     -10.032   7.719  12.334  1.00  0.00     0.059 A 
ATOM    103  C   UNL     1      -8.360   8.877  13.662  1.00  0.00     0.059 A 
ATOM    104  F   UNL     1      -6.095   8.327  13.418  1.00  0.00    -0.206 F 
ATOM    105  C   UNL     1      -9.688   8.683  13.283  1.00  0.00     0.060 A 
BRANCH 105 106
ATOM    106  S   UNL     1     -11.002   9.668  14.031  1.00  0.00     0.124 S 
ATOM    107  O   UNL     1     -11.333  10.586  12.947  1.00  0.00    -0.237 OA
ATOM    108  O   UNL     1     -12.011   8.661  14.340  1.00  0.00    -0.237 OA
ATOM    109  O   UNL     1     -10.353  10.273  15.191  1.00  0.00    -0.744 OA
ENDBRANCH 105 106
ENDBRANCH  73  98
ENDBRANCH  47  48
ENDBRANCH  39  42
ENDBRANCH  37  38
ENDBRANCH  36  37
ENDBRANCH   1  36
TORSDOF 20
