REMARK SMILES Cc1ccc(N2CCC[C@@H](Cn3cc(C(=O)NCCCCNC(=O)c4ccc(-c5c6nc(c(-c7c(F)cc(S(=O)(=O)[O-])cc7F)c7ccc([nH]7)c(-c7c(F)cc(S(=O)(=O)[O-])cc7F)c7nc(c(-c8c(F)cc(S(=O)(=O)[O-])cc8F)c8ccc5[nH]8)C=C7)C=C6)cc4)nn3)C2)nn1
REMARK SMILES IDX 19 1 18 2 17 3 15 4 16 5 14 7 12 8 13 9 92 10 91 11 11 12
REMARK SMILES IDX 10 13 6 14 7 15 93 16 8 17 9 18 5 19 1 20 2 21 3 22 95 23
REMARK SMILES IDX 4 24 94 25 20 26 21 27 22 28 23 29 24 31 25 32 26 33 90 34
REMARK SMILES IDX 27 35 89 36 28 37 29 38 30 39 83 40 31 41 88 42 82 43 84 44
REMARK SMILES IDX 32 45 87 46 81 47 80 48 33 50 67 51 46 52 66 53 47 54 50 55
REMARK SMILES IDX 65 56 85 57 48 58 49 59 64 61 86 62 51 63 34 64 35 65 44 66
REMARK SMILES IDX 36 67 37 68 43 69 45 70 38 71 39 72 40 73 41 74 42 75 68 76
REMARK SMILES IDX 69 77 78 78 70 79 71 80 77 81 79 82 72 83 73 84 74 85 75 86
REMARK SMILES IDX 76 87 52 88 53 89 62 90 54 91 55 92 61 93 63 94 56 95 57 96
REMARK SMILES IDX 58 97 59 98 60 99
REMARK H PARENT 17 6 22 30 84 49 50 60
REMARK Flexibility Score: inf
ROOT
ATOM      1  C   UNL     1      -2.572   2.582   7.659  1.00  0.00     0.023 C 
ENDROOT
BRANCH   1   2
ATOM      2  C   UNL     1      -1.661   1.592   8.386  1.00  0.00     0.116 C 
BRANCH   2   3
ATOM      3  N   UNL     1      -2.073   1.404   9.766  1.00  0.00    -0.351 N 
ATOM      4  C   UNL     1      -2.712   0.353  10.384  1.00  0.00     0.273 C 
ATOM      5  O   UNL     1      -2.848   0.419  11.611  1.00  0.00    -0.267 OA
ATOM      6  H   UNL     1      -1.859   2.158  10.362  1.00  0.00     0.163 HD
BRANCH   4   7
ATOM      7  C   UNL     1      -3.165  -0.803   9.623  1.00  0.00     0.170 A 
ATOM      8  N   UNL     1      -3.666  -2.242   8.091  1.00  0.00    -0.251 N 
ATOM      9  C   UNL     1      -3.607  -0.900   8.316  1.00  0.00     0.145 A 
ATOM     10  N   UNL     1      -3.534  -2.935   9.230  1.00  0.00    -0.067 NA
ATOM     11  N   UNL     1      -3.211  -2.066  10.178  1.00  0.00    -0.125 NA
BRANCH   8  12
ATOM     12  C   UNL     1      -3.702  -2.925   6.818  1.00  0.00     0.151 C 
BRANCH  12  13
ATOM     13  C   UNL     1      -2.325  -3.106   6.154  1.00  0.00     0.030 C 
ATOM     14  N   UNL     1      -0.418  -2.067   5.115  1.00  0.00    -0.355 N 
ATOM     15  C   UNL     1       0.591  -2.740   5.917  1.00  0.00     0.118 C 
ATOM     16  C   UNL     1      -1.678  -1.762   5.761  1.00  0.00     0.123 C 
ATOM     17  C   UNL     1       0.026  -4.097   6.330  1.00  0.00     0.022 C 
ATOM     18  C   UNL     1      -1.345  -3.949   7.003  1.00  0.00     0.009 C 
BRANCH  14  19
ATOM     19  C   UNL     1      -0.115  -1.524   3.889  1.00  0.00     0.151 A 
ATOM     20  C   UNL     1       0.822   0.198   0.127  1.00  0.00     0.069 C 
ATOM     21  C   UNL     1       0.467  -0.448   1.427  1.00  0.00     0.060 A 
ATOM     22  C   UNL     1       0.800  -1.766   1.673  1.00  0.00     0.029 A 
ATOM     23  N   UNL     1      -0.170   0.291   2.357  1.00  0.00    -0.154 NA
ATOM     24  C   UNL     1       0.514  -2.300   2.924  1.00  0.00     0.051 A 
ATOM     25  N   UNL     1      -0.480  -0.261   3.583  1.00  0.00    -0.133 NA
ENDBRANCH  14  19
ENDBRANCH  12  13
ENDBRANCH   8  12
ENDBRANCH   4   7
ENDBRANCH   2   3
ENDBRANCH   1   2
BRANCH   1  26
ATOM     26  C   UNL     1      -2.345   4.049   8.051  1.00  0.00     0.023 C 
BRANCH  26  27
ATOM     27  C   UNL     1      -0.988   4.606   7.622  1.00  0.00     0.116 C 
BRANCH  27  28
ATOM     28  N   UNL     1      -0.854   4.642   6.173  1.00  0.00    -0.352 N 
ATOM     29  C   UNL     1       0.206   5.098   5.425  1.00  0.00     0.251 C 
ATOM     30  H   UNL     1      -1.621   4.294   5.662  1.00  0.00     0.163 HD
ATOM     31  O   UNL     1       0.019   5.470   4.270  1.00  0.00    -0.269 OA
BRANCH  29  32
ATOM     32  C   UNL     1       1.562   5.141   6.006  1.00  0.00     0.039 A 
ATOM     33  C   UNL     1       2.411   6.208   5.689  1.00  0.00     0.014 A 
ATOM     34  C   UNL     1       2.011   4.090   6.810  1.00  0.00     0.014 A 
ATOM     35  C   UNL     1       3.692   6.245   6.231  1.00  0.00     0.010 A 
ATOM     36  C   UNL     1       3.264   4.150   7.390  1.00  0.00     0.010 A 
ATOM     37  C   UNL     1       4.109   5.218   7.089  1.00  0.00    -0.014 A 
BRANCH  37  38
ATOM     38  C   UNL     1       5.375   5.350   7.808  1.00  0.00     0.031 A 
ATOM     39  C   UNL     1       5.390   6.453   8.813  1.00  0.00     0.074 A 
ATOM     40  C   UNL     1       6.347   4.416   7.758  1.00  0.00     0.049 A 
ATOM     41  N   UNL     1       6.135   7.509   8.841  1.00  0.00    -0.248 NA
ATOM     42  C   UNL     1       4.345   6.442   9.852  1.00  0.00     0.031 C 
ATOM     43  C   UNL     1       6.300   3.118   7.078  1.00  0.00     0.029 A 
ATOM     44  N   UNL     1       7.544   4.373   8.408  1.00  0.00    -0.354 N 
ATOM     45  C   UNL     1       5.805   8.180  10.019  1.00  0.00     0.074 A 
ATOM     46  C   UNL     1       4.578   7.593  10.484  1.00  0.00     0.031 C 
ATOM     47  C   UNL     1       7.306   2.337   7.531  1.00  0.00     0.029 A 
ATOM     48  C   UNL     1       8.146   3.117   8.424  1.00  0.00     0.049 A 
ATOM     49  H   UNL     1       7.950   5.164   8.830  1.00  0.00     0.167 HD
ATOM     50  C   UNL     1       6.697   8.994  10.651  1.00  0.00     0.037 A 
ATOM     51  C   UNL     1       9.222   2.738   9.162  1.00  0.00     0.037 A 
ATOM     52  C   UNL     1       7.782   9.347   9.774  1.00  0.00     0.049 A 
ATOM     53  C   UNL     1       9.926   3.983   9.566  1.00  0.00     0.074 A 
ATOM     54  C   UNL     1       7.885  10.007   8.566  1.00  0.00     0.029 A 
ATOM     55  N   UNL     1       8.966   8.674   9.945  1.00  0.00    -0.354 N 
ATOM     56  N   UNL     1      10.521   4.794   8.735  1.00  0.00    -0.248 NA
ATOM     57  C   UNL     1       9.614   4.547  10.871  1.00  0.00     0.031 C 
ATOM     58  C   UNL     1       8.927   9.335   7.866  1.00  0.00     0.029 A 
ATOM     59  C   UNL     1       9.447   8.347   8.705  1.00  0.00     0.049 A 
ATOM     60  H   UNL     1       9.394   8.463  10.806  1.00  0.00     0.167 HD
ATOM     61  C   UNL     1      10.279   6.061   9.243  1.00  0.00     0.074 A 
ATOM     62  C   UNL     1       9.816   5.840  10.609  1.00  0.00     0.031 C 
ATOM     63  C   UNL     1      10.207   7.147   8.419  1.00  0.00     0.037 A 
BRANCH  50  64
ATOM     64  C   UNL     1       6.801   9.166  12.154  1.00  0.00     0.058 A 
ATOM     65  C   UNL     1       7.707  10.115  12.678  1.00  0.00     0.135 A 
ATOM     66  C   UNL     1       6.273   8.256  13.097  1.00  0.00     0.135 A 
ATOM     67  F   UNL     1       8.282  11.028  11.879  1.00  0.00    -0.206 F 
ATOM     68  C   UNL     1       8.116  10.107  14.014  1.00  0.00     0.059 A 
ATOM     69  C   UNL     1       6.623   8.268  14.444  1.00  0.00     0.059 A 
ATOM     70  F   UNL     1       5.467   7.246  12.750  1.00  0.00    -0.206 F 
ATOM     71  C   UNL     1       7.576   9.168  14.886  1.00  0.00     0.060 A 
BRANCH  71  72
ATOM     72  S   UNL     1       8.168   9.093  16.584  1.00  0.00     0.124 S 
ATOM     73  O   UNL     1       9.535   8.620  16.396  1.00  0.00    -0.237 OA
ATOM     74  O   UNL     1       8.023  10.479  17.016  1.00  0.00    -0.237 OA
ATOM     75  O   UNL     1       7.253   8.147  17.216  1.00  0.00    -0.744 OA
ENDBRANCH  71  72
ENDBRANCH  50  64
BRANCH  51  76
ATOM     76  C   UNL     1       9.509   1.421   9.802  1.00  0.00     0.058 A 
ATOM     77  C   UNL     1      10.762   1.160  10.392  1.00  0.00     0.135 A 
ATOM     78  C   UNL     1       8.483   0.505  10.111  1.00  0.00     0.135 A 
ATOM     79  F   UNL     1      11.799   1.981  10.166  1.00  0.00    -0.206 F 
ATOM     80  C   UNL     1      10.966   0.101  11.285  1.00  0.00     0.059 A 
ATOM     81  C   UNL     1       8.666  -0.565  10.988  1.00  0.00     0.059 A 
ATOM     82  F   UNL     1       7.238   0.674   9.644  1.00  0.00    -0.206 F 
ATOM     83  C   UNL     1       9.902  -0.742  11.598  1.00  0.00     0.060 A 
BRANCH  83  84
ATOM     84  S   UNL     1      10.105  -1.989  12.893  1.00  0.00     0.124 S 
ATOM     85  O   UNL     1      11.059  -2.908  12.283  1.00  0.00    -0.237 OA
ATOM     86  O   UNL     1      10.608  -1.194  14.008  1.00  0.00    -0.237 OA
ATOM     87  O   UNL     1       8.755  -2.518  13.069  1.00  0.00    -0.744 OA
ENDBRANCH  83  84
ENDBRANCH  51  76
BRANCH  63  88
ATOM     88  C   UNL     1      10.746   7.034   7.018  1.00  0.00     0.058 A 
ATOM     89  C   UNL     1      10.183   6.237   6.007  1.00  0.00     0.135 A 
ATOM     90  C   UNL     1      11.745   7.945   6.638  1.00  0.00     0.135 A 
ATOM     91  F   UNL     1       9.171   5.399   6.270  1.00  0.00    -0.206 F 
ATOM     92  C   UNL     1      10.595   6.345   4.676  1.00  0.00     0.059 A 
ATOM     93  C   UNL     1      12.147   8.092   5.315  1.00  0.00     0.059 A 
ATOM     94  F   UNL     1      12.285   8.768   7.553  1.00  0.00    -0.206 F 
ATOM     95  C   UNL     1      11.565   7.290   4.337  1.00  0.00     0.060 A 
BRANCH  95  96
ATOM     96  S   UNL     1      11.991   7.531   2.599  1.00  0.00     0.124 S 
ATOM     97  O   UNL     1      12.708   6.300   2.283  1.00  0.00    -0.237 OA
ATOM     98  O   UNL     1      10.682   7.682   1.970  1.00  0.00    -0.237 OA
ATOM     99  O   UNL     1      12.808   8.742   2.611  1.00  0.00    -0.744 OA
ENDBRANCH  95  96
ENDBRANCH  63  88
ENDBRANCH  37  38
ENDBRANCH  29  32
ENDBRANCH  27  28
ENDBRANCH  26  27
ENDBRANCH   1  26
TORSDOF 17
