REMARK SMILES Cc1c(Br)c(C)c2c(c1Br)O[C@H](C(F)(F)F)C(C(=O)NCCCCNC(=O)c1ccc(-c3c4nc(c(-c5c(F)cc(S(=O)(=O)[O-])cc5F)c5ccc([nH]5)c(-c5c(F)cc(S(=O)(=O)[O-])cc5F)c5nc(c(-c6c(F)cc(S(=O)(=O)[O-])cc6F)c6ccc3[nH]6)C=C5)C=C4)cc1)=C2
REMARK SMILES IDX 23 1 22 2 21 3 20 4 18 5 19 6 17 8 1 9 2 10 3 11 9 12 4 13
REMARK SMILES IDX 5 14 8 15 10 16 6 17 7 18 11 19 94 20 12 21 13 22 14 23
REMARK SMILES IDX 15 24 16 25 24 26 25 27 26 28 27 30 28 31 29 32 93 33 30 34
REMARK SMILES IDX 92 35 31 36 32 37 33 38 86 39 34 40 91 41 85 42 87 43 35 44
REMARK SMILES IDX 90 45 84 46 83 47 36 49 70 50 49 51 69 52 50 53 53 54 68 55
REMARK SMILES IDX 88 56 51 57 52 58 67 60 89 61 54 62 37 63 38 64 47 65 39 66
REMARK SMILES IDX 40 67 46 68 48 69 41 70 42 71 43 72 44 73 45 74 71 75 72 76
REMARK SMILES IDX 81 77 73 78 74 79 80 80 82 81 75 82 76 83 77 84 78 85 79 86
REMARK SMILES IDX 55 87 56 88 65 89 57 90 58 91 64 92 66 93 59 94 60 95 61 96
REMARK SMILES IDX 62 97 63 98
REMARK H PARENT 20 7 25 29 87 48 53 59
REMARK Flexibility Score: inf
ROOT
ATOM      1  C   UNL     1       1.240  -7.447   8.021  1.00  0.00     0.023 C 
ENDROOT
BRANCH   1   2
ATOM      2  C   UNL     1       1.154  -6.703   6.686  1.00  0.00     0.023 C 
BRANCH   2   3
ATOM      3  C   UNL     1      -0.257  -6.263   6.306  1.00  0.00     0.116 C 
BRANCH   3   4
ATOM      4  N   UNL     1      -0.608  -4.989   6.908  1.00  0.00    -0.352 N 
ATOM      5  C   UNL     1      -0.662  -3.696   6.516  1.00  0.00     0.251 C 
ATOM      6  O   UNL     1      -1.020  -2.895   7.386  1.00  0.00    -0.270 OA
ATOM      7  H   UNL     1      -0.877  -5.095   7.849  1.00  0.00     0.163 HD
BRANCH   5   8
ATOM      8  C   UNL     1      -0.336  -3.193   5.148  1.00  0.00     0.067 C 
ATOM      9  C   UNL     1       0.985   0.321  -0.233  1.00  0.00     0.047 C 
ATOM     10  C   UNL     1       0.600  -0.201   1.132  1.00  0.00    -0.019 A 
ATOM     11  C   UNL     1       0.106   0.641   2.159  1.00  0.00     0.025 A 
ATOM     12  C   UNL     1       0.784  -1.567   1.428  1.00  0.00     0.064 A 
ATOM     13  Br  UNL     1      -0.019   2.531   1.841  1.00  0.00    -0.050 Br
ATOM     14  C   UNL     1      -0.259   0.125   3.432  1.00  0.00    -0.026 A 
ATOM     15  C   UNL     1       0.450  -2.084   2.688  1.00  0.00     0.142 A 
ATOM     16  Br  UNL     1       1.517  -2.768   0.125  1.00  0.00    -0.046 Br
ATOM     17  C   UNL     1      -0.821   1.003   4.530  1.00  0.00     0.046 C 
ATOM     18  C   UNL     1      -0.060  -1.252   3.693  1.00  0.00     0.022 A 
ATOM     19  O   UNL     1       0.696  -3.413   2.916  1.00  0.00    -0.474 OA
ATOM     20  C   UNL     1      -0.315  -1.855   5.008  1.00  0.00     0.026 C 
ATOM     21  C   UNL     1      -0.078  -4.061   3.958  1.00  0.00     0.314 C 
BRANCH  21  22
ATOM     22  C   UNL     1      -1.365  -4.657   3.359  1.00  0.00     0.429 C 
ATOM     23  F   UNL     1      -1.068  -5.650   2.484  1.00  0.00    -0.167 F 
ATOM     24  F   UNL     1      -2.169  -5.203   4.301  1.00  0.00    -0.167 F 
ATOM     25  F   UNL     1      -2.102  -3.739   2.694  1.00  0.00    -0.167 F 
ENDBRANCH  21  22
ENDBRANCH   5   8
ENDBRANCH   3   4
ENDBRANCH   2   3
ENDBRANCH   1   2
BRANCH   1  26
ATOM     26  C   UNL     1       0.334  -8.670   8.153  1.00  0.00     0.116 C 
BRANCH  26  27
ATOM     27  N   UNL     1       0.438  -9.604   7.040  1.00  0.00    -0.352 N 
ATOM     28  C   UNL     1       0.270 -10.969   7.069  1.00  0.00     0.251 C 
ATOM     29  H   UNL     1       0.655  -9.212   6.164  1.00  0.00     0.163 HD
ATOM     30  O   UNL     1       0.451 -11.645   6.062  1.00  0.00    -0.269 OA
BRANCH  28  31
ATOM     31  C   UNL     1      -0.083 -11.602   8.352  1.00  0.00     0.039 A 
ATOM     32  C   UNL     1       0.781 -12.558   8.887  1.00  0.00     0.014 A 
ATOM     33  C   UNL     1      -1.207 -11.169   9.062  1.00  0.00     0.014 A 
ATOM     34  C   UNL     1       0.559 -13.027  10.181  1.00  0.00     0.010 A 
ATOM     35  C   UNL     1      -1.392 -11.594  10.372  1.00  0.00     0.010 A 
ATOM     36  C   UNL     1      -0.505 -12.517  10.946  1.00  0.00    -0.014 A 
BRANCH  36  37
ATOM     37  C   UNL     1      -0.690 -12.935  12.355  1.00  0.00     0.031 A 
ATOM     38  C   UNL     1      -1.884 -13.757  12.742  1.00  0.00     0.074 A 
ATOM     39  C   UNL     1       0.198 -12.537  13.287  1.00  0.00     0.049 A 
ATOM     40  N   UNL     1      -2.225 -14.207  13.921  1.00  0.00    -0.248 NA
ATOM     41  C   UNL     1      -2.831 -14.100  11.669  1.00  0.00     0.031 C 
ATOM     42  C   UNL     1       1.370 -11.694  13.036  1.00  0.00     0.029 A 
ATOM     43  N   UNL     1       0.257 -12.793  14.634  1.00  0.00    -0.354 N 
ATOM     44  C   UNL     1      -3.423 -14.884  13.733  1.00  0.00     0.074 A 
ATOM     45  C   UNL     1      -3.780 -14.736  12.339  1.00  0.00     0.031 C 
ATOM     46  C   UNL     1       2.052 -11.537  14.182  1.00  0.00     0.029 A 
ATOM     47  C   UNL     1       1.356 -12.245  15.252  1.00  0.00     0.049 A 
ATOM     48  H   UNL     1      -0.423 -13.319  15.113  1.00  0.00     0.167 HD
ATOM     49  C   UNL     1      -4.143 -15.592  14.633  1.00  0.00     0.037 A 
ATOM     50  C   UNL     1       1.762 -12.317  16.534  1.00  0.00     0.037 A 
ATOM     51  C   UNL     1      -3.768 -15.761  16.011  1.00  0.00     0.049 A 
ATOM     52  C   UNL     1       0.944 -13.107  17.518  1.00  0.00     0.074 A 
ATOM     53  C   UNL     1      -4.404 -16.500  16.992  1.00  0.00     0.029 A 
ATOM     54  N   UNL     1      -2.653 -15.184  16.600  1.00  0.00    -0.354 N 
ATOM     55  N   UNL     1      -0.160 -13.784  17.312  1.00  0.00    -0.248 NA
ATOM     56  C   UNL     1       1.423 -13.142  18.907  1.00  0.00     0.031 C 
ATOM     57  C   UNL     1      -3.684 -16.352  18.182  1.00  0.00     0.029 A 
ATOM     58  C   UNL     1      -2.587 -15.541  17.936  1.00  0.00     0.049 A 
ATOM     59  H   UNL     1      -2.004 -14.607  16.137  1.00  0.00     0.167 HD
ATOM     60  C   UNL     1      -0.500 -14.338  18.539  1.00  0.00     0.074 A 
ATOM     61  C   UNL     1       0.519 -13.925  19.483  1.00  0.00     0.031 C 
ATOM     62  C   UNL     1      -1.561 -15.119  18.856  1.00  0.00     0.037 A 
BRANCH  49  63
ATOM     63  C   UNL     1      -5.394 -16.258  14.140  1.00  0.00     0.058 A 
ATOM     64  C   UNL     1      -5.335 -17.396  13.321  1.00  0.00     0.135 A 
ATOM     65  C   UNL     1      -6.659 -15.764  14.490  1.00  0.00     0.135 A 
ATOM     66  F   UNL     1      -4.147 -17.896  12.942  1.00  0.00    -0.206 F 
ATOM     67  C   UNL     1      -6.488 -18.005  12.840  1.00  0.00     0.059 A 
ATOM     68  C   UNL     1      -7.828 -16.370  14.038  1.00  0.00     0.059 A 
ATOM     69  F   UNL     1      -6.769 -14.675  15.268  1.00  0.00    -0.206 F 
ATOM     70  C   UNL     1      -7.730 -17.481  13.200  1.00  0.00     0.060 A 
BRANCH  70  71
ATOM     71  S   UNL     1      -9.219 -18.274  12.556  1.00  0.00     0.124 S 
ATOM     72  O   UNL     1      -9.221 -17.806  11.174  1.00  0.00    -0.237 OA
ATOM     73  O   UNL     1      -8.926 -19.691  12.744  1.00  0.00    -0.237 OA
ATOM     74  O   UNL     1     -10.281 -17.739  13.402  1.00  0.00    -0.744 OA
ENDBRANCH  70  71
ENDBRANCH  49  63
BRANCH  50  75
ATOM     75  C   UNL     1       3.031 -11.666  16.945  1.00  0.00     0.058 A 
ATOM     76  C   UNL     1       4.182 -12.432  17.179  1.00  0.00     0.135 A 
ATOM     77  C   UNL     1       3.131 -10.273  17.078  1.00  0.00     0.135 A 
ATOM     78  F   UNL     1       4.131 -13.768  17.067  1.00  0.00    -0.206 F 
ATOM     79  C   UNL     1       5.390 -11.842  17.534  1.00  0.00     0.059 A 
ATOM     80  C   UNL     1       4.333  -9.658  17.417  1.00  0.00     0.059 A 
ATOM     81  F   UNL     1       2.060  -9.497  16.850  1.00  0.00    -0.206 F 
ATOM     82  C   UNL     1       5.456 -10.452  17.647  1.00  0.00     0.060 A 
BRANCH  82  83
ATOM     83  S   UNL     1       7.046  -9.691  18.044  1.00  0.00     0.124 S 
ATOM     84  O   UNL     1       7.175 -10.004  19.462  1.00  0.00    -0.237 OA
ATOM     85  O   UNL     1       7.957 -10.399  17.148  1.00  0.00    -0.237 OA
ATOM     86  O   UNL     1       6.833  -8.284  17.722  1.00  0.00    -0.744 OA
ENDBRANCH  82  83
ENDBRANCH  50  75
BRANCH  62  87
ATOM     87  C   UNL     1      -1.682 -15.585  20.276  1.00  0.00     0.058 A 
ATOM     88  C   UNL     1      -2.182 -14.739  21.276  1.00  0.00     0.135 A 
ATOM     89  C   UNL     1      -1.396 -16.916  20.617  1.00  0.00     0.135 A 
ATOM     90  F   UNL     1      -2.462 -13.456  20.998  1.00  0.00    -0.206 F 
ATOM     91  C   UNL     1      -2.401 -15.198  22.570  1.00  0.00     0.059 A 
ATOM     92  C   UNL     1      -1.623 -17.402  21.901  1.00  0.00     0.059 A 
ATOM     93  F   UNL     1      -0.921 -17.764  19.691  1.00  0.00    -0.206 F 
ATOM     94  C   UNL     1      -2.127 -16.535  22.870  1.00  0.00     0.060 A 
BRANCH  94  95
ATOM     95  S   UNL     1      -2.493 -17.139  24.532  1.00  0.00     0.124 S 
ATOM     96  O   UNL     1      -1.397 -16.561  25.303  1.00  0.00    -0.237 OA
ATOM     97  O   UNL     1      -3.814 -16.574  24.786  1.00  0.00    -0.237 OA
ATOM     98  O   UNL     1      -2.457 -18.591  24.380  1.00  0.00    -0.744 OA
ENDBRANCH  94  95
ENDBRANCH  62  87
ENDBRANCH  36  37
ENDBRANCH  28  31
ENDBRANCH  26  27
ENDBRANCH   1  26
TORSDOF 15
