REMARK SMILES CC(=O)N[C@H](CC(=O)NCC(=O)NCCCCNC(=O)c1ccc(-c2c3nc(c(-c4c(F)cc(S(=O)(=O)[O-])cc4F)c4ccc([nH]4)c(-c4c(F)cc(S(=O)(=O)[O-])cc4F)c4nc(c(-c5c(F)cc(S(=O)(=O)[O-])cc5F)c5ccc2[nH]5)C=C4)C=C3)cc1)c1cccs1
REMARK SMILES IDX 15 1 14 2 13 3 11 4 12 5 10 7 9 8 7 9 8 10 6 12 5 13 4 14
REMARK SMILES IDX 1 15 2 16 3 17 87 19 88 20 91 21 89 22 90 23 16 24 17 25
REMARK SMILES IDX 18 26 19 27 20 29 21 30 22 31 86 32 23 33 85 34 24 35 25 36
REMARK SMILES IDX 26 37 79 38 27 39 84 40 78 41 80 42 28 43 83 44 77 45 76 46
REMARK SMILES IDX 29 48 63 49 42 50 62 51 43 52 46 53 61 54 81 55 44 56 45 57
REMARK SMILES IDX 60 59 82 60 47 61 30 62 31 63 40 64 32 65 33 66 39 67 41 68
REMARK SMILES IDX 34 69 35 70 36 71 37 72 38 73 64 74 65 75 74 76 66 77 67 78
REMARK SMILES IDX 73 79 75 80 68 81 69 82 70 83 71 84 72 85 48 86 49 87 58 88
REMARK SMILES IDX 50 89 51 90 57 91 59 92 52 93 53 94 54 95 55 96 56 97
REMARK H PARENT 13 6 9 11 4 18 18 28 80 47 46 58
REMARK Flexibility Score: inf
ROOT
ATOM      1  C   UNL     1       5.677   2.377  -3.934  1.00  0.00     0.023 C 
ENDROOT
BRANCH   1   2
ATOM      2  C   UNL     1       4.300   2.960  -3.643  1.00  0.00     0.116 C 
BRANCH   2   3
ATOM      3  N   UNL     1       3.835   4.006  -4.531  1.00  0.00    -0.355 N 
ATOM      4  C   UNL     1       2.562   4.470  -4.734  1.00  0.00     0.239 C 
ATOM      5  O   UNL     1       2.447   5.588  -5.250  1.00  0.00    -0.273 OA
ATOM      6  H   UNL     1       4.534   4.446  -5.066  1.00  0.00     0.163 HD
BRANCH   4   7
ATOM      7  C   UNL     1       1.284   3.717  -4.275  1.00  0.00     0.216 C 
BRANCH   7   8
ATOM      8  N   UNL     1       1.384   2.284  -4.094  1.00  0.00    -0.347 N 
ATOM      9  C   UNL     1       1.232   1.502  -2.996  1.00  0.00     0.222 C 
ATOM     10  O   UNL     1       1.715   0.367  -3.052  1.00  0.00    -0.275 OA
ATOM     11  H   UNL     1       1.601   1.787  -4.916  1.00  0.00     0.164 HD
BRANCH   9  12
ATOM     12  C   UNL     1       0.455   1.927  -1.766  1.00  0.00     0.130 C 
BRANCH  12  13
ATOM     13  C   UNL     1       1.117   2.794  -0.670  1.00  0.00     0.131 C 
BRANCH  13  14
ATOM     14  N   UNL     1       2.561   2.797  -0.689  1.00  0.00    -0.348 N 
ATOM     15  C   UNL     1       3.014   3.816   1.540  1.00  0.00     0.114 C 
ATOM     16  C   UNL     1       3.453   3.311   0.198  1.00  0.00     0.217 C 
ATOM     17  O   UNL     1       4.636   3.332  -0.131  1.00  0.00    -0.275 OA
ATOM     18  H   UNL     1       2.965   2.354  -1.470  1.00  0.00     0.164 HD
ENDBRANCH  13  14
BRANCH  13  19
ATOM     19  C   UNL     1       0.508   4.188  -0.664  1.00  0.00     0.027 A 
ATOM     20  C   UNL     1      -0.789   4.492  -0.282  1.00  0.00     0.017 A 
ATOM     21  S   UNL     1       1.348   5.614  -1.135  1.00  0.00    -0.147 S 
ATOM     22  C   UNL     1      -1.099   5.872  -0.420  1.00  0.00     0.012 A 
ATOM     23  C   UNL     1      -0.023   6.596  -0.877  1.00  0.00     0.065 A 
ENDBRANCH  13  19
ENDBRANCH  12  13
ENDBRANCH   9  12
ENDBRANCH   7   8
ENDBRANCH   4   7
ENDBRANCH   2   3
ENDBRANCH   1   2
BRANCH   1  24
ATOM     24  C   UNL     1       6.883   3.232  -3.560  1.00  0.00     0.023 C 
BRANCH  24  25
ATOM     25  C   UNL     1       7.112   3.547  -2.080  1.00  0.00     0.116 C 
BRANCH  25  26
ATOM     26  N   UNL     1       6.981   2.425  -1.160  1.00  0.00    -0.352 N 
ATOM     27  C   UNL     1       7.621   2.215   0.044  1.00  0.00     0.251 C 
ATOM     28  H   UNL     1       6.351   1.720  -1.435  1.00  0.00     0.163 HD
ATOM     29  O   UNL     1       7.309   1.274   0.771  1.00  0.00    -0.269 OA
BRANCH  27  30
ATOM     30  C   UNL     1       8.740   3.098   0.430  1.00  0.00     0.039 A 
ATOM     31  C   UNL     1       9.987   2.520   0.677  1.00  0.00     0.014 A 
ATOM     32  C   UNL     1       8.582   4.486   0.458  1.00  0.00     0.014 A 
ATOM     33  C   UNL     1      11.107   3.340   0.819  1.00  0.00     0.010 A 
ATOM     34  C   UNL     1       9.710   5.300   0.536  1.00  0.00     0.010 A 
ATOM     35  C   UNL     1      10.987   4.732   0.678  1.00  0.00    -0.014 A 
BRANCH  35  36
ATOM     36  C   UNL     1      12.192   5.597   0.585  1.00  0.00     0.031 A 
ATOM     37  C   UNL     1      12.470   6.641   1.627  1.00  0.00     0.074 A 
ATOM     38  C   UNL     1      12.992   5.494  -0.497  1.00  0.00     0.049 A 
ATOM     39  N   UNL     1      13.430   7.528   1.669  1.00  0.00    -0.248 NA
ATOM     40  C   UNL     1      11.533   6.713   2.758  1.00  0.00     0.031 C 
ATOM     41  C   UNL     1      12.793   4.563  -1.611  1.00  0.00     0.029 A 
ATOM     42  N   UNL     1      14.123   6.188  -0.847  1.00  0.00    -0.354 N 
ATOM     43  C   UNL     1      13.211   8.270   2.822  1.00  0.00     0.074 A 
ATOM     44  C   UNL     1      11.998   7.758   3.427  1.00  0.00     0.031 C 
ATOM     45  C   UNL     1      13.775   4.734  -2.510  1.00  0.00     0.029 A 
ATOM     46  C   UNL     1      14.655   5.806  -2.056  1.00  0.00     0.049 A 
ATOM     47  H   UNL     1      14.517   6.894  -0.284  1.00  0.00     0.167 HD
ATOM     48  C   UNL     1      13.962   9.271   3.341  1.00  0.00     0.037 A 
ATOM     49  C   UNL     1      15.726   6.270  -2.730  1.00  0.00     0.037 A 
ATOM     50  C   UNL     1      15.175   9.768   2.743  1.00  0.00     0.049 A 
ATOM     51  C   UNL     1      16.550   7.375  -2.129  1.00  0.00     0.074 A 
ATOM     52  C   UNL     1      16.032  10.744   3.220  1.00  0.00     0.029 A 
ATOM     53  N   UNL     1      15.702   9.331   1.536  1.00  0.00    -0.354 N 
ATOM     54  N   UNL     1      16.366   8.020  -1.002  1.00  0.00    -0.248 NA
ATOM     55  C   UNL     1      17.732   7.811  -2.886  1.00  0.00     0.031 C 
ATOM     56  C   UNL     1      17.059  10.921   2.286  1.00  0.00     0.029 A 
ATOM     57  C   UNL     1      16.865  10.027   1.246  1.00  0.00     0.049 A 
ATOM     58  H   UNL     1      15.307   8.630   0.969  1.00  0.00     0.167 HD
ATOM     59  C   UNL     1      17.419   8.921  -0.903  1.00  0.00     0.074 A 
ATOM     60  C   UNL     1      18.244   8.731  -2.079  1.00  0.00     0.031 C 
ATOM     61  C   UNL     1      17.680   9.823   0.075  1.00  0.00     0.037 A 
BRANCH  48  62
ATOM     62  C   UNL     1      13.493   9.889   4.628  1.00  0.00     0.058 A 
ATOM     63  C   UNL     1      13.568   9.191   5.845  1.00  0.00     0.135 A 
ATOM     64  C   UNL     1      12.986  11.198   4.654  1.00  0.00     0.135 A 
ATOM     65  F   UNL     1      14.033   7.932   5.874  1.00  0.00    -0.206 F 
ATOM     66  C   UNL     1      13.123   9.756   7.035  1.00  0.00     0.059 A 
ATOM     67  C   UNL     1      12.560  11.792   5.838  1.00  0.00     0.059 A 
ATOM     68  F   UNL     1      12.895  11.910   3.520  1.00  0.00    -0.206 F 
ATOM     69  C   UNL     1      12.616  11.056   7.021  1.00  0.00     0.060 A 
BRANCH  69  70
ATOM     70  S   UNL     1      12.036  11.772   8.573  1.00  0.00     0.124 S 
ATOM     71  O   UNL     1      10.764  11.080   8.754  1.00  0.00    -0.237 OA
ATOM     72  O   UNL     1      13.096  11.403   9.506  1.00  0.00    -0.237 OA
ATOM     73  O   UNL     1      11.938  13.197   8.274  1.00  0.00    -0.744 OA
ENDBRANCH  69  70
ENDBRANCH  48  62
BRANCH  49  74
ATOM     74  C   UNL     1      16.092   5.672  -4.040  1.00  0.00     0.058 A 
ATOM     75  C   UNL     1      17.217   4.843  -4.163  1.00  0.00     0.135 A 
ATOM     76  C   UNL     1      15.318   5.900  -5.188  1.00  0.00     0.135 A 
ATOM     77  F   UNL     1      17.991   4.601  -3.095  1.00  0.00    -0.206 F 
ATOM     78  C   UNL     1      17.571   4.271  -5.381  1.00  0.00     0.059 A 
ATOM     79  C   UNL     1      15.639   5.321  -6.412  1.00  0.00     0.059 A 
ATOM     80  F   UNL     1      14.223   6.672  -5.119  1.00  0.00    -0.206 F 
ATOM     81  C   UNL     1      16.773   4.514  -6.501  1.00  0.00     0.060 A 
BRANCH  81  82
ATOM     82  S   UNL     1      17.210   3.724  -8.065  1.00  0.00     0.124 S 
ATOM     83  O   UNL     1      18.350   4.527  -8.491  1.00  0.00    -0.237 OA
ATOM     84  O   UNL     1      17.510   2.358  -7.648  1.00  0.00    -0.237 OA
ATOM     85  O   UNL     1      15.997   3.874  -8.865  1.00  0.00    -0.744 OA
ENDBRANCH  81  82
ENDBRANCH  49  74
BRANCH  61  86
ATOM     86  C   UNL     1      18.923  10.656  -0.067  1.00  0.00     0.058 A 
ATOM     87  C   UNL     1      19.001  11.713  -0.986  1.00  0.00     0.135 A 
ATOM     88  C   UNL     1      20.031  10.426   0.764  1.00  0.00     0.135 A 
ATOM     89  F   UNL     1      17.972  11.970  -1.809  1.00  0.00    -0.206 F 
ATOM     90  C   UNL     1      20.142  12.503  -1.090  1.00  0.00     0.059 A 
ATOM     91  C   UNL     1      21.174  11.217   0.694  1.00  0.00     0.059 A 
ATOM     92  F   UNL     1      20.005   9.432   1.667  1.00  0.00    -0.206 F 
ATOM     93  C   UNL     1      21.224  12.247  -0.244  1.00  0.00     0.060 A 
BRANCH  93  94
ATOM     94  S   UNL     1      22.685  13.302  -0.361  1.00  0.00     0.124 S 
ATOM     95  O   UNL     1      23.314  12.799  -1.578  1.00  0.00    -0.237 OA
ATOM     96  O   UNL     1      22.102  14.637  -0.454  1.00  0.00    -0.237 OA
ATOM     97  O   UNL     1      23.403  13.024   0.879  1.00  0.00    -0.744 OA
ENDBRANCH  93  94
ENDBRANCH  61  86
ENDBRANCH  35  36
ENDBRANCH  27  30
ENDBRANCH  25  26
ENDBRANCH  24  25
ENDBRANCH   1  24
TORSDOF 19
