REMARK SMILES CSc1nc2nnc(C(=O)NCCCCNC(=O)c3ccc(-c4c5nc(c(-c6c(F)cc(S(=O)(=O)[O-])cc6F)c6ccc([nH]6)c(-c6c(F)cc(S(=O)(=O)[O-])cc6F)c6nc(c(-c7c(F)cc(S(=O)(=O)[O-])cc7F)c7ccc4[nH]7)C=C6)C=C5)cc3)c(O)n2n1
REMARK SMILES IDX 14 1 13 2 12 3 11 4 9 5 10 6 8 8 3 9 4 10 88 11 5 12 87 13
REMARK SMILES IDX 6 14 85 15 7 16 2 17 1 18 86 19 15 21 16 22 17 23 18 25
REMARK SMILES IDX 19 26 20 27 84 28 21 29 83 30 22 31 23 32 24 33 77 34 25 35
REMARK SMILES IDX 82 36 76 37 78 38 26 39 81 40 75 41 74 42 27 44 61 45 40 46
REMARK SMILES IDX 60 47 41 48 44 49 59 50 79 51 42 52 43 53 58 55 80 56 45 57
REMARK SMILES IDX 28 58 29 59 38 60 30 61 31 62 37 63 39 64 32 65 33 66 34 67
REMARK SMILES IDX 35 68 36 69 62 70 63 71 72 72 64 73 65 74 71 75 73 76 66 77
REMARK SMILES IDX 67 78 68 79 69 80 70 81 46 82 47 83 56 84 48 85 49 86 55 87
REMARK SMILES IDX 57 88 50 89 51 90 52 91 53 92 54 93
REMARK H PARENT 11 7 86 20 16 24 78 43 44 54
REMARK Flexibility Score: inf
ROOT
ATOM      1  C   UNL     1       2.615   0.827  11.782  1.00  0.00     0.023 C 
ENDROOT
BRANCH   1   2
ATOM      2  C   UNL     1       2.449   1.664  10.503  1.00  0.00     0.023 C 
BRANCH   2   3
ATOM      3  C   UNL     1       3.517   1.446   9.426  1.00  0.00     0.116 C 
BRANCH   3   4
ATOM      4  N   UNL     1       3.453   0.105   8.862  1.00  0.00    -0.350 N 
ATOM      5  C   UNL     1       3.050  -0.391   7.662  1.00  0.00     0.277 C 
ATOM      6  O   UNL     1       3.086  -1.620   7.526  1.00  0.00    -0.267 OA
ATOM      7  H   UNL     1       3.770  -0.591   9.482  1.00  0.00     0.163 HD
BRANCH   5   8
ATOM      8  C   UNL     1       2.575   0.461   6.515  1.00  0.00     0.212 A 
ATOM      9  C   UNL     1       1.180   1.578   2.538  1.00  0.00     0.210 A 
ATOM     10  N   UNL     1       1.362   2.629   3.386  1.00  0.00    -0.182 NA
ATOM     11  N   UNL     1       1.429   0.375   3.050  1.00  0.00    -0.134 NA
ATOM     12  C   UNL     1       1.777   2.053   4.494  1.00  0.00     0.275 A 
ATOM     13  N   UNL     1       1.827   0.677   4.312  1.00  0.00    -0.159 N 
ATOM     14  N   UNL     1       2.124   2.584   5.700  1.00  0.00    -0.108 NA
ATOM     15  C   UNL     1       2.238  -0.157   5.355  1.00  0.00     0.249 A 
ATOM     16  N   UNL     1       2.492   1.835   6.646  1.00  0.00    -0.136 NA
BRANCH   9  17
ATOM     17  S   UNL     1       0.613   1.807   0.904  1.00  0.00    -0.088 SA
ATOM     18  C   UNL     1       1.081   0.233   0.153  1.00  0.00     0.094 C 
ENDBRANCH   9  17
BRANCH  15  19
ATOM     19  O   UNL     1       2.271  -1.526   5.128  1.00  0.00    -0.491 OA
ATOM     20  H   UNL     1       2.543  -2.108   5.810  1.00  0.00     0.295 HD
ENDBRANCH  15  19
ENDBRANCH   5   8
ENDBRANCH   3   4
ENDBRANCH   2   3
ENDBRANCH   1   2
BRANCH   1  21
ATOM     21  C   UNL     1       3.897   1.100  12.558  1.00  0.00     0.116 C 
BRANCH  21  22
ATOM     22  N   UNL     1       3.968   2.462  13.085  1.00  0.00    -0.352 N 
ATOM     23  C   UNL     1       5.008   3.026  13.799  1.00  0.00     0.251 C 
ATOM     24  H   UNL     1       3.191   3.041  12.911  1.00  0.00     0.163 HD
ATOM     25  O   UNL     1       4.828   4.021  14.496  1.00  0.00    -0.269 OA
BRANCH  23  26
ATOM     26  C   UNL     1       6.337   2.403  13.702  1.00  0.00     0.039 A 
ATOM     27  C   UNL     1       7.101   2.129  14.839  1.00  0.00     0.014 A 
ATOM     28  C   UNL     1       6.778   2.033  12.433  1.00  0.00     0.014 A 
ATOM     29  C   UNL     1       8.275   1.391  14.697  1.00  0.00     0.010 A 
ATOM     30  C   UNL     1       7.860   1.197  12.312  1.00  0.00     0.010 A 
ATOM     31  C   UNL     1       8.638   0.906  13.431  1.00  0.00    -0.014 A 
BRANCH  31  32
ATOM     32  C   UNL     1       9.776   0.004  13.275  1.00  0.00     0.031 A 
ATOM     33  C   UNL     1       9.739  -1.237  14.104  1.00  0.00     0.074 A 
ATOM     34  C   UNL     1      10.682   0.146  12.284  1.00  0.00     0.049 A 
ATOM     35  N   UNL     1      10.543  -1.589  15.053  1.00  0.00    -0.248 NA
ATOM     36  C   UNL     1       8.601  -2.154  13.926  1.00  0.00     0.031 C 
ATOM     37  C   UNL     1      10.697   1.123  11.187  1.00  0.00     0.029 A 
ATOM     38  N   UNL     1      11.749  -0.644  11.991  1.00  0.00    -0.354 N 
ATOM     39  C   UNL     1      10.142  -2.863  15.455  1.00  0.00     0.074 A 
ATOM     40  C   UNL     1       8.854  -3.083  14.851  1.00  0.00     0.031 C 
ATOM     41  C   UNL     1      11.573   0.726  10.238  1.00  0.00     0.029 A 
ATOM     42  C   UNL     1      12.308  -0.419  10.740  1.00  0.00     0.049 A 
ATOM     43  H   UNL     1      12.097  -1.321  12.615  1.00  0.00     0.167 HD
ATOM     44  C   UNL     1      10.998  -3.720  16.084  1.00  0.00     0.037 A 
ATOM     45  C   UNL     1      13.300  -1.130  10.150  1.00  0.00     0.037 A 
ATOM     46  C   UNL     1      12.156  -3.023  16.585  1.00  0.00     0.049 A 
ATOM     47  C   UNL     1      14.025  -1.836  11.237  1.00  0.00     0.074 A 
ATOM     48  C   UNL     1      12.353  -1.992  17.483  1.00  0.00     0.029 A 
ATOM     49  N   UNL     1      13.323  -3.109  15.863  1.00  0.00    -0.354 N 
ATOM     50  N   UNL     1      14.709  -1.224  12.168  1.00  0.00    -0.248 NA
ATOM     51  C   UNL     1      13.602  -3.189  11.565  1.00  0.00     0.031 C 
ATOM     52  C   UNL     1      13.393  -1.201  16.910  1.00  0.00     0.029 A 
ATOM     53  C   UNL     1      13.813  -1.833  15.738  1.00  0.00     0.049 A 
ATOM     54  H   UNL     1      13.730  -3.930  15.503  1.00  0.00     0.167 HD
ATOM     55  C   UNL     1      14.445  -1.933  13.332  1.00  0.00     0.074 A 
ATOM     56  C   UNL     1      13.831  -3.181  12.882  1.00  0.00     0.031 C 
ATOM     57  C   UNL     1      14.494  -1.335  14.560  1.00  0.00     0.037 A 
BRANCH  44  58
ATOM     58  C   UNL     1      10.961  -5.229  15.964  1.00  0.00     0.058 A 
ATOM     59  C   UNL     1      11.804  -6.014  16.782  1.00  0.00     0.135 A 
ATOM     60  C   UNL     1      10.347  -5.918  14.895  1.00  0.00     0.135 A 
ATOM     61  F   UNL     1      12.443  -5.468  17.830  1.00  0.00    -0.206 F 
ATOM     62  C   UNL     1      12.080  -7.355  16.508  1.00  0.00     0.059 A 
ATOM     63  C   UNL     1      10.565  -7.268  14.637  1.00  0.00     0.059 A 
ATOM     64  F   UNL     1       9.584  -5.297  13.989  1.00  0.00    -0.206 F 
ATOM     65  C   UNL     1      11.469  -7.967  15.419  1.00  0.00     0.060 A 
BRANCH  65  66
ATOM     66  S   UNL     1      11.924  -9.655  14.980  1.00  0.00     0.124 S 
ATOM     67  O   UNL     1      13.307  -9.481  14.552  1.00  0.00    -0.237 OA
ATOM     68  O   UNL     1      11.727 -10.359  16.243  1.00  0.00    -0.237 OA
ATOM     69  O   UNL     1      10.974  -9.994  13.925  1.00  0.00    -0.744 OA
ENDBRANCH  65  66
ENDBRANCH  44  58
BRANCH  45  70
ATOM     70  C   UNL     1      13.444  -1.462   8.711  1.00  0.00     0.058 A 
ATOM     71  C   UNL     1      14.658  -1.926   8.177  1.00  0.00     0.135 A 
ATOM     72  C   UNL     1      12.313  -1.579   7.875  1.00  0.00     0.135 A 
ATOM     73  F   UNL     1      15.778  -1.879   8.914  1.00  0.00    -0.206 F 
ATOM     74  C   UNL     1      14.741  -2.501   6.903  1.00  0.00     0.059 A 
ATOM     75  C   UNL     1      12.372  -2.141   6.601  1.00  0.00     0.059 A 
ATOM     76  F   UNL     1      11.094  -1.226   8.312  1.00  0.00    -0.206 F 
ATOM     77  C   UNL     1      13.587  -2.620   6.128  1.00  0.00     0.060 A 
BRANCH  77  78
ATOM     78  S   UNL     1      13.665  -3.490   4.544  1.00  0.00     0.124 S 
ATOM     79  O   UNL     1      14.524  -2.612   3.758  1.00  0.00    -0.237 OA
ATOM     80  O   UNL     1      14.243  -4.773   4.928  1.00  0.00    -0.237 OA
ATOM     81  O   UNL     1      12.268  -3.542   4.117  1.00  0.00    -0.744 OA
ENDBRANCH  77  78
ENDBRANCH  45  70
BRANCH  57  82
ATOM     82  C   UNL     1      15.082   0.054  14.663  1.00  0.00     0.058 A 
ATOM     83  C   UNL     1      14.511   1.199  14.078  1.00  0.00     0.135 A 
ATOM     84  C   UNL     1      16.158   0.260  15.539  1.00  0.00     0.135 A 
ATOM     85  F   UNL     1      13.419   1.110  13.311  1.00  0.00    -0.206 F 
ATOM     86  C   UNL     1      15.005   2.482  14.326  1.00  0.00     0.059 A 
ATOM     87  C   UNL     1      16.649   1.533  15.825  1.00  0.00     0.059 A 
ATOM     88  F   UNL     1      16.710  -0.783  16.181  1.00  0.00    -0.206 F 
ATOM     89  C   UNL     1      16.072   2.640  15.208  1.00  0.00     0.060 A 
BRANCH  89  90
ATOM     90  S   UNL     1      16.647   4.308  15.598  1.00  0.00     0.124 S 
ATOM     91  O   UNL     1      17.258   4.724  14.341  1.00  0.00    -0.237 OA
ATOM     92  O   UNL     1      15.409   4.994  15.958  1.00  0.00    -0.237 OA
ATOM     93  O   UNL     1      17.577   4.099  16.705  1.00  0.00    -0.744 OA
ENDBRANCH  89  90
ENDBRANCH  57  82
ENDBRANCH  31  32
ENDBRANCH  23  26
ENDBRANCH  21  22
ENDBRANCH   1  21
TORSDOF 16
