REMARK SMILES O=C(NCCCCNC(=O)[C@H]1[C@H]2CC[C@H](C2)[C@@H]1C(=O)N1CC[NH+](C2CCCCC2)CC1)c1ccc(-c2c3nc(c(-c4c(F)cc(S(=O)(=O)[O-])cc4F)c4ccc([nH]4)c(-c4c(F)cc(S(=O)(=O)[O-])cc4F)c4nc(c(-c5c(F)cc(S(=O)(=O)[O-])cc5F)c5ccc2[nH]5)C=C4)C=C3)cc1
REMARK SMILES IDX 5 1 4 2 3 3 1 4 2 5 32 7 33 8 97 9 34 10 96 11 35 12 36 13
REMARK SMILES IDX 37 14 90 15 38 16 95 17 89 18 91 19 39 20 94 21 88 22 87 23
REMARK SMILES IDX 40 25 74 26 53 27 73 28 54 29 57 30 72 31 92 32 55 33 56 34
REMARK SMILES IDX 71 36 93 37 58 38 41 39 42 40 51 41 43 42 44 43 50 44 52 45
REMARK SMILES IDX 45 46 46 47 47 48 48 49 49 50 75 51 76 52 85 53 77 54 78 55
REMARK SMILES IDX 84 56 86 57 79 58 80 59 81 60 82 61 83 62 59 63 60 64 69 65
REMARK SMILES IDX 61 66 62 67 68 68 70 69 63 70 64 71 65 72 66 73 67 74 6 75
REMARK SMILES IDX 7 76 8 77 9 78 10 80 11 81 12 82 17 83 13 84 16 85 15 86
REMARK SMILES IDX 14 87 18 88 19 89 20 90 21 91 31 92 22 93 30 94 23 95 24 97
REMARK SMILES IDX 25 98 29 99 26 100 28 101 27 102
REMARK H PARENT 3 6 91 24 57 35 8 79 23 96
REMARK Flexibility Score: inf
ROOT
ATOM      1  C   UNL     1       8.432   4.907  10.000  1.00  0.00     0.023 C 
ENDROOT
BRANCH   1   2
ATOM      2  C   UNL     1       9.708   4.239  10.474  1.00  0.00     0.116 C 
BRANCH   2   3
ATOM      3  N   UNL     1      10.891   5.054  10.256  1.00  0.00    -0.352 N 
ATOM      4  O   UNL     1      12.887   5.953  10.822  1.00  0.00    -0.269 OA
ATOM      5  C   UNL     1      12.009   5.134  11.052  1.00  0.00     0.251 C 
ATOM      6  H   UNL     1      10.892   5.613   9.446  1.00  0.00     0.163 HD
BRANCH   5   7
ATOM      7  C   UNL     1      12.105   4.225  12.212  1.00  0.00     0.039 A 
ATOM      8  C   UNL     1      11.881   2.855  12.048  1.00  0.00     0.014 A 
ATOM      9  C   UNL     1      12.384   4.758  13.472  1.00  0.00     0.014 A 
ATOM     10  C   UNL     1      11.837   2.028  13.162  1.00  0.00     0.010 A 
ATOM     11  C   UNL     1      12.414   3.912  14.581  1.00  0.00     0.010 A 
ATOM     12  C   UNL     1      12.133   2.545  14.433  1.00  0.00    -0.014 A 
BRANCH  12  13
ATOM     13  C   UNL     1      12.285   1.613  15.574  1.00  0.00     0.031 A 
ATOM     14  C   UNL     1      11.339   1.641  16.737  1.00  0.00     0.074 A 
ATOM     15  C   UNL     1      13.322   0.753  15.542  1.00  0.00     0.049 A 
ATOM     16  N   UNL     1      11.374   0.930  17.834  1.00  0.00    -0.248 NA
ATOM     17  C   UNL     1      10.216   2.589  16.672  1.00  0.00     0.031 C 
ATOM     18  C   UNL     1      14.312   0.670  14.462  1.00  0.00     0.029 A 
ATOM     19  N   UNL     1      13.726  -0.204  16.433  1.00  0.00    -0.354 N 
ATOM     20  C   UNL     1      10.300   1.359  18.602  1.00  0.00     0.074 A 
ATOM     21  C   UNL     1       9.629   2.396  17.849  1.00  0.00     0.031 C 
ATOM     22  C   UNL     1      15.200  -0.291  14.749  1.00  0.00     0.029 A 
ATOM     23  C   UNL     1      14.881  -0.847  16.057  1.00  0.00     0.049 A 
ATOM     24  H   UNL     1      13.238  -0.411  17.263  1.00  0.00     0.167 HD
ATOM     25  C   UNL     1       9.918   0.919  19.825  1.00  0.00     0.037 A 
ATOM     26  C   UNL     1      15.630  -1.753  16.712  1.00  0.00     0.037 A 
ATOM     27  C   UNL     1      10.584  -0.139  20.543  1.00  0.00     0.049 A 
ATOM     28  C   UNL     1      15.190  -2.202  18.073  1.00  0.00     0.074 A 
ATOM     29  C   UNL     1      10.217  -0.727  21.741  1.00  0.00     0.029 A 
ATOM     30  N   UNL     1      11.760  -0.755  20.139  1.00  0.00    -0.354 N 
ATOM     31  N   UNL     1      14.128  -1.841  18.752  1.00  0.00    -0.248 NA
ATOM     32  C   UNL     1      16.053  -3.168  18.765  1.00  0.00     0.031 C 
ATOM     33  C   UNL     1      11.197  -1.663  22.087  1.00  0.00     0.029 A 
ATOM     34  C   UNL     1      12.155  -1.686  21.086  1.00  0.00     0.049 A 
ATOM     35  H   UNL     1      12.242  -0.560  19.303  1.00  0.00     0.167 HD
ATOM     36  C   UNL     1      14.196  -2.532  19.954  1.00  0.00     0.074 A 
ATOM     37  C   UNL     1      15.387  -3.354  19.897  1.00  0.00     0.031 C 
ATOM     38  C   UNL     1      13.353  -2.483  21.013  1.00  0.00     0.037 A 
BRANCH  25  39
ATOM     39  C   UNL     1       8.739   1.573  20.487  1.00  0.00     0.058 A 
ATOM     40  C   UNL     1       7.422   1.286  20.103  1.00  0.00     0.135 A 
ATOM     41  C   UNL     1       8.931   2.415  21.595  1.00  0.00     0.135 A 
ATOM     42  F   UNL     1       7.183   0.497  19.043  1.00  0.00    -0.206 F 
ATOM     43  C   UNL     1       6.333   1.808  20.795  1.00  0.00     0.059 A 
ATOM     44  C   UNL     1       7.858   2.935  22.313  1.00  0.00     0.059 A 
ATOM     45  F   UNL     1      10.173   2.723  22.002  1.00  0.00    -0.206 F 
ATOM     46  C   UNL     1       6.561   2.627  21.904  1.00  0.00     0.060 A 
BRANCH  46  47
ATOM     47  S   UNL     1       5.139   3.254  22.823  1.00  0.00     0.124 S 
ATOM     48  O   UNL     1       4.623   4.266  21.907  1.00  0.00    -0.237 OA
ATOM     49  O   UNL     1       4.314   2.060  22.976  1.00  0.00    -0.237 OA
ATOM     50  O   UNL     1       5.728   3.767  24.056  1.00  0.00    -0.744 OA
ENDBRANCH  46  47
ENDBRANCH  25  39
BRANCH  26  51
ATOM     51  C   UNL     1      16.893  -2.242  16.106  1.00  0.00     0.058 A 
ATOM     52  C   UNL     1      17.015  -3.558  15.643  1.00  0.00     0.135 A 
ATOM     53  C   UNL     1      18.000  -1.390  15.963  1.00  0.00     0.135 A 
ATOM     54  F   UNL     1      15.984  -4.409  15.758  1.00  0.00    -0.206 F 
ATOM     55  C   UNL     1      18.198  -4.021  15.075  1.00  0.00     0.059 A 
ATOM     56  C   UNL     1      19.183  -1.821  15.375  1.00  0.00     0.059 A 
ATOM     57  F   UNL     1      17.925  -0.114  16.372  1.00  0.00    -0.206 F 
ATOM     58  C   UNL     1      19.277  -3.144  14.947  1.00  0.00     0.060 A 
BRANCH  58  59
ATOM     59  S   UNL     1      20.800  -3.739  14.181  1.00  0.00     0.124 S 
ATOM     60  O   UNL     1      21.400  -4.494  15.274  1.00  0.00    -0.237 OA
ATOM     61  O   UNL     1      20.296  -4.529  13.061  1.00  0.00    -0.237 OA
ATOM     62  O   UNL     1      21.488  -2.507  13.807  1.00  0.00    -0.744 OA
ENDBRANCH  58  59
ENDBRANCH  26  51
BRANCH  38  63
ATOM     63  C   UNL     1      13.698  -3.336  22.197  1.00  0.00     0.058 A 
ATOM     64  C   UNL     1      14.724  -2.969  23.080  1.00  0.00     0.135 A 
ATOM     65  C   UNL     1      12.969  -4.502  22.478  1.00  0.00     0.135 A 
ATOM     66  F   UNL     1      15.458  -1.869  22.844  1.00  0.00    -0.206 F 
ATOM     67  C   UNL     1      15.024  -3.736  24.200  1.00  0.00     0.059 A 
ATOM     68  C   UNL     1      13.237  -5.271  23.605  1.00  0.00     0.059 A 
ATOM     69  F   UNL     1      11.975  -4.891  21.664  1.00  0.00    -0.206 F 
ATOM     70  C   UNL     1      14.272  -4.884  24.455  1.00  0.00     0.060 A 
BRANCH  70  71
ATOM     71  S   UNL     1      14.640  -5.846  25.937  1.00  0.00     0.124 S 
ATOM     72  O   UNL     1      15.865  -6.535  25.543  1.00  0.00    -0.237 OA
ATOM     73  O   UNL     1      14.794  -4.811  26.954  1.00  0.00    -0.237 OA
ATOM     74  O   UNL     1      13.463  -6.696  26.090  1.00  0.00    -0.744 OA
ENDBRANCH  70  71
ENDBRANCH  38  63
ENDBRANCH  12  13
ENDBRANCH   5   7
ENDBRANCH   2   3
ENDBRANCH   1   2
BRANCH   1  75
ATOM     75  C   UNL     1       8.417   5.272   8.518  1.00  0.00     0.023 C 
BRANCH  75  76
ATOM     76  C   UNL     1       8.564   4.084   7.565  1.00  0.00     0.116 C 
BRANCH  76  77
ATOM     77  N   UNL     1       7.377   3.262   7.556  1.00  0.00    -0.356 N 
ATOM     78  C   UNL     1       6.256   3.299   6.801  1.00  0.00     0.224 C 
ATOM     79  H   UNL     1       7.386   2.539   8.225  1.00  0.00     0.163 HD
ATOM     80  O   UNL     1       5.398   2.451   7.080  1.00  0.00    -0.275 OA
BRANCH  78  81
ATOM     81  C   UNL     1       6.057   4.210   5.587  1.00  0.00     0.094 C 
ATOM     82  C   UNL     1       4.524   4.470   5.413  1.00  0.00     0.002 C 
ATOM     83  C   UNL     1       6.617   5.649   5.518  1.00  0.00     0.094 C 
ATOM     84  C   UNL     1       3.956   5.258   6.615  1.00  0.00     0.005 C 
ATOM     85  C   UNL     1       4.507   5.542   4.336  1.00  0.00     0.009 C 
ATOM     86  C   UNL     1       5.385   6.501   5.140  1.00  0.00     0.002 C 
ATOM     87  C   UNL     1       4.534   6.667   6.414  1.00  0.00     0.005 C 
BRANCH  83  88
ATOM     88  C   UNL     1       7.842   5.813   4.609  1.00  0.00     0.227 C 
ATOM     89  O   UNL     1       8.896   6.271   5.055  1.00  0.00    -0.275 OA
ATOM     90  N   UNL     1       7.766   5.317   3.326  1.00  0.00    -0.331 N 
ATOM     91  C   UNL     1       8.893   4.518   2.842  1.00  0.00     0.181 C 
ATOM     92  C   UNL     1       7.142   6.125   2.286  1.00  0.00     0.181 C 
ATOM     93  C   UNL     1       8.541   3.719   1.563  1.00  0.00     0.284 C 
ATOM     94  C   UNL     1       6.717   5.238   1.112  1.00  0.00     0.284 C 
ATOM     95  N   UNL     1       7.818   4.468   0.510  1.00  0.00    -0.330 N 
ATOM     96  H   UNL     1       7.369   3.799  -0.115  1.00  0.00     0.348 HD
BRANCH  95  97
ATOM     97  C   UNL     1       8.670   5.141  -0.493  1.00  0.00     0.184 C 
ATOM     98  C   UNL     1       7.842   5.982  -1.492  1.00  0.00     0.065 C 
ATOM     99  C   UNL     1       9.871   5.948   0.045  1.00  0.00     0.065 C 
ATOM    100  C   UNL     1       8.695   6.618  -2.583  1.00  0.00     0.006 C 
ATOM    101  C   UNL     1      10.679   6.627  -1.062  1.00  0.00     0.006 C 
ATOM    102  C   UNL     1       9.798   7.470  -1.971  1.00  0.00     0.000 C 
ENDBRANCH  95  97
ENDBRANCH  83  88
ENDBRANCH  78  81
ENDBRANCH  76  77
ENDBRANCH  75  76
ENDBRANCH   1  75
TORSDOF 16
