REMARK SMILES CCN(Cc1cn(CC)nc1C)C(=O)c1ccn([C@@H](C)C(=O)NCCCCNC(=O)c2ccc(-c3c4nc(c(-c5c(F)cc(S(=O)(=O)[O-])cc5F)c5ccc([nH]5)c(-c5c(F)cc(S(=O)(=O)[O-])cc5F)c5nc(c(-c6c(F)cc(S(=O)(=O)[O-])cc6F)c6ccc3[nH]6)C=C5)C=C4)cc2)n1
REMARK SMILES IDX 24 1 23 2 21 3 22 4 19 6 20 7 18 8 15 9 16 10 97 11 17 12
REMARK SMILES IDX 13 13 14 14 3 15 2 16 1 17 4 18 5 19 6 20 11 21 7 22 10 23
REMARK SMILES IDX 12 24 8 25 9 26 25 27 26 28 27 29 28 30 29 31 30 33 31 34
REMARK SMILES IDX 32 35 96 36 33 37 95 38 34 39 35 40 36 41 89 42 37 43 94 44
REMARK SMILES IDX 88 45 90 46 38 47 93 48 87 49 86 50 39 52 73 53 52 54 72 55
REMARK SMILES IDX 53 56 56 57 71 58 91 59 54 60 55 61 70 63 92 64 57 65 40 66
REMARK SMILES IDX 41 67 50 68 42 69 43 70 49 71 51 72 44 73 45 74 46 75 47 76
REMARK SMILES IDX 48 77 74 78 75 79 84 80 76 81 77 82 83 83 85 84 78 85 79 86
REMARK SMILES IDX 80 87 81 88 82 89 58 90 59 91 68 92 60 93 61 94 67 95 69 96
REMARK SMILES IDX 62 97 63 98 64 99 65 100 66 101
REMARK H PARENT 23 5 28 32 90 51 56 62
REMARK Flexibility Score: inf
ROOT
ATOM      1  C   UNL     1       4.309  -2.600  -8.435  1.00  0.00     0.116 C 
ENDROOT
BRANCH   1   2
ATOM      2  N   UNL     1       5.481  -2.767  -7.581  1.00  0.00    -0.354 N 
ATOM      3  C   UNL     1       5.690  -3.120  -6.278  1.00  0.00     0.244 C 
ATOM      4  O   UNL     1       6.879  -3.097  -5.925  1.00  0.00    -0.273 OA
ATOM      5  H   UNL     1       6.321  -2.581  -8.058  1.00  0.00     0.163 HD
BRANCH   3   6
ATOM      6  C   UNL     1       4.621  -3.543  -5.251  1.00  0.00     0.193 C 
ATOM      7  C   UNL     1       3.798  -4.762  -5.646  1.00  0.00     0.044 C 
BRANCH   6   8
ATOM      8  N   UNL     1       3.815  -2.417  -4.797  1.00  0.00    -0.260 N 
ATOM      9  C   UNL     1       3.090  -0.863  -3.548  1.00  0.00     0.150 A 
ATOM     10  C   UNL     1       2.954  -0.441  -4.886  1.00  0.00     0.056 A 
ATOM     11  N   UNL     1       3.673  -2.084  -3.487  1.00  0.00    -0.167 NA
ATOM     12  C   UNL     1       3.058  -1.611  -5.579  1.00  0.00     0.110 A 
BRANCH   9  13
ATOM     13  C   UNL     1       2.539  -0.135  -2.401  1.00  0.00     0.274 C 
ATOM     14  O   UNL     1       3.266   0.366  -1.544  1.00  0.00    -0.267 OA
BRANCH  13  15
ATOM     15  N   UNL     1       1.132   0.015  -2.372  1.00  0.00    -0.333 N 
BRANCH  15  16
ATOM     16  C   UNL     1       0.561   0.782  -1.273  1.00  0.00     0.117 C 
ATOM     17  C   UNL     1       0.574   0.002   0.036  1.00  0.00     0.027 C 
ENDBRANCH  15  16
BRANCH  15  18
ATOM     18  C   UNL     1       0.198  -0.732  -3.236  1.00  0.00     0.159 C 
BRANCH  18  19
ATOM     19  C   UNL     1      -0.032  -0.072  -4.566  1.00  0.00     0.012 A 
ATOM     20  C   UNL     1      -0.039   1.275  -4.898  1.00  0.00     0.114 A 
ATOM     21  C   UNL     1      -0.231  -0.726  -5.827  1.00  0.00     0.064 A 
ATOM     22  N   UNL     1      -0.128   1.344  -6.260  1.00  0.00    -0.272 N 
ATOM     23  N   UNL     1      -0.290   0.147  -6.840  1.00  0.00    -0.178 NA
ATOM     24  C   UNL     1      -0.300  -2.178  -6.142  1.00  0.00     0.069 C 
BRANCH  22  25
ATOM     25  C   UNL     1      -0.024   2.525  -7.097  1.00  0.00     0.141 C 
ATOM     26  C   UNL     1       1.330   2.645  -7.783  1.00  0.00     0.029 C 
ENDBRANCH  22  25
ENDBRANCH  18  19
ENDBRANCH  15  18
ENDBRANCH  13  15
ENDBRANCH   9  13
ENDBRANCH   6   8
ENDBRANCH   3   6
ENDBRANCH   1   2
BRANCH   1  27
ATOM     27  C   UNL     1       3.874  -1.127  -8.578  1.00  0.00     0.023 C 
BRANCH  27  28
ATOM     28  C   UNL     1       4.562  -0.270  -9.638  1.00  0.00     0.023 C 
BRANCH  28  29
ATOM     29  C   UNL     1       4.194  -0.604 -11.074  1.00  0.00     0.116 C 
BRANCH  29  30
ATOM     30  N   UNL     1       2.768  -0.462 -11.357  1.00  0.00    -0.352 N 
ATOM     31  C   UNL     1       2.064  -1.012 -12.422  1.00  0.00     0.251 C 
ATOM     32  H   UNL     1       2.247   0.083 -10.724  1.00  0.00     0.163 HD
ATOM     33  O   UNL     1       0.995  -0.569 -12.779  1.00  0.00    -0.269 OA
BRANCH  31  34
ATOM     34  C   UNL     1       2.688  -2.160 -13.107  1.00  0.00     0.039 A 
ATOM     35  C   UNL     1       2.960  -2.109 -14.473  1.00  0.00     0.014 A 
ATOM     36  C   UNL     1       3.141  -3.212 -12.314  1.00  0.00     0.014 A 
ATOM     37  C   UNL     1       3.801  -3.075 -15.021  1.00  0.00     0.010 A 
ATOM     38  C   UNL     1       4.063  -4.094 -12.836  1.00  0.00     0.010 A 
ATOM     39  C   UNL     1       4.392  -4.045 -14.192  1.00  0.00    -0.014 A 
BRANCH  39  40
ATOM     40  C   UNL     1       5.453  -4.909 -14.727  1.00  0.00     0.031 A 
ATOM     41  C   UNL     1       6.575  -4.207 -15.421  1.00  0.00     0.074 A 
ATOM     42  C   UNL     1       5.581  -6.224 -14.442  1.00  0.00     0.049 A 
ATOM     43  N   UNL     1       6.900  -4.263 -16.671  1.00  0.00    -0.248 NA
ATOM     44  C   UNL     1       7.390  -3.259 -14.642  1.00  0.00     0.031 C 
ATOM     45  C   UNL     1       4.793  -7.011 -13.486  1.00  0.00     0.029 A 
ATOM     46  N   UNL     1       6.525  -7.118 -14.865  1.00  0.00    -0.354 N 
ATOM     47  C   UNL     1       8.093  -3.548 -16.793  1.00  0.00     0.074 A 
ATOM     48  C   UNL     1       8.247  -2.814 -15.565  1.00  0.00     0.031 C 
ATOM     49  C   UNL     1       5.433  -8.167 -13.217  1.00  0.00     0.029 A 
ATOM     50  C   UNL     1       6.550  -8.296 -14.133  1.00  0.00     0.049 A 
ATOM     51  H   UNL     1       7.131  -6.941 -15.620  1.00  0.00     0.167 HD
ATOM     52  C   UNL     1       8.985  -3.824 -17.788  1.00  0.00     0.037 A 
ATOM     53  C   UNL     1       7.404  -9.336 -14.261  1.00  0.00     0.037 A 
ATOM     54  C   UNL     1       8.408  -4.699 -18.774  1.00  0.00     0.049 A 
ATOM     55  C   UNL     1       7.945  -9.321 -15.638  1.00  0.00     0.074 A 
ATOM     56  C   UNL     1       7.573  -4.591 -19.863  1.00  0.00     0.029 A 
ATOM     57  N   UNL     1       8.491  -6.025 -18.451  1.00  0.00    -0.354 N 
ATOM     58  N   UNL     1       7.207  -9.475 -16.705  1.00  0.00    -0.248 NA
ATOM     59  C   UNL     1       9.300  -8.837 -15.880  1.00  0.00     0.031 C 
ATOM     60  C   UNL     1       7.025  -5.892 -20.078  1.00  0.00     0.029 A 
ATOM     61  C   UNL     1       7.554  -6.760 -19.127  1.00  0.00     0.049 A 
ATOM     62  H   UNL     1       9.141  -6.402 -17.814  1.00  0.00     0.167 HD
ATOM     63  C   UNL     1       7.846  -8.728 -17.672  1.00  0.00     0.074 A 
ATOM     64  C   UNL     1       9.196  -8.514 -17.172  1.00  0.00     0.031 C 
ATOM     65  C   UNL     1       7.143  -8.053 -18.623  1.00  0.00     0.037 A 
BRANCH  52  66
ATOM     66  C   UNL     1      10.495  -3.701 -17.687  1.00  0.00     0.058 A 
ATOM     67  C   UNL     1      11.281  -3.878 -18.849  1.00  0.00     0.135 A 
ATOM     68  C   UNL     1      11.207  -3.732 -16.469  1.00  0.00     0.135 A 
ATOM     69  F   UNL     1      10.714  -3.870 -20.067  1.00  0.00    -0.206 F 
ATOM     70  C   UNL     1      12.654  -4.138 -18.799  1.00  0.00     0.059 A 
ATOM     71  C   UNL     1      12.584  -3.937 -16.399  1.00  0.00     0.059 A 
ATOM     72  F   UNL     1      10.590  -3.667 -15.284  1.00  0.00    -0.206 F 
ATOM     73  C   UNL     1      13.293  -4.183 -17.565  1.00  0.00     0.060 A 
BRANCH  73  74
ATOM     74  S   UNL     1      15.040  -4.619 -17.483  1.00  0.00     0.124 S 
ATOM     75  O   UNL     1      15.002  -6.041 -17.802  1.00  0.00    -0.237 OA
ATOM     76  O   UNL     1      15.621  -3.750 -18.502  1.00  0.00    -0.237 OA
ATOM     77  O   UNL     1      15.403  -4.287 -16.108  1.00  0.00    -0.744 OA
ENDBRANCH  73  74
ENDBRANCH  52  66
BRANCH  53  78
ATOM     78  C   UNL     1       7.924 -10.225 -13.197  1.00  0.00     0.058 A 
ATOM     79  C   UNL     1       8.501 -11.467 -13.506  1.00  0.00     0.135 A 
ATOM     80  C   UNL     1       8.120  -9.747 -11.886  1.00  0.00     0.135 A 
ATOM     81  F   UNL     1       8.366 -11.987 -14.735  1.00  0.00    -0.206 F 
ATOM     82  C   UNL     1       9.285 -12.167 -12.587  1.00  0.00     0.059 A 
ATOM     83  C   UNL     1       8.891 -10.431 -10.949  1.00  0.00     0.059 A 
ATOM     84  F   UNL     1       7.642  -8.550 -11.509  1.00  0.00    -0.206 F 
ATOM     85  C   UNL     1       9.496 -11.627 -11.319  1.00  0.00     0.060 A 
BRANCH  85  86
ATOM     86  S   UNL     1      10.675 -12.429 -10.207  1.00  0.00     0.124 S 
ATOM     87  O   UNL     1       9.962 -13.648  -9.844  1.00  0.00    -0.237 OA
ATOM     88  O   UNL     1      11.839 -12.602 -11.070  1.00  0.00    -0.237 OA
ATOM     89  O   UNL     1      10.839 -11.456  -9.131  1.00  0.00    -0.744 OA
ENDBRANCH  85  86
ENDBRANCH  53  78
BRANCH  65  90
ATOM     90  C   UNL     1       5.805  -8.588 -19.030  1.00  0.00     0.058 A 
ATOM     91  C   UNL     1       4.655  -8.587 -18.225  1.00  0.00     0.135 A 
ATOM     92  C   UNL     1       5.669  -9.050 -20.349  1.00  0.00     0.135 A 
ATOM     93  F   UNL     1       4.688  -8.097 -16.978  1.00  0.00    -0.206 F 
ATOM     94  C   UNL     1       3.428  -9.048 -18.706  1.00  0.00     0.059 A 
ATOM     95  C   UNL     1       4.452  -9.488 -20.857  1.00  0.00     0.059 A 
ATOM     96  F   UNL     1       6.727  -9.037 -21.177  1.00  0.00    -0.206 F 
ATOM     97  C   UNL     1       3.335  -9.493 -20.026  1.00  0.00     0.060 A 
BRANCH  97  98
ATOM     98  S   UNL     1       1.731 -10.009 -20.676  1.00  0.00     0.124 S 
ATOM     99  O   UNL     1       1.531 -11.294 -20.015  1.00  0.00    -0.237 OA
ATOM    100  O   UNL     1       0.850  -8.928 -20.243  1.00  0.00    -0.237 OA
ATOM    101  O   UNL     1       1.954 -10.077 -22.119  1.00  0.00    -0.744 OA
ENDBRANCH  97  98
ENDBRANCH  65  90
ENDBRANCH  39  40
ENDBRANCH  31  34
ENDBRANCH  29  30
ENDBRANCH  28  29
ENDBRANCH  27  28
ENDBRANCH   1  27
TORSDOF 21
