REMARK SMILES O=C(Cn1cnnn1)Nc1cccc(F)c1C(=O)NCCCCNC(=O)c1ccc(-c2c3nc(c(-c4c(F)cc(S(=O)(=O)[O-])cc4F)c4ccc([nH]4)c(-c4c(F)cc(S(=O)(=O)[O-])cc4F)c4nc(c(-c5c(F)cc(S(=O)(=O)[O-])cc5F)c5ccc2[nH]5)C=C4)C=C3)cc1
REMARK SMILES IDX 21 1 20 2 19 3 17 4 18 5 16 7 10 8 11 9 12 10 14 11 13 12
REMARK SMILES IDX 15 13 9 14 1 15 2 16 3 18 4 19 5 20 8 21 6 22 7 23 22 24
REMARK SMILES IDX 23 25 24 26 25 27 26 29 27 30 28 31 92 32 29 33 91 34 30 35
REMARK SMILES IDX 31 36 32 37 85 38 33 39 90 40 84 41 86 42 34 43 89 44 83 45
REMARK SMILES IDX 82 46 35 48 69 49 48 50 68 51 49 52 52 53 67 54 87 55 50 56
REMARK SMILES IDX 51 57 66 59 88 60 53 61 36 62 37 63 46 64 38 65 39 66 45 67
REMARK SMILES IDX 47 68 40 69 41 70 42 71 43 72 44 73 70 74 71 75 80 76 72 77
REMARK SMILES IDX 73 78 79 79 81 80 74 81 75 82 76 83 77 84 78 85 54 86 55 87
REMARK SMILES IDX 64 88 56 89 57 90 63 91 65 92 58 93 59 94 60 95 61 96 62 97
REMARK H PARENT 19 6 9 17 24 28 86 47 52 58
REMARK Flexibility Score: inf
ROOT
ATOM      1  C   UNL     1       4.283  -7.351  -1.609  1.00  0.00     0.023 C 
ENDROOT
BRANCH   1   2
ATOM      2  C   UNL     1       3.302  -6.642  -0.672  1.00  0.00     0.116 C 
BRANCH   2   3
ATOM      3  N   UNL     1       3.736  -5.316  -0.267  1.00  0.00    -0.352 N 
ATOM      4  C   UNL     1       3.303  -4.022  -0.430  1.00  0.00     0.256 C 
ATOM      5  O   UNL     1       4.090  -3.181   0.022  1.00  0.00    -0.269 OA
ATOM      6  H   UNL     1       4.561  -5.355   0.268  1.00  0.00     0.163 HD
BRANCH   4   7
ATOM      7  C   UNL     1       2.092  -3.509  -1.158  1.00  0.00     0.099 A 
ATOM      8  C   UNL     1       1.924  -2.102  -1.321  1.00  0.00     0.057 A 
ATOM      9  C   UNL     1       0.977  -1.605  -2.239  1.00  0.00     0.027 A 
ATOM     10  C   UNL     1       0.109  -2.453  -2.911  1.00  0.00     0.005 A 
ATOM     11  C   UNL     1       1.078  -4.301  -1.703  1.00  0.00     0.138 A 
ATOM     12  C   UNL     1       0.126  -3.797  -2.596  1.00  0.00     0.040 A 
ATOM     13  F   UNL     1       0.847  -5.553  -1.304  1.00  0.00    -0.206 F 
BRANCH   8  14
ATOM     14  N   UNL     1       2.653  -1.172  -0.522  1.00  0.00    -0.324 N 
ATOM     15  O   UNL     1       1.057   0.505  -0.368  1.00  0.00    -0.273 OA
ATOM     16  C   UNL     1       2.183   0.068  -0.115  1.00  0.00     0.246 C 
ATOM     17  H   UNL     1       3.559  -1.430  -0.237  1.00  0.00     0.170 HD
BRANCH  16  18
ATOM     18  C   UNL     1       3.177   0.982   0.562  1.00  0.00     0.248 C 
BRANCH  18  19
ATOM     19  N   UNL     1       3.848   0.480   1.735  1.00  0.00    -0.223 N 
ATOM     20  C   UNL     1       4.584   1.213   2.615  1.00  0.00     0.246 A 
ATOM     21  N   UNL     1       4.029  -0.823   1.972  1.00  0.00    -0.045 NA
ATOM     22  N   UNL     1       5.221   0.387   3.410  1.00  0.00    -0.117 NA
ATOM     23  N   UNL     1       4.849  -0.875   3.013  1.00  0.00    -0.024 NA
ENDBRANCH  18  19
ENDBRANCH  16  18
ENDBRANCH   8  14
ENDBRANCH   4   7
ENDBRANCH   2   3
ENDBRANCH   1   2
BRANCH   1  24
ATOM     24  C   UNL     1       5.477  -8.058  -0.959  1.00  0.00     0.023 C 
BRANCH  24  25
ATOM     25  C   UNL     1       5.119  -9.142   0.053  1.00  0.00     0.116 C 
BRANCH  25  26
ATOM     26  N   UNL     1       4.303 -10.221  -0.505  1.00  0.00    -0.352 N 
ATOM     27  C   UNL     1       3.765 -11.308   0.171  1.00  0.00     0.251 C 
ATOM     28  H   UNL     1       4.113 -10.171  -1.469  1.00  0.00     0.163 HD
ATOM     29  O   UNL     1       3.432 -12.318  -0.420  1.00  0.00    -0.269 OA
BRANCH  27  30
ATOM     30  C   UNL     1       3.593 -11.197   1.632  1.00  0.00     0.039 A 
ATOM     31  C   UNL     1       3.975 -12.224   2.502  1.00  0.00     0.014 A 
ATOM     32  C   UNL     1       3.082  -9.998   2.118  1.00  0.00     0.014 A 
ATOM     33  C   UNL     1       3.922 -11.995   3.877  1.00  0.00     0.010 A 
ATOM     34  C   UNL     1       3.167  -9.724   3.458  1.00  0.00     0.010 A 
ATOM     35  C   UNL     1       3.535 -10.733   4.347  1.00  0.00    -0.014 A 
BRANCH  35  36
ATOM     36  C   UNL     1       3.643 -10.375   5.762  1.00  0.00     0.031 A 
ATOM     37  C   UNL     1       5.033 -10.451   6.313  1.00  0.00     0.074 A 
ATOM     38  C   UNL     1       2.634  -9.728   6.391  1.00  0.00     0.049 A 
ATOM     39  N   UNL     1       5.473 -11.150   7.309  1.00  0.00    -0.248 NA
ATOM     40  C   UNL     1       6.105  -9.759   5.569  1.00  0.00     0.031 C 
ATOM     41  C   UNL     1       1.351  -9.298   5.814  1.00  0.00     0.029 A 
ATOM     42  N   UNL     1       2.588  -9.172   7.631  1.00  0.00    -0.354 N 
ATOM     43  C   UNL     1       6.814 -10.790   7.465  1.00  0.00     0.074 A 
ATOM     44  C   UNL     1       7.192 -10.120   6.251  1.00  0.00     0.031 C 
ATOM     45  C   UNL     1       0.800  -8.341   6.592  1.00  0.00     0.029 A 
ATOM     46  C   UNL     1       1.589  -8.214   7.801  1.00  0.00     0.049 A 
ATOM     47  H   UNL     1       3.210  -9.425   8.351  1.00  0.00     0.167 HD
ATOM     48  C   UNL     1       7.425 -10.827   8.684  1.00  0.00     0.037 A 
ATOM     49  C   UNL     1       1.456  -7.347   8.838  1.00  0.00     0.037 A 
ATOM     50  C   UNL     1       6.683 -11.652   9.604  1.00  0.00     0.049 A 
ATOM     51  C   UNL     1       2.279  -7.890   9.951  1.00  0.00     0.074 A 
ATOM     52  C   UNL     1       6.272 -12.972   9.609  1.00  0.00     0.029 A 
ATOM     53  N   UNL     1       5.913 -11.020  10.550  1.00  0.00    -0.354 N 
ATOM     54  N   UNL     1       2.034  -9.021  10.558  1.00  0.00    -0.248 NA
ATOM     55  C   UNL     1       3.642  -7.399  10.071  1.00  0.00     0.031 C 
ATOM     56  C   UNL     1       4.963 -12.945  10.173  1.00  0.00     0.029 A 
ATOM     57  C   UNL     1       4.687 -11.632  10.558  1.00  0.00     0.049 A 
ATOM     58  H   UNL     1       6.192 -10.265  11.117  1.00  0.00     0.167 HD
ATOM     59  C   UNL     1       3.283  -9.589  10.763  1.00  0.00     0.074 A 
ATOM     60  C   UNL     1       4.236  -8.509  10.513  1.00  0.00     0.031 C 
ATOM     61  C   UNL     1       3.442 -10.944  10.830  1.00  0.00     0.037 A 
BRANCH  48  62
ATOM     62  C   UNL     1       8.463  -9.823   9.156  1.00  0.00     0.058 A 
ATOM     63  C   UNL     1       8.666  -8.551   8.574  1.00  0.00     0.135 A 
ATOM     64  C   UNL     1       9.086 -10.012  10.410  1.00  0.00     0.135 A 
ATOM     65  F   UNL     1       8.085  -8.178   7.429  1.00  0.00    -0.206 F 
ATOM     66  C   UNL     1       9.407  -7.546   9.185  1.00  0.00     0.059 A 
ATOM     67  C   UNL     1       9.787  -8.997  11.068  1.00  0.00     0.059 A 
ATOM     68  F   UNL     1       8.961 -11.177  11.067  1.00  0.00    -0.206 F 
ATOM     69  C   UNL     1       9.935  -7.763  10.447  1.00  0.00     0.060 A 
BRANCH  69  70
ATOM     70  S   UNL     1      10.723  -6.373  11.275  1.00  0.00     0.124 S 
ATOM     71  O   UNL     1      11.912  -6.180  10.450  1.00  0.00    -0.237 OA
ATOM     72  O   UNL     1       9.699  -5.340  11.168  1.00  0.00    -0.237 OA
ATOM     73  O   UNL     1      10.966  -6.878  12.622  1.00  0.00    -0.744 OA
ENDBRANCH  69  70
ENDBRANCH  48  62
BRANCH  49  74
ATOM     74  C   UNL     1       1.005  -5.923   8.812  1.00  0.00     0.058 A 
ATOM     75  C   UNL     1       1.092  -5.135   7.646  1.00  0.00     0.135 A 
ATOM     76  C   UNL     1       0.768  -5.223  10.011  1.00  0.00     0.135 A 
ATOM     77  F   UNL     1       1.344  -5.690   6.451  1.00  0.00    -0.206 F 
ATOM     78  C   UNL     1       1.020  -3.742   7.675  1.00  0.00     0.059 A 
ATOM     79  C   UNL     1       0.699  -3.824  10.066  1.00  0.00     0.059 A 
ATOM     80  F   UNL     1       0.675  -5.889  11.172  1.00  0.00    -0.206 F 
ATOM     81  C   UNL     1       0.860  -3.091   8.894  1.00  0.00     0.060 A 
BRANCH  81  82
ATOM     82  S   UNL     1       0.962  -1.285   8.917  1.00  0.00     0.124 S 
ATOM     83  O   UNL     1       2.331  -1.056   8.468  1.00  0.00    -0.237 OA
ATOM     84  O   UNL     1      -0.085  -0.907   7.971  1.00  0.00    -0.237 OA
ATOM     85  O   UNL     1       0.693  -0.944  10.310  1.00  0.00    -0.744 OA
ENDBRANCH  81  82
ENDBRANCH  49  74
BRANCH  61  86
ATOM     86  C   UNL     1       2.218 -11.815  10.980  1.00  0.00     0.058 A 
ATOM     87  C   UNL     1       2.178 -12.693  12.072  1.00  0.00     0.135 A 
ATOM     88  C   UNL     1       1.199 -11.945  10.018  1.00  0.00     0.135 A 
ATOM     89  F   UNL     1       3.149 -12.657  13.000  1.00  0.00    -0.206 F 
ATOM     90  C   UNL     1       1.191 -13.664  12.204  1.00  0.00     0.059 A 
ATOM     91  C   UNL     1       0.176 -12.890  10.147  1.00  0.00     0.059 A 
ATOM     92  F   UNL     1       1.208 -11.212   8.898  1.00  0.00    -0.206 F 
ATOM     93  C   UNL     1       0.192 -13.757  11.238  1.00  0.00     0.060 A 
BRANCH  93  94
ATOM     94  S   UNL     1      -1.054 -15.049  11.430  1.00  0.00     0.124 S 
ATOM     95  O   UNL     1      -0.261 -16.262  11.252  1.00  0.00    -0.237 OA
ATOM     96  O   UNL     1      -1.542 -14.810  12.785  1.00  0.00    -0.237 OA
ATOM     97  O   UNL     1      -2.014 -14.771  10.366  1.00  0.00    -0.744 OA
ENDBRANCH  93  94
ENDBRANCH  61  86
ENDBRANCH  35  36
ENDBRANCH  27  30
ENDBRANCH  25  26
ENDBRANCH  24  25
ENDBRANCH   1  24
TORSDOF 17
