REMARK SMILES CCCCCC[C@@H](C(=O)NCCCCNC(=O)c1ccc(-c2c3nc(c(-c4c(F)cc(S(=O)(=O)[O-])cc4F)c4ccc([nH]4)c(-c4c(F)cc(S(=O)(=O)[O-])cc4F)c4nc(c(-c5c(F)cc(S(=O)(=O)[O-])cc5F)c5ccc2[nH]5)C=C4)C=C3)cc1)c1ccccc1C
REMARK SMILES IDX 11 1 10 2 8 3 9 4 7 6 6 7 5 8 4 9 3 10 2 11 1 12 84 13 85 14
REMARK SMILES IDX 89 15 86 16 88 17 90 18 87 19 12 20 13 21 14 22 15 23 16 24
REMARK SMILES IDX 17 26 18 27 19 28 83 29 20 30 82 31 21 32 22 33 23 34 76 35
REMARK SMILES IDX 24 36 81 37 75 38 77 39 25 40 80 41 74 42 73 43 26 45 60 46
REMARK SMILES IDX 39 47 59 48 40 49 43 50 58 51 78 52 41 53 42 54 57 56 79 57
REMARK SMILES IDX 44 58 27 59 28 60 37 61 29 62 30 63 36 64 38 65 31 66 32 67
REMARK SMILES IDX 33 68 34 69 35 70 61 71 62 72 71 73 63 74 64 75 70 76 72 77
REMARK SMILES IDX 65 78 66 79 67 80 68 81 69 82 45 83 46 84 55 85 47 86 48 87
REMARK SMILES IDX 54 88 56 89 49 90 50 91 51 92 52 93 53 94
REMARK H PARENT 10 5 15 25 77 44 43 55
REMARK Flexibility Score: inf
ROOT
ATOM      1  C   UNL     1      -0.636  -3.498  -3.720  1.00  0.00     0.116 C 
ENDROOT
BRANCH   1   2
ATOM      2  N   UNL     1      -1.764  -3.263  -4.601  1.00  0.00    -0.356 N 
ATOM      3  C   UNL     1      -2.336  -2.061  -4.925  1.00  0.00     0.227 C 
ATOM      4  O   UNL     1      -3.558  -2.054  -5.086  1.00  0.00    -0.274 OA
ATOM      5  H   UNL     1      -2.166  -4.062  -5.013  1.00  0.00     0.163 HD
BRANCH   3   6
ATOM      6  C   UNL     1      -1.470  -0.797  -5.079  1.00  0.00     0.109 C 
BRANCH   6   7
ATOM      7  C   UNL     1      -1.805   0.123  -3.853  1.00  0.00     0.018 C 
BRANCH   7   8
ATOM      8  C   UNL     1      -1.085  -0.155  -2.530  1.00  0.00     0.001 C 
BRANCH   8   9
ATOM      9  C   UNL     1       0.446  -0.151  -2.570  1.00  0.00     0.000 C 
BRANCH   9  10
ATOM     10  C   UNL     1       1.093   1.134  -2.046  1.00  0.00    -0.000 C 
BRANCH  10  11
ATOM     11  C   UNL     1       0.799   1.481  -0.582  1.00  0.00    -0.003 C 
ATOM     12  C   UNL     1       1.116   0.363   0.399  1.00  0.00     0.004 C 
ENDBRANCH  10  11
ENDBRANCH   9  10
ENDBRANCH   8   9
ENDBRANCH   7   8
ENDBRANCH   6   7
BRANCH   6  13
ATOM     13  C   UNL     1      -1.667  -0.009  -6.409  1.00  0.00    -0.033 A 
ATOM     14  C   UNL     1      -1.102   1.292  -6.461  1.00  0.00     0.005 A 
ATOM     15  C   UNL     1      -2.321  -0.455  -7.581  1.00  0.00    -0.047 A 
ATOM     16  C   UNL     1      -1.358   2.184  -7.502  1.00  0.00     0.000 A 
ATOM     17  C   UNL     1      -2.602   0.471  -8.612  1.00  0.00     0.004 A 
ATOM     18  C   UNL     1      -2.765  -1.868  -7.852  1.00  0.00     0.044 C 
ATOM     19  C   UNL     1      -2.150   1.786  -8.562  1.00  0.00     0.000 A 
ENDBRANCH   6  13
ENDBRANCH   3   6
ENDBRANCH   1   2
BRANCH   1  20
ATOM     20  C   UNL     1      -1.134  -3.620  -2.275  1.00  0.00     0.023 C 
BRANCH  20  21
ATOM     21  C   UNL     1      -1.607  -5.008  -1.867  1.00  0.00     0.023 C 
BRANCH  21  22
ATOM     22  C   UNL     1      -0.494  -6.029  -1.722  1.00  0.00     0.116 C 
BRANCH  22  23
ATOM     23  N   UNL     1       0.479  -5.689  -0.692  1.00  0.00    -0.352 N 
ATOM     24  C   UNL     1       1.115  -6.539   0.190  1.00  0.00     0.251 C 
ATOM     25  H   UNL     1       0.712  -4.736  -0.617  1.00  0.00     0.163 HD
ATOM     26  O   UNL     1       1.850  -6.106   1.057  1.00  0.00    -0.269 OA
BRANCH  24  27
ATOM     27  C   UNL     1       0.836  -7.988   0.081  1.00  0.00     0.039 A 
ATOM     28  C   UNL     1       0.400  -8.679   1.213  1.00  0.00     0.014 A 
ATOM     29  C   UNL     1       0.899  -8.621  -1.162  1.00  0.00     0.014 A 
ATOM     30  C   UNL     1      -0.056  -9.992   1.078  1.00  0.00     0.010 A 
ATOM     31  C   UNL     1       0.359  -9.890  -1.309  1.00  0.00     0.010 A 
ATOM     32  C   UNL     1      -0.122 -10.590  -0.191  1.00  0.00    -0.014 A 
BRANCH  32  33
ATOM     33  C   UNL     1      -0.669 -11.956  -0.384  1.00  0.00     0.031 A 
ATOM     34  C   UNL     1       0.220 -13.034  -0.941  1.00  0.00     0.074 A 
ATOM     35  C   UNL     1      -1.973 -12.202  -0.147  1.00  0.00     0.049 A 
ATOM     36  N   UNL     1      -0.086 -14.250  -1.309  1.00  0.00    -0.248 NA
ATOM     37  C   UNL     1       1.634 -12.681  -1.152  1.00  0.00     0.031 C 
ATOM     38  C   UNL     1      -2.950 -11.223   0.335  1.00  0.00     0.029 A 
ATOM     39  N   UNL     1      -2.706 -13.352  -0.296  1.00  0.00    -0.354 N 
ATOM     40  C   UNL     1       1.086 -14.793  -1.824  1.00  0.00     0.074 A 
ATOM     41  C   UNL     1       2.093 -13.757  -1.772  1.00  0.00     0.031 C 
ATOM     42  C   UNL     1      -4.146 -11.821   0.466  1.00  0.00     0.029 A 
ATOM     43  C   UNL     1      -4.031 -13.213   0.045  1.00  0.00     0.049 A 
ATOM     44  H   UNL     1      -2.319 -14.199  -0.618  1.00  0.00     0.167 HD
ATOM     45  C   UNL     1       1.310 -16.050  -2.273  1.00  0.00     0.037 A 
ATOM     46  C   UNL     1      -5.037 -14.109   0.018  1.00  0.00     0.037 A 
ATOM     47  C   UNL     1       0.319 -17.091  -2.269  1.00  0.00     0.049 A 
ATOM     48  C   UNL     1      -4.752 -15.515  -0.437  1.00  0.00     0.074 A 
ATOM     49  C   UNL     1       0.460 -18.416  -2.640  1.00  0.00     0.029 A 
ATOM     50  N   UNL     1      -0.996 -16.926  -1.857  1.00  0.00    -0.354 N 
ATOM     51  N   UNL     1      -3.625 -16.026  -0.874  1.00  0.00    -0.248 NA
ATOM     52  C   UNL     1      -5.870 -16.468  -0.397  1.00  0.00     0.031 C 
ATOM     53  C   UNL     1      -0.777 -19.049  -2.472  1.00  0.00     0.029 A 
ATOM     54  C   UNL     1      -1.678 -18.125  -1.966  1.00  0.00     0.049 A 
ATOM     55  H   UNL     1      -1.385 -16.081  -1.535  1.00  0.00     0.167 HD
ATOM     56  C   UNL     1      -3.891 -17.365  -1.134  1.00  0.00     0.074 A 
ATOM     57  C   UNL     1      -5.283 -17.587  -0.799  1.00  0.00     0.031 C 
ATOM     58  C   UNL     1      -3.059 -18.325  -1.607  1.00  0.00     0.037 A 
BRANCH  45  59
ATOM     59  C   UNL     1       2.687 -16.364  -2.787  1.00  0.00     0.058 A 
ATOM     60  C   UNL     1       3.788 -16.460  -1.921  1.00  0.00     0.135 A 
ATOM     61  C   UNL     1       2.909 -16.577  -4.156  1.00  0.00     0.135 A 
ATOM     62  F   UNL     1       3.635 -16.245  -0.605  1.00  0.00    -0.206 F 
ATOM     63  C   UNL     1       5.068 -16.719  -2.399  1.00  0.00     0.059 A 
ATOM     64  C   UNL     1       4.176 -16.865  -4.653  1.00  0.00     0.059 A 
ATOM     65  F   UNL     1       1.891 -16.494  -5.027  1.00  0.00    -0.206 F 
ATOM     66  C   UNL     1       5.253 -16.916  -3.768  1.00  0.00     0.060 A 
BRANCH  66  67
ATOM     67  S   UNL     1       6.920 -17.244  -4.376  1.00  0.00     0.124 S 
ATOM     68  O   UNL     1       7.513 -15.911  -4.327  1.00  0.00    -0.237 OA
ATOM     69  O   UNL     1       7.430 -18.199  -3.397  1.00  0.00    -0.237 OA
ATOM     70  O   UNL     1       6.694 -17.782  -5.713  1.00  0.00    -0.744 OA
ENDBRANCH  66  67
ENDBRANCH  45  59
BRANCH  46  71
ATOM     71  C   UNL     1      -6.397 -13.717   0.473  1.00  0.00     0.058 A 
ATOM     72  C   UNL     1      -6.904 -14.180   1.697  1.00  0.00     0.135 A 
ATOM     73  C   UNL     1      -7.211 -12.871  -0.294  1.00  0.00     0.135 A 
ATOM     74  F   UNL     1      -6.164 -14.995   2.463  1.00  0.00    -0.206 F 
ATOM     75  C   UNL     1      -8.177 -13.833   2.137  1.00  0.00     0.059 A 
ATOM     76  C   UNL     1      -8.480 -12.492   0.135  1.00  0.00     0.059 A 
ATOM     77  F   UNL     1      -6.765 -12.387  -1.464  1.00  0.00    -0.206 F 
ATOM     78  C   UNL     1      -8.959 -12.988   1.348  1.00  0.00     0.060 A 
BRANCH  78  79
ATOM     79  S   UNL     1     -10.593 -12.506   1.948  1.00  0.00     0.124 S 
ATOM     80  O   UNL     1     -11.366 -13.717   1.697  1.00  0.00    -0.237 OA
ATOM     81  O   UNL     1     -10.328 -12.197   3.350  1.00  0.00    -0.237 OA
ATOM     82  O   UNL     1     -10.929 -11.356   1.115  1.00  0.00    -0.744 OA
ENDBRANCH  78  79
ENDBRANCH  46  71
BRANCH  58  83
ATOM     83  C   UNL     1      -3.617 -19.711  -1.753  1.00  0.00     0.058 A 
ATOM     84  C   UNL     1      -4.474 -20.051  -2.809  1.00  0.00     0.135 A 
ATOM     85  C   UNL     1      -3.234 -20.725  -0.860  1.00  0.00     0.135 A 
ATOM     86  F   UNL     1      -4.872 -19.115  -3.685  1.00  0.00    -0.206 F 
ATOM     87  C   UNL     1      -4.947 -21.349  -2.968  1.00  0.00     0.059 A 
ATOM     88  C   UNL     1      -3.678 -22.034  -1.013  1.00  0.00     0.059 A 
ATOM     89  F   UNL     1      -2.407 -20.451   0.161  1.00  0.00    -0.206 F 
ATOM     90  C   UNL     1      -4.542 -22.335  -2.065  1.00  0.00     0.060 A 
BRANCH  90  91
ATOM     91  S   UNL     1      -5.125 -24.026  -2.307  1.00  0.00     0.124 S 
ATOM     92  O   UNL     1      -6.493 -23.939  -1.808  1.00  0.00    -0.237 OA
ATOM     93  O   UNL     1      -4.986 -24.204  -3.749  1.00  0.00    -0.237 OA
ATOM     94  O   UNL     1      -4.207 -24.819  -1.494  1.00  0.00    -0.744 OA
ENDBRANCH  90  91
ENDBRANCH  58  83
ENDBRANCH  32  33
ENDBRANCH  24  27
ENDBRANCH  22  23
ENDBRANCH  21  22
ENDBRANCH  20  21
ENDBRANCH   1  20
TORSDOF 20
