REMARK SMILES Cc1c(Cl)ccc2c1C=C(C(=O)NCCCCNC(=O)c1ccc(-c3c4nc(c(-c5c(F)cc(S(=O)(=O)[O-])cc5F)c5ccc([nH]5)c(-c5c(F)cc(S(=O)(=O)[O-])cc5F)c5nc(c(-c6c(F)cc(S(=O)(=O)[O-])cc6F)c6ccc3[nH]6)C=C5)C=C4)cc1)[C@@H](C(F)(F)F)O2
REMARK SMILES IDX 16 1 15 2 14 3 13 4 11 5 12 6 10 8 1 9 2 10 3 11 8 12 4 13
REMARK SMILES IDX 5 14 7 15 9 16 6 17 92 18 87 19 88 20 89 21 90 22 91 23
REMARK SMILES IDX 17 24 18 25 19 26 20 28 21 29 22 30 86 31 23 32 85 33 24 34
REMARK SMILES IDX 25 35 26 36 79 37 27 38 84 39 78 40 80 41 28 42 83 43 77 44
REMARK SMILES IDX 76 45 29 47 63 48 42 49 62 50 43 51 46 52 61 53 81 54 44 55
REMARK SMILES IDX 45 56 60 58 82 59 47 60 30 61 31 62 40 63 32 64 33 65 39 66
REMARK SMILES IDX 41 67 34 68 35 69 36 70 37 71 38 72 64 73 65 74 74 75 66 76
REMARK SMILES IDX 67 77 73 78 75 79 68 80 69 81 70 82 71 83 72 84 48 85 49 86
REMARK SMILES IDX 58 87 50 88 51 89 57 90 59 91 52 92 53 93 54 94 55 95 56 96
REMARK H PARENT 13 7 18 27 80 46 46 57
REMARK Flexibility Score: inf
ROOT
ATOM      1  C   UNL     1      -4.504   0.142   7.572  1.00  0.00     0.023 C 
ENDROOT
BRANCH   1   2
ATOM      2  C   UNL     1      -3.912  -0.864   6.579  1.00  0.00     0.023 C 
BRANCH   2   3
ATOM      3  C   UNL     1      -4.424  -0.710   5.150  1.00  0.00     0.116 C 
BRANCH   3   4
ATOM      4  N   UNL     1      -3.716   0.332   4.428  1.00  0.00    -0.352 N 
ATOM      5  C   UNL     1      -2.723   0.401   3.511  1.00  0.00     0.251 C 
ATOM      6  O   UNL     1      -2.408   1.544   3.165  1.00  0.00    -0.270 OA
ATOM      7  H   UNL     1      -4.046   1.227   4.670  1.00  0.00     0.163 HD
BRANCH   5   8
ATOM      8  C   UNL     1      -2.017  -0.768   2.905  1.00  0.00     0.067 C 
ATOM      9  C   UNL     1       1.126   0.103  -0.017  1.00  0.00     0.047 C 
ATOM     10  C   UNL     1       0.770  -1.287   0.453  1.00  0.00    -0.021 A 
ATOM     11  C   UNL     1       1.391  -2.400  -0.159  1.00  0.00     0.044 A 
ATOM     12  C   UNL     1      -0.213  -1.528   1.444  1.00  0.00     0.022 A 
ATOM     13  Cl  UNL     1       2.556  -2.220  -1.428  1.00  0.00    -0.084 Cl
ATOM     14  C   UNL     1       1.085  -3.707   0.228  1.00  0.00     0.024 A 
ATOM     15  C   UNL     1      -0.512  -2.851   1.806  1.00  0.00     0.128 A 
ATOM     16  C   UNL     1      -0.943  -0.468   2.148  1.00  0.00     0.026 C 
ATOM     17  C   UNL     1       0.141  -3.932   1.220  1.00  0.00     0.048 A 
ATOM     18  O   UNL     1      -1.422  -3.174   2.774  1.00  0.00    -0.475 OA
ATOM     19  C   UNL     1      -2.460  -2.193   3.041  1.00  0.00     0.314 C 
BRANCH  19  20
ATOM     20  C   UNL     1      -3.701  -2.517   2.191  1.00  0.00     0.429 C 
ATOM     21  F   UNL     1      -4.213  -3.724   2.541  1.00  0.00    -0.167 F 
ATOM     22  F   UNL     1      -4.696  -1.616   2.357  1.00  0.00    -0.167 F 
ATOM     23  F   UNL     1      -3.428  -2.565   0.867  1.00  0.00    -0.167 F 
ENDBRANCH  19  20
ENDBRANCH   5   8
ENDBRANCH   3   4
ENDBRANCH   2   3
ENDBRANCH   1   2
BRANCH   1  24
ATOM     24  C   UNL     1      -6.030   0.169   7.654  1.00  0.00     0.116 C 
BRANCH  24  25
ATOM     25  N   UNL     1      -6.628  -1.141   7.873  1.00  0.00    -0.352 N 
ATOM     26  C   UNL     1      -7.817  -1.422   8.504  1.00  0.00     0.251 C 
ATOM     27  H   UNL     1      -6.124  -1.914   7.530  1.00  0.00     0.163 HD
ATOM     28  O   UNL     1      -8.189  -2.578   8.667  1.00  0.00    -0.269 OA
BRANCH  26  29
ATOM     29  C   UNL     1      -8.610  -0.292   9.019  1.00  0.00     0.039 A 
ATOM     30  C   UNL     1      -8.779  -0.169  10.399  1.00  0.00     0.014 A 
ATOM     31  C   UNL     1      -9.075   0.692   8.142  1.00  0.00     0.014 A 
ATOM     32  C   UNL     1      -9.354   0.991  10.913  1.00  0.00     0.010 A 
ATOM     33  C   UNL     1      -9.616   1.864   8.660  1.00  0.00     0.010 A 
ATOM     34  C   UNL     1      -9.741   2.029  10.048  1.00  0.00    -0.014 A 
BRANCH  34  35
ATOM     35  C   UNL     1     -10.249   3.309  10.590  1.00  0.00     0.031 A 
ATOM     36  C   UNL     1     -11.701   3.654  10.461  1.00  0.00     0.074 A 
ATOM     37  C   UNL     1      -9.386   4.173  11.158  1.00  0.00     0.049 A 
ATOM     38  N   UNL     1     -12.328   4.729  10.859  1.00  0.00    -0.248 NA
ATOM     39  C   UNL     1     -12.558   2.668   9.784  1.00  0.00     0.031 C 
ATOM     40  C   UNL     1      -7.944   3.957  11.301  1.00  0.00     0.029 A 
ATOM     41  N   UNL     1      -9.595   5.407  11.719  1.00  0.00    -0.354 N 
ATOM     42  C   UNL     1     -13.653   4.551  10.486  1.00  0.00     0.074 A 
ATOM     43  C   UNL     1     -13.732   3.285   9.789  1.00  0.00     0.031 C 
ATOM     44  C   UNL     1      -7.403   5.013  11.931  1.00  0.00     0.029 A 
ATOM     45  C   UNL     1      -8.453   5.986  12.220  1.00  0.00     0.049 A 
ATOM     46  H   UNL     1     -10.479   5.837  11.759  1.00  0.00     0.167 HD
ATOM     47  C   UNL     1     -14.711   5.360  10.724  1.00  0.00     0.037 A 
ATOM     48  C   UNL     1      -8.277   7.163  12.849  1.00  0.00     0.037 A 
ATOM     49  C   UNL     1     -14.630   6.611  11.427  1.00  0.00     0.049 A 
ATOM     50  C   UNL     1      -9.467   8.046  13.101  1.00  0.00     0.074 A 
ATOM     51  C   UNL     1     -15.650   7.491  11.742  1.00  0.00     0.029 A 
ATOM     52  N   UNL     1     -13.458   7.158  11.930  1.00  0.00    -0.354 N 
ATOM     53  N   UNL     1     -10.722   7.843  12.778  1.00  0.00    -0.248 NA
ATOM     54  C   UNL     1      -9.222   9.313  13.805  1.00  0.00     0.031 C 
ATOM     55  C   UNL     1     -15.091   8.580  12.421  1.00  0.00     0.029 A 
ATOM     56  C   UNL     1     -13.728   8.366  12.548  1.00  0.00     0.049 A 
ATOM     57  H   UNL     1     -12.566   6.747  11.857  1.00  0.00     0.167 HD
ATOM     58  C   UNL     1     -11.420   8.943  13.261  1.00  0.00     0.074 A 
ATOM     59  C   UNL     1     -10.449   9.811  13.895  1.00  0.00     0.031 C 
ATOM     60  C   UNL     1     -12.747   9.206  13.186  1.00  0.00     0.037 A 
BRANCH  47  61
ATOM     61  C   UNL     1     -16.049   4.897  10.230  1.00  0.00     0.058 A 
ATOM     62  C   UNL     1     -16.750   3.874  10.888  1.00  0.00     0.135 A 
ATOM     63  C   UNL     1     -16.639   5.479   9.098  1.00  0.00     0.135 A 
ATOM     64  F   UNL     1     -16.216   3.274  11.964  1.00  0.00    -0.206 F 
ATOM     65  C   UNL     1     -17.980   3.424  10.424  1.00  0.00     0.059 A 
ATOM     66  C   UNL     1     -17.879   5.057   8.627  1.00  0.00     0.059 A 
ATOM     67  F   UNL     1     -16.006   6.457   8.432  1.00  0.00    -0.206 F 
ATOM     68  C   UNL     1     -18.533   4.017   9.288  1.00  0.00     0.060 A 
BRANCH  68  69
ATOM     69  S   UNL     1     -20.124   3.413   8.686  1.00  0.00     0.124 S 
ATOM     70  O   UNL     1     -19.730   2.178   8.016  1.00  0.00    -0.237 OA
ATOM     71  O   UNL     1     -20.888   3.249   9.919  1.00  0.00    -0.237 OA
ATOM     72  O   UNL     1     -20.582   4.486   7.808  1.00  0.00    -0.744 OA
ENDBRANCH  68  69
ENDBRANCH  47  61
BRANCH  48  73
ATOM     73  C   UNL     1      -6.926   7.545  13.329  1.00  0.00     0.058 A 
ATOM     74  C   UNL     1      -6.594   7.432  14.687  1.00  0.00     0.135 A 
ATOM     75  C   UNL     1      -5.934   7.989  12.443  1.00  0.00     0.135 A 
ATOM     76  F   UNL     1      -7.514   7.014  15.569  1.00  0.00    -0.206 F 
ATOM     77  C   UNL     1      -5.323   7.748  15.153  1.00  0.00     0.059 A 
ATOM     78  C   UNL     1      -4.651   8.298  12.883  1.00  0.00     0.059 A 
ATOM     79  F   UNL     1      -6.202   8.097  11.133  1.00  0.00    -0.206 F 
ATOM     80  C   UNL     1      -4.356   8.178  14.242  1.00  0.00     0.060 A 
BRANCH  80  81
ATOM     81  S   UNL     1      -2.688   8.518  14.845  1.00  0.00     0.124 S 
ATOM     82  O   UNL     1      -2.868   9.813  15.491  1.00  0.00    -0.237 OA
ATOM     83  O   UNL     1      -2.446   7.388  15.737  1.00  0.00    -0.237 OA
ATOM     84  O   UNL     1      -1.887   8.524  13.625  1.00  0.00    -0.744 OA
ENDBRANCH  80  81
ENDBRANCH  48  73
BRANCH  60  85
ATOM     85  C   UNL     1     -13.241  10.469  13.825  1.00  0.00     0.058 A 
ATOM     86  C   UNL     1     -13.138  11.704  13.170  1.00  0.00     0.135 A 
ATOM     87  C   UNL     1     -13.916  10.425  15.055  1.00  0.00     0.135 A 
ATOM     88  F   UNL     1     -12.495  11.794  11.995  1.00  0.00    -0.206 F 
ATOM     89  C   UNL     1     -13.697  12.857  13.710  1.00  0.00     0.059 A 
ATOM     90  C   UNL     1     -14.494  11.563  15.607  1.00  0.00     0.059 A 
ATOM     91  F   UNL     1     -14.042   9.263  15.715  1.00  0.00    -0.206 F 
ATOM     92  C   UNL     1     -14.380  12.775  14.926  1.00  0.00     0.060 A 
BRANCH  92  93
ATOM     93  S   UNL     1     -15.173  14.261  15.577  1.00  0.00     0.124 S 
ATOM     94  O   UNL     1     -14.032  14.986  16.126  1.00  0.00    -0.237 OA
ATOM     95  O   UNL     1     -15.780  14.843  14.384  1.00  0.00    -0.237 OA
ATOM     96  O   UNL     1     -16.117  13.737  16.560  1.00  0.00    -0.744 OA
ENDBRANCH  92  93
ENDBRANCH  60  85
ENDBRANCH  34  35
ENDBRANCH  26  29
ENDBRANCH  24  25
ENDBRANCH   1  24
TORSDOF 15
