REMARK SMILES CC(C)(C)[N@H+](CCC(=O)Nc1ccccc1F)CC(=O)NCCCCNC(=O)c1ccc(-c2c3nc(c(-c4c(F)cc(S(=O)(=O)[O-])cc4F)c4ccc([nH]4)c(-c4c(F)cc(S(=O)(=O)[O-])cc4F)c4nc(c(-c5c(F)cc(S(=O)(=O)[O-])cc5F)c5ccc2[nH]5)C=C4)C=C3)cc1
REMARK SMILES IDX 22 1 21 2 19 3 20 4 18 6 5 7 2 9 1 10 3 11 4 12 6 13 7 14
REMARK SMILES IDX 8 15 9 16 10 17 11 19 12 20 16 21 13 22 15 23 17 24 14 25
REMARK SMILES IDX 23 26 24 27 25 28 26 29 27 30 28 32 29 33 30 34 94 35 31 36
REMARK SMILES IDX 93 37 32 38 33 39 34 40 87 41 35 42 92 43 86 44 88 45 36 46
REMARK SMILES IDX 91 47 85 48 84 49 37 51 71 52 50 53 70 54 51 55 54 56 69 57
REMARK SMILES IDX 89 58 52 59 53 60 68 62 90 63 55 64 38 65 39 66 48 67 40 68
REMARK SMILES IDX 41 69 47 70 49 71 42 72 43 73 44 74 45 75 46 76 72 77 73 78
REMARK SMILES IDX 82 79 74 80 75 81 81 82 83 83 76 84 77 85 78 86 79 87 80 88
REMARK SMILES IDX 56 89 57 90 66 91 58 92 59 93 65 94 67 95 60 96 61 97 62 98
REMARK SMILES IDX 63 99 64 100
REMARK H PARENT 21 5 5 8 10 18 26 31 88 50 54 61
REMARK Flexibility Score: inf
ROOT
ATOM      1  C   UNL     1       3.654  -0.046   4.274  1.00  0.00     0.116 C 
ENDROOT
BRANCH   1   2
ATOM      2  N   UNL     1       2.851   1.121   4.560  1.00  0.00    -0.351 N 
ATOM      3  C   UNL     1       1.639   1.471   4.040  1.00  0.00     0.275 C 
ATOM      4  O   UNL     1       1.147   2.545   4.403  1.00  0.00    -0.269 OA
ATOM      5  H   UNL     1       3.229   1.747   5.218  1.00  0.00     0.163 HD
BRANCH   3   6
ATOM      6  C   UNL     1       0.816   0.482   3.213  1.00  0.00     0.363 C 
BRANCH   6   7
ATOM      7  N   UNL     1       1.418  -0.036   1.961  1.00  0.00    -0.323 N 
ATOM      8  H   UNL     1       2.429   0.057   2.067  1.00  0.00     0.349 HD
BRANCH   7   9
ATOM      9  C   UNL     1       1.030   0.791   0.748  1.00  0.00     0.090 C 
ATOM     10  C   UNL     1       1.833   0.361  -0.510  1.00  0.00     0.078 C 
ATOM     11  C   UNL     1       1.363   2.288   0.961  1.00  0.00     0.078 C 
ATOM     12  C   UNL     1      -0.472   0.689   0.366  1.00  0.00     0.078 C 
ENDBRANCH   7   9
BRANCH   7  13
ATOM     13  C   UNL     1       1.138  -1.486   1.759  1.00  0.00     0.273 C 
BRANCH  13  14
ATOM     14  C   UNL     1       1.555  -2.601   2.750  1.00  0.00     0.161 C 
BRANCH  14  15
ATOM     15  C   UNL     1       1.087  -2.703   4.202  1.00  0.00     0.230 C 
ATOM     16  O   UNL     1       1.902  -3.056   5.066  1.00  0.00    -0.275 OA
ATOM     17  N   UNL     1      -0.163  -2.388   4.644  1.00  0.00    -0.323 N 
ATOM     18  H   UNL     1      -0.274  -2.411   5.622  1.00  0.00     0.170 HD
BRANCH  17  19
ATOM     19  C   UNL     1      -1.314  -2.039   3.929  1.00  0.00     0.077 A 
ATOM     20  C   UNL     1      -2.059  -0.950   4.398  1.00  0.00     0.029 A 
ATOM     21  C   UNL     1      -1.712  -2.680   2.758  1.00  0.00     0.146 A 
ATOM     22  C   UNL     1      -3.098  -0.431   3.622  1.00  0.00     0.002 A 
ATOM     23  C   UNL     1      -2.768  -2.187   1.998  1.00  0.00     0.041 A 
ATOM     24  F   UNL     1      -1.064  -3.771   2.325  1.00  0.00    -0.205 F 
ATOM     25  C   UNL     1      -3.444  -1.042   2.417  1.00  0.00     0.003 A 
ENDBRANCH  17  19
ENDBRANCH  14  15
ENDBRANCH  13  14
ENDBRANCH   7  13
ENDBRANCH   6   7
ENDBRANCH   3   6
ENDBRANCH   1   2
BRANCH   1  26
ATOM     26  C   UNL     1       4.479   0.120   3.001  1.00  0.00     0.023 C 
BRANCH  26  27
ATOM     27  C   UNL     1       5.538   1.215   3.086  1.00  0.00     0.023 C 
BRANCH  27  28
ATOM     28  C   UNL     1       6.607   0.947   4.127  1.00  0.00     0.116 C 
BRANCH  28  29
ATOM     29  N   UNL     1       7.352  -0.278   3.878  1.00  0.00    -0.352 N 
ATOM     30  C   UNL     1       8.616  -0.577   4.338  1.00  0.00     0.251 C 
ATOM     31  H   UNL     1       6.907  -0.962   3.327  1.00  0.00     0.163 HD
ATOM     32  O   UNL     1       9.212  -1.572   3.975  1.00  0.00    -0.269 OA
BRANCH  30  33
ATOM     33  C   UNL     1       9.229   0.393   5.266  1.00  0.00     0.039 A 
ATOM     34  C   UNL     1      10.422   1.018   4.905  1.00  0.00     0.014 A 
ATOM     35  C   UNL     1       8.543   0.753   6.428  1.00  0.00     0.014 A 
ATOM     36  C   UNL     1      10.921   2.036   5.715  1.00  0.00     0.010 A 
ATOM     37  C   UNL     1       8.991   1.829   7.178  1.00  0.00     0.010 A 
ATOM     38  C   UNL     1      10.202   2.454   6.849  1.00  0.00    -0.014 A 
BRANCH  38  39
ATOM     39  C   UNL     1      10.756   3.481   7.761  1.00  0.00     0.031 A 
ATOM     40  C   UNL     1      11.133   3.081   9.162  1.00  0.00     0.074 A 
ATOM     41  C   UNL     1      10.898   4.752   7.340  1.00  0.00     0.049 A 
ATOM     42  N   UNL     1      11.630   3.812  10.124  1.00  0.00    -0.248 NA
ATOM     43  C   UNL     1      10.884   1.679   9.544  1.00  0.00     0.031 C 
ATOM     44  C   UNL     1      10.505   5.256   6.022  1.00  0.00     0.029 A 
ATOM     45  N   UNL     1      11.421   5.849   7.973  1.00  0.00    -0.354 N 
ATOM     46  C   UNL     1      11.742   2.962  11.218  1.00  0.00     0.074 A 
ATOM     47  C   UNL     1      11.182   1.689  10.833  1.00  0.00     0.031 C 
ATOM     48  C   UNL     1      10.845   6.553   5.929  1.00  0.00     0.029 A 
ATOM     49  C   UNL     1      11.459   6.975   7.185  1.00  0.00     0.049 A 
ATOM     50  H   UNL     1      11.739   5.833   8.905  1.00  0.00     0.167 HD
ATOM     51  C   UNL     1      12.307   3.207  12.423  1.00  0.00     0.037 A 
ATOM     52  C   UNL     1      11.957   8.200   7.444  1.00  0.00     0.037 A 
ATOM     53  C   UNL     1      12.900   4.468  12.775  1.00  0.00     0.049 A 
ATOM     54  C   UNL     1      12.619   8.441   8.774  1.00  0.00     0.074 A 
ATOM     55  C   UNL     1      13.530   4.827  13.952  1.00  0.00     0.029 A 
ATOM     56  N   UNL     1      12.950   5.574  11.937  1.00  0.00    -0.354 N 
ATOM     57  N   UNL     1      12.754   7.617   9.787  1.00  0.00    -0.248 NA
ATOM     58  C   UNL     1      13.212   9.766   8.992  1.00  0.00     0.031 C 
ATOM     59  C   UNL     1      13.937   6.160  13.835  1.00  0.00     0.029 A 
ATOM     60  C   UNL     1      13.602   6.616  12.569  1.00  0.00     0.049 A 
ATOM     61  H   UNL     1      12.575   5.610  11.027  1.00  0.00     0.167 HD
ATOM     62  C   UNL     1      13.475   8.312  10.751  1.00  0.00     0.074 A 
ATOM     63  C   UNL     1      13.752   9.622  10.196  1.00  0.00     0.031 C 
ATOM     64  C   UNL     1      13.874   7.905  11.982  1.00  0.00     0.037 A 
BRANCH  51  65
ATOM     65  C   UNL     1      12.331   2.081  13.420  1.00  0.00     0.058 A 
ATOM     66  C   UNL     1      11.560   2.141  14.591  1.00  0.00     0.135 A 
ATOM     67  C   UNL     1      13.125   0.939  13.218  1.00  0.00     0.135 A 
ATOM     68  F   UNL     1      10.775   3.202  14.832  1.00  0.00    -0.206 F 
ATOM     69  C   UNL     1      11.578   1.111  15.527  1.00  0.00     0.059 A 
ATOM     70  C   UNL     1      13.134  -0.117  14.125  1.00  0.00     0.059 A 
ATOM     71  F   UNL     1      13.861   0.816  12.101  1.00  0.00    -0.206 F 
ATOM     72  C   UNL     1      12.366  -0.016  15.283  1.00  0.00     0.060 A 
BRANCH  72  73
ATOM     73  S   UNL     1      12.334  -1.368  16.479  1.00  0.00     0.124 S 
ATOM     74  O   UNL     1      13.076  -0.797  17.596  1.00  0.00    -0.237 OA
ATOM     75  O   UNL     1      10.902  -1.556  16.694  1.00  0.00    -0.237 OA
ATOM     76  O   UNL     1      12.999  -2.459  15.772  1.00  0.00    -0.744 OA
ENDBRANCH  72  73
ENDBRANCH  51  65
BRANCH  52  77
ATOM     77  C   UNL     1      11.919   9.249   6.389  1.00  0.00     0.058 A 
ATOM     78  C   UNL     1      10.712   9.846   5.995  1.00  0.00     0.135 A 
ATOM     79  C   UNL     1      13.087   9.631   5.711  1.00  0.00     0.135 A 
ATOM     80  F   UNL     1       9.564   9.507   6.602  1.00  0.00    -0.206 F 
ATOM     81  C   UNL     1      10.659  10.765   4.952  1.00  0.00     0.059 A 
ATOM     82  C   UNL     1      13.064  10.565   4.678  1.00  0.00     0.059 A 
ATOM     83  F   UNL     1      14.267   9.093   6.055  1.00  0.00    -0.206 F 
ATOM     84  C   UNL     1      11.841  11.113   4.294  1.00  0.00     0.060 A 
BRANCH  84  85
ATOM     85  S   UNL     1      11.746  12.282   2.920  1.00  0.00     0.124 S 
ATOM     86  O   UNL     1      11.042  11.493   1.914  1.00  0.00    -0.237 OA
ATOM     87  O   UNL     1      10.990  13.383   3.507  1.00  0.00    -0.237 OA
ATOM     88  O   UNL     1      13.146  12.571   2.625  1.00  0.00    -0.744 OA
ENDBRANCH  84  85
ENDBRANCH  52  77
BRANCH  64  89
ATOM     89  C   UNL     1      14.687   8.867  12.801  1.00  0.00     0.058 A 
ATOM     90  C   UNL     1      16.048   8.617  13.037  1.00  0.00     0.135 A 
ATOM     91  C   UNL     1      14.105   9.986  13.416  1.00  0.00     0.135 A 
ATOM     92  F   UNL     1      16.649   7.554  12.479  1.00  0.00    -0.206 F 
ATOM     93  C   UNL     1      16.802   9.438  13.866  1.00  0.00     0.059 A 
ATOM     94  C   UNL     1      14.848  10.836  14.228  1.00  0.00     0.059 A 
ATOM     95  F   UNL     1      12.808  10.269  13.215  1.00  0.00    -0.206 F 
ATOM     96  C   UNL     1      16.193  10.544  14.459  1.00  0.00     0.060 A 
BRANCH  96  97
ATOM     97  S   UNL     1      17.193  11.614  15.514  1.00  0.00     0.124 S 
ATOM     98  O   UNL     1      17.361  10.787  16.704  1.00  0.00    -0.237 OA
ATOM     99  O   UNL     1      18.391  11.814  14.704  1.00  0.00    -0.237 OA
ATOM    100  O   UNL     1      16.356  12.798  15.684  1.00  0.00    -0.744 OA
ENDBRANCH  96  97
ENDBRANCH  64  89
ENDBRANCH  38  39
ENDBRANCH  30  33
ENDBRANCH  28  29
ENDBRANCH  27  28
ENDBRANCH  26  27
ENDBRANCH   1  26
TORSDOF 20
