REMARK SMILES Cc1ccc(-c2cc(C(=O)NCCCCNC(=O)c3ccc(-c4c5nc(c(-c6c(F)cc(S(=O)(=O)[O-])cc6F)c6ccc([nH]6)c(-c6c(F)cc(S(=O)(=O)[O-])cc6F)c6nc(c(-c7c(F)cc(S(=O)(=O)[O-])cc7F)c7ccc4[nH]7)C=C6)C=C5)cc3)ccc2F)cc1O
REMARK SMILES IDX 14 1 13 2 12 3 11 4 9 5 10 6 8 8 6 9 7 10 87 11 86 12 88 13
REMARK SMILES IDX 85 14 5 15 1 16 2 17 3 18 90 19 4 20 89 21 91 22 15 24 16 25
REMARK SMILES IDX 17 26 18 28 19 29 20 30 84 31 21 32 83 33 22 34 23 35 24 36
REMARK SMILES IDX 77 37 25 38 82 39 76 40 78 41 26 42 81 43 75 44 74 45 27 47
REMARK SMILES IDX 61 48 40 49 60 50 41 51 44 52 59 53 79 54 42 55 43 56 58 58
REMARK SMILES IDX 80 59 45 60 28 61 29 62 38 63 30 64 31 65 37 66 39 67 32 68
REMARK SMILES IDX 33 69 34 70 35 71 36 72 62 73 63 74 72 75 64 76 65 77 71 78
REMARK SMILES IDX 73 79 66 80 67 81 68 82 69 83 70 84 46 85 47 86 56 87 48 88
REMARK SMILES IDX 49 89 55 90 57 91 50 92 51 93 52 94 53 95 54 96
REMARK H PARENT 11 7 91 23 16 27 78 46 44 57
REMARK Flexibility Score: inf
ROOT
ATOM      1  C   UNL     1       7.574   7.256   1.333  1.00  0.00     0.023 C 
ENDROOT
BRANCH   1   2
ATOM      2  C   UNL     1       7.211   5.956   0.606  1.00  0.00     0.023 C 
BRANCH   2   3
ATOM      3  C   UNL     1       7.173   4.727   1.516  1.00  0.00     0.116 C 
BRANCH   3   4
ATOM      4  N   UNL     1       5.918   4.673   2.234  1.00  0.00    -0.352 N 
ATOM      5  C   UNL     1       4.721   4.056   1.982  1.00  0.00     0.251 C 
ATOM      6  O   UNL     1       3.820   4.241   2.803  1.00  0.00    -0.269 OA
ATOM      7  H   UNL     1       5.925   5.183   3.076  1.00  0.00     0.163 HD
BRANCH   5   8
ATOM      8  C   UNL     1       4.456   3.156   0.817  1.00  0.00     0.040 A 
ATOM      9  C   UNL     1       2.973   1.411  -0.091  1.00  0.00     0.018 A 
ATOM     10  C   UNL     1       3.332   2.313   0.926  1.00  0.00     0.025 A 
ATOM     11  C   UNL     1       3.797   1.339  -1.219  1.00  0.00     0.131 A 
ATOM     12  C   UNL     1       4.892   2.182  -1.366  1.00  0.00     0.041 A 
ATOM     13  F   UNL     1       3.521   0.478  -2.210  1.00  0.00    -0.206 F 
ATOM     14  C   UNL     1       5.198   3.111  -0.367  1.00  0.00     0.017 A 
BRANCH   9  15
ATOM     15  C   UNL     1       1.743   0.619   0.004  1.00  0.00    -0.012 A 
ATOM     16  C   UNL     1      -1.914  -1.709   0.047  1.00  0.00     0.048 C 
ATOM     17  C   UNL     1      -0.662  -0.884   0.057  1.00  0.00    -0.009 A 
ATOM     18  C   UNL     1       0.587  -1.522   0.046  1.00  0.00     0.008 A 
ATOM     19  C   UNL     1      -0.687   0.514   0.059  1.00  0.00     0.119 A 
ATOM     20  C   UNL     1       1.773  -0.781   0.017  1.00  0.00     0.009 A 
ATOM     21  C   UNL     1       0.493   1.255   0.040  1.00  0.00     0.055 A 
BRANCH  19  22
ATOM     22  O   UNL     1      -1.847   1.237   0.062  1.00  0.00    -0.508 OA
ATOM     23  H   UNL     1      -2.674   0.796   0.074  1.00  0.00     0.293 HD
ENDBRANCH  19  22
ENDBRANCH   9  15
ENDBRANCH   5   8
ENDBRANCH   3   4
ENDBRANCH   2   3
ENDBRANCH   1   2
BRANCH   1  24
ATOM     24  C   UNL     1       8.945   7.256   2.001  1.00  0.00     0.116 C 
BRANCH  24  25
ATOM     25  N   UNL     1      10.023   6.910   1.089  1.00  0.00    -0.352 N 
ATOM     26  C   UNL     1      11.331   7.332   1.104  1.00  0.00     0.251 C 
ATOM     27  H   UNL     1       9.784   6.290   0.363  1.00  0.00     0.163 HD
ATOM     28  O   UNL     1      12.077   7.036   0.181  1.00  0.00    -0.269 OA
BRANCH  26  29
ATOM     29  C   UNL     1      11.812   8.168   2.223  1.00  0.00     0.039 A 
ATOM     30  C   UNL     1      12.583   9.295   1.933  1.00  0.00     0.014 A 
ATOM     31  C   UNL     1      11.506   7.845   3.548  1.00  0.00     0.014 A 
ATOM     32  C   UNL     1      13.016  10.119   2.972  1.00  0.00     0.010 A 
ATOM     33  C   UNL     1      11.867   8.712   4.574  1.00  0.00     0.010 A 
ATOM     34  C   UNL     1      12.643   9.845   4.300  1.00  0.00    -0.014 A 
BRANCH  34  35
ATOM     35  C   UNL     1      13.100  10.717   5.410  1.00  0.00     0.031 A 
ATOM     36  C   UNL     1      14.032  10.174   6.459  1.00  0.00     0.074 A 
ATOM     37  C   UNL     1      12.671  11.992   5.476  1.00  0.00     0.049 A 
ATOM     38  N   UNL     1      14.562  10.783   7.488  1.00  0.00    -0.248 NA
ATOM     39  C   UNL     1      14.401   8.752   6.351  1.00  0.00     0.031 C 
ATOM     40  C   UNL     1      11.735  12.618   4.540  1.00  0.00     0.029 A 
ATOM     41  N   UNL     1      12.979  12.997   6.358  1.00  0.00    -0.354 N 
ATOM     42  C   UNL     1      15.329   9.826   8.140  1.00  0.00     0.074 A 
ATOM     43  C   UNL     1      15.130   8.576   7.442  1.00  0.00     0.031 C 
ATOM     44  C   UNL     1      11.591  13.913   4.862  1.00  0.00     0.029 A 
ATOM     45  C   UNL     1      12.397  14.202   6.045  1.00  0.00     0.049 A 
ATOM     46  H   UNL     1      13.562  12.867   7.141  1.00  0.00     0.167 HD
ATOM     47  C   UNL     1      16.158   9.981   9.200  1.00  0.00     0.037 A 
ATOM     48  C   UNL     1      12.517  15.409   6.632  1.00  0.00     0.037 A 
ATOM     49  C   UNL     1      16.359  11.231   9.884  1.00  0.00     0.049 A 
ATOM     50  C   UNL     1      13.430  15.556   7.819  1.00  0.00     0.074 A 
ATOM     51  C   UNL     1      17.178  11.500  10.966  1.00  0.00     0.029 A 
ATOM     52  N   UNL     1      15.740  12.426   9.545  1.00  0.00    -0.354 N 
ATOM     53  N   UNL     1      14.167  14.645   8.410  1.00  0.00    -0.248 NA
ATOM     54  C   UNL     1      13.536  16.895   8.411  1.00  0.00     0.031 C 
ATOM     55  C   UNL     1      17.027  12.849  11.303  1.00  0.00     0.029 A 
ATOM     56  C   UNL     1      16.156  13.434  10.398  1.00  0.00     0.049 A 
ATOM     57  H   UNL     1      15.099  12.540   8.806  1.00  0.00     0.167 HD
ATOM     58  C   UNL     1      14.854  15.309   9.421  1.00  0.00     0.074 A 
ATOM     59  C   UNL     1      14.445  16.698   9.357  1.00  0.00     0.031 C 
ATOM     60  C   UNL     1      15.746  14.815  10.315  1.00  0.00     0.037 A 
BRANCH  47  61
ATOM     61  C   UNL     1      16.923   8.770   9.663  1.00  0.00     0.058 A 
ATOM     62  C   UNL     1      16.653   8.176  10.905  1.00  0.00     0.135 A 
ATOM     63  C   UNL     1      17.944   8.205   8.878  1.00  0.00     0.135 A 
ATOM     64  F   UNL     1      15.686   8.668  11.695  1.00  0.00    -0.206 F 
ATOM     65  C   UNL     1      17.366   7.069  11.354  1.00  0.00     0.059 A 
ATOM     66  C   UNL     1      18.649   7.080   9.293  1.00  0.00     0.059 A 
ATOM     67  F   UNL     1      18.229   8.718   7.670  1.00  0.00    -0.206 F 
ATOM     68  C   UNL     1      18.360   6.524  10.538  1.00  0.00     0.060 A 
BRANCH  68  69
ATOM     69  S   UNL     1      19.232   5.049  11.105  1.00  0.00     0.124 S 
ATOM     70  O   UNL     1      20.056   5.583  12.183  1.00  0.00    -0.237 OA
ATOM     71  O   UNL     1      18.131   4.181  11.513  1.00  0.00    -0.237 OA
ATOM     72  O   UNL     1      19.957   4.607   9.917  1.00  0.00    -0.744 OA
ENDBRANCH  68  69
ENDBRANCH  47  61
BRANCH  48  73
ATOM     73  C   UNL     1      11.816  16.583   6.047  1.00  0.00     0.058 A 
ATOM     74  C   UNL     1      10.420  16.709   6.106  1.00  0.00     0.135 A 
ATOM     75  C   UNL     1      12.535  17.578   5.367  1.00  0.00     0.135 A 
ATOM     76  F   UNL     1       9.686  15.778   6.734  1.00  0.00    -0.206 F 
ATOM     77  C   UNL     1       9.759  17.765   5.488  1.00  0.00     0.059 A 
ATOM     78  C   UNL     1      11.898  18.657   4.762  1.00  0.00     0.059 A 
ATOM     79  F   UNL     1      13.872  17.505   5.292  1.00  0.00    -0.206 F 
ATOM     80  C   UNL     1      10.507  18.731   4.812  1.00  0.00     0.060 A 
BRANCH  80  81
ATOM     81  S   UNL     1       9.625  20.075   3.988  1.00  0.00     0.124 S 
ATOM     82  O   UNL     1       8.941  19.360   2.916  1.00  0.00    -0.237 OA
ATOM     83  O   UNL     1       8.774  20.581   5.059  1.00  0.00    -0.237 OA
ATOM     84  O   UNL     1      10.695  20.971   3.562  1.00  0.00    -0.744 OA
ENDBRANCH  80  81
ENDBRANCH  48  73
BRANCH  60  85
ATOM     85  C   UNL     1      16.382  15.785  11.273  1.00  0.00     0.058 A 
ATOM     86  C   UNL     1      17.745  16.101  11.155  1.00  0.00     0.135 A 
ATOM     87  C   UNL     1      15.666  16.355  12.337  1.00  0.00     0.135 A 
ATOM     88  F   UNL     1      18.479  15.578  10.161  1.00  0.00    -0.206 F 
ATOM     89  C   UNL     1      18.378  16.942  12.063  1.00  0.00     0.059 A 
ATOM     90  C   UNL     1      16.272  17.223  13.241  1.00  0.00     0.059 A 
ATOM     91  F   UNL     1      14.358  16.091  12.489  1.00  0.00    -0.206 F 
ATOM     92  C   UNL     1      17.633  17.500  13.103  1.00  0.00     0.060 A 
BRANCH  92  93
ATOM     93  S   UNL     1      18.462  18.619  14.251  1.00  0.00     0.124 S 
ATOM     94  O   UNL     1      19.292  17.698  15.019  1.00  0.00    -0.237 OA
ATOM     95  O   UNL     1      19.177  19.515  13.346  1.00  0.00    -0.237 OA
ATOM     96  O   UNL     1      17.358  19.232  14.983  1.00  0.00    -0.744 OA
ENDBRANCH  92  93
ENDBRANCH  60  85
ENDBRANCH  34  35
ENDBRANCH  26  29
ENDBRANCH  24  25
ENDBRANCH   1  24
TORSDOF 16
