REMARK SMILES CCc1ccc(C[NH+]2CCC(Oc3ccccc3OC)(C(=O)NCCCCNC(=O)c3ccc(-c4c5nc(c(-c6c(F)cc(S(=O)(=O)[O-])cc6F)c6ccc([nH]6)c(-c6c(F)cc(S(=O)(=O)[O-])cc6F)c6nc(c(-c7c(F)cc(S(=O)(=O)[O-])cc7F)c7ccc4[nH]7)C=C6)C=C5)cc3)CC2)nc1
REMARK SMILES IDX 25 1 24 2 23 3 21 4 22 5 11 7 8 8 9 9 98 10 10 12 97 13 7 14
REMARK SMILES IDX 6 15 3 16 4 17 100 18 5 19 99 20 2 21 1 22 12 23 13 24 14 25
REMARK SMILES IDX 18 26 15 27 17 28 16 29 19 30 20 31 26 32 27 33 28 34 29 35
REMARK SMILES IDX 30 37 31 38 32 39 96 40 33 41 95 42 34 43 35 44 36 45 89 46
REMARK SMILES IDX 37 47 94 48 88 49 90 50 38 51 93 52 87 53 86 54 39 56 73 57
REMARK SMILES IDX 52 58 72 59 53 60 56 61 71 62 91 63 54 64 55 65 70 67 92 68
REMARK SMILES IDX 57 69 40 70 41 71 50 72 42 73 43 74 49 75 51 76 44 77 45 78
REMARK SMILES IDX 46 79 47 80 48 81 74 82 75 83 84 84 76 85 77 86 83 87 85 88
REMARK SMILES IDX 78 89 79 90 80 91 81 92 82 93 58 94 59 95 68 96 60 97 61 98
REMARK SMILES IDX 67 99 69 100 62 101 63 102 64 103 65 104 66 105
REMARK H PARENT 23 6 8 11 28 36 90 55 56 66
REMARK Flexibility Score: inf
ROOT
ATOM      1  C   UNL     1       6.191  -4.181   1.516  1.00  0.00     0.023 C 
ENDROOT
BRANCH   1   2
ATOM      2  C   UNL     1       5.273  -5.076   2.344  1.00  0.00     0.116 C 
BRANCH   2   3
ATOM      3  N   UNL     1       3.871  -4.831   2.087  1.00  0.00    -0.353 N 
ATOM      4  C   UNL     1       2.949  -5.572   1.400  1.00  0.00     0.264 C 
ATOM      5  O   UNL     1       1.774  -5.231   1.580  1.00  0.00    -0.270 OA
ATOM      6  H   UNL     1       3.523  -3.994   2.470  1.00  0.00     0.163 HD
BRANCH   4   7
ATOM      7  C   UNL     1       3.341  -6.756   0.442  1.00  0.00     0.197 C 
ATOM      8  N   UNL     1       2.261  -6.062  -2.203  1.00  0.00    -0.330 N 
ATOM      9  C   UNL     1       3.404  -5.329  -1.650  1.00  0.00     0.267 C 
ATOM     10  C   UNL     1       1.336  -6.475  -1.136  1.00  0.00     0.267 C 
ATOM     11  H   UNL     1       2.619  -6.913  -2.638  1.00  0.00     0.348 HD
ATOM     12  C   UNL     1       4.179  -6.257  -0.736  1.00  0.00     0.120 C 
ATOM     13  C   UNL     1       2.039  -7.387  -0.111  1.00  0.00     0.120 C 
BRANCH   8  14
ATOM     14  C   UNL     1       1.584  -5.306  -3.281  1.00  0.00     0.319 C 
BRANCH  14  15
ATOM     15  C   UNL     1       1.233  -3.861  -2.966  1.00  0.00     0.095 A 
ATOM     16  C   UNL     1       0.784  -1.304  -2.045  1.00  0.00    -0.030 A 
ATOM     17  C   UNL     1       1.851  -1.541  -2.911  1.00  0.00     0.007 A 
ATOM     18  C   UNL     1      -0.029  -2.383  -1.719  1.00  0.00     0.115 A 
ATOM     19  C   UNL     1       2.080  -2.831  -3.379  1.00  0.00     0.030 A 
ATOM     20  N   UNL     1       0.159  -3.642  -2.171  1.00  0.00    -0.255 NA
BRANCH  16  21
ATOM     21  C   UNL     1       0.551   0.049  -1.435  1.00  0.00     0.034 C 
ATOM     22  C   UNL     1       1.127   0.140  -0.029  1.00  0.00     0.009 C 
ENDBRANCH  16  21
ENDBRANCH  14  15
ENDBRANCH   8  14
BRANCH   7  23
ATOM     23  O   UNL     1       4.107  -7.635   1.301  1.00  0.00    -0.473 OA
BRANCH  23  24
ATOM     24  C   UNL     1       4.334  -8.931   0.940  1.00  0.00     0.162 A 
ATOM     25  C   UNL     1       3.604  -9.890   1.650  1.00  0.00     0.050 A 
ATOM     26  C   UNL     1       5.339  -9.351   0.060  1.00  0.00     0.160 A 
ATOM     27  C   UNL     1       3.821 -11.252   1.434  1.00  0.00     0.004 A 
ATOM     28  C   UNL     1       5.531 -10.716  -0.178  1.00  0.00     0.050 A 
ATOM     29  C   UNL     1       4.780 -11.665   0.512  1.00  0.00     0.004 A 
BRANCH  26  30
ATOM     30  O   UNL     1       6.129  -8.516  -0.682  1.00  0.00    -0.493 OA
ATOM     31  C   UNL     1       7.099  -7.828   0.099  1.00  0.00     0.278 C 
ENDBRANCH  26  30
ENDBRANCH  23  24
ENDBRANCH   7  23
ENDBRANCH   4   7
ENDBRANCH   2   3
ENDBRANCH   1   2
BRANCH   1  32
ATOM     32  C   UNL     1       6.353  -2.762   2.054  1.00  0.00     0.023 C 
BRANCH  32  33
ATOM     33  C   UNL     1       6.946  -2.666   3.453  1.00  0.00     0.116 C 
BRANCH  33  34
ATOM     34  N   UNL     1       8.251  -3.296   3.573  1.00  0.00    -0.352 N 
ATOM     35  C   UNL     1       9.328  -2.896   4.328  1.00  0.00     0.251 C 
ATOM     36  H   UNL     1       8.381  -4.116   3.044  1.00  0.00     0.163 HD
ATOM     37  O   UNL     1      10.402  -3.480   4.219  1.00  0.00    -0.269 OA
BRANCH  35  38
ATOM     38  C   UNL     1       9.192  -1.738   5.238  1.00  0.00     0.039 A 
ATOM     39  C   UNL     1      10.198  -0.770   5.250  1.00  0.00     0.014 A 
ATOM     40  C   UNL     1       8.066  -1.591   6.053  1.00  0.00     0.014 A 
ATOM     41  C   UNL     1      10.045   0.371   6.038  1.00  0.00     0.010 A 
ATOM     42  C   UNL     1       7.874  -0.412   6.766  1.00  0.00     0.010 A 
ATOM     43  C   UNL     1       8.866   0.578   6.776  1.00  0.00    -0.014 A 
BRANCH  43  44
ATOM     44  C   UNL     1       8.672   1.822   7.564  1.00  0.00     0.031 A 
ATOM     45  C   UNL     1       8.523   1.761   9.060  1.00  0.00     0.074 A 
ATOM     46  C   UNL     1       8.598   3.006   6.924  1.00  0.00     0.049 A 
ATOM     47  N   UNL     1       8.367   2.741   9.913  1.00  0.00    -0.248 NA
ATOM     48  C   UNL     1       8.519   0.425   9.678  1.00  0.00     0.031 C 
ATOM     49  C   UNL     1       8.654   3.186   5.471  1.00  0.00     0.029 A 
ATOM     50  N   UNL     1       8.463   4.282   7.409  1.00  0.00    -0.354 N 
ATOM     51  C   UNL     1       8.249   2.142  11.162  1.00  0.00     0.074 A 
ATOM     52  C   UNL     1       8.275   0.712  10.948  1.00  0.00     0.031 C 
ATOM     53  C   UNL     1       8.591   4.496   5.186  1.00  0.00     0.029 A 
ATOM     54  C   UNL     1       8.458   5.248   6.430  1.00  0.00     0.049 A 
ATOM     55  H   UNL     1       8.378   4.487   8.368  1.00  0.00     0.167 HD
ATOM     56  C   UNL     1       8.163   2.728  12.380  1.00  0.00     0.037 A 
ATOM     57  C   UNL     1       8.362   6.589   6.523  1.00  0.00     0.037 A 
ATOM     58  C   UNL     1       8.150   4.154  12.584  1.00  0.00     0.049 A 
ATOM     59  C   UNL     1       8.279   7.222   7.886  1.00  0.00     0.074 A 
ATOM     60  C   UNL     1       8.112   4.851  13.778  1.00  0.00     0.029 A 
ATOM     61  N   UNL     1       8.172   5.100  11.569  1.00  0.00    -0.354 N 
ATOM     62  N   UNL     1       8.248   6.642   9.062  1.00  0.00    -0.248 NA
ATOM     63  C   UNL     1       8.236   8.689   7.937  1.00  0.00     0.031 C 
ATOM     64  C   UNL     1       8.062   6.218  13.484  1.00  0.00     0.029 A 
ATOM     65  C   UNL     1       8.130   6.375  12.109  1.00  0.00     0.049 A 
ATOM     66  H   UNL     1       8.211   4.895  10.607  1.00  0.00     0.167 HD
ATOM     67  C   UNL     1       8.209   7.673   9.994  1.00  0.00     0.074 A 
ATOM     68  C   UNL     1       8.233   8.912   9.244  1.00  0.00     0.031 C 
ATOM     69  C   UNL     1       8.160   7.600  11.348  1.00  0.00     0.037 A 
BRANCH  56  70
ATOM     70  C   UNL     1       8.086   1.827  13.583  1.00  0.00     0.058 A 
ATOM     71  C   UNL     1       9.177   1.036  13.982  1.00  0.00     0.135 A 
ATOM     72  C   UNL     1       6.920   1.769  14.364  1.00  0.00     0.135 A 
ATOM     73  F   UNL     1      10.313   1.039  13.265  1.00  0.00    -0.206 F 
ATOM     74  C   UNL     1       9.104   0.195  15.087  1.00  0.00     0.059 A 
ATOM     75  C   UNL     1       6.835   0.959  15.493  1.00  0.00     0.059 A 
ATOM     76  F   UNL     1       5.846   2.502  14.032  1.00  0.00    -0.206 F 
ATOM     77  C   UNL     1       7.927   0.162  15.836  1.00  0.00     0.060 A 
BRANCH  77  78
ATOM     78  S   UNL     1       7.849  -0.937  17.266  1.00  0.00     0.124 S 
ATOM     79  O   UNL     1       7.775  -2.245  16.623  1.00  0.00    -0.237 OA
ATOM     80  O   UNL     1       9.100  -0.640  17.956  1.00  0.00    -0.237 OA
ATOM     81  O   UNL     1       6.637  -0.509  17.958  1.00  0.00    -0.744 OA
ENDBRANCH  77  78
ENDBRANCH  56  70
BRANCH  57  82
ATOM     82  C   UNL     1       8.374   7.417   5.287  1.00  0.00     0.058 A 
ATOM     83  C   UNL     1       9.473   8.227   4.964  1.00  0.00     0.135 A 
ATOM     84  C   UNL     1       7.298   7.389   4.386  1.00  0.00     0.135 A 
ATOM     85  F   UNL     1      10.525   8.292   5.794  1.00  0.00    -0.206 F 
ATOM     86  C   UNL     1       9.501   8.988   3.800  1.00  0.00     0.059 A 
ATOM     87  C   UNL     1       7.314   8.120   3.203  1.00  0.00     0.059 A 
ATOM     88  F   UNL     1       6.230   6.615   4.638  1.00  0.00    -0.206 F 
ATOM     89  C   UNL     1       8.417   8.924   2.922  1.00  0.00     0.060 A 
BRANCH  89  90
ATOM     90  S   UNL     1       8.490   9.867   1.384  1.00  0.00     0.124 S 
ATOM     91  O   UNL     1       8.318  11.232   1.867  1.00  0.00    -0.237 OA
ATOM     92  O   UNL     1       9.818   9.529   0.880  1.00  0.00    -0.237 OA
ATOM     93  O   UNL     1       7.378   9.327   0.607  1.00  0.00    -0.744 OA
ENDBRANCH  89  90
ENDBRANCH  57  82
BRANCH  69  94
ATOM     94  C   UNL     1       8.170   8.895  12.114  1.00  0.00     0.058 A 
ATOM     95  C   UNL     1       7.059   9.753  12.134  1.00  0.00     0.135 A 
ATOM     96  C   UNL     1       9.289   9.253  12.883  1.00  0.00     0.135 A 
ATOM     97  F   UNL     1       5.966   9.461  11.413  1.00  0.00    -0.206 F 
ATOM     98  C   UNL     1       7.068  10.934  12.870  1.00  0.00     0.059 A 
ATOM     99  C   UNL     1       9.308  10.414  13.650  1.00  0.00     0.059 A 
ATOM    100  F   UNL     1      10.374   8.463  12.909  1.00  0.00    -0.206 F 
ATOM    101  C   UNL     1       8.197  11.255  13.627  1.00  0.00     0.060 A 
BRANCH 101 102
ATOM    102  S   UNL     1       8.182  12.774  14.601  1.00  0.00     0.124 S 
ATOM    103  O   UNL     1       8.311  13.790  13.562  1.00  0.00    -0.237 OA
ATOM    104  O   UNL     1       6.884  12.707  15.265  1.00  0.00    -0.237 OA
ATOM    105  O   UNL     1       9.338  12.626  15.481  1.00  0.00    -0.744 OA
ENDBRANCH 101 102
ENDBRANCH  69  94
ENDBRANCH  43  44
ENDBRANCH  35  38
ENDBRANCH  33  34
ENDBRANCH  32  33
ENDBRANCH   1  32
TORSDOF 20
