REMARK SMILES Cc1nn(Cc2ccc(C(=O)NCCCCNC(=O)c3ccc(-c4c5nc(c(-c6c(F)cc(S(=O)(=O)[O-])cc6F)c6ccc([nH]6)c(-c6c(F)cc(S(=O)(=O)[O-])cc6F)c6nc(c(-c7c(F)cc(S(=O)(=O)[O-])cc7F)c7ccc4[nH]7)C=C6)C=C5)cc3)o2)c(C)c1C
REMARK SMILES IDX 15 1 14 2 13 3 12 4 10 5 11 6 9 8 6 9 7 10 86 11 8 12 5 13
REMARK SMILES IDX 4 14 1 15 2 16 3 17 89 18 87 19 90 20 88 21 16 22 17 23
REMARK SMILES IDX 18 24 19 26 20 27 21 28 85 29 22 30 84 31 23 32 24 33 25 34
REMARK SMILES IDX 78 35 26 36 83 37 77 38 79 39 27 40 82 41 76 42 75 43 28 45
REMARK SMILES IDX 62 46 41 47 61 48 42 49 45 50 60 51 80 52 43 53 44 54 59 56
REMARK SMILES IDX 81 57 46 58 29 59 30 60 39 61 31 62 32 63 38 64 40 65 33 66
REMARK SMILES IDX 34 67 35 68 36 69 37 70 63 71 64 72 73 73 65 74 66 75 72 76
REMARK SMILES IDX 74 77 67 78 68 79 69 80 70 81 71 82 47 83 48 84 57 85 49 86
REMARK SMILES IDX 50 87 56 88 58 89 51 90 52 91 53 92 54 93 55 94
REMARK H PARENT 12 7 17 25 79 44 45 55
REMARK Flexibility Score: inf
ROOT
ATOM      1  C   UNL     1      -6.932  -3.080   6.297  1.00  0.00     0.023 C 
ENDROOT
BRANCH   1   2
ATOM      2  C   UNL     1      -5.433  -2.890   6.007  1.00  0.00     0.023 C 
BRANCH   2   3
ATOM      3  C   UNL     1      -4.542  -4.118   6.233  1.00  0.00     0.116 C 
BRANCH   3   4
ATOM      4  N   UNL     1      -4.864  -5.199   5.322  1.00  0.00    -0.349 N 
ATOM      5  C   UNL     1      -4.216  -5.706   4.220  1.00  0.00     0.286 C 
ATOM      6  O   UNL     1      -4.799  -6.624   3.636  1.00  0.00    -0.266 OA
ATOM      7  H   UNL     1      -5.708  -5.659   5.533  1.00  0.00     0.163 HD
BRANCH   5   8
ATOM      8  C   UNL     1      -2.928  -5.215   3.765  1.00  0.00     0.191 A 
ATOM      9  C   UNL     1      -1.100  -3.974   3.708  1.00  0.00     0.126 A 
ATOM     10  C   UNL     1      -0.961  -4.910   2.706  1.00  0.00     0.048 A 
ATOM     11  O   UNL     1      -2.298  -4.144   4.340  1.00  0.00    -0.454 OA
ATOM     12  C   UNL     1      -2.129  -5.703   2.742  1.00  0.00     0.056 A 
BRANCH   9  13
ATOM     13  C   UNL     1      -0.203  -2.917   4.239  1.00  0.00     0.219 C 
BRANCH  13  14
ATOM     14  N   UNL     1      -0.127  -1.757   3.353  1.00  0.00    -0.262 N 
ATOM     15  C   UNL     1       0.912  -0.469   0.224  1.00  0.00     0.069 C 
ATOM     16  C   UNL     1       0.401  -0.670   1.603  1.00  0.00     0.063 A 
ATOM     17  N   UNL     1       0.445  -1.894   2.138  1.00  0.00    -0.177 NA
ATOM     18  C   UNL     1      -0.130   0.284   2.512  1.00  0.00    -0.007 A 
ATOM     19  C   UNL     1      -0.446  -0.451   3.645  1.00  0.00     0.039 A 
ATOM     20  C   UNL     1      -0.298   1.745   2.320  1.00  0.00     0.048 C 
ATOM     21  C   UNL     1      -1.007  -0.017   4.951  1.00  0.00     0.066 C 
ENDBRANCH  13  14
ENDBRANCH   9  13
ENDBRANCH   5   8
ENDBRANCH   3   4
ENDBRANCH   2   3
ENDBRANCH   1   2
BRANCH   1  22
ATOM     22  C   UNL     1      -7.263  -3.481   7.728  1.00  0.00     0.116 C 
BRANCH  22  23
ATOM     23  N   UNL     1      -6.896  -2.465   8.721  1.00  0.00    -0.352 N 
ATOM     24  C   UNL     1      -7.045  -2.534  10.095  1.00  0.00     0.251 C 
ATOM     25  H   UNL     1      -6.497  -1.636   8.368  1.00  0.00     0.163 HD
ATOM     26  O   UNL     1      -7.073  -1.510  10.781  1.00  0.00    -0.269 OA
BRANCH  24  27
ATOM     27  C   UNL     1      -7.149  -3.860  10.726  1.00  0.00     0.039 A 
ATOM     28  C   UNL     1      -8.022  -4.135  11.784  1.00  0.00     0.014 A 
ATOM     29  C   UNL     1      -6.356  -4.862  10.182  1.00  0.00     0.014 A 
ATOM     30  C   UNL     1      -8.135  -5.452  12.231  1.00  0.00     0.010 A 
ATOM     31  C   UNL     1      -6.632  -6.168  10.466  1.00  0.00     0.010 A 
ATOM     32  C   UNL     1      -7.442  -6.465  11.552  1.00  0.00    -0.014 A 
BRANCH  32  33
ATOM     33  C   UNL     1      -7.610  -7.877  11.872  1.00  0.00     0.031 A 
ATOM     34  C   UNL     1      -9.015  -8.358  11.782  1.00  0.00     0.074 A 
ATOM     35  C   UNL     1      -6.551  -8.715  11.957  1.00  0.00     0.049 A 
ATOM     36  N   UNL     1      -9.772  -8.767  12.745  1.00  0.00    -0.248 NA
ATOM     37  C   UNL     1      -9.724  -8.208  10.498  1.00  0.00     0.031 C 
ATOM     38  C   UNL     1      -5.128  -8.417  11.737  1.00  0.00     0.029 A 
ATOM     39  N   UNL     1      -6.536 -10.062  12.127  1.00  0.00    -0.354 N 
ATOM     40  C   UNL     1     -10.959  -9.177  12.143  1.00  0.00     0.074 A 
ATOM     41  C   UNL     1     -10.957  -8.600  10.825  1.00  0.00     0.031 C 
ATOM     42  C   UNL     1      -4.446  -9.565  11.534  1.00  0.00     0.029 A 
ATOM     43  C   UNL     1      -5.337 -10.682  11.776  1.00  0.00     0.049 A 
ATOM     44  H   UNL     1      -7.312 -10.562  12.471  1.00  0.00     0.167 HD
ATOM     45  C   UNL     1     -11.711 -10.179  12.679  1.00  0.00     0.037 A 
ATOM     46  C   UNL     1      -5.131 -12.020  11.648  1.00  0.00     0.037 A 
ATOM     47  C   UNL     1     -11.331 -10.437  14.048  1.00  0.00     0.049 A 
ATOM     48  C   UNL     1      -6.221 -12.684  12.421  1.00  0.00     0.074 A 
ATOM     49  C   UNL     1     -11.236  -9.650  15.182  1.00  0.00     0.029 A 
ATOM     50  N   UNL     1     -10.559 -11.547  14.306  1.00  0.00    -0.354 N 
ATOM     51  N   UNL     1      -6.346 -12.583  13.719  1.00  0.00    -0.248 NA
ATOM     52  C   UNL     1      -7.445 -13.009  11.701  1.00  0.00     0.031 C 
ATOM     53  C   UNL     1     -10.017 -10.054  15.803  1.00  0.00     0.029 A 
ATOM     54  C   UNL     1      -9.502 -11.129  15.078  1.00  0.00     0.049 A 
ATOM     55  H   UNL     1     -10.732 -12.465  13.997  1.00  0.00     0.167 HD
ATOM     56  C   UNL     1      -7.706 -12.403  13.934  1.00  0.00     0.074 A 
ATOM     57  C   UNL     1      -8.338 -12.728  12.654  1.00  0.00     0.031 C 
ATOM     58  C   UNL     1      -8.181 -11.718  15.019  1.00  0.00     0.037 A 
BRANCH  45  59
ATOM     59  C   UNL     1     -12.518 -11.162  11.864  1.00  0.00     0.058 A 
ATOM     60  C   UNL     1     -13.403 -12.043  12.519  1.00  0.00     0.135 A 
ATOM     61  C   UNL     1     -12.268 -11.457  10.504  1.00  0.00     0.135 A 
ATOM     62  F   UNL     1     -13.700 -11.872  13.818  1.00  0.00    -0.206 F 
ATOM     63  C   UNL     1     -13.949 -13.162  11.888  1.00  0.00     0.059 A 
ATOM     64  C   UNL     1     -12.847 -12.532   9.840  1.00  0.00     0.059 A 
ATOM     65  F   UNL     1     -11.375 -10.777   9.775  1.00  0.00    -0.206 F 
ATOM     66  C   UNL     1     -13.656 -13.401  10.549  1.00  0.00     0.060 A 
BRANCH  66  67
ATOM     67  S   UNL     1     -14.295 -14.884   9.754  1.00  0.00     0.124 S 
ATOM     68  O   UNL     1     -13.540 -15.928  10.436  1.00  0.00    -0.237 OA
ATOM     69  O   UNL     1     -15.716 -14.809  10.074  1.00  0.00    -0.237 OA
ATOM     70  O   UNL     1     -13.964 -14.679   8.347  1.00  0.00    -0.744 OA
ENDBRANCH  66  67
ENDBRANCH  45  59
BRANCH  46  71
ATOM     71  C   UNL     1      -4.333 -12.724  10.599  1.00  0.00     0.058 A 
ATOM     72  C   UNL     1      -4.110 -14.113  10.661  1.00  0.00     0.135 A 
ATOM     73  C   UNL     1      -4.013 -12.108   9.371  1.00  0.00     0.135 A 
ATOM     74  F   UNL     1      -4.392 -14.791  11.785  1.00  0.00    -0.206 F 
ATOM     75  C   UNL     1      -3.662 -14.854   9.557  1.00  0.00     0.059 A 
ATOM     76  C   UNL     1      -3.557 -12.822   8.262  1.00  0.00     0.059 A 
ATOM     77  F   UNL     1      -4.222 -10.799   9.174  1.00  0.00    -0.206 F 
ATOM     78  C   UNL     1      -3.413 -14.200   8.351  1.00  0.00     0.060 A 
BRANCH  78  79
ATOM     79  S   UNL     1      -3.032 -15.165   6.867  1.00  0.00     0.124 S 
ATOM     80  O   UNL     1      -1.692 -15.660   7.163  1.00  0.00    -0.237 OA
ATOM     81  O   UNL     1      -4.095 -16.164   6.867  1.00  0.00    -0.237 OA
ATOM     82  O   UNL     1      -3.108 -14.178   5.793  1.00  0.00    -0.744 OA
ENDBRANCH  78  79
ENDBRANCH  46  71
BRANCH  58  83
ATOM     83  C   UNL     1      -7.230 -11.354  16.136  1.00  0.00     0.058 A 
ATOM     84  C   UNL     1      -6.102 -10.522  15.997  1.00  0.00     0.135 A 
ATOM     85  C   UNL     1      -7.583 -11.723  17.443  1.00  0.00     0.135 A 
ATOM     86  F   UNL     1      -5.751 -10.028  14.802  1.00  0.00    -0.206 F 
ATOM     87  C   UNL     1      -5.342 -10.115  17.098  1.00  0.00     0.059 A 
ATOM     88  C   UNL     1      -6.861 -11.303  18.556  1.00  0.00     0.059 A 
ATOM     89  F   UNL     1      -8.684 -12.463  17.657  1.00  0.00    -0.206 F 
ATOM     90  C   UNL     1      -5.731 -10.511  18.376  1.00  0.00     0.060 A 
BRANCH  90  91
ATOM     91  S   UNL     1      -4.785  -9.942  19.806  1.00  0.00     0.124 S 
ATOM     92  O   UNL     1      -3.532 -10.675  19.655  1.00  0.00    -0.237 OA
ATOM     93  O   UNL     1      -4.707  -8.501  19.583  1.00  0.00    -0.237 OA
ATOM     94  O   UNL     1      -5.608 -10.345  20.943  1.00  0.00    -0.744 OA
ENDBRANCH  90  91
ENDBRANCH  58  83
ENDBRANCH  32  33
ENDBRANCH  24  27
ENDBRANCH  22  23
ENDBRANCH   1  22
TORSDOF 16
