REMARK SMILES O=C(NCCCCNC(=O)c1nc(NC[C@H]2c3ccccc3CSc3ccccc32)c2ccccc2n1)c1ccc(-c2c3nc(c(-c4c(F)cc(S(=O)(=O)[O-])cc4F)c4ccc([nH]4)c(-c4c(F)cc(S(=O)(=O)[O-])cc4F)c4nc(c(-c5c(F)cc(S(=O)(=O)[O-])cc5F)c5ccc2[nH]5)C=C4)C=C3)cc1
REMARK SMILES IDX 5 1 4 2 3 3 1 4 2 5 38 7 39 8 103 9 40 10 102 11 41 12 42 13
REMARK SMILES IDX 43 14 96 15 44 16 101 17 95 18 97 19 45 20 100 21 94 22
REMARK SMILES IDX 93 23 46 25 80 26 59 27 79 28 60 29 63 30 78 31 98 32 61 33
REMARK SMILES IDX 62 34 77 36 99 37 64 38 47 39 48 40 57 41 49 42 50 43 56 44
REMARK SMILES IDX 58 45 51 46 52 47 53 48 54 49 55 50 81 51 82 52 91 53 83 54
REMARK SMILES IDX 84 55 90 56 92 57 85 58 86 59 87 60 88 61 89 62 65 63 66 64
REMARK SMILES IDX 75 65 67 66 68 67 74 68 76 69 69 70 70 71 71 72 72 73 73 74
REMARK SMILES IDX 6 75 7 76 8 77 9 78 10 80 11 81 12 82 37 83 13 84 36 85
REMARK SMILES IDX 31 86 35 87 32 88 34 89 33 90 14 91 15 93 16 94 17 95 30 96
REMARK SMILES IDX 18 97 22 98 25 99 29 100 19 101 21 102 23 103 24 104 26 105
REMARK SMILES IDX 28 106 20 107 27 108
REMARK H PARENT 3 6 97 24 63 35 8 79 14 92
REMARK Flexibility Score: inf
ROOT
ATOM      1  C   UNL     1       5.020   2.260   0.922  1.00  0.00     0.023 C 
ENDROOT
BRANCH   1   2
ATOM      2  C   UNL     1       4.594   0.799   0.799  1.00  0.00     0.116 C 
BRANCH   2   3
ATOM      3  N   UNL     1       3.150   0.635   0.793  1.00  0.00    -0.352 N 
ATOM      4  O   UNL     1       1.127   0.051   0.007  1.00  0.00    -0.269 OA
ATOM      5  C   UNL     1       2.353  -0.068  -0.074  1.00  0.00     0.251 C 
ATOM      6  H   UNL     1       2.672   1.097   1.519  1.00  0.00     0.163 HD
BRANCH   5   7
ATOM      7  C   UNL     1       2.937  -0.952  -1.109  1.00  0.00     0.039 A 
ATOM      8  C   UNL     1       2.372  -0.954  -2.389  1.00  0.00     0.014 A 
ATOM      9  C   UNL     1       3.995  -1.818  -0.817  1.00  0.00     0.014 A 
ATOM     10  C   UNL     1       2.891  -1.789  -3.384  1.00  0.00     0.010 A 
ATOM     11  C   UNL     1       4.545  -2.613  -1.823  1.00  0.00     0.010 A 
ATOM     12  C   UNL     1       3.993  -2.614  -3.114  1.00  0.00    -0.014 A 
BRANCH  12  13
ATOM     13  C   UNL     1       4.553  -3.527  -4.143  1.00  0.00     0.031 A 
ATOM     14  C   UNL     1       4.423  -5.017  -3.964  1.00  0.00     0.074 A 
ATOM     15  C   UNL     1       5.205  -3.032  -5.214  1.00  0.00     0.049 A 
ATOM     16  N   UNL     1       4.970  -5.985  -4.652  1.00  0.00    -0.248 NA
ATOM     17  C   UNL     1       3.572  -5.476  -2.853  1.00  0.00     0.031 C 
ATOM     18  C   UNL     1       5.381  -1.611  -5.518  1.00  0.00     0.029 A 
ATOM     19  N   UNL     1       5.847  -3.673  -6.244  1.00  0.00    -0.354 N 
ATOM     20  C   UNL     1       4.538  -7.165  -4.058  1.00  0.00     0.074 A 
ATOM     21  C   UNL     1       3.714  -6.793  -2.928  1.00  0.00     0.031 C 
ATOM     22  C   UNL     1       6.068  -1.489  -6.667  1.00  0.00     0.029 A 
ATOM     23  C   UNL     1       6.422  -2.819  -7.156  1.00  0.00     0.049 A 
ATOM     24  H   UNL     1       5.892  -4.653  -6.323  1.00  0.00     0.167 HD
ATOM     25  C   UNL     1       4.788  -8.442  -4.432  1.00  0.00     0.037 A 
ATOM     26  C   UNL     1       7.162  -3.079  -8.252  1.00  0.00     0.037 A 
ATOM     27  C   UNL     1       5.593  -8.812  -5.566  1.00  0.00     0.049 A 
ATOM     28  C   UNL     1       7.468  -4.509  -8.613  1.00  0.00     0.074 A 
ATOM     29  C   UNL     1       5.937 -10.081  -6.003  1.00  0.00     0.029 A 
ATOM     30  N   UNL     1       6.159  -7.917  -6.461  1.00  0.00    -0.354 N 
ATOM     31  N   UNL     1       7.097  -5.612  -8.008  1.00  0.00    -0.248 NA
ATOM     32  C   UNL     1       8.298  -4.730  -9.807  1.00  0.00     0.031 C 
ATOM     33  C   UNL     1       6.721  -9.952  -7.154  1.00  0.00     0.029 A 
ATOM     34  C   UNL     1       6.835  -8.604  -7.454  1.00  0.00     0.049 A 
ATOM     35  H   UNL     1       6.089  -6.936  -6.399  1.00  0.00     0.167 HD
ATOM     36  C   UNL     1       7.613  -6.654  -8.769  1.00  0.00     0.074 A 
ATOM     37  C   UNL     1       8.322  -6.053  -9.879  1.00  0.00     0.031 C 
ATOM     38  C   UNL     1       7.509  -7.991  -8.568  1.00  0.00     0.037 A 
BRANCH  25  39
ATOM     39  C   UNL     1       4.170  -9.544  -3.619  1.00  0.00     0.058 A 
ATOM     40  C   UNL     1       2.803  -9.842  -3.723  1.00  0.00     0.135 A 
ATOM     41  C   UNL     1       4.959 -10.357  -2.789  1.00  0.00     0.135 A 
ATOM     42  F   UNL     1       2.001  -9.081  -4.485  1.00  0.00    -0.206 F 
ATOM     43  C   UNL     1       2.237 -10.908  -3.032  1.00  0.00     0.059 A 
ATOM     44  C   UNL     1       4.418 -11.442  -2.105  1.00  0.00     0.059 A 
ATOM     45  F   UNL     1       6.271 -10.110  -2.651  1.00  0.00    -0.206 F 
ATOM     46  C   UNL     1       3.055 -11.707  -2.231  1.00  0.00     0.060 A 
BRANCH  46  47
ATOM     47  S   UNL     1       2.312 -13.115  -1.379  1.00  0.00     0.124 S 
ATOM     48  O   UNL     1       1.518 -12.447  -0.351  1.00  0.00    -0.237 OA
ATOM     49  O   UNL     1       1.554 -13.760  -2.446  1.00  0.00    -0.237 OA
ATOM     50  O   UNL     1       3.464 -13.864  -0.890  1.00  0.00    -0.744 OA
ENDBRANCH  46  47
ENDBRANCH  25  39
BRANCH  26  51
ATOM     51  C   UNL     1       7.663  -1.970  -9.107  1.00  0.00     0.058 A 
ATOM     52  C   UNL     1       7.144  -1.771 -10.395  1.00  0.00     0.135 A 
ATOM     53  C   UNL     1       8.686  -1.114  -8.674  1.00  0.00     0.135 A 
ATOM     54  F   UNL     1       6.170  -2.571 -10.856  1.00  0.00    -0.206 F 
ATOM     55  C   UNL     1       7.641  -0.783 -11.237  1.00  0.00     0.059 A 
ATOM     56  C   UNL     1       9.184  -0.102  -9.489  1.00  0.00     0.059 A 
ATOM     57  F   UNL     1       9.208  -1.255  -7.446  1.00  0.00    -0.206 F 
ATOM     58  C   UNL     1       8.666   0.045 -10.776  1.00  0.00     0.060 A 
BRANCH  58  59
ATOM     59  S   UNL     1       9.296   1.336 -11.870  1.00  0.00     0.124 S 
ATOM     60  O   UNL     1      10.101   0.559 -12.806  1.00  0.00    -0.237 OA
ATOM     61  O   UNL     1       8.067   1.910 -12.410  1.00  0.00    -0.237 OA
ATOM     62  O   UNL     1      10.041   2.206 -10.966  1.00  0.00    -0.744 OA
ENDBRANCH  58  59
ENDBRANCH  26  51
BRANCH  38  63
ATOM     63  C   UNL     1       8.114  -8.895  -9.604  1.00  0.00     0.058 A 
ATOM     64  C   UNL     1       9.500  -9.091  -9.697  1.00  0.00     0.135 A 
ATOM     65  C   UNL     1       7.288  -9.606 -10.489  1.00  0.00     0.135 A 
ATOM     66  F   UNL     1      10.332  -8.431  -8.876  1.00  0.00    -0.206 F 
ATOM     67  C   UNL     1      10.049  -9.940 -10.652  1.00  0.00     0.059 A 
ATOM     68  C   UNL     1       7.814 -10.478 -11.437  1.00  0.00     0.059 A 
ATOM     69  F   UNL     1       5.954  -9.462 -10.433  1.00  0.00    -0.206 F 
ATOM     70  C   UNL     1       9.197 -10.628 -11.519  1.00  0.00     0.060 A 
BRANCH  70  71
ATOM     71  S   UNL     1       9.921 -11.742 -12.742  1.00  0.00     0.124 S 
ATOM     72  O   UNL     1      10.448 -10.798 -13.723  1.00  0.00    -0.237 OA
ATOM     73  O   UNL     1      10.918 -12.464 -11.958  1.00  0.00    -0.237 OA
ATOM     74  O   UNL     1       8.784 -12.542 -13.188  1.00  0.00    -0.744 OA
ENDBRANCH  70  71
ENDBRANCH  38  63
ENDBRANCH  12  13
ENDBRANCH   5   7
ENDBRANCH   2   3
ENDBRANCH   1   2
BRANCH   1  75
ATOM     75  C   UNL     1       4.563   2.981   2.192  1.00  0.00     0.023 C 
BRANCH  75  76
ATOM     76  C   UNL     1       4.967   2.321   3.509  1.00  0.00     0.116 C 
BRANCH  76  77
ATOM     77  N   UNL     1       6.408   2.252   3.684  1.00  0.00    -0.349 N 
ATOM     78  C   UNL     1       7.175   2.727   4.736  1.00  0.00     0.289 C 
ATOM     79  H   UNL     1       6.906   1.809   2.959  1.00  0.00     0.163 HD
ATOM     80  O   UNL     1       8.402   2.655   4.660  1.00  0.00    -0.266 OA
BRANCH  78  81
ATOM     81  C   UNL     1       6.513   3.360   5.927  1.00  0.00     0.220 A 
ATOM     82  N   UNL     1       6.920   4.601   6.229  1.00  0.00    -0.206 NA
ATOM     83  N   UNL     1       5.459   2.720   6.462  1.00  0.00    -0.224 NA
ATOM     84  C   UNL     1       6.180   5.287   7.109  1.00  0.00     0.138 A 
ATOM     85  C   UNL     1       4.747   3.401   7.356  1.00  0.00     0.077 A 
ATOM     86  C   UNL     1       5.058   4.713   7.747  1.00  0.00     0.043 A 
ATOM     87  C   UNL     1       3.605   2.797   7.864  1.00  0.00     0.029 A 
ATOM     88  C   UNL     1       4.203   5.371   8.670  1.00  0.00     0.014 A 
ATOM     89  C   UNL     1       2.751   3.459   8.748  1.00  0.00     0.002 A 
ATOM     90  C   UNL     1       3.054   4.750   9.156  1.00  0.00     0.001 A 
BRANCH  84  91
ATOM     91  N   UNL     1       6.487   6.636   7.285  1.00  0.00    -0.368 N 
ATOM     92  H   UNL     1       6.107   7.137   8.043  1.00  0.00     0.162 HD
BRANCH  91  93
ATOM     93  C   UNL     1       7.385   7.304   6.328  1.00  0.00     0.127 C 
BRANCH  93  94
ATOM     94  C   UNL     1       6.865   8.717   5.853  1.00  0.00     0.070 C 
ATOM     95  C   UNL     1       5.691   8.614   4.852  1.00  0.00    -0.035 A 
ATOM     96  C   UNL     1       6.724   9.806   6.945  1.00  0.00    -0.025 A 
ATOM     97  C   UNL     1       4.791   7.533   4.820  1.00  0.00     0.005 A 
ATOM     98  C   UNL     1       5.514   9.612   3.872  1.00  0.00    -0.034 A 
ATOM     99  C   UNL     1       6.306  11.140   6.709  1.00  0.00     0.011 A 
ATOM    100  C   UNL     1       7.140   9.503   8.270  1.00  0.00     0.005 A 
ATOM    101  C   UNL     1       3.779   7.424   3.862  1.00  0.00     0.000 A 
ATOM    102  C   UNL     1       4.478   9.507   2.919  1.00  0.00     0.005 A 
ATOM    103  C   UNL     1       6.372  10.843   3.871  1.00  0.00     0.110 C 
ATOM    104  S   UNL     1       5.841  11.967   5.180  1.00  0.00    -0.121 SA
ATOM    105  C   UNL     1       6.240  12.051   7.794  1.00  0.00     0.015 A 
ATOM    106  C   UNL     1       7.084  10.424   9.320  1.00  0.00     0.000 A 
ATOM    107  C   UNL     1       3.621   8.414   2.909  1.00  0.00     0.000 A 
ATOM    108  C   UNL     1       6.619  11.701   9.085  1.00  0.00     0.001 A 
ENDBRANCH  93  94
ENDBRANCH  91  93
ENDBRANCH  84  91
ENDBRANCH  78  81
ENDBRANCH  76  77
ENDBRANCH  75  76
ENDBRANCH   1  75
TORSDOF 17
