REMARK SMILES CCc1c(C)nc(Nc2cc(Cl)ccc2C)nc1OCC(=O)NCCCCNC(=O)c1ccc(-c2c3nc(c(-c4c(F)cc(S(=O)(=O)[O-])cc4F)c4ccc([nH]4)c(-c4c(F)cc(S(=O)(=O)[O-])cc4F)c4nc(c(-c5c(F)cc(S(=O)(=O)[O-])cc5F)c5ccc2[nH]5)C=C4)C=C3)cc1
REMARK SMILES IDX 25 1 24 2 23 3 21 4 22 5 20 7 19 8 18 9 3 10 4 11 5 12 6 13
REMARK SMILES IDX 17 14 7 15 2 16 1 17 8 18 9 20 10 21 15 22 11 23 14 24 16 25
REMARK SMILES IDX 12 26 13 27 26 28 27 29 28 30 29 31 30 33 31 34 32 35 96 36
REMARK SMILES IDX 33 37 95 38 34 39 35 40 36 41 89 42 37 43 94 44 88 45 90 46
REMARK SMILES IDX 38 47 93 48 87 49 86 50 39 52 73 53 52 54 72 55 53 56 56 57
REMARK SMILES IDX 71 58 91 59 54 60 55 61 70 63 92 64 57 65 40 66 41 67 50 68
REMARK SMILES IDX 42 69 43 70 49 71 51 72 44 73 45 74 46 75 47 76 48 77 74 78
REMARK SMILES IDX 75 79 84 80 76 81 77 82 83 83 85 84 78 85 79 86 80 87 81 88
REMARK SMILES IDX 82 89 58 90 59 91 68 92 60 93 61 94 67 95 69 96 62 97 63 98
REMARK SMILES IDX 64 99 65 100 66 101
REMARK H PARENT 23 6 8 19 28 32 90 51 56 62
REMARK Flexibility Score: inf
ROOT
ATOM      1  C   UNL     1      -1.056  -3.677   2.407  1.00  0.00     0.023 C 
ENDROOT
BRANCH   1   2
ATOM      2  C   UNL     1      -2.216  -2.832   1.889  1.00  0.00     0.116 C 
BRANCH   2   3
ATOM      3  N   UNL     1      -1.853  -1.460   1.593  1.00  0.00    -0.353 N 
ATOM      4  C   UNL     1      -1.804  -0.852   0.371  1.00  0.00     0.258 C 
ATOM      5  O   UNL     1      -1.742   0.378   0.325  1.00  0.00    -0.271 OA
ATOM      6  H   UNL     1      -1.612  -0.899   2.365  1.00  0.00     0.163 HD
BRANCH   4   7
ATOM      7  C   UNL     1      -1.867  -1.699  -0.902  1.00  0.00     0.331 C 
BRANCH   7   8
ATOM      8  O   UNL     1      -1.018  -2.817  -0.940  1.00  0.00    -0.467 OA
BRANCH   8   9
ATOM      9  C   UNL     1       0.298  -2.819  -1.250  1.00  0.00     0.222 A 
ATOM     10  C   UNL     1       1.194  -1.767  -1.437  1.00  0.00     0.035 A 
ATOM     11  C   UNL     1       2.504  -2.169  -1.715  1.00  0.00     0.050 A 
ATOM     12  C   UNL     1       3.676  -1.244  -1.887  1.00  0.00     0.067 C 
ATOM     13  N   UNL     1       2.873  -3.458  -1.768  1.00  0.00    -0.218 NA
ATOM     14  N   UNL     1       0.682  -4.117  -1.322  1.00  0.00    -0.177 NA
ATOM     15  C   UNL     1       1.963  -4.398  -1.538  1.00  0.00     0.230 A 
BRANCH  10  16
ATOM     16  C   UNL     1       0.913  -0.296  -1.309  1.00  0.00     0.040 C 
ATOM     17  C   UNL     1       1.351   0.261   0.041  1.00  0.00     0.009 C 
ENDBRANCH  10  16
BRANCH  15  18
ATOM     18  N   UNL     1       2.357  -5.735  -1.536  1.00  0.00    -0.324 N 
ATOM     19  H   UNL     1       1.647  -6.408  -1.433  1.00  0.00     0.170 HD
BRANCH  18  20
ATOM     20  C   UNL     1       3.670  -6.212  -1.668  1.00  0.00     0.045 A 
ATOM     21  C   UNL     1       4.005  -6.947  -2.814  1.00  0.00     0.047 A 
ATOM     22  C   UNL     1       4.689  -5.871  -0.750  1.00  0.00    -0.027 A 
ATOM     23  C   UNL     1       5.334  -7.284  -3.074  1.00  0.00     0.043 A 
ATOM     24  C   UNL     1       6.023  -6.209  -1.034  1.00  0.00     0.007 A 
ATOM     25  C   UNL     1       4.389  -5.154   0.542  1.00  0.00     0.046 C 
ATOM     26  Cl  UNL     1       5.732  -8.141  -4.513  1.00  0.00    -0.084 Cl
ATOM     27  C   UNL     1       6.345  -6.907  -2.196  1.00  0.00     0.021 A 
ENDBRANCH  18  20
ENDBRANCH  15  18
ENDBRANCH   8   9
ENDBRANCH   7   8
ENDBRANCH   4   7
ENDBRANCH   2   3
ENDBRANCH   1   2
BRANCH   1  28
ATOM     28  C   UNL     1      -0.390  -3.181   3.692  1.00  0.00     0.023 C 
BRANCH  28  29
ATOM     29  C   UNL     1      -1.327  -2.805   4.835  1.00  0.00     0.116 C 
BRANCH  29  30
ATOM     30  N   UNL     1      -2.229  -3.877   5.219  1.00  0.00    -0.352 N 
ATOM     31  C   UNL     1      -2.603  -4.303   6.471  1.00  0.00     0.251 C 
ATOM     32  H   UNL     1      -2.635  -4.371   4.470  1.00  0.00     0.163 HD
ATOM     33  O   UNL     1      -3.312  -5.298   6.579  1.00  0.00    -0.269 OA
BRANCH  31  34
ATOM     34  C   UNL     1      -2.130  -3.594   7.683  1.00  0.00     0.039 A 
ATOM     35  C   UNL     1      -1.728  -4.354   8.786  1.00  0.00     0.014 A 
ATOM     36  C   UNL     1      -2.099  -2.199   7.754  1.00  0.00     0.014 A 
ATOM     37  C   UNL     1      -1.256  -3.717   9.937  1.00  0.00     0.010 A 
ATOM     38  C   UNL     1      -1.550  -1.568   8.870  1.00  0.00     0.010 A 
ATOM     39  C   UNL     1      -1.140  -2.318   9.982  1.00  0.00    -0.014 A 
BRANCH  39  40
ATOM     40  C   UNL     1      -0.625  -1.633  11.198  1.00  0.00     0.031 A 
ATOM     41  C   UNL     1      -1.515  -0.696  11.974  1.00  0.00     0.074 A 
ATOM     42  C   UNL     1       0.650  -1.829  11.589  1.00  0.00     0.049 A 
ATOM     43  N   UNL     1      -1.247  -0.002  13.051  1.00  0.00    -0.248 NA
ATOM     44  C   UNL     1      -2.878  -0.490  11.456  1.00  0.00     0.031 C 
ATOM     45  C   UNL     1       1.630  -2.666  10.894  1.00  0.00     0.029 A 
ATOM     46  N   UNL     1       1.343  -1.337  12.668  1.00  0.00    -0.354 N 
ATOM     47  C   UNL     1      -2.398   0.726  13.331  1.00  0.00     0.074 A 
ATOM     48  C   UNL     1      -3.344   0.441  12.275  1.00  0.00     0.031 C 
ATOM     49  C   UNL     1       2.784  -2.656  11.579  1.00  0.00     0.029 A 
ATOM     50  C   UNL     1       2.640  -1.788  12.744  1.00  0.00     0.049 A 
ATOM     51  H   UNL     1       0.948  -0.720  13.325  1.00  0.00     0.167 HD
ATOM     52  C   UNL     1      -2.657   1.535  14.387  1.00  0.00     0.037 A 
ATOM     53  C   UNL     1       3.603  -1.534  13.652  1.00  0.00     0.037 A 
ATOM     54  C   UNL     1      -1.720   1.796  15.450  1.00  0.00     0.049 A 
ATOM     55  C   UNL     1       3.287  -0.646  14.826  1.00  0.00     0.074 A 
ATOM     56  C   UNL     1      -1.902   2.560  16.590  1.00  0.00     0.029 A 
ATOM     57  N   UNL     1      -0.425   1.301  15.505  1.00  0.00    -0.354 N 
ATOM     58  N   UNL     1       2.170  -0.016  15.109  1.00  0.00    -0.248 NA
ATOM     59  C   UNL     1       4.356  -0.447  15.813  1.00  0.00     0.031 C 
ATOM     60  C   UNL     1      -0.703   2.563  17.311  1.00  0.00     0.029 A 
ATOM     61  C   UNL     1       0.208   1.754  16.651  1.00  0.00     0.049 A 
ATOM     62  H   UNL     1      -0.017   0.713  14.828  1.00  0.00     0.167 HD
ATOM     63  C   UNL     1       2.392   0.624  16.324  1.00  0.00     0.074 A 
ATOM     64  C   UNL     1       3.744   0.294  16.727  1.00  0.00     0.031 C 
ATOM     65  C   UNL     1       1.553   1.412  17.043  1.00  0.00     0.037 A 
BRANCH  52  66
ATOM     66  C   UNL     1      -4.012   2.190  14.448  1.00  0.00     0.058 A 
ATOM     67  C   UNL     1      -5.182   1.447  14.676  1.00  0.00     0.135 A 
ATOM     68  C   UNL     1      -4.141   3.581  14.304  1.00  0.00     0.135 A 
ATOM     69  F   UNL     1      -5.122   0.112  14.805  1.00  0.00    -0.206 F 
ATOM     70  C   UNL     1      -6.433   2.053  14.725  1.00  0.00     0.059 A 
ATOM     71  C   UNL     1      -5.379   4.213  14.382  1.00  0.00     0.059 A 
ATOM     72  F   UNL     1      -3.058   4.342  14.084  1.00  0.00    -0.206 F 
ATOM     73  C   UNL     1      -6.522   3.438  14.576  1.00  0.00     0.060 A 
BRANCH  73  74
ATOM     74  S   UNL     1      -8.152   4.209  14.646  1.00  0.00     0.124 S 
ATOM     75  O   UNL     1      -8.727   3.790  13.371  1.00  0.00    -0.237 OA
ATOM     76  O   UNL     1      -8.736   3.598  15.835  1.00  0.00    -0.237 OA
ATOM     77  O   UNL     1      -7.851   5.633  14.760  1.00  0.00    -0.744 OA
ENDBRANCH  73  74
ENDBRANCH  52  66
BRANCH  53  78
ATOM     78  C   UNL     1       4.945  -2.161  13.510  1.00  0.00     0.058 A 
ATOM     79  C   UNL     1       5.377  -3.158  14.398  1.00  0.00     0.135 A 
ATOM     80  C   UNL     1       5.822  -1.779  12.482  1.00  0.00     0.135 A 
ATOM     81  F   UNL     1       4.579  -3.554  15.401  1.00  0.00    -0.206 F 
ATOM     82  C   UNL     1       6.637  -3.738  14.288  1.00  0.00     0.059 A 
ATOM     83  C   UNL     1       7.075  -2.365  12.334  1.00  0.00     0.059 A 
ATOM     84  F   UNL     1       5.451  -0.843  11.595  1.00  0.00    -0.206 F 
ATOM     85  C   UNL     1       7.479  -3.335  13.250  1.00  0.00     0.060 A 
BRANCH  85  86
ATOM     86  S   UNL     1       9.095  -4.125  13.091  1.00  0.00     0.124 S 
ATOM     87  O   UNL     1       9.820  -3.541  14.213  1.00  0.00    -0.237 OA
ATOM     88  O   UNL     1       8.758  -5.540  13.214  1.00  0.00    -0.237 OA
ATOM     89  O   UNL     1       9.542  -3.708  11.765  1.00  0.00    -0.744 OA
ENDBRANCH  85  86
ENDBRANCH  53  78
BRANCH  65  90
ATOM     90  C   UNL     1       2.056   1.930  18.363  1.00  0.00     0.058 A 
ATOM     91  C   UNL     1       3.064   2.903  18.447  1.00  0.00     0.135 A 
ATOM     92  C   UNL     1       1.506   1.454  19.565  1.00  0.00     0.135 A 
ATOM     93  F   UNL     1       3.626   3.392  17.329  1.00  0.00    -0.206 F 
ATOM     94  C   UNL     1       3.542   3.352  19.674  1.00  0.00     0.059 A 
ATOM     95  C   UNL     1       1.945   1.913  20.803  1.00  0.00     0.059 A 
ATOM     96  F   UNL     1       0.528   0.535  19.545  1.00  0.00    -0.206 F 
ATOM     97  C   UNL     1       2.979   2.846  20.847  1.00  0.00     0.060 A 
BRANCH  97  98
ATOM     98  S   UNL     1       3.611   3.430  22.434  1.00  0.00     0.124 S 
ATOM     99  O   UNL     1       4.891   2.734  22.514  1.00  0.00    -0.237 OA
ATOM    100  O   UNL     1       3.686   4.874  22.229  1.00  0.00    -0.237 OA
ATOM    101  O   UNL     1       2.596   2.991  23.387  1.00  0.00    -0.744 OA
ENDBRANCH  97  98
ENDBRANCH  65  90
ENDBRANCH  39  40
ENDBRANCH  31  34
ENDBRANCH  29  30
ENDBRANCH  28  29
ENDBRANCH   1  28
TORSDOF 19
