REMARK SMILES CC(C)C[C@H](NC(=O)CNC(=O)[C@@H](NC(=O)OCc1ccccc1)C(C)C)C(=O)N[C@@H](C)C(=O)NCCCCNC(=O)c1ccc(-c2c3nc(c(-c4c(F)cc(S(=O)(=O)[O-])cc4F)c4ccc([nH]4)c(-c4c(F)cc(S(=O)(=O)[O-])cc4F)c4nc(c(-c5c(F)cc(S(=O)(=O)[O-])cc5F)c5ccc2[nH]5)C=C4)C=C3)cc1
REMARK SMILES IDX 31 1 32 2 30 3 28 4 29 5 5 7 4 8 2 9 1 10 3 11 6 12 7 13
REMARK SMILES IDX 8 15 9 16 10 17 11 18 12 20 13 21 14 22 15 23 16 25 17 26
REMARK SMILES IDX 18 27 19 28 20 29 24 30 21 31 23 32 22 33 25 34 26 35 27 36
REMARK SMILES IDX 33 37 34 38 35 39 36 41 37 42 38 43 39 44 40 45 41 46 42 48
REMARK SMILES IDX 43 49 44 50 108 51 45 52 107 53 46 54 47 55 48 56 101 57
REMARK SMILES IDX 49 58 106 59 100 60 102 61 50 62 105 63 99 64 98 65 51 67
REMARK SMILES IDX 85 68 64 69 84 70 65 71 68 72 83 73 103 74 66 75 67 76 82 78
REMARK SMILES IDX 104 79 69 80 52 81 53 82 62 83 54 84 55 85 61 86 63 87 56 88
REMARK SMILES IDX 57 89 58 90 59 91 60 92 86 93 87 94 96 95 88 96 89 97 95 98
REMARK SMILES IDX 97 99 90 100 91 101 92 102 93 103 94 104 70 105 71 106
REMARK SMILES IDX 80 107 72 108 73 109 79 110 81 111 74 112 75 113 76 114
REMARK SMILES IDX 77 115 78 116
REMARK H PARENT 30 6 6 14 10 19 14 24 35 40 40 47 102 66 68 77
REMARK Flexibility Score: inf
ROOT
ATOM      1  C   UNL     1      -3.907  -2.181   2.885  1.00  0.00     0.168 C 
ATOM      2  C   UNL     1      -4.137  -1.189   4.012  1.00  0.00     0.041 C 
ENDROOT
BRANCH   1   3
ATOM      3  N   UNL     1      -4.316  -1.655   1.602  1.00  0.00    -0.343 N 
ATOM      4  C   UNL     1      -3.595  -0.888   0.756  1.00  0.00     0.243 C 
ATOM      5  O   UNL     1      -4.153  -0.553  -0.295  1.00  0.00    -0.273 OA
ATOM      6  H   UNL     1      -5.228  -1.884   1.310  1.00  0.00     0.164 HD
BRANCH   4   7
ATOM      7  C   UNL     1      -2.094  -0.566   0.999  1.00  0.00     0.171 C 
BRANCH   7   8
ATOM      8  C   UNL     1      -1.353  -1.149  -0.190  1.00  0.00     0.038 C 
BRANCH   8   9
ATOM      9  C   UNL     1      -1.117  -2.593   0.164  1.00  0.00    -0.015 C 
ATOM     10  C   UNL     1      -1.849  -3.503  -0.830  1.00  0.00     0.007 C 
ATOM     11  C   UNL     1       0.360  -2.608   0.592  1.00  0.00     0.007 C 
ENDBRANCH   8   9
ENDBRANCH   7   8
BRANCH   7  12
ATOM     12  N   UNL     1      -1.368  -0.743   2.321  1.00  0.00    -0.343 N 
ATOM     13  C   UNL     1      -0.774  -1.655   3.160  1.00  0.00     0.240 C 
ATOM     14  H   UNL     1      -1.294   0.144   2.743  1.00  0.00     0.164 HD
ATOM     15  O   UNL     1      -0.270  -1.087   4.152  1.00  0.00    -0.273 OA
BRANCH  13  16
ATOM     16  C   UNL     1      -0.604  -3.330   3.139  1.00  0.00     0.216 C 
BRANCH  16  17
ATOM     17  N   UNL     1      -0.995  -4.583   2.333  1.00  0.00    -0.345 N 
ATOM     18  C   UNL     1      -0.693  -5.530   1.392  1.00  0.00     0.243 C 
ATOM     19  H   UNL     1      -1.899  -4.815   2.646  1.00  0.00     0.164 HD
ATOM     20  O   UNL     1      -1.446  -6.521   1.561  1.00  0.00    -0.273 OA
BRANCH  18  21
ATOM     21  C   UNL     1       0.387  -5.752   0.105  1.00  0.00     0.177 C 
BRANCH  21  22
ATOM     22  N   UNL     1       0.632  -4.838  -1.056  1.00  0.00    -0.309 N 
ATOM     23  C   UNL     1       1.638  -3.947  -1.338  1.00  0.00     0.408 C 
ATOM     24  H   UNL     1      -0.063  -4.886  -1.752  1.00  0.00     0.167 HD
ATOM     25  O   UNL     1       1.505  -3.127  -2.229  1.00  0.00    -0.225 OA
BRANCH  23  26
ATOM     26  O   UNL     1       2.682  -4.027  -0.471  1.00  0.00    -0.445 OA
BRANCH  26  27
ATOM     27  C   UNL     1       3.602  -2.922  -0.354  1.00  0.00     0.270 C 
BRANCH  27  28
ATOM     28  C   UNL     1       4.414  -2.570  -1.571  1.00  0.00    -0.011 A 
ATOM     29  C   UNL     1       5.112  -1.352  -1.597  1.00  0.00     0.007 A 
ATOM     30  C   UNL     1       4.454  -3.398  -2.696  1.00  0.00     0.007 A 
ATOM     31  C   UNL     1       5.762  -0.939  -2.759  1.00  0.00     0.000 A 
ATOM     32  C   UNL     1       5.073  -2.970  -3.866  1.00  0.00     0.000 A 
ATOM     33  C   UNL     1       5.717  -1.737  -3.901  1.00  0.00     0.000 A 
ENDBRANCH  27  28
ENDBRANCH  26  27
ENDBRANCH  23  26
ENDBRANCH  21  22
BRANCH  21  34
ATOM     34  C   UNL     1       1.671  -6.561   0.412  1.00  0.00     0.015 C 
ATOM     35  C   UNL     1       1.380  -7.823   1.216  1.00  0.00     0.010 C 
ATOM     36  C   UNL     1       2.404  -7.020  -0.881  1.00  0.00     0.010 C 
ENDBRANCH  21  34
ENDBRANCH  18  21
ENDBRANCH  16  17
ENDBRANCH  13  16
ENDBRANCH   7  12
ENDBRANCH   4   7
ENDBRANCH   1   3
BRANCH   1  37
ATOM     37  C   UNL     1      -4.347  -3.598   3.222  1.00  0.00     0.242 C 
ATOM     38  O   UNL     1      -3.578  -4.382   3.783  1.00  0.00    -0.273 OA
ATOM     39  N   UNL     1      -5.617  -3.990   2.999  1.00  0.00    -0.354 N 
ATOM     40  H   UNL     1      -5.782  -4.960   3.030  1.00  0.00     0.163 HD
BRANCH  39  41
ATOM     41  C   UNL     1      -6.762  -3.163   2.721  1.00  0.00     0.116 C 
BRANCH  41  42
ATOM     42  C   UNL     1      -7.479  -3.623   1.460  1.00  0.00     0.023 C 
BRANCH  42  43
ATOM     43  C   UNL     1      -8.005  -5.056   1.548  1.00  0.00     0.023 C 
BRANCH  43  44
ATOM     44  C   UNL     1      -8.659  -5.394   2.880  1.00  0.00     0.116 C 
BRANCH  44  45
ATOM     45  N   UNL     1      -9.637  -4.391   3.285  1.00  0.00    -0.352 N 
ATOM     46  C   UNL     1     -10.898  -4.572   3.781  1.00  0.00     0.251 C 
ATOM     47  H   UNL     1      -9.350  -3.454   3.188  1.00  0.00     0.163 HD
ATOM     48  O   UNL     1     -11.643  -3.615   3.955  1.00  0.00    -0.269 OA
BRANCH  46  49
ATOM     49  C   UNL     1     -11.339  -5.945   4.050  1.00  0.00     0.039 A 
ATOM     50  C   UNL     1     -12.514  -6.393   3.452  1.00  0.00     0.014 A 
ATOM     51  C   UNL     1     -10.530  -6.801   4.802  1.00  0.00     0.014 A 
ATOM     52  C   UNL     1     -12.860  -7.734   3.573  1.00  0.00     0.010 A 
ATOM     53  C   UNL     1     -10.828  -8.154   4.838  1.00  0.00     0.010 A 
ATOM     54  C   UNL     1     -12.004  -8.629   4.237  1.00  0.00    -0.014 A 
BRANCH  54  55
ATOM     55  C   UNL     1     -12.335 -10.069   4.330  1.00  0.00     0.031 A 
ATOM     56  C   UNL     1     -12.565 -10.691   5.678  1.00  0.00     0.074 A 
ATOM     57  C   UNL     1     -12.383 -10.814   3.210  1.00  0.00     0.049 A 
ATOM     58  N   UNL     1     -12.828 -11.936   5.976  1.00  0.00    -0.248 NA
ATOM     59  C   UNL     1     -12.455  -9.804   6.849  1.00  0.00     0.031 C 
ATOM     60  C   UNL     1     -12.128 -10.323   1.853  1.00  0.00     0.029 A 
ATOM     61  N   UNL     1     -12.658 -12.145   3.033  1.00  0.00    -0.354 N 
ATOM     62  C   UNL     1     -12.904 -11.982   7.362  1.00  0.00     0.074 A 
ATOM     63  C   UNL     1     -12.591 -10.659   7.851  1.00  0.00     0.031 C 
ATOM     64  C   UNL     1     -12.293 -11.331   0.982  1.00  0.00     0.029 A 
ATOM     65  C   UNL     1     -12.619 -12.547   1.719  1.00  0.00     0.049 A 
ATOM     66  H   UNL     1     -12.865 -12.756   3.777  1.00  0.00     0.167 HD
ATOM     67  C   UNL     1     -13.233 -13.029   8.155  1.00  0.00     0.037 A 
ATOM     68  C   UNL     1     -12.816 -13.763   1.173  1.00  0.00     0.037 A 
ATOM     69  C   UNL     1     -13.558 -14.338   7.652  1.00  0.00     0.049 A 
ATOM     70  C   UNL     1     -13.162 -14.916   2.076  1.00  0.00     0.074 A 
ATOM     71  C   UNL     1     -13.958 -15.455   8.362  1.00  0.00     0.029 A 
ATOM     72  N   UNL     1     -13.510 -14.708   6.315  1.00  0.00    -0.354 N 
ATOM     73  N   UNL     1     -13.302 -14.929   3.381  1.00  0.00    -0.248 NA
ATOM     74  C   UNL     1     -13.383 -16.218   1.434  1.00  0.00     0.031 C 
ATOM     75  C   UNL     1     -14.092 -16.517   7.462  1.00  0.00     0.029 A 
ATOM     76  C   UNL     1     -13.844 -16.046   6.182  1.00  0.00     0.049 A 
ATOM     77  H   UNL     1     -13.274 -14.108   5.571  1.00  0.00     0.167 HD
ATOM     78  C   UNL     1     -13.657 -16.232   3.712  1.00  0.00     0.074 A 
ATOM     79  C   UNL     1     -13.723 -16.973   2.469  1.00  0.00     0.031 C 
ATOM     80  C   UNL     1     -13.908 -16.767   4.934  1.00  0.00     0.037 A 
BRANCH  67  81
ATOM     81  C   UNL     1     -13.250 -12.800   9.642  1.00  0.00     0.058 A 
ATOM     82  C   UNL     1     -14.199 -11.963  10.253  1.00  0.00     0.135 A 
ATOM     83  C   UNL     1     -12.316 -13.441  10.472  1.00  0.00     0.135 A 
ATOM     84  F   UNL     1     -15.104 -11.308   9.508  1.00  0.00    -0.206 F 
ATOM     85  C   UNL     1     -14.199 -11.742  11.626  1.00  0.00     0.059 A 
ATOM     86  C   UNL     1     -12.320 -13.263  11.852  1.00  0.00     0.059 A 
ATOM     87  F   UNL     1     -11.384 -14.249   9.943  1.00  0.00    -0.206 F 
ATOM     88  C   UNL     1     -13.256 -12.398  12.418  1.00  0.00     0.060 A 
BRANCH  88  89
ATOM     89  S   UNL     1     -13.272 -12.101  14.197  1.00  0.00     0.124 S 
ATOM     90  O   UNL     1     -12.785 -10.726  14.267  1.00  0.00    -0.237 OA
ATOM     91  O   UNL     1     -14.679 -12.293  14.531  1.00  0.00    -0.237 OA
ATOM     92  O   UNL     1     -12.362 -13.115  14.721  1.00  0.00    -0.744 OA
ENDBRANCH  88  89
ENDBRANCH  67  81
BRANCH  68  93
ATOM     93  C   UNL     1     -12.714 -13.941  -0.300  1.00  0.00     0.058 A 
ATOM     94  C   UNL     1     -13.849 -14.223  -1.075  1.00  0.00     0.135 A 
ATOM     95  C   UNL     1     -11.485 -13.814  -0.967  1.00  0.00     0.135 A 
ATOM     96  F   UNL     1     -15.047 -14.359  -0.485  1.00  0.00    -0.206 F 
ATOM     97  C   UNL     1     -13.769 -14.388  -2.454  1.00  0.00     0.059 A 
ATOM     98  C   UNL     1     -11.384 -13.945  -2.348  1.00  0.00     0.059 A 
ATOM     99  F   UNL     1     -10.371 -13.527  -0.275  1.00  0.00    -0.206 F 
ATOM    100  C   UNL     1     -12.531 -14.242  -3.082  1.00  0.00     0.060 A 
BRANCH 100 101
ATOM    101  S   UNL     1     -12.449 -14.406  -4.878  1.00  0.00     0.124 S 
ATOM    102  O   UNL     1     -12.679 -15.835  -5.054  1.00  0.00    -0.237 OA
ATOM    103  O   UNL     1     -13.529 -13.526  -5.314  1.00  0.00    -0.237 OA
ATOM    104  O   UNL     1     -11.103 -13.939  -5.197  1.00  0.00    -0.744 OA
ENDBRANCH 100 101
ENDBRANCH  68  93
BRANCH  80 105
ATOM    105  C   UNL     1     -14.316 -18.214   4.988  1.00  0.00     0.058 A 
ATOM    106  C   UNL     1     -13.410 -19.252   4.718  1.00  0.00     0.135 A 
ATOM    107  C   UNL     1     -15.620 -18.568   5.373  1.00  0.00     0.135 A 
ATOM    108  F   UNL     1     -12.153 -18.971   4.340  1.00  0.00    -0.206 F 
ATOM    109  C   UNL     1     -13.790 -20.587   4.803  1.00  0.00     0.059 A 
ATOM    110  C   UNL     1     -16.011 -19.896   5.498  1.00  0.00     0.059 A 
ATOM    111  F   UNL     1     -16.525 -17.616   5.654  1.00  0.00    -0.206 F 
ATOM    112  C   UNL     1     -15.092 -20.900   5.198  1.00  0.00     0.060 A 
BRANCH 112 113
ATOM    113  S   UNL     1     -15.558 -22.637   5.339  1.00  0.00     0.124 S 
ATOM    114  O   UNL     1     -15.610 -23.043   3.938  1.00  0.00    -0.237 OA
ATOM    115  O   UNL     1     -14.457 -23.192   6.119  1.00  0.00    -0.237 OA
ATOM    116  O   UNL     1     -16.845 -22.590   6.027  1.00  0.00    -0.744 OA
ENDBRANCH 112 113
ENDBRANCH  80 105
ENDBRANCH  54  55
ENDBRANCH  46  49
ENDBRANCH  44  45
ENDBRANCH  43  44
ENDBRANCH  42  43
ENDBRANCH  41  42
ENDBRANCH  39  41
ENDBRANCH   1  37
TORSDOF 27
