REMARK SMILES CCC(CC)NC(=O)N[C@@H]1C=C[C@@H](C(=O)NCCCCNC(=O)c2ccc(-c3c4nc(c(-c5c(F)cc(S(=O)(=O)[O-])cc5F)c5ccc([nH]5)c(-c5c(F)cc(S(=O)(=O)[O-])cc5F)c5nc(c(-c6c(F)cc(S(=O)(=O)[O-])cc6F)c6ccc3[nH]6)C=C5)C=C4)cc2)C1
REMARK SMILES IDX 18 1 17 2 16 3 14 4 15 5 13 7 10 8 11 9 90 10 12 11 9 12
REMARK SMILES IDX 6 13 7 14 8 16 3 18 2 19 1 20 4 21 5 22 19 23 20 24 21 25
REMARK SMILES IDX 22 26 23 28 24 29 25 30 89 31 26 32 88 33 27 34 28 35 29 36
REMARK SMILES IDX 82 37 30 38 87 39 81 40 83 41 31 42 86 43 80 44 79 45 32 47
REMARK SMILES IDX 66 48 45 49 65 50 46 51 49 52 64 53 84 54 47 55 48 56 63 58
REMARK SMILES IDX 85 59 50 60 33 61 34 62 43 63 35 64 36 65 42 66 44 67 37 68
REMARK SMILES IDX 38 69 39 70 40 71 41 72 67 73 68 74 77 75 69 76 70 77 76 78
REMARK SMILES IDX 78 79 71 80 72 81 73 82 74 83 75 84 51 85 52 86 61 87 53 88
REMARK SMILES IDX 54 89 60 90 62 91 55 92 56 93 57 94 58 95 59 96
REMARK H PARENT 16 6 6 15 9 17 21 27 83 46 49 57
REMARK Flexibility Score: inf
ROOT
ATOM      1  C   UNL     1       4.077  -1.913   6.926  1.00  0.00     0.023 C 
ENDROOT
BRANCH   1   2
ATOM      2  C   UNL     1       3.357  -0.598   6.614  1.00  0.00     0.116 C 
BRANCH   2   3
ATOM      3  N   UNL     1       4.287   0.401   6.158  1.00  0.00    -0.356 N 
ATOM      4  C   UNL     1       4.629   0.738   4.893  1.00  0.00     0.227 C 
ATOM      5  O   UNL     1       5.484   1.620   4.758  1.00  0.00    -0.274 OA
ATOM      6  H   UNL     1       4.740   0.911   6.868  1.00  0.00     0.163 HD
BRANCH   4   7
ATOM      7  C   UNL     1       4.011   0.082   3.658  1.00  0.00     0.103 C 
ATOM      8  C   UNL     1       3.177  -1.699   2.298  1.00  0.00     0.107 C 
ATOM      9  C   UNL     1       2.143  -0.601   2.475  1.00  0.00    -0.006 C 
ATOM     10  C   UNL     1       3.998  -1.450   3.548  1.00  0.00     0.047 C 
ATOM     11  C   UNL     1       2.596   0.385   3.271  1.00  0.00    -0.016 C 
BRANCH   8  12
ATOM     12  N   UNL     1       3.750  -1.520   0.967  1.00  0.00    -0.332 N 
ATOM     13  N   UNL     1       6.123  -1.705   0.752  1.00  0.00    -0.335 N 
ATOM     14  C   UNL     1       4.869  -1.831   0.308  1.00  0.00     0.315 C 
ATOM     15  H   UNL     1       6.775  -2.175   0.183  1.00  0.00     0.165 HD
ATOM     16  O   UNL     1       4.731  -2.209  -0.861  1.00  0.00    -0.249 OA
ATOM     17  H   UNL     1       3.129  -1.026   0.385  1.00  0.00     0.165 HD
BRANCH  13  18
ATOM     18  C   UNL     1       6.749  -1.034   1.883  1.00  0.00     0.083 C 
BRANCH  18  19
ATOM     19  C   UNL     1       7.721  -1.979   2.601  1.00  0.00     0.021 C 
ATOM     20  C   UNL     1       7.993  -1.552   4.038  1.00  0.00     0.006 C 
ENDBRANCH  18  19
BRANCH  18  21
ATOM     21  C   UNL     1       7.270   0.373   1.548  1.00  0.00     0.021 C 
ATOM     22  C   UNL     1       8.652   0.443   0.927  1.00  0.00     0.006 C 
ENDBRANCH  18  21
ENDBRANCH  13  18
ENDBRANCH   8  12
ENDBRANCH   4   7
ENDBRANCH   2   3
ENDBRANCH   1   2
BRANCH   1  23
ATOM     23  C   UNL     1       4.825  -1.936   8.259  1.00  0.00     0.023 C 
BRANCH  23  24
ATOM     24  C   UNL     1       4.012  -1.445   9.447  1.00  0.00     0.116 C 
BRANCH  24  25
ATOM     25  N   UNL     1       2.672  -2.011   9.499  1.00  0.00    -0.352 N 
ATOM     26  C   UNL     1       1.838  -2.123  10.586  1.00  0.00     0.251 C 
ATOM     27  H   UNL     1       2.318  -2.357   8.648  1.00  0.00     0.163 HD
ATOM     28  O   UNL     1       0.763  -2.683  10.490  1.00  0.00    -0.269 OA
BRANCH  26  29
ATOM     29  C   UNL     1       2.314  -1.593  11.876  1.00  0.00     0.039 A 
ATOM     30  C   UNL     1       2.335  -2.449  12.977  1.00  0.00     0.014 A 
ATOM     31  C   UNL     1       2.805  -0.288  11.968  1.00  0.00     0.014 A 
ATOM     32  C   UNL     1       2.894  -2.003  14.171  1.00  0.00     0.010 A 
ATOM     33  C   UNL     1       3.438   0.123  13.132  1.00  0.00     0.010 A 
ATOM     34  C   UNL     1       3.472  -0.725  14.248  1.00  0.00    -0.014 A 
BRANCH  34  35
ATOM     35  C   UNL     1       4.080  -0.246  15.510  1.00  0.00     0.031 A 
ATOM     36  C   UNL     1       3.467   0.920  16.233  1.00  0.00     0.074 A 
ATOM     37  C   UNL     1       5.197  -0.837  15.975  1.00  0.00     0.049 A 
ATOM     38  N   UNL     1       3.851   1.498  17.339  1.00  0.00    -0.248 NA
ATOM     39  C   UNL     1       2.283   1.540  15.612  1.00  0.00     0.031 C 
ATOM     40  C   UNL     1       5.913  -1.934  15.316  1.00  0.00     0.029 A 
ATOM     41  N   UNL     1       5.927  -0.600  17.110  1.00  0.00    -0.354 N 
ATOM     42  C   UNL     1       2.969   2.553  17.539  1.00  0.00     0.074 A 
ATOM     43  C   UNL     1       2.071   2.578  16.406  1.00  0.00     0.031 C 
ATOM     44  C   UNL     1       6.960  -2.294  16.077  1.00  0.00     0.029 A 
ATOM     45  C   UNL     1       7.004  -1.441  17.260  1.00  0.00     0.049 A 
ATOM     46  H   UNL     1       5.701   0.107  17.757  1.00  0.00     0.167 HD
ATOM     47  C   UNL     1       2.893   3.404  18.589  1.00  0.00     0.037 A 
ATOM     48  C   UNL     1       7.915  -1.518  18.248  1.00  0.00     0.037 A 
ATOM     49  C   UNL     1       3.770   3.344  19.727  1.00  0.00     0.049 A 
ATOM     50  C   UNL     1       7.787  -0.588  19.424  1.00  0.00     0.074 A 
ATOM     51  C   UNL     1       3.749   4.117  20.873  1.00  0.00     0.029 A 
ATOM     52  N   UNL     1       4.825   2.453  19.863  1.00  0.00    -0.354 N 
ATOM     53  N   UNL     1       6.904   0.361  19.631  1.00  0.00    -0.248 NA
ATOM     54  C   UNL     1       8.764  -0.750  20.508  1.00  0.00     0.031 C 
ATOM     55  C   UNL     1       4.814   3.716  21.689  1.00  0.00     0.029 A 
ATOM     56  C   UNL     1       5.469   2.662  21.071  1.00  0.00     0.049 A 
ATOM     57  H   UNL     1       5.079   1.772  19.199  1.00  0.00     0.167 HD
ATOM     58  C   UNL     1       7.202   0.890  20.882  1.00  0.00     0.074 A 
ATOM     59  C   UNL     1       8.337   0.145  21.388  1.00  0.00     0.031 C 
ATOM     60  C   UNL     1       6.593   1.900  21.554  1.00  0.00     0.037 A 
BRANCH  47  61
ATOM     61  C   UNL     1       1.819   4.456  18.554  1.00  0.00     0.058 A 
ATOM     62  C   UNL     1       0.459   4.124  18.678  1.00  0.00     0.135 A 
ATOM     63  C   UNL     1       2.150   5.812  18.407  1.00  0.00     0.135 A 
ATOM     64  F   UNL     1       0.084   2.841  18.799  1.00  0.00    -0.206 F 
ATOM     65  C   UNL     1      -0.535   5.095  18.625  1.00  0.00     0.059 A 
ATOM     66  C   UNL     1       1.173   6.804  18.381  1.00  0.00     0.059 A 
ATOM     67  F   UNL     1       3.433   6.185  18.280  1.00  0.00    -0.206 F 
ATOM     68  C   UNL     1      -0.168   6.433  18.475  1.00  0.00     0.060 A 
BRANCH  68  69
ATOM     69  S   UNL     1      -1.469   7.682  18.411  1.00  0.00     0.124 S 
ATOM     70  O   UNL     1      -2.016   7.463  17.075  1.00  0.00    -0.237 OA
ATOM     71  O   UNL     1      -2.333   7.290  19.520  1.00  0.00    -0.237 OA
ATOM     72  O   UNL     1      -0.746   8.936  18.596  1.00  0.00    -0.744 OA
ENDBRANCH  68  69
ENDBRANCH  47  61
BRANCH  48  73
ATOM     73  C   UNL     1       8.995  -2.538  18.188  1.00  0.00     0.058 A 
ATOM     74  C   UNL     1       8.990  -3.646  19.049  1.00  0.00     0.135 A 
ATOM     75  C   UNL     1      10.042  -2.438  17.259  1.00  0.00     0.135 A 
ATOM     76  F   UNL     1       8.010  -3.786  19.955  1.00  0.00    -0.206 F 
ATOM     77  C   UNL     1       9.995  -4.607  19.007  1.00  0.00     0.059 A 
ATOM     78  C   UNL     1      11.045  -3.398  17.181  1.00  0.00     0.059 A 
ATOM     79  F   UNL     1      10.080  -1.409  16.398  1.00  0.00    -0.206 F 
ATOM     80  C   UNL     1      11.019  -4.474  18.068  1.00  0.00     0.060 A 
BRANCH  80  81
ATOM     81  S   UNL     1      12.295  -5.751  17.991  1.00  0.00     0.124 S 
ATOM     82  O   UNL     1      13.079  -5.454  19.183  1.00  0.00    -0.237 OA
ATOM     83  O   UNL     1      11.505  -6.977  18.034  1.00  0.00    -0.237 OA
ATOM     84  O   UNL     1      12.956  -5.486  16.716  1.00  0.00    -0.744 OA
ENDBRANCH  80  81
ENDBRANCH  48  73
BRANCH  60  85
ATOM     85  C   UNL     1       7.119   2.227  22.923  1.00  0.00     0.058 A 
ATOM     86  C   UNL     1       8.351   2.873  23.106  1.00  0.00     0.135 A 
ATOM     87  C   UNL     1       6.362   1.917  24.064  1.00  0.00     0.135 A 
ATOM     88  F   UNL     1       9.114   3.187  22.047  1.00  0.00    -0.206 F 
ATOM     89  C   UNL     1       8.832   3.169  24.376  1.00  0.00     0.059 A 
ATOM     90  C   UNL     1       6.809   2.231  25.342  1.00  0.00     0.059 A 
ATOM     91  F   UNL     1       5.170   1.312  23.942  1.00  0.00    -0.206 F 
ATOM     92  C   UNL     1       8.054   2.841  25.489  1.00  0.00     0.060 A 
BRANCH  92  93
ATOM     93  S   UNL     1       8.683   3.240  27.133  1.00  0.00     0.124 S 
ATOM     94  O   UNL     1       9.690   2.201  27.321  1.00  0.00    -0.237 OA
ATOM     95  O   UNL     1       9.195   4.595  26.953  1.00  0.00    -0.237 OA
ATOM     96  O   UNL     1       7.501   3.131  27.983  1.00  0.00    -0.744 OA
ENDBRANCH  92  93
ENDBRANCH  60  85
ENDBRANCH  34  35
ENDBRANCH  26  29
ENDBRANCH  24  25
ENDBRANCH  23  24
ENDBRANCH   1  23
TORSDOF 18
