REMARK SMILES C[C@@H]1C[NH+](CC2(C(=O)NCCCCNC(=O)c3ccc(-c4c5nc(c(-c6c(F)cc(S(=O)(=O)[O-])cc6F)c6ccc([nH]6)c(-c6c(F)cc(S(=O)(=O)[O-])cc6F)c6nc(c(-c7c(F)cc(S(=O)(=O)[O-])cc7F)c7ccc4[nH]7)C=C6)C=C5)cc3)CCCC2)C[C@H]1C
REMARK SMILES IDX 12 1 11 2 10 3 9 4 7 5 8 6 6 8 83 9 86 10 84 11 85 12 5 13
REMARK SMILES IDX 4 14 1 15 2 16 3 17 88 18 87 19 89 20 13 22 14 23 15 24
REMARK SMILES IDX 16 26 17 27 18 28 82 29 19 30 81 31 20 32 21 33 22 34 75 35
REMARK SMILES IDX 23 36 80 37 74 38 76 39 24 40 79 41 73 42 72 43 25 45 59 46
REMARK SMILES IDX 38 47 58 48 39 49 42 50 57 51 77 52 40 53 41 54 56 56 78 57
REMARK SMILES IDX 43 58 26 59 27 60 36 61 28 62 29 63 35 64 37 65 30 66 31 67
REMARK SMILES IDX 32 68 33 69 34 70 60 71 61 72 70 73 62 74 63 75 69 76 71 77
REMARK SMILES IDX 64 78 65 79 66 80 67 81 68 82 44 83 45 84 54 85 46 86 47 87
REMARK SMILES IDX 53 88 55 89 48 90 49 91 50 92 51 93 52 94
REMARK H PARENT 9 7 4 21 14 25 76 44 42 55
REMARK Flexibility Score: inf
ROOT
ATOM      1  C   UNL     1      -6.960   5.024   1.072  1.00  0.00     0.023 C 
ENDROOT
BRANCH   1   2
ATOM      2  C   UNL     1      -5.622   4.314   1.260  1.00  0.00     0.023 C 
BRANCH   2   3
ATOM      3  C   UNL     1      -4.910   3.962  -0.042  1.00  0.00     0.116 C 
BRANCH   3   4
ATOM      4  N   UNL     1      -3.974   4.985  -0.456  1.00  0.00    -0.355 N 
ATOM      5  C   UNL     1      -2.613   5.010  -0.513  1.00  0.00     0.231 C 
ATOM      6  O   UNL     1      -2.132   6.053  -0.971  1.00  0.00    -0.274 OA
ATOM      7  H   UNL     1      -4.402   5.821  -0.752  1.00  0.00     0.163 HD
BRANCH   5   8
ATOM      8  C   UNL     1      -1.706   3.819  -0.056  1.00  0.00     0.098 C 
ATOM      9  C   UNL     1      -2.054   2.570  -0.889  1.00  0.00     0.023 C 
ATOM     10  C   UNL     1      -2.013   3.465   1.408  1.00  0.00     0.023 C 
ATOM     11  C   UNL     1      -2.476   1.454   0.060  1.00  0.00     0.001 C 
ATOM     12  C   UNL     1      -2.443   2.005   1.475  1.00  0.00     0.001 C 
BRANCH   8  13
ATOM     13  C   UNL     1      -0.218   4.326  -0.273  1.00  0.00     0.279 C 
BRANCH  13  14
ATOM     14  N   UNL     1       1.018   3.602   0.039  1.00  0.00    -0.334 N 
ATOM     15  C   UNL     1       1.724  -0.028   0.168  1.00  0.00     0.014 C 
ATOM     16  C   UNL     1       1.148   1.336   0.500  1.00  0.00     0.049 C 
ATOM     17  C   UNL     1       1.319   2.347  -0.620  1.00  0.00     0.265 C 
ATOM     18  C   UNL     1       1.804   2.056   1.680  1.00  0.00     0.049 C 
ATOM     19  C   UNL     1       1.477   3.537   1.422  1.00  0.00     0.265 C 
ATOM     20  C   UNL     1       1.322   1.569   3.038  1.00  0.00     0.014 C 
ATOM     21  H   UNL     1       1.567   4.315  -0.441  1.00  0.00     0.348 HD
ENDBRANCH  13  14
ENDBRANCH   8  13
ENDBRANCH   5   8
ENDBRANCH   3   4
ENDBRANCH   2   3
ENDBRANCH   1   2
BRANCH   1  22
ATOM     22  C   UNL     1      -7.973   4.292   0.197  1.00  0.00     0.116 C 
BRANCH  22  23
ATOM     23  N   UNL     1      -8.205   2.904   0.579  1.00  0.00    -0.352 N 
ATOM     24  C   UNL     1      -9.374   2.186   0.462  1.00  0.00     0.251 C 
ATOM     25  H   UNL     1      -7.436   2.424   0.965  1.00  0.00     0.163 HD
ATOM     26  O   UNL     1      -9.452   1.033   0.873  1.00  0.00    -0.269 OA
BRANCH  24  27
ATOM     27  C   UNL     1     -10.547   2.863  -0.122  1.00  0.00     0.039 A 
ATOM     28  C   UNL     1     -11.697   3.007   0.655  1.00  0.00     0.014 A 
ATOM     29  C   UNL     1     -10.447   3.472  -1.376  1.00  0.00     0.014 A 
ATOM     30  C   UNL     1     -12.717   3.851   0.214  1.00  0.00     0.010 A 
ATOM     31  C   UNL     1     -11.433   4.364  -1.780  1.00  0.00     0.010 A 
ATOM     32  C   UNL     1     -12.566   4.578  -0.979  1.00  0.00    -0.014 A 
BRANCH  32  33
ATOM     33  C   UNL     1     -13.561   5.602  -1.389  1.00  0.00     0.031 A 
ATOM     34  C   UNL     1     -14.334   5.430  -2.666  1.00  0.00     0.074 A 
ATOM     35  C   UNL     1     -13.693   6.729  -0.658  1.00  0.00     0.049 A 
ATOM     36  N   UNL     1     -15.168   6.257  -3.240  1.00  0.00    -0.248 NA
ATOM     37  C   UNL     1     -14.116   4.181  -3.414  1.00  0.00     0.031 C 
ATOM     38  C   UNL     1     -12.944   7.045   0.562  1.00  0.00     0.029 A 
ATOM     39  N   UNL     1     -14.492   7.829  -0.845  1.00  0.00    -0.354 N 
ATOM     40  C   UNL     1     -15.553   5.643  -4.426  1.00  0.00     0.074 A 
ATOM     41  C   UNL     1     -14.834   4.391  -4.508  1.00  0.00     0.031 C 
ATOM     42  C   UNL     1     -13.331   8.247   1.020  1.00  0.00     0.029 A 
ATOM     43  C   UNL     1     -14.330   8.802   0.114  1.00  0.00     0.049 A 
ATOM     44  H   UNL     1     -15.123   7.914  -1.596  1.00  0.00     0.167 HD
ATOM     45  C   UNL     1     -16.441   6.076  -5.350  1.00  0.00     0.037 A 
ATOM     46  C   UNL     1     -14.915  10.009   0.243  1.00  0.00     0.037 A 
ATOM     47  C   UNL     1     -17.199   7.293  -5.233  1.00  0.00     0.049 A 
ATOM     48  C   UNL     1     -15.932  10.443  -0.778  1.00  0.00     0.074 A 
ATOM     49  C   UNL     1     -18.201   7.764  -6.064  1.00  0.00     0.029 A 
ATOM     50  N   UNL     1     -17.044   8.228  -4.222  1.00  0.00    -0.354 N 
ATOM     51  N   UNL     1     -16.349   9.806  -1.846  1.00  0.00    -0.248 NA
ATOM     52  C   UNL     1     -16.562  11.755  -0.575  1.00  0.00     0.031 C 
ATOM     53  C   UNL     1     -18.631   9.000  -5.571  1.00  0.00     0.029 A 
ATOM     54  C   UNL     1     -17.919   9.283  -4.417  1.00  0.00     0.049 A 
ATOM     55  H   UNL     1     -16.406   8.153  -3.475  1.00  0.00     0.167 HD
ATOM     56  C   UNL     1     -17.304  10.631  -2.429  1.00  0.00     0.074 A 
ATOM     57  C   UNL     1     -17.415  11.805  -1.589  1.00  0.00     0.031 C 
ATOM     58  C   UNL     1     -18.024  10.435  -3.560  1.00  0.00     0.037 A 
BRANCH  45  59
ATOM     59  C   UNL     1     -16.666   5.221  -6.563  1.00  0.00     0.058 A 
ATOM     60  C   UNL     1     -17.401   4.027  -6.491  1.00  0.00     0.135 A 
ATOM     61  C   UNL     1     -16.205   5.635  -7.822  1.00  0.00     0.135 A 
ATOM     62  F   UNL     1     -17.848   3.579  -5.307  1.00  0.00    -0.206 F 
ATOM     63  C   UNL     1     -17.663   3.268  -7.626  1.00  0.00     0.059 A 
ATOM     64  C   UNL     1     -16.474   4.902  -8.974  1.00  0.00     0.059 A 
ATOM     65  F   UNL     1     -15.493   6.766  -7.942  1.00  0.00    -0.206 F 
ATOM     66  C   UNL     1     -17.199   3.716  -8.864  1.00  0.00     0.060 A 
BRANCH  66  67
ATOM     67  S   UNL     1     -17.584   2.740 -10.333  1.00  0.00     0.124 S 
ATOM     68  O   UNL     1     -16.661   1.619 -10.188  1.00  0.00    -0.237 OA
ATOM     69  O   UNL     1     -18.996   2.427 -10.139  1.00  0.00    -0.237 OA
ATOM     70  O   UNL     1     -17.294   3.654 -11.433  1.00  0.00    -0.744 OA
ENDBRANCH  66  67
ENDBRANCH  45  59
BRANCH  46  71
ATOM     71  C   UNL     1     -14.572  10.896   1.386  1.00  0.00     0.058 A 
ATOM     72  C   UNL     1     -15.492  11.125   2.420  1.00  0.00     0.135 A 
ATOM     73  C   UNL     1     -13.335  11.556   1.452  1.00  0.00     0.135 A 
ATOM     74  F   UNL     1     -16.689  10.520   2.397  1.00  0.00    -0.206 F 
ATOM     75  C   UNL     1     -15.213  12.002   3.463  1.00  0.00     0.059 A 
ATOM     76  C   UNL     1     -13.024  12.420   2.497  1.00  0.00     0.059 A 
ATOM     77  F   UNL     1     -12.414  11.355   0.497  1.00  0.00    -0.206 F 
ATOM     78  C   UNL     1     -13.978  12.651   3.489  1.00  0.00     0.060 A 
BRANCH  78  79
ATOM     79  S   UNL     1     -13.614  13.779   4.851  1.00  0.00     0.124 S 
ATOM     80  O   UNL     1     -14.351  14.971   4.448  1.00  0.00    -0.237 OA
ATOM     81  O   UNL     1     -14.147  13.058   6.003  1.00  0.00    -0.237 OA
ATOM     82  O   UNL     1     -12.159  13.889   4.811  1.00  0.00    -0.744 OA
ENDBRANCH  78  79
ENDBRANCH  46  71
BRANCH  58  83
ATOM     83  C   UNL     1     -19.015  11.497  -3.939  1.00  0.00     0.058 A 
ATOM     84  C   UNL     1     -18.604  12.715  -4.501  1.00  0.00     0.135 A 
ATOM     85  C   UNL     1     -20.392  11.271  -3.788  1.00  0.00     0.135 A 
ATOM     86  F   UNL     1     -17.297  12.979  -4.658  1.00  0.00    -0.206 F 
ATOM     87  C   UNL     1     -19.525  13.683  -4.885  1.00  0.00     0.059 A 
ATOM     88  C   UNL     1     -21.332  12.216  -4.186  1.00  0.00     0.059 A 
ATOM     89  F   UNL     1     -20.835  10.117  -3.264  1.00  0.00    -0.206 F 
ATOM     90  C   UNL     1     -20.888  13.424  -4.723  1.00  0.00     0.060 A 
BRANCH  90  91
ATOM     91  S   UNL     1     -22.078  14.670  -5.261  1.00  0.00     0.124 S 
ATOM     92  O   UNL     1     -22.008  15.633  -4.167  1.00  0.00    -0.237 OA
ATOM     93  O   UNL     1     -21.518  15.114  -6.534  1.00  0.00    -0.237 OA
ATOM     94  O   UNL     1     -23.328  13.922  -5.361  1.00  0.00    -0.744 OA
ENDBRANCH  90  91
ENDBRANCH  58  83
ENDBRANCH  32  33
ENDBRANCH  24  27
ENDBRANCH  22  23
ENDBRANCH   1  22
TORSDOF 16
