REMARK SMILES CC1(C)C[C@@H](Nc2ccc(Cl)c(C(=O)NCCCCNC(=O)c3ccc(-c4c5nc(c(-c6c(F)cc(S(=O)(=O)[O-])cc6F)c6ccc([nH]6)c(-c6c(F)cc(S(=O)(=O)[O-])cc6F)c6nc(c(-c7c(F)cc(S(=O)(=O)[O-])cc7F)c7ccc4[nH]7)C=C6)C=C5)cc3)c2)C(C)(C)O1
REMARK SMILES IDX 18 1 17 2 16 3 15 4 13 5 14 6 12 8 7 9 8 10 89 11 9 12 10 13
REMARK SMILES IDX 11 14 6 15 5 17 1 18 2 19 3 20 4 21 93 22 90 23 91 24 92 25
REMARK SMILES IDX 19 26 20 27 21 28 22 30 23 31 24 32 88 33 25 34 87 35 26 36
REMARK SMILES IDX 27 37 28 38 81 39 29 40 86 41 80 42 82 43 30 44 85 45 79 46
REMARK SMILES IDX 78 47 31 49 65 50 44 51 64 52 45 53 48 54 63 55 83 56 46 57
REMARK SMILES IDX 47 58 62 60 84 61 49 62 32 63 33 64 42 65 34 66 35 67 41 68
REMARK SMILES IDX 43 69 36 70 37 71 38 72 39 73 40 74 66 75 67 76 76 77 68 78
REMARK SMILES IDX 69 79 75 80 77 81 70 82 71 83 72 84 73 85 74 86 50 87 51 88
REMARK SMILES IDX 60 89 52 90 53 91 59 92 61 93 54 94 55 95 56 96 57 97 58 98
REMARK H PARENT 15 7 6 16 20 29 82 48 48 59
REMARK Flexibility Score: inf
ROOT
ATOM      1  C   UNL     1       0.240 -12.687  -4.968  1.00  0.00     0.023 C 
ENDROOT
BRANCH   1   2
ATOM      2  C   UNL     1       1.054 -11.595  -4.274  1.00  0.00     0.023 C 
BRANCH   2   3
ATOM      3  C   UNL     1       0.832 -10.170  -4.764  1.00  0.00     0.116 C 
BRANCH   3   4
ATOM      4  N   UNL     1      -0.520  -9.670  -4.599  1.00  0.00    -0.352 N 
ATOM      5  C   UNL     1      -0.963  -8.400  -4.303  1.00  0.00     0.252 C 
ATOM      6  O   UNL     1      -2.174  -8.188  -4.253  1.00  0.00    -0.269 OA
ATOM      7  H   UNL     1      -1.230 -10.342  -4.717  1.00  0.00     0.163 HD
BRANCH   5   8
ATOM      8  C   UNL     1      -0.035  -7.300  -3.940  1.00  0.00     0.060 A 
ATOM      9  C   UNL     1       0.379  -5.443  -2.398  1.00  0.00     0.035 A 
ATOM     10  C   UNL     1       1.601  -5.224  -3.039  1.00  0.00     0.027 A 
ATOM     11  C   UNL     1      -0.398  -6.529  -2.815  1.00  0.00     0.041 A 
ATOM     12  C   UNL     1       1.947  -5.941  -4.182  1.00  0.00     0.023 A 
ATOM     13  C   UNL     1       1.086  -6.918  -4.683  1.00  0.00     0.053 A 
ATOM     14  Cl  UNL     1       1.407  -7.455  -6.292  1.00  0.00    -0.083 Cl
BRANCH   9  15
ATOM     15  N   UNL     1      -0.133  -4.521  -1.490  1.00  0.00    -0.379 N 
ATOM     16  H   UNL     1      -0.546  -4.814  -0.646  1.00  0.00     0.160 HD
BRANCH  15  17
ATOM     17  C   UNL     1      -0.035  -3.099  -1.830  1.00  0.00     0.113 C 
ATOM     18  C   UNL     1       0.811  -0.015   0.048  1.00  0.00     0.042 C 
ATOM     19  C   UNL     1       0.506  -0.903  -1.153  1.00  0.00     0.065 C 
ATOM     20  C   UNL     1       1.175  -0.321  -2.406  1.00  0.00     0.042 C 
ATOM     21  C   UNL     1       0.899  -2.355  -0.899  1.00  0.00     0.062 C 
ATOM     22  O   UNL     1      -0.918  -0.917  -1.376  1.00  0.00    -0.367 OA
ATOM     23  C   UNL     1      -1.335  -2.268  -1.724  1.00  0.00     0.083 C 
ATOM     24  C   UNL     1      -2.309  -2.714  -0.632  1.00  0.00     0.044 C 
ATOM     25  C   UNL     1      -2.064  -2.198  -3.068  1.00  0.00     0.044 C 
ENDBRANCH  15  17
ENDBRANCH   9  15
ENDBRANCH   5   8
ENDBRANCH   3   4
ENDBRANCH   2   3
ENDBRANCH   1   2
BRANCH   1  26
ATOM     26  C   UNL     1       0.208 -12.660  -6.495  1.00  0.00     0.116 C 
BRANCH  26  27
ATOM     27  N   UNL     1       1.522 -12.714  -7.119  1.00  0.00    -0.352 N 
ATOM     28  C   UNL     1       2.021 -13.587  -8.059  1.00  0.00     0.251 C 
ATOM     29  H   UNL     1       2.152 -12.018  -6.823  1.00  0.00     0.163 HD
ATOM     30  O   UNL     1       3.195 -13.495  -8.412  1.00  0.00    -0.269 OA
BRANCH  28  31
ATOM     31  C   UNL     1       1.169 -14.664  -8.611  1.00  0.00     0.039 A 
ATOM     32  C   UNL     1       1.680 -15.964  -8.668  1.00  0.00     0.014 A 
ATOM     33  C   UNL     1      -0.133 -14.408  -9.046  1.00  0.00     0.014 A 
ATOM     34  C   UNL     1       0.853 -17.020  -9.064  1.00  0.00     0.010 A 
ATOM     35  C   UNL     1      -0.978 -15.469  -9.364  1.00  0.00     0.010 A 
ATOM     36  C   UNL     1      -0.499 -16.789  -9.364  1.00  0.00    -0.014 A 
BRANCH  36  37
ATOM     37  C   UNL     1      -1.434 -17.907  -9.665  1.00  0.00     0.031 A 
ATOM     38  C   UNL     1      -2.115 -17.980 -11.005  1.00  0.00     0.074 A 
ATOM     39  C   UNL     1      -1.735 -18.806  -8.705  1.00  0.00     0.049 A 
ATOM     40  N   UNL     1      -3.056 -18.794 -11.410  1.00  0.00    -0.248 NA
ATOM     41  C   UNL     1      -1.706 -16.988 -12.012  1.00  0.00     0.031 C 
ATOM     42  C   UNL     1      -1.183 -18.817  -7.348  1.00  0.00     0.029 A 
ATOM     43  N   UNL     1      -2.596 -19.876  -8.717  1.00  0.00    -0.354 N 
ATOM     44  C   UNL     1      -3.364 -18.402 -12.708  1.00  0.00     0.074 A 
ATOM     45  C   UNL     1      -2.544 -17.247 -13.005  1.00  0.00     0.031 C 
ATOM     46  C   UNL     1      -1.710 -19.846  -6.664  1.00  0.00     0.029 A 
ATOM     47  C   UNL     1      -2.663 -20.547  -7.517  1.00  0.00     0.049 A 
ATOM     48  H   UNL     1      -3.117 -20.139  -9.510  1.00  0.00     0.167 HD
ATOM     49  C   UNL     1      -4.231 -18.967 -13.581  1.00  0.00     0.037 A 
ATOM     50  C   UNL     1      -3.418 -21.599  -7.141  1.00  0.00     0.037 A 
ATOM     51  C   UNL     1      -5.019 -20.138 -13.296  1.00  0.00     0.049 A 
ATOM     52  C   UNL     1      -4.361 -22.220  -8.137  1.00  0.00     0.074 A 
ATOM     53  C   UNL     1      -5.896 -20.809 -14.130  1.00  0.00     0.029 A 
ATOM     54  N   UNL     1      -5.015 -20.819 -12.088  1.00  0.00    -0.354 N 
ATOM     55  N   UNL     1      -4.606 -21.860  -9.375  1.00  0.00    -0.248 NA
ATOM     56  C   UNL     1      -5.123 -23.395  -7.691  1.00  0.00     0.031 C 
ATOM     57  C   UNL     1      -6.442 -21.882 -13.418  1.00  0.00     0.029 A 
ATOM     58  C   UNL     1      -5.876 -21.902 -12.154  1.00  0.00     0.049 A 
ATOM     59  H   UNL     1      -4.480 -20.570 -11.300  1.00  0.00     0.167 HD
ATOM     60  C   UNL     1      -5.527 -22.780  -9.863  1.00  0.00     0.074 A 
ATOM     61  C   UNL     1      -5.788 -23.719  -8.792  1.00  0.00     0.031 C 
ATOM     62  C   UNL     1      -6.105 -22.842 -11.087  1.00  0.00     0.037 A 
BRANCH  49  63
ATOM     63  C   UNL     1      -4.358 -18.340 -14.942  1.00  0.00     0.058 A 
ATOM     64  C   UNL     1      -3.334 -18.452 -15.896  1.00  0.00     0.135 A 
ATOM     65  C   UNL     1      -5.530 -17.664 -15.315  1.00  0.00     0.135 A 
ATOM     66  F   UNL     1      -2.185 -19.075 -15.585  1.00  0.00    -0.206 F 
ATOM     67  C   UNL     1      -3.458 -17.897 -17.164  1.00  0.00     0.059 A 
ATOM     68  C   UNL     1      -5.686 -17.122 -16.588  1.00  0.00     0.059 A 
ATOM     69  F   UNL     1      -6.540 -17.527 -14.441  1.00  0.00    -0.206 F 
ATOM     70  C   UNL     1      -4.639 -17.234 -17.502  1.00  0.00     0.060 A 
BRANCH  70  71
ATOM     71  S   UNL     1      -4.791 -16.537 -19.160  1.00  0.00     0.124 S 
ATOM     72  O   UNL     1      -3.921 -15.368 -19.064  1.00  0.00    -0.237 OA
ATOM     73  O   UNL     1      -4.300 -17.622 -20.002  1.00  0.00    -0.237 OA
ATOM     74  O   UNL     1      -6.217 -16.250 -19.279  1.00  0.00    -0.744 OA
ENDBRANCH  70  71
ENDBRANCH  49  63
BRANCH  50  75
ATOM     75  C   UNL     1      -3.311 -22.144  -5.762  1.00  0.00     0.058 A 
ATOM     76  C   UNL     1      -2.722 -23.395  -5.524  1.00  0.00     0.135 A 
ATOM     77  C   UNL     1      -3.809 -21.437  -4.657  1.00  0.00     0.135 A 
ATOM     78  F   UNL     1      -2.235 -24.112  -6.549  1.00  0.00    -0.206 F 
ATOM     79  C   UNL     1      -2.656 -23.940  -4.246  1.00  0.00     0.059 A 
ATOM     80  C   UNL     1      -3.733 -21.950  -3.365  1.00  0.00     0.059 A 
ATOM     81  F   UNL     1      -4.365 -20.227  -4.827  1.00  0.00    -0.206 F 
ATOM     82  C   UNL     1      -3.170 -23.211  -3.172  1.00  0.00     0.060 A 
BRANCH  82  83
ATOM     83  S   UNL     1      -3.062 -23.915  -1.512  1.00  0.00     0.124 S 
ATOM     84  O   UNL     1      -4.131 -24.907  -1.546  1.00  0.00    -0.237 OA
ATOM     85  O   UNL     1      -1.702 -24.442  -1.487  1.00  0.00    -0.237 OA
ATOM     86  O   UNL     1      -3.296 -22.763  -0.646  1.00  0.00    -0.744 OA
ENDBRANCH  82  83
ENDBRANCH  50  75
BRANCH  62  87
ATOM     87  C   UNL     1      -7.039 -23.987 -11.357  1.00  0.00     0.058 A 
ATOM     88  C   UNL     1      -8.334 -24.026 -10.819  1.00  0.00     0.135 A 
ATOM     89  C   UNL     1      -6.651 -25.029 -12.216  1.00  0.00     0.135 A 
ATOM     90  F   UNL     1      -8.749 -23.058  -9.987  1.00  0.00    -0.206 F 
ATOM     91  C   UNL     1      -9.208 -25.069 -11.109  1.00  0.00     0.059 A 
ATOM     92  C   UNL     1      -7.517 -26.068 -12.539  1.00  0.00     0.059 A 
ATOM     93  F   UNL     1      -5.425 -25.032 -12.764  1.00  0.00    -0.206 F 
ATOM     94  C   UNL     1      -8.791 -26.084 -11.973  1.00  0.00     0.060 A 
BRANCH  94  95
ATOM     95  S   UNL     1      -9.949 -27.409 -12.377  1.00  0.00     0.124 S 
ATOM     96  O   UNL     1      -9.916 -28.210 -11.159  1.00  0.00    -0.237 OA
ATOM     97  O   UNL     1     -11.189 -26.678 -12.622  1.00  0.00    -0.237 OA
ATOM     98  O   UNL     1      -9.354 -28.031 -13.556  1.00  0.00    -0.744 OA
ENDBRANCH  94  95
ENDBRANCH  62  87
ENDBRANCH  36  37
ENDBRANCH  28  31
ENDBRANCH  26  27
ENDBRANCH   1  26
TORSDOF 16
