REMARK SMILES C[NH+](C)CCc1nc(Nc2ccc(O)c(C(=O)NCCCCNC(=O)c3ccc(-c4c5nc(c(-c6c(F)cc(S(=O)(=O)[O-])cc6F)c6ccc([nH]6)c(-c6c(F)cc(S(=O)(=O)[O-])cc6F)c6nc(c(-c7c(F)cc(S(=O)(=O)[O-])cc7F)c7ccc4[nH]7)C=C6)C=C5)cc3)c2)c2ccccc2n1
REMARK SMILES IDX 19 1 18 2 16 3 17 4 15 6 10 7 11 8 92 9 12 10 13 11 9 12
REMARK SMILES IDX 8 14 6 15 7 16 99 17 98 18 93 19 97 20 94 21 96 22 95 23
REMARK SMILES IDX 5 24 4 25 2 26 1 27 3 28 14 30 20 32 21 33 22 34 23 35 24 36
REMARK SMILES IDX 25 38 26 39 27 40 91 41 28 42 90 43 29 44 30 45 31 46 84 47
REMARK SMILES IDX 32 48 89 49 83 50 85 51 33 52 88 53 82 54 81 55 34 57 68 58
REMARK SMILES IDX 47 59 67 60 48 61 51 62 66 63 86 64 49 65 50 66 65 68 87 69
REMARK SMILES IDX 52 70 35 71 36 72 45 73 37 74 38 75 44 76 46 77 39 78 40 79
REMARK SMILES IDX 41 80 42 81 43 82 69 83 70 84 79 85 71 86 72 87 78 88 80 89
REMARK SMILES IDX 73 90 74 91 75 92 76 93 77 94 53 95 54 96 63 97 55 98 56 99
REMARK SMILES IDX 62 100 64 101 57 102 58 103 59 104 60 105 61 106
REMARK H PARENT 18 5 9 13 2 29 14 31 23 37 85 56 51 67
REMARK Flexibility Score: inf
ROOT
ATOM      1  C   UNL     1      -6.458   2.011   0.914  1.00  0.00     0.116 C 
ENDROOT
BRANCH   1   2
ATOM      2  N   UNL     1      -6.131   2.837  -0.224  1.00  0.00    -0.352 N 
ATOM      3  C   UNL     1      -4.941   3.280  -0.732  1.00  0.00     0.255 C 
ATOM      4  O   UNL     1      -5.024   4.048  -1.697  1.00  0.00    -0.269 OA
ATOM      5  H   UNL     1      -6.917   3.139  -0.734  1.00  0.00     0.163 HD
BRANCH   3   6
ATOM      6  C   UNL     1      -3.573   2.866  -0.283  1.00  0.00     0.083 A 
ATOM      7  C   UNL     1      -1.258   2.636  -1.092  1.00  0.00     0.041 A 
ATOM      8  C   UNL     1      -0.865   2.233   0.182  1.00  0.00     0.030 A 
ATOM      9  C   UNL     1      -2.604   2.938  -1.310  1.00  0.00     0.043 A 
ATOM     10  C   UNL     1      -1.789   2.159   1.218  1.00  0.00     0.049 A 
ATOM     11  C   UNL     1      -3.131   2.484   0.991  1.00  0.00     0.128 A 
BRANCH   7  12
ATOM     12  N   UNL     1      -0.346   2.649  -2.159  1.00  0.00    -0.340 N 
ATOM     13  H   UNL     1      -0.287   3.475  -2.691  1.00  0.00     0.168 HD
BRANCH  12  14
ATOM     14  C   UNL     1       0.491   1.579  -2.535  1.00  0.00     0.142 A 
ATOM     15  C   UNL     1       0.898  -0.686  -2.518  1.00  0.00     0.137 A 
ATOM     16  N   UNL     1       0.113   0.341  -2.174  1.00  0.00    -0.215 NA
ATOM     17  N   UNL     1       2.037  -0.566  -3.217  1.00  0.00    -0.233 NA
ATOM     18  C   UNL     1       2.410   0.669  -3.574  1.00  0.00     0.076 A 
ATOM     19  C   UNL     1       1.673   1.815  -3.246  1.00  0.00     0.043 A 
ATOM     20  C   UNL     1       3.588   0.829  -4.293  1.00  0.00     0.029 A 
ATOM     21  C   UNL     1       2.156   3.096  -3.615  1.00  0.00     0.014 A 
ATOM     22  C   UNL     1       4.062   2.090  -4.671  1.00  0.00     0.002 A 
ATOM     23  C   UNL     1       3.348   3.228  -4.323  1.00  0.00     0.001 A 
BRANCH  15  24
ATOM     24  C   UNL     1       0.463  -2.054  -2.081  1.00  0.00     0.138 C 
BRANCH  24  25
ATOM     25  C   UNL     1       1.079  -2.524  -0.750  1.00  0.00     0.269 C 
BRANCH  25  26
ATOM     26  N   UNL     1       0.700  -1.891   0.528  1.00  0.00    -0.339 N 
ATOM     27  C   UNL     1       1.494  -0.704   0.822  1.00  0.00     0.332 C 
ATOM     28  C   UNL     1      -0.731  -1.622   0.644  1.00  0.00     0.332 C 
ATOM     29  H   UNL     1       0.918  -2.586   1.242  1.00  0.00     0.347 HD
ENDBRANCH  25  26
ENDBRANCH  24  25
ENDBRANCH  15  24
ENDBRANCH  12  14
ENDBRANCH   7  12
BRANCH  11  30
ATOM     30  O   UNL     1      -3.943   2.450   2.082  1.00  0.00    -0.507 OA
ATOM     31  H   UNL     1      -3.600   2.186   2.913  1.00  0.00     0.293 HD
ENDBRANCH  11  30
ENDBRANCH   3   6
ENDBRANCH   1   2
BRANCH   1  32
ATOM     32  C   UNL     1      -6.683   2.882   2.154  1.00  0.00     0.023 C 
BRANCH  32  33
ATOM     33  C   UNL     1      -8.057   3.544   2.237  1.00  0.00     0.023 C 
BRANCH  33  34
ATOM     34  C   UNL     1      -9.222   2.577   2.385  1.00  0.00     0.116 C 
BRANCH  34  35
ATOM     35  N   UNL     1      -9.101   1.698   3.539  1.00  0.00    -0.352 N 
ATOM     36  C   UNL     1     -10.108   1.145   4.298  1.00  0.00     0.251 C 
ATOM     37  H   UNL     1      -8.183   1.471   3.811  1.00  0.00     0.163 HD
ATOM     38  O   UNL     1      -9.849   0.496   5.297  1.00  0.00    -0.269 OA
BRANCH  36  39
ATOM     39  C   UNL     1     -11.509   1.397   3.901  1.00  0.00     0.039 A 
ATOM     40  C   UNL     1     -12.393   1.909   4.852  1.00  0.00     0.014 A 
ATOM     41  C   UNL     1     -11.922   1.193   2.582  1.00  0.00     0.014 A 
ATOM     42  C   UNL     1     -13.678   2.287   4.460  1.00  0.00     0.010 A 
ATOM     43  C   UNL     1     -13.177   1.635   2.179  1.00  0.00     0.010 A 
ATOM     44  C   UNL     1     -14.065   2.189   3.113  1.00  0.00    -0.014 A 
BRANCH  44  45
ATOM     45  C   UNL     1     -15.391   2.671   2.657  1.00  0.00     0.031 A 
ATOM     46  C   UNL     1     -16.391   1.698   2.096  1.00  0.00     0.074 A 
ATOM     47  C   UNL     1     -15.659   3.992   2.673  1.00  0.00     0.049 A 
ATOM     48  N   UNL     1     -17.567   1.933   1.576  1.00  0.00    -0.248 NA
ATOM     49  C   UNL     1     -16.004   0.278   2.091  1.00  0.00     0.031 C 
ATOM     50  C   UNL     1     -14.741   5.038   3.132  1.00  0.00     0.029 A 
ATOM     51  N   UNL     1     -16.776   4.684   2.276  1.00  0.00    -0.354 N 
ATOM     52  C   UNL     1     -18.050   0.698   1.161  1.00  0.00     0.074 A 
ATOM     53  C   UNL     1     -17.022  -0.278   1.451  1.00  0.00     0.031 C 
ATOM     54  C   UNL     1     -15.337   6.235   3.003  1.00  0.00     0.029 A 
ATOM     55  C   UNL     1     -16.664   6.046   2.426  1.00  0.00     0.049 A 
ATOM     56  H   UNL     1     -17.581   4.246   1.917  1.00  0.00     0.167 HD
ATOM     57  C   UNL     1     -19.250   0.403   0.608  1.00  0.00     0.037 A 
ATOM     58  C   UNL     1     -17.532   7.032   2.125  1.00  0.00     0.037 A 
ATOM     59  C   UNL     1     -20.283   1.374   0.363  1.00  0.00     0.049 A 
ATOM     60  C   UNL     1     -18.873   6.673   1.544  1.00  0.00     0.074 A 
ATOM     61  C   UNL     1     -21.566   1.164  -0.110  1.00  0.00     0.029 A 
ATOM     62  N   UNL     1     -20.151   2.739   0.572  1.00  0.00    -0.354 N 
ATOM     63  N   UNL     1     -19.347   5.489   1.238  1.00  0.00    -0.248 NA
ATOM     64  C   UNL     1     -19.800   7.781   1.276  1.00  0.00     0.031 C 
ATOM     65  C   UNL     1     -22.199   2.406  -0.222  1.00  0.00     0.029 A 
ATOM     66  C   UNL     1     -21.324   3.386   0.220  1.00  0.00     0.049 A 
ATOM     67  H   UNL     1     -19.344   3.182   0.920  1.00  0.00     0.167 HD
ATOM     68  C   UNL     1     -20.635   5.707   0.763  1.00  0.00     0.074 A 
ATOM     69  C   UNL     1     -20.870   7.135   0.834  1.00  0.00     0.031 C 
ATOM     70  C   UNL     1     -21.542   4.808   0.308  1.00  0.00     0.037 A 
BRANCH  57  71
ATOM     71  C   UNL     1     -19.515  -1.030   0.240  1.00  0.00     0.058 A 
ATOM     72  C   UNL     1     -19.732  -2.013   1.219  1.00  0.00     0.135 A 
ATOM     73  C   UNL     1     -19.591  -1.418  -1.107  1.00  0.00     0.135 A 
ATOM     74  F   UNL     1     -19.655  -1.699   2.522  1.00  0.00    -0.206 F 
ATOM     75  C   UNL     1     -19.990  -3.336   0.875  1.00  0.00     0.059 A 
ATOM     76  C   UNL     1     -19.872  -2.731  -1.474  1.00  0.00     0.059 A 
ATOM     77  F   UNL     1     -19.389  -0.518  -2.082  1.00  0.00    -0.206 F 
ATOM     78  C   UNL     1     -20.057  -3.685  -0.475  1.00  0.00     0.060 A 
BRANCH  78  79
ATOM     79  S   UNL     1     -20.404  -5.404  -0.905  1.00  0.00     0.124 S 
ATOM     80  O   UNL     1     -19.125  -6.041  -0.609  1.00  0.00    -0.237 OA
ATOM     81  O   UNL     1     -21.501  -5.738  -0.002  1.00  0.00    -0.237 OA
ATOM     82  O   UNL     1     -20.759  -5.335  -2.319  1.00  0.00    -0.744 OA
ENDBRANCH  78  79
ENDBRANCH  57  71
BRANCH  58  83
ATOM     83  C   UNL     1     -17.169   8.450   2.385  1.00  0.00     0.058 A 
ATOM     84  C   UNL     1     -17.779   9.171   3.421  1.00  0.00     0.135 A 
ATOM     85  C   UNL     1     -16.205   9.110   1.608  1.00  0.00     0.135 A 
ATOM     86  F   UNL     1     -18.710   8.584   4.189  1.00  0.00    -0.206 F 
ATOM     87  C   UNL     1     -17.465  10.504   3.666  1.00  0.00     0.059 A 
ATOM     88  C   UNL     1     -15.856  10.436   1.847  1.00  0.00     0.059 A 
ATOM     89  F   UNL     1     -15.579   8.458   0.616  1.00  0.00    -0.206 F 
ATOM     90  C   UNL     1     -16.502  11.128   2.871  1.00  0.00     0.060 A 
BRANCH  90  91
ATOM     91  S   UNL     1     -16.072  12.848   3.219  1.00  0.00     0.124 S 
ATOM     92  O   UNL     1     -17.220  13.555   2.663  1.00  0.00    -0.237 OA
ATOM     93  O   UNL     1     -15.963  12.851   4.675  1.00  0.00    -0.237 OA
ATOM     94  O   UNL     1     -14.811  13.028   2.505  1.00  0.00    -0.744 OA
ENDBRANCH  90  91
ENDBRANCH  58  83
BRANCH  70  95
ATOM     95  C   UNL     1     -22.882   5.334  -0.119  1.00  0.00     0.058 A 
ATOM     96  C   UNL     1     -23.048   6.025  -1.329  1.00  0.00     0.135 A 
ATOM     97  C   UNL     1     -24.022   5.095   0.665  1.00  0.00     0.135 A 
ATOM     98  F   UNL     1     -21.988   6.285  -2.110  1.00  0.00    -0.206 F 
ATOM     99  C   UNL     1     -24.298   6.478  -1.739  1.00  0.00     0.059 A 
ATOM    100  C   UNL     1     -25.285   5.517   0.263  1.00  0.00     0.059 A 
ATOM    101  F   UNL     1     -23.916   4.429   1.826  1.00  0.00    -0.206 F 
ATOM    102  C   UNL     1     -25.411   6.218  -0.936  1.00  0.00     0.060 A 
BRANCH 102 103
ATOM    103  S   UNL     1     -27.034   6.776  -1.496  1.00  0.00     0.124 S 
ATOM    104  O   UNL     1     -26.968   8.205  -1.208  1.00  0.00    -0.237 OA
ATOM    105  O   UNL     1     -27.020   6.413  -2.910  1.00  0.00    -0.237 OA
ATOM    106  O   UNL     1     -27.960   6.009  -0.668  1.00  0.00    -0.744 OA
ENDBRANCH 102 103
ENDBRANCH  70  95
ENDBRANCH  44  45
ENDBRANCH  36  39
ENDBRANCH  34  35
ENDBRANCH  33  34
ENDBRANCH  32  33
ENDBRANCH   1  32
TORSDOF 20
