REMARK SMILES Cc1c(NC(=O)c2cccc(NC(=O)[C@H]3CC=CC[C@H]3C(=O)NCCCCNC(=O)c3ccc(-c4c5nc(c(-c6c(F)cc(S(=O)(=O)[O-])cc6F)c6ccc([nH]6)c(-c6c(F)cc(S(=O)(=O)[O-])cc6F)c6nc(c(-c7c(F)cc(S(=O)(=O)[O-])cc7F)c7ccc4[nH]7)C=C6)C=C5)cc3)c2)c(=O)n(-c2ccccc2)n1C
REMARK SMILES IDX 24 1 23 2 21 3 22 4 20 6 15 7 16 8 17 9 19 10 18 11 13 12
REMARK SMILES IDX 12 13 14 15 11 16 7 17 8 18 97 19 9 20 10 21 5 22 4 23 6 25
REMARK SMILES IDX 3 26 1 27 2 28 107 29 98 30 100 31 108 32 99 33 101 34
REMARK SMILES IDX 102 35 106 36 103 37 105 38 104 39 25 40 26 41 27 42 28 43
REMARK SMILES IDX 29 44 30 46 31 47 32 48 96 49 33 50 95 51 34 52 35 53 36 54
REMARK SMILES IDX 89 55 37 56 94 57 88 58 90 59 38 60 93 61 87 62 86 63 39 65
REMARK SMILES IDX 73 66 52 67 72 68 53 69 56 70 71 71 91 72 54 73 55 74 70 76
REMARK SMILES IDX 92 77 57 78 40 79 41 80 50 81 42 82 43 83 49 84 51 85 44 86
REMARK SMILES IDX 45 87 46 88 47 89 48 90 74 91 75 92 84 93 76 94 77 95 83 96
REMARK SMILES IDX 85 97 78 98 79 99 80 100 81 101 82 102 58 103 59 104 68 105
REMARK SMILES IDX 60 106 61 107 67 108 69 109 62 110 63 111 64 112 65 113
REMARK SMILES IDX 66 114
REMARK H PARENT 23 5 12 14 4 24 28 45 90 64 56 75
REMARK Flexibility Score: inf
ROOT
ATOM      1  C   UNL     1       3.361  -4.823  -9.378  1.00  0.00     0.116 C 
ENDROOT
BRANCH   1   2
ATOM      2  N   UNL     1       2.591  -6.009  -9.671  1.00  0.00    -0.356 N 
ATOM      3  C   UNL     1       1.259  -6.192  -9.825  1.00  0.00     0.224 C 
ATOM      4  O   UNL     1       0.879  -7.361  -9.964  1.00  0.00    -0.275 OA
ATOM      5  H   UNL     1       3.128  -6.826  -9.778  1.00  0.00     0.163 HD
BRANCH   3   6
ATOM      6  C   UNL     1       0.224  -5.071  -9.778  1.00  0.00     0.095 C 
ATOM      7  C   UNL     1      -0.102  -4.566  -8.366  1.00  0.00     0.095 C 
ATOM      8  C   UNL     1      -1.439  -3.805  -8.398  1.00  0.00     0.041 C 
ATOM      9  C   UNL     1      -1.513  -2.833  -9.550  1.00  0.00    -0.030 C 
ATOM     10  C   UNL     1       0.279  -4.010 -10.870  1.00  0.00     0.041 C 
ATOM     11  C   UNL     1      -0.732  -2.916 -10.640  1.00  0.00    -0.030 C 
BRANCH   7  12
ATOM     12  C   UNL     1       0.862  -3.641  -7.644  1.00  0.00     0.228 C 
ATOM     13  N   UNL     1       1.103  -3.732  -6.300  1.00  0.00    -0.326 N 
ATOM     14  H   UNL     1       1.711  -3.023  -5.989  1.00  0.00     0.169 HD
ATOM     15  O   UNL     1       1.428  -2.709  -8.226  1.00  0.00    -0.274 OA
BRANCH  13  16
ATOM     16  C   UNL     1       0.704  -4.579  -5.244  1.00  0.00     0.041 A 
ATOM     17  C   UNL     1       0.794  -4.957  -2.841  1.00  0.00     0.042 A 
ATOM     18  C   UNL     1      -0.038  -6.068  -2.953  1.00  0.00     0.014 A 
ATOM     19  C   UNL     1       1.253  -4.286  -3.986  1.00  0.00     0.040 A 
ATOM     20  C   UNL     1      -0.540  -6.402  -4.198  1.00  0.00     0.003 A 
ATOM     21  C   UNL     1      -0.218  -5.625  -5.316  1.00  0.00     0.026 A 
BRANCH  17  22
ATOM     22  C   UNL     1       1.084  -4.474  -1.478  1.00  0.00     0.255 C 
ATOM     23  N   UNL     1       0.919  -3.151  -1.125  1.00  0.00    -0.316 N 
ATOM     24  H   UNL     1       1.232  -2.942  -0.215  1.00  0.00     0.170 HD
ATOM     25  O   UNL     1       1.506  -5.271  -0.642  1.00  0.00    -0.269 OA
BRANCH  23  26
ATOM     26  C   UNL     1       0.405  -2.072  -1.794  1.00  0.00     0.130 A 
ATOM     27  C   UNL     1       1.315  -0.268  -0.280  1.00  0.00     0.069 C 
ATOM     28  C   UNL     1       0.649  -0.776  -1.518  1.00  0.00     0.061 A 
ATOM     29  N   UNL     1       0.229   0.065  -2.552  1.00  0.00    -0.283 N 
ATOM     30  C   UNL     1      -0.536  -2.041  -2.974  1.00  0.00     0.295 A 
ATOM     31  N   UNL     1      -0.427  -0.750  -3.500  1.00  0.00    -0.216 N 
ATOM     32  C   UNL     1      -0.201   1.450  -2.417  1.00  0.00     0.172 C 
ATOM     33  O   UNL     1      -1.242  -2.960  -3.331  1.00  0.00    -0.265 OA
BRANCH  31  34
ATOM     34  C   UNL     1      -0.854  -0.309  -4.769  1.00  0.00     0.067 A 
ATOM     35  C   UNL     1      -1.996  -0.853  -5.366  1.00  0.00     0.028 A 
ATOM     36  C   UNL     1      -0.127   0.657  -5.480  1.00  0.00     0.028 A 
ATOM     37  C   UNL     1      -2.440  -0.396  -6.610  1.00  0.00     0.002 A 
ATOM     38  C   UNL     1      -0.553   1.094  -6.738  1.00  0.00     0.002 A 
ATOM     39  C   UNL     1      -1.719   0.577  -7.296  1.00  0.00     0.000 A 
ENDBRANCH  31  34
ENDBRANCH  23  26
ENDBRANCH  17  22
ENDBRANCH  13  16
ENDBRANCH   7  12
ENDBRANCH   3   6
ENDBRANCH   1   2
BRANCH   1  40
ATOM     40  C   UNL     1       3.794  -4.777  -7.910  1.00  0.00     0.023 C 
BRANCH  40  41
ATOM     41  C   UNL     1       5.013  -5.611  -7.515  1.00  0.00     0.023 C 
BRANCH  41  42
ATOM     42  C   UNL     1       6.292  -5.256  -8.252  1.00  0.00     0.116 C 
BRANCH  42  43
ATOM     43  N   UNL     1       6.709  -3.865  -8.056  1.00  0.00    -0.352 N 
ATOM     44  C   UNL     1       7.718  -3.197  -8.729  1.00  0.00     0.251 C 
ATOM     45  H   UNL     1       6.221  -3.352  -7.373  1.00  0.00     0.163 HD
ATOM     46  O   UNL     1       8.272  -2.219  -8.243  1.00  0.00    -0.269 OA
BRANCH  44  47
ATOM     47  C   UNL     1       8.078  -3.688 -10.070  1.00  0.00     0.039 A 
ATOM     48  C   UNL     1       9.398  -3.880 -10.477  1.00  0.00     0.014 A 
ATOM     49  C   UNL     1       7.013  -4.045 -10.891  1.00  0.00     0.014 A 
ATOM     50  C   UNL     1       9.626  -4.520 -11.695  1.00  0.00     0.010 A 
ATOM     51  C   UNL     1       7.237  -4.848 -11.973  1.00  0.00     0.010 A 
ATOM     52  C   UNL     1       8.535  -5.024 -12.427  1.00  0.00    -0.014 A 
BRANCH  52  53
ATOM     53  C   UNL     1       8.719  -5.854 -13.611  1.00  0.00     0.031 A 
ATOM     54  C   UNL     1       9.598  -7.033 -13.382  1.00  0.00     0.074 A 
ATOM     55  C   UNL     1       7.984  -5.698 -14.737  1.00  0.00     0.049 A 
ATOM     56  N   UNL     1      10.815  -7.190 -13.783  1.00  0.00    -0.248 NA
ATOM     57  C   UNL     1       9.155  -8.070 -12.432  1.00  0.00     0.031 C 
ATOM     58  C   UNL     1       6.860  -4.783 -14.982  1.00  0.00     0.029 A 
ATOM     59  N   UNL     1       8.032  -6.405 -15.897  1.00  0.00    -0.354 N 
ATOM     60  C   UNL     1      11.190  -8.466 -13.372  1.00  0.00     0.074 A 
ATOM     61  C   UNL     1      10.239  -8.849 -12.364  1.00  0.00     0.031 C 
ATOM     62  C   UNL     1       6.197  -5.156 -16.100  1.00  0.00     0.029 A 
ATOM     63  C   UNL     1       6.947  -6.212 -16.752  1.00  0.00     0.049 A 
ATOM     64  H   UNL     1       8.778  -7.009 -16.117  1.00  0.00     0.167 HD
ATOM     65  C   UNL     1      12.083  -9.196 -14.099  1.00  0.00     0.037 A 
ATOM     66  C   UNL     1       6.691  -6.884 -17.907  1.00  0.00     0.037 A 
ATOM     67  C   UNL     1      12.764  -8.354 -15.055  1.00  0.00     0.049 A 
ATOM     68  C   UNL     1       7.984  -7.479 -18.340  1.00  0.00     0.074 A 
ATOM     69  C   UNL     1      13.551  -7.222 -14.963  1.00  0.00     0.029 A 
ATOM     70  N   UNL     1      12.326  -8.404 -16.358  1.00  0.00    -0.354 N 
ATOM     71  N   UNL     1       9.016  -6.768 -18.711  1.00  0.00    -0.248 NA
ATOM     72  C   UNL     1       8.287  -8.822 -17.868  1.00  0.00     0.031 C 
ATOM     73  C   UNL     1      13.136  -6.401 -16.052  1.00  0.00     0.029 A 
ATOM     74  C   UNL     1      12.200  -7.114 -16.804  1.00  0.00     0.049 A 
ATOM     75  H   UNL     1      12.136  -9.219 -16.877  1.00  0.00     0.167 HD
ATOM     76  C   UNL     1      10.107  -7.393 -18.123  1.00  0.00     0.074 A 
ATOM     77  C   UNL     1       9.601  -8.688 -17.666  1.00  0.00     0.031 C 
ATOM     78  C   UNL     1      11.232  -6.693 -17.794  1.00  0.00     0.037 A 
BRANCH  65  79
ATOM     79  C   UNL     1      12.063 -10.702 -14.247  1.00  0.00     0.058 A 
ATOM     80  C   UNL     1      13.107 -11.328 -14.963  1.00  0.00     0.135 A 
ATOM     81  C   UNL     1      10.941 -11.516 -13.980  1.00  0.00     0.135 A 
ATOM     82  F   UNL     1      14.227 -10.654 -15.270  1.00  0.00    -0.206 F 
ATOM     83  C   UNL     1      13.003 -12.628 -15.457  1.00  0.00     0.059 A 
ATOM     84  C   UNL     1      10.839 -12.832 -14.417  1.00  0.00     0.059 A 
ATOM     85  F   UNL     1       9.846 -11.057 -13.364  1.00  0.00    -0.206 F 
ATOM     86  C   UNL     1      11.855 -13.367 -15.191  1.00  0.00     0.060 A 
BRANCH  86  87
ATOM     87  S   UNL     1      11.680 -15.011 -15.901  1.00  0.00     0.124 S 
ATOM     88  O   UNL     1      11.556 -14.703 -17.321  1.00  0.00    -0.237 OA
ATOM     89  O   UNL     1      12.926 -15.649 -15.489  1.00  0.00    -0.237 OA
ATOM     90  O   UNL     1      10.475 -15.527 -15.258  1.00  0.00    -0.744 OA
ENDBRANCH  86  87
ENDBRANCH  65  79
BRANCH  66  91
ATOM     91  C   UNL     1       5.380  -7.344 -18.448  1.00  0.00     0.058 A 
ATOM     92  C   UNL     1       5.261  -7.845 -19.759  1.00  0.00     0.135 A 
ATOM     93  C   UNL     1       4.282  -7.586 -17.598  1.00  0.00     0.135 A 
ATOM     94  F   UNL     1       6.263  -7.678 -20.636  1.00  0.00    -0.206 F 
ATOM     95  C   UNL     1       4.150  -8.587 -20.184  1.00  0.00     0.059 A 
ATOM     96  C   UNL     1       3.162  -8.319 -17.999  1.00  0.00     0.059 A 
ATOM     97  F   UNL     1       4.306  -7.194 -16.315  1.00  0.00    -0.206 F 
ATOM     98  C   UNL     1       3.114  -8.840 -19.287  1.00  0.00     0.060 A 
BRANCH  98  99
ATOM     99  S   UNL     1       1.764  -9.949 -19.768  1.00  0.00     0.124 S 
ATOM    100  O   UNL     1       1.056  -9.151 -20.764  1.00  0.00    -0.237 OA
ATOM    101  O   UNL     1       2.483 -11.111 -20.278  1.00  0.00    -0.237 OA
ATOM    102  O   UNL     1       1.042 -10.167 -18.517  1.00  0.00    -0.744 OA
ENDBRANCH  98  99
ENDBRANCH  66  91
BRANCH  78 103
ATOM    103  C   UNL     1      11.411  -5.299 -18.339  1.00  0.00     0.058 A 
ATOM    104  C   UNL     1      10.622  -4.187 -17.991  1.00  0.00     0.135 A 
ATOM    105  C   UNL     1      12.567  -5.052 -19.095  1.00  0.00     0.135 A 
ATOM    106  F   UNL     1       9.550  -4.322 -17.199  1.00  0.00    -0.206 F 
ATOM    107  C   UNL     1      10.964  -2.891 -18.391  1.00  0.00     0.059 A 
ATOM    108  C   UNL     1      12.942  -3.770 -19.477  1.00  0.00     0.059 A 
ATOM    109  F   UNL     1      13.390  -6.066 -19.411  1.00  0.00    -0.206 F 
ATOM    110  C   UNL     1      12.133  -2.692 -19.127  1.00  0.00     0.060 A 
BRANCH 110 111
ATOM    111  S   UNL     1      12.635  -1.013 -19.565  1.00  0.00     0.124 S 
ATOM    112  O   UNL     1      11.643  -0.648 -20.571  1.00  0.00    -0.237 OA
ATOM    113  O   UNL     1      12.534  -0.308 -18.290  1.00  0.00    -0.237 OA
ATOM    114  O   UNL     1      13.997  -1.182 -20.065  1.00  0.00    -0.744 OA
ENDBRANCH 110 111
ENDBRANCH  78 103
ENDBRANCH  52  53
ENDBRANCH  44  47
ENDBRANCH  42  43
ENDBRANCH  41  42
ENDBRANCH  40  41
ENDBRANCH   1  40
TORSDOF 19
