REMARK SMILES CN(C(=O)N(CC(=O)NCCCCNC(=O)c1ccc(-c2c3nc(c(-c4c(F)cc(S(=O)(=O)[O-])cc4F)c4ccc([nH]4)c(-c4c(F)cc(S(=O)(=O)[O-])cc4F)c4nc(c(-c5c(F)cc(S(=O)(=O)[O-])cc5F)c5ccc2[nH]5)C=C4)C=C3)cc1)C(C)(C)C)C1CCCCCC1
REMARK SMILES IDX 7 1 8 2 9 3 6 5 5 6 3 7 4 8 2 9 1 10 87 11 88 12 89 13 90 14
REMARK SMILES IDX 93 16 92 17 91 18 83 20 84 21 85 22 86 23 10 24 11 25 12 26
REMARK SMILES IDX 13 27 14 28 15 29 16 31 17 32 18 33 82 34 19 35 81 36 20 37
REMARK SMILES IDX 21 38 22 39 75 40 23 41 80 42 74 43 76 44 24 45 79 46 73 47
REMARK SMILES IDX 72 48 25 50 59 51 38 52 58 53 39 54 42 55 57 56 77 57 40 58
REMARK SMILES IDX 41 59 56 61 78 62 43 63 26 64 27 65 36 66 28 67 29 68 35 69
REMARK SMILES IDX 37 70 30 71 31 72 32 73 33 74 34 75 60 76 61 77 70 78 62 79
REMARK SMILES IDX 63 80 69 81 71 82 64 83 65 84 66 85 67 86 68 87 44 88 45 89
REMARK SMILES IDX 54 90 46 91 47 92 53 93 55 94 48 95 49 96 50 97 51 98 52 99
REMARK H PARENT 9 4 14 30 76 49 42 60
REMARK Flexibility Score: 80.00
ROOT
ATOM      1  C   UNL     1      -1.339  -2.420   1.248  1.00  0.00     0.239 C 
ATOM      2  O   UNL     1      -1.402  -3.188   2.217  1.00  0.00    -0.273 OA
ATOM      3  N   UNL     1      -2.248  -1.403   1.230  1.00  0.00    -0.355 N 
ATOM      4  H   UNL     1      -3.043  -1.561   1.789  1.00  0.00     0.163 HD
ENDROOT
BRANCH   1   5
ATOM      5  C   UNL     1      -0.184  -2.598   0.232  1.00  0.00     0.221 C 
BRANCH   5   6
ATOM      6  N   UNL     1      -0.411  -2.232  -1.166  1.00  0.00    -0.311 N 
BRANCH   6   7
ATOM      7  C   UNL     1       0.065  -1.083  -1.804  1.00  0.00     0.320 C 
ATOM      8  O   UNL     1      -0.133  -0.959  -3.020  1.00  0.00    -0.248 OA
BRANCH   7   9
ATOM      9  N   UNL     1       0.718  -0.026  -1.144  1.00  0.00    -0.325 N 
ATOM     10  C   UNL     1       1.065   0.145   0.270  1.00  0.00     0.149 C 
BRANCH   9  11
ATOM     11  C   UNL     1       1.017   1.173  -2.013  1.00  0.00     0.086 C 
BRANCH  11  12
ATOM     12  C   UNL     1      -0.279   1.960  -2.333  1.00  0.00     0.025 C 
BRANCH  12  13
ATOM     13  C   UNL     1      -0.667   3.065  -1.355  1.00  0.00     0.002 C 
BRANCH  13  14
ATOM     14  C   UNL     1      -0.027   4.407  -1.695  1.00  0.00     0.000 CG0
ATOM     15  G   UNL     1       1.474   4.483  -1.447  1.00  0.00     0.000 G0
ENDBRANCH  13  14
ENDBRANCH  12  13
ENDBRANCH  11  12
BRANCH  11  16
ATOM     16  C   UNL     1       2.213   2.044  -1.548  1.00  0.00     0.025 C 
BRANCH  16  17
ATOM     17  C   UNL     1       2.310   3.433  -2.183  1.00  0.00     0.002 C 
BRANCH  17  18
ATOM     18  C   UNL     1       1.474   4.483  -1.447  1.00  0.00     0.000 CG0
ATOM     19  G   UNL     1      -0.027   4.407  -1.695  1.00  0.00     0.000 G0
ENDBRANCH  17  18
ENDBRANCH  16  17
ENDBRANCH  11  16
ENDBRANCH   9  11
ENDBRANCH   7   9
ENDBRANCH   6   7
BRANCH   6  20
ATOM     20  C   UNL     1      -1.204  -3.258  -2.002  1.00  0.00     0.037 C 
ATOM     21  C   UNL     1      -2.538  -2.676  -2.512  1.00  0.00     0.034 C 
ATOM     22  C   UNL     1      -0.374  -3.766  -3.205  1.00  0.00     0.034 C 
ATOM     23  C   UNL     1      -1.616  -4.549  -1.228  1.00  0.00     0.034 C 
ENDBRANCH   6  20
ENDBRANCH   5   6
ENDBRANCH   1   5
BRANCH   3  24
ATOM     24  C   UNL     1      -2.249  -0.134   0.535  1.00  0.00     0.116 C 
BRANCH  24  25
ATOM     25  C   UNL     1      -3.426   0.107  -0.395  1.00  0.00     0.023 C 
BRANCH  25  26
ATOM     26  C   UNL     1      -4.774   0.242   0.288  1.00  0.00     0.023 C 
BRANCH  26  27
ATOM     27  C   UNL     1      -4.854   1.393   1.278  1.00  0.00     0.116 C 
BRANCH  27  28
ATOM     28  N   UNL     1      -4.548   2.684   0.677  1.00  0.00    -0.352 N 
ATOM     29  C   UNL     1      -5.238   3.870   0.789  1.00  0.00     0.251 C 
ATOM     30  H   UNL     1      -3.741   2.712   0.115  1.00  0.00     0.163 HD
ATOM     31  O   UNL     1      -4.928   4.837   0.112  1.00  0.00    -0.269 OA
BRANCH  29  32
ATOM     32  C   UNL     1      -6.379   3.937   1.725  1.00  0.00     0.039 A 
ATOM     33  C   UNL     1      -7.598   4.448   1.276  1.00  0.00     0.014 A 
ATOM     34  C   UNL     1      -6.253   3.432   3.022  1.00  0.00     0.014 A 
ATOM     35  C   UNL     1      -8.714   4.389   2.111  1.00  0.00     0.010 A 
ATOM     36  C   UNL     1      -7.383   3.291   3.815  1.00  0.00     0.010 A 
ATOM     37  C   UNL     1      -8.623   3.776   3.372  1.00  0.00    -0.014 A 
BRANCH  37  38
ATOM     38  C   UNL     1      -9.808   3.635   4.251  1.00  0.00     0.031 A 
ATOM     39  C   UNL     1      -9.826   4.307   5.596  1.00  0.00     0.074 A 
ATOM     40  C   UNL     1     -10.822   2.829   3.881  1.00  0.00     0.049 A 
ATOM     41  N   UNL     1     -10.728   4.242   6.540  1.00  0.00    -0.248 NA
ATOM     42  C   UNL     1      -8.655   5.129   5.940  1.00  0.00     0.031 C 
ATOM     43  C   UNL     1     -10.880   2.061   2.635  1.00  0.00     0.029 A 
ATOM     44  N   UNL     1     -11.988   2.504   4.526  1.00  0.00    -0.354 N 
ATOM     45  C   UNL     1     -10.221   4.988   7.597  1.00  0.00     0.074 A 
ATOM     46  C   UNL     1      -8.909   5.450   7.199  1.00  0.00     0.031 C 
ATOM     47  C   UNL     1     -12.029   1.367   2.600  1.00  0.00     0.029 A 
ATOM     48  C   UNL     1     -12.772   1.614   3.832  1.00  0.00     0.049 A 
ATOM     49  H   UNL     1     -12.240   2.875   5.402  1.00  0.00     0.167 HD
ATOM     50  C   UNL     1     -10.805   5.281   8.783  1.00  0.00     0.037 A 
ATOM     51  C   UNL     1     -13.954   1.054   4.155  1.00  0.00     0.037 A 
ATOM     52  C   UNL     1     -12.126   4.846   9.154  1.00  0.00     0.049 A 
ATOM     53  C   UNL     1     -14.611   1.430   5.453  1.00  0.00     0.074 A 
ATOM     54  C   UNL     1     -12.851   5.165  10.287  1.00  0.00     0.029 A 
ATOM     55  N   UNL     1     -12.916   3.990   8.400  1.00  0.00    -0.354 N 
ATOM     56  N   UNL     1     -14.163   2.216   6.403  1.00  0.00    -0.248 NA
ATOM     57  C   UNL     1     -15.937   0.858   5.719  1.00  0.00     0.031 C 
ATOM     58  C   UNL     1     -14.063   4.468  10.239  1.00  0.00     0.029 A 
ATOM     59  C   UNL     1     -14.113   3.750   9.054  1.00  0.00     0.049 A 
ATOM     60  H   UNL     1     -12.664   3.609   7.528  1.00  0.00     0.167 HD
ATOM     61  C   UNL     1     -15.157   2.246   7.374  1.00  0.00     0.074 A 
ATOM     62  C   UNL     1     -16.237   1.410   6.888  1.00  0.00     0.031 C 
ATOM     63  C   UNL     1     -15.175   2.908   8.558  1.00  0.00     0.037 A 
BRANCH  50  64
ATOM     64  C   UNL     1     -10.009   6.104   9.759  1.00  0.00     0.058 A 
ATOM     65  C   UNL     1      -9.709   7.455   9.518  1.00  0.00     0.135 A 
ATOM     66  C   UNL     1      -9.527   5.530  10.946  1.00  0.00     0.135 A 
ATOM     67  F   UNL     1     -10.133   8.052   8.392  1.00  0.00    -0.206 F 
ATOM     68  C   UNL     1      -8.915   8.191  10.391  1.00  0.00     0.059 A 
ATOM     69  C   UNL     1      -8.757   6.257  11.850  1.00  0.00     0.059 A 
ATOM     70  F   UNL     1      -9.786   4.244  11.230  1.00  0.00    -0.206 F 
ATOM     71  C   UNL     1      -8.436   7.580  11.550  1.00  0.00     0.060 A 
BRANCH  71  72
ATOM     72  S   UNL     1      -7.376   8.536  12.656  1.00  0.00     0.124 S 
ATOM     73  O   UNL     1      -6.116   8.537  11.918  1.00  0.00    -0.237 OA
ATOM     74  O   UNL     1      -8.069   9.818  12.726  1.00  0.00    -0.237 OA
ATOM     75  O   UNL     1      -7.381   7.755  13.889  1.00  0.00    -0.744 OA
ENDBRANCH  71  72
ENDBRANCH  50  64
BRANCH  51  76
ATOM     76  C   UNL     1     -14.593   0.105   3.206  1.00  0.00     0.058 A 
ATOM     77  C   UNL     1     -15.696   0.492   2.433  1.00  0.00     0.135 A 
ATOM     78  C   UNL     1     -14.066  -1.180   3.001  1.00  0.00     0.135 A 
ATOM     79  F   UNL     1     -16.238   1.708   2.598  1.00  0.00    -0.206 F 
ATOM     80  C   UNL     1     -16.254  -0.359   1.483  1.00  0.00     0.059 A 
ATOM     81  C   UNL     1     -14.593  -2.041   2.043  1.00  0.00     0.059 A 
ATOM     82  F   UNL     1     -12.999  -1.589   3.704  1.00  0.00    -0.206 F 
ATOM     83  C   UNL     1     -15.688  -1.620   1.288  1.00  0.00     0.060 A 
BRANCH  83  84
ATOM     84  S   UNL     1     -16.356  -2.677  -0.016  1.00  0.00     0.124 S 
ATOM     85  O   UNL     1     -17.616  -3.113   0.575  1.00  0.00    -0.237 OA
ATOM     86  O   UNL     1     -16.464  -1.748  -1.137  1.00  0.00    -0.237 OA
ATOM     87  O   UNL     1     -15.336  -3.711  -0.165  1.00  0.00    -0.744 OA
ENDBRANCH  83  84
ENDBRANCH  51  76
BRANCH  63  88
ATOM     88  C   UNL     1     -16.407   2.768   9.409  1.00  0.00     0.058 A 
ATOM     89  C   UNL     1     -16.685   1.587  10.112  1.00  0.00     0.135 A 
ATOM     90  C   UNL     1     -17.287   3.851   9.567  1.00  0.00     0.135 A 
ATOM     91  F   UNL     1     -15.878   0.521   9.989  1.00  0.00    -0.206 F 
ATOM     92  C   UNL     1     -17.805   1.476  10.929  1.00  0.00     0.059 A 
ATOM     93  C   UNL     1     -18.399   3.771  10.399  1.00  0.00     0.059 A 
ATOM     94  F   UNL     1     -17.059   5.008   8.924  1.00  0.00    -0.206 F 
ATOM     95  C   UNL     1     -18.655   2.575  11.068  1.00  0.00     0.060 A 
BRANCH  95  96
ATOM     96  S   UNL     1     -20.086   2.432  12.160  1.00  0.00     0.124 S 
ATOM     97  O   UNL     1     -20.985   1.608  11.359  1.00  0.00    -0.237 OA
ATOM     98  O   UNL     1     -19.517   1.788  13.340  1.00  0.00    -0.237 OA
ATOM     99  O   UNL     1     -20.506   3.817  12.352  1.00  0.00    -0.744 OA
ENDBRANCH  95  96
ENDBRANCH  63  88
ENDBRANCH  37  38
ENDBRANCH  29  32
ENDBRANCH  27  28
ENDBRANCH  26  27
ENDBRANCH  25  26
ENDBRANCH  24  25
ENDBRANCH   3  24
TORSDOF 19
