REMARK SMILES Cc1cc(C)c2c(c1)C=C(C(=O)NCCCCNC(=O)c1ccc(-c3c4nc(c(-c5c(F)cc(S(=O)(=O)[O-])cc5F)c5ccc([nH]5)c(-c5c(F)cc(S(=O)(=O)[O-])cc5F)c5nc(c(-c6c(F)cc(S(=O)(=O)[O-])cc6F)c6ccc3[nH]6)C=C5)C=C4)cc1)[C@@H](C(F)(F)F)O2
REMARK SMILES IDX 16 1 15 2 14 3 13 4 11 5 12 6 10 8 1 9 2 10 3 11 8 12 4 13
REMARK SMILES IDX 7 14 5 15 6 16 9 17 92 18 87 19 88 20 89 21 90 22 91 23
REMARK SMILES IDX 17 24 18 25 19 26 20 28 21 29 22 30 86 31 23 32 85 33 24 34
REMARK SMILES IDX 25 35 26 36 79 37 27 38 84 39 78 40 80 41 28 42 83 43 77 44
REMARK SMILES IDX 76 45 29 47 63 48 42 49 62 50 43 51 46 52 61 53 81 54 44 55
REMARK SMILES IDX 45 56 60 58 82 59 47 60 30 61 31 62 40 63 32 64 33 65 39 66
REMARK SMILES IDX 41 67 34 68 35 69 36 70 37 71 38 72 64 73 65 74 74 75 66 76
REMARK SMILES IDX 67 77 73 78 75 79 68 80 69 81 70 82 71 83 72 84 48 85 49 86
REMARK SMILES IDX 58 87 50 88 51 89 57 90 59 91 52 92 53 93 54 94 55 95 56 96
REMARK H PARENT 13 7 18 27 80 46 46 57
REMARK Flexibility Score: inf
ROOT
ATOM      1  C   UNL     1      -4.427  -5.396  -8.406  1.00  0.00     0.023 C 
ENDROOT
BRANCH   1   2
ATOM      2  C   UNL     1      -3.448  -5.297  -7.233  1.00  0.00     0.023 C 
BRANCH   2   3
ATOM      3  C   UNL     1      -2.201  -4.469  -7.529  1.00  0.00     0.116 C 
BRANCH   3   4
ATOM      4  N   UNL     1      -2.410  -3.058  -7.261  1.00  0.00    -0.352 N 
ATOM      5  C   UNL     1      -2.090  -2.180  -6.282  1.00  0.00     0.251 C 
ATOM      6  O   UNL     1      -2.488  -1.024  -6.462  1.00  0.00    -0.270 OA
ATOM      7  H   UNL     1      -2.919  -2.624  -7.984  1.00  0.00     0.163 HD
BRANCH   5   8
ATOM      8  C   UNL     1      -1.317  -2.506  -5.047  1.00  0.00     0.067 C 
ATOM      9  C   UNL     1       0.957   0.207   0.030  1.00  0.00     0.044 C 
ATOM     10  C   UNL     1       0.592  -0.920  -0.890  1.00  0.00    -0.050 A 
ATOM     11  C   UNL     1       0.978  -2.231  -0.573  1.00  0.00     0.010 A 
ATOM     12  C   UNL     1      -0.124  -0.683  -2.070  1.00  0.00     0.015 A 
ATOM     13  C   UNL     1       0.652  -3.301  -1.415  1.00  0.00    -0.008 A 
ATOM     14  C   UNL     1      -0.449  -1.740  -2.926  1.00  0.00     0.018 A 
ATOM     15  C   UNL     1       1.074  -4.700  -1.068  1.00  0.00     0.048 C 
ATOM     16  C   UNL     1      -0.055  -3.039  -2.596  1.00  0.00     0.130 A 
ATOM     17  C   UNL     1      -1.220  -1.514  -4.142  1.00  0.00     0.025 C 
ATOM     18  O   UNL     1      -0.381  -4.109  -3.385  1.00  0.00    -0.475 OA
ATOM     19  C   UNL     1      -0.630  -3.817  -4.788  1.00  0.00     0.314 C 
BRANCH  19  20
ATOM     20  C   UNL     1       0.682  -3.968  -5.580  1.00  0.00     0.429 C 
ATOM     21  F   UNL     1       1.100  -5.260  -5.559  1.00  0.00    -0.167 F 
ATOM     22  F   UNL     1       0.544  -3.632  -6.884  1.00  0.00    -0.167 F 
ATOM     23  F   UNL     1       1.687  -3.212  -5.083  1.00  0.00    -0.167 F 
ENDBRANCH  19  20
ENDBRANCH   5   8
ENDBRANCH   3   4
ENDBRANCH   2   3
ENDBRANCH   1   2
BRANCH   1  24
ATOM     24  C   UNL     1      -3.841  -5.939  -9.710  1.00  0.00     0.116 C 
BRANCH  24  25
ATOM     25  N   UNL     1      -3.124  -7.197  -9.553  1.00  0.00    -0.352 N 
ATOM     26  C   UNL     1      -2.977  -8.206 -10.475  1.00  0.00     0.251 C 
ATOM     27  H   UNL     1      -2.691  -7.342  -8.680  1.00  0.00     0.163 HD
ATOM     28  O   UNL     1      -2.407  -9.249 -10.173  1.00  0.00    -0.269 OA
BRANCH  26  29
ATOM     29  C   UNL     1      -3.560  -8.028 -11.818  1.00  0.00     0.039 A 
ATOM     30  C   UNL     1      -4.476  -8.973 -12.284  1.00  0.00     0.014 A 
ATOM     31  C   UNL     1      -3.253  -6.894 -12.575  1.00  0.00     0.014 A 
ATOM     32  C   UNL     1      -5.146  -8.741 -13.485  1.00  0.00     0.010 A 
ATOM     33  C   UNL     1      -3.962  -6.639 -13.744  1.00  0.00     0.010 A 
ATOM     34  C   UNL     1      -4.920  -7.556 -14.204  1.00  0.00    -0.014 A 
BRANCH  34  35
ATOM     35  C   UNL     1      -5.680  -7.253 -15.440  1.00  0.00     0.031 A 
ATOM     36  C   UNL     1      -4.970  -7.210 -16.762  1.00  0.00     0.074 A 
ATOM     37  C   UNL     1      -6.993  -6.961 -15.360  1.00  0.00     0.049 A 
ATOM     38  N   UNL     1      -5.438  -6.888 -17.939  1.00  0.00    -0.248 NA
ATOM     39  C   UNL     1      -3.538  -7.552 -16.755  1.00  0.00     0.031 C 
ATOM     40  C   UNL     1      -7.782  -6.936 -14.126  1.00  0.00     0.029 A 
ATOM     41  N   UNL     1      -7.896  -6.625 -16.336  1.00  0.00    -0.354 N 
ATOM     42  C   UNL     1      -4.361  -6.979 -18.810  1.00  0.00     0.074 A 
ATOM     43  C   UNL     1      -3.204  -7.339 -18.019  1.00  0.00     0.031 C 
ATOM     44  C   UNL     1      -9.055  -6.629 -14.424  1.00  0.00     0.029 A 
ATOM     45  C   UNL     1      -9.167  -6.404 -15.862  1.00  0.00     0.049 A 
ATOM     46  H   UNL     1      -7.655  -6.548 -17.288  1.00  0.00     0.167 HD
ATOM     47  C   UNL     1      -4.342  -6.802 -20.152  1.00  0.00     0.037 A 
ATOM     48  C   UNL     1     -10.294  -6.061 -16.514  1.00  0.00     0.037 A 
ATOM     49  C   UNL     1      -5.500  -6.468 -20.938  1.00  0.00     0.049 A 
ATOM     50  C   UNL     1     -10.249  -5.870 -18.005  1.00  0.00     0.074 A 
ATOM     51  C   UNL     1      -5.593  -6.299 -22.308  1.00  0.00     0.029 A 
ATOM     52  N   UNL     1      -6.772  -6.263 -20.422  1.00  0.00    -0.354 N 
ATOM     53  N   UNL     1      -9.226  -5.983 -18.817  1.00  0.00    -0.248 NA
ATOM     54  C   UNL     1     -11.508  -5.505 -18.667  1.00  0.00     0.031 C 
ATOM     55  C   UNL     1      -6.917  -5.968 -22.618  1.00  0.00     0.029 A 
ATOM     56  C   UNL     1      -7.655  -5.963 -21.445  1.00  0.00     0.049 A 
ATOM     57  H   UNL     1      -7.011  -6.322 -19.469  1.00  0.00     0.167 HD
ATOM     58  C   UNL     1      -9.720  -5.721 -20.089  1.00  0.00     0.074 A 
ATOM     59  C   UNL     1     -11.137  -5.453 -19.940  1.00  0.00     0.031 C 
ATOM     60  C   UNL     1      -9.062  -5.702 -21.274  1.00  0.00     0.037 A 
BRANCH  47  61
ATOM     61  C   UNL     1      -3.027  -6.983 -20.853  1.00  0.00     0.058 A 
ATOM     62  C   UNL     1      -2.466  -8.258 -21.030  1.00  0.00     0.135 A 
ATOM     63  C   UNL     1      -2.328  -5.880 -21.366  1.00  0.00     0.135 A 
ATOM     64  F   UNL     1      -3.085  -9.343 -20.540  1.00  0.00    -0.206 F 
ATOM     65  C   UNL     1      -1.243  -8.431 -21.670  1.00  0.00     0.059 A 
ATOM     66  C   UNL     1      -1.113  -6.032 -22.030  1.00  0.00     0.059 A 
ATOM     67  F   UNL     1      -2.819  -4.640 -21.219  1.00  0.00    -0.206 F 
ATOM     68  C   UNL     1      -0.573  -7.311 -22.164  1.00  0.00     0.060 A 
BRANCH  68  69
ATOM     69  S   UNL     1       1.013  -7.552 -22.991  1.00  0.00     0.124 S 
ATOM     70  O   UNL     1       1.891  -7.829 -21.858  1.00  0.00    -0.237 OA
ATOM     71  O   UNL     1       0.740  -8.684 -23.871  1.00  0.00    -0.237 OA
ATOM     72  O   UNL     1       1.242  -6.278 -23.666  1.00  0.00    -0.744 OA
ENDBRANCH  68  69
ENDBRANCH  47  61
BRANCH  48  73
ATOM     73  C   UNL     1     -11.567  -5.915 -15.764  1.00  0.00     0.058 A 
ATOM     74  C   UNL     1     -12.568  -6.893 -15.858  1.00  0.00     0.135 A 
ATOM     75  C   UNL     1     -11.799  -4.820 -14.918  1.00  0.00     0.135 A 
ATOM     76  F   UNL     1     -12.392  -7.955 -16.659  1.00  0.00    -0.206 F 
ATOM     77  C   UNL     1     -13.757  -6.790 -15.145  1.00  0.00     0.059 A 
ATOM     78  C   UNL     1     -12.973  -4.703 -14.181  1.00  0.00     0.059 A 
ATOM     79  F   UNL     1     -10.865  -3.865 -14.784  1.00  0.00    -0.206 F 
ATOM     80  C   UNL     1     -13.949  -5.692 -14.304  1.00  0.00     0.060 A 
BRANCH  80  81
ATOM     81  S   UNL     1     -15.468  -5.603 -13.332  1.00  0.00     0.124 S 
ATOM     82  O   UNL     1     -16.448  -5.245 -14.351  1.00  0.00    -0.237 OA
ATOM     83  O   UNL     1     -15.569  -6.957 -12.796  1.00  0.00    -0.237 OA
ATOM     84  O   UNL     1     -15.174  -4.567 -12.346  1.00  0.00    -0.744 OA
ENDBRANCH  80  81
ENDBRANCH  48  73
BRANCH  60  85
ATOM     85  C   UNL     1      -9.865  -5.399 -22.505  1.00  0.00     0.058 A 
ATOM     86  C   UNL     1     -10.264  -4.090 -22.813  1.00  0.00     0.135 A 
ATOM     87  C   UNL     1     -10.183  -6.418 -23.416  1.00  0.00     0.135 A 
ATOM     88  F   UNL     1      -9.989  -3.084 -21.968  1.00  0.00    -0.206 F 
ATOM     89  C   UNL     1     -10.962  -3.802 -23.981  1.00  0.00     0.059 A 
ATOM     90  C   UNL     1     -10.863  -6.150 -24.600  1.00  0.00     0.059 A 
ATOM     91  F   UNL     1      -9.815  -7.686 -23.169  1.00  0.00    -0.206 F 
ATOM     92  C   UNL     1     -11.255  -4.839 -24.870  1.00  0.00     0.060 A 
BRANCH  92  93
ATOM     93  S   UNL     1     -12.121  -4.445 -26.404  1.00  0.00     0.124 S 
ATOM     94  O   UNL     1     -13.485  -4.242 -25.927  1.00  0.00    -0.237 OA
ATOM     95  O   UNL     1     -11.424  -3.246 -26.859  1.00  0.00    -0.237 OA
ATOM     96  O   UNL     1     -11.912  -5.633 -27.226  1.00  0.00    -0.744 OA
ENDBRANCH  92  93
ENDBRANCH  60  85
ENDBRANCH  34  35
ENDBRANCH  26  29
ENDBRANCH  24  25
ENDBRANCH   1  24
TORSDOF 15
