REMARK SMILES Cc1ccccc1N(CCC(=O)NCCCCNC(=O)c1ccc(-c2c3nc(c(-c4c(F)cc(S(=O)(=O)[O-])cc4F)c4ccc([nH]4)c(-c4c(F)cc(S(=O)(=O)[O-])cc4F)c4nc(c(-c5c(F)cc(S(=O)(=O)[O-])cc5F)c5ccc2[nH]5)C=C4)C=C3)cc1)C(=O)[C@@H]1C=C[C@H]([NH3+])C1
REMARK SMILES IDX 14 1 13 2 11 3 12 4 10 6 9 7 8 8 7 9 1 10 2 11 3 12 4 13
REMARK SMILES IDX 6 14 5 15 87 16 88 17 89 18 90 19 94 20 91 21 92 22 93 23
REMARK SMILES IDX 15 27 16 28 17 29 18 30 19 31 20 33 21 34 22 35 86 36 23 37
REMARK SMILES IDX 85 38 24 39 25 40 26 41 79 42 27 43 84 44 78 45 80 46 28 47
REMARK SMILES IDX 83 48 77 49 76 50 29 52 63 53 42 54 62 55 43 56 46 57 61 58
REMARK SMILES IDX 81 59 44 60 45 61 60 63 82 64 47 65 30 66 31 67 40 68 32 69
REMARK SMILES IDX 33 70 39 71 41 72 34 73 35 74 36 75 37 76 38 77 64 78 65 79
REMARK SMILES IDX 74 80 66 81 67 82 73 83 75 84 68 85 69 86 70 87 71 88 72 89
REMARK SMILES IDX 48 90 49 91 58 92 50 93 51 94 57 95 59 96 52 97 53 98 54 99
REMARK SMILES IDX 55 100 56 101
REMARK H PARENT 13 5 93 24 93 25 93 26 18 32 80 51 46 62
REMARK Flexibility Score: inf
ROOT
ATOM      1  C   UNL     1       1.540   3.967   2.934  1.00  0.00     0.116 C 
ENDROOT
BRANCH   1   2
ATOM      2  N   UNL     1       1.419   3.592   1.530  1.00  0.00    -0.356 N 
ATOM      3  C   UNL     1       1.661   2.423   0.879  1.00  0.00     0.221 C 
ATOM      4  O   UNL     1       1.206   2.281  -0.260  1.00  0.00    -0.275 OA
ATOM      5  H   UNL     1       1.105   4.319   0.945  1.00  0.00     0.163 HD
BRANCH   3   6
ATOM      6  C   UNL     1       2.507   1.335   1.486  1.00  0.00     0.122 C 
BRANCH   6   7
ATOM      7  C   UNL     1       3.814   1.154   0.687  1.00  0.00     0.135 C 
BRANCH   7   8
ATOM      8  N   UNL     1       4.873   2.138   1.048  1.00  0.00    -0.311 N 
BRANCH   8   9
ATOM      9  C   UNL     1       5.592   1.858   2.348  1.00  0.00     0.047 A 
ATOM     10  C   UNL     1       7.274   3.901   2.680  1.00  0.00     0.046 C 
ATOM     11  C   UNL     1       6.513   2.660   3.079  1.00  0.00    -0.027 A 
ATOM     12  C   UNL     1       6.831   2.315   4.436  1.00  0.00     0.005 A 
ATOM     13  C   UNL     1       6.416   1.143   5.044  1.00  0.00     0.000 A 
ATOM     14  C   UNL     1       5.268   0.628   3.008  1.00  0.00     0.026 A 
ATOM     15  C   UNL     1       5.667   0.268   4.303  1.00  0.00     0.002 A 
ENDBRANCH   8   9
BRANCH   8  16
ATOM     16  C   UNL     1       5.012   3.309   0.249  1.00  0.00     0.234 C 
ATOM     17  O   UNL     1       5.770   4.243   0.514  1.00  0.00    -0.274 OA
BRANCH  16  18
ATOM     18  C   UNL     1       4.164   3.472  -1.071  1.00  0.00     0.108 C 
ATOM     19  C   UNL     1       5.036   3.669  -2.284  1.00  0.00    -0.012 C 
ATOM     20  C   UNL     1       3.320   4.762  -1.113  1.00  0.00     0.087 C 
ATOM     21  C   UNL     1       5.004   4.934  -2.727  1.00  0.00     0.033 C 
ATOM     22  C   UNL     1       4.140   5.805  -1.875  1.00  0.00     0.205 C 
BRANCH  22  23
ATOM     23  N   UNL     1       4.979   6.631  -1.027  1.00  0.00    -0.352 N 
ATOM     24  H   UNL     1       5.612   6.037  -0.493  1.00  0.00     0.345 HD
ATOM     25  H   UNL     1       4.392   7.165  -0.386  1.00  0.00     0.345 HD
ATOM     26  H   UNL     1       5.521   7.273  -1.606  1.00  0.00     0.345 HD
ENDBRANCH  22  23
ENDBRANCH  16  18
ENDBRANCH   8  16
ENDBRANCH   7   8
ENDBRANCH   6   7
ENDBRANCH   3   6
ENDBRANCH   1   2
BRANCH   1  27
ATOM     27  C   UNL     1       2.947   4.187   3.485  1.00  0.00     0.023 C 
BRANCH  27  28
ATOM     28  C   UNL     1       3.825   5.204   2.763  1.00  0.00     0.023 C 
BRANCH  28  29
ATOM     29  C   UNL     1       3.818   6.626   3.294  1.00  0.00     0.116 C 
BRANCH  29  30
ATOM     30  N   UNL     1       5.000   7.379   2.838  1.00  0.00    -0.352 N 
ATOM     31  C   UNL     1       5.182   8.752   2.806  1.00  0.00     0.251 C 
ATOM     32  H   UNL     1       5.756   6.838   2.515  1.00  0.00     0.163 HD
ATOM     33  O   UNL     1       6.221   9.296   2.481  1.00  0.00    -0.269 OA
BRANCH  31  34
ATOM     34  C   UNL     1       4.001   9.543   3.179  1.00  0.00     0.039 A 
ATOM     35  C   UNL     1       3.823   9.803   4.543  1.00  0.00     0.014 A 
ATOM     36  C   UNL     1       2.940   9.509   2.276  1.00  0.00     0.014 A 
ATOM     37  C   UNL     1       2.536   9.792   5.059  1.00  0.00     0.010 A 
ATOM     38  C   UNL     1       1.666   9.453   2.801  1.00  0.00     0.010 A 
ATOM     39  C   UNL     1       1.481   9.503   4.197  1.00  0.00    -0.014 A 
BRANCH  39  40
ATOM     40  C   UNL     1       0.167   9.086   4.667  1.00  0.00     0.031 A 
ATOM     41  C   UNL     1      -0.986   9.988   4.477  1.00  0.00     0.074 A 
ATOM     42  C   UNL     1      -0.018   7.836   5.152  1.00  0.00     0.049 A 
ATOM     43  N   UNL     1      -2.144   9.800   5.011  1.00  0.00    -0.248 NA
ATOM     44  C   UNL     1      -0.902  11.237   3.717  1.00  0.00     0.031 C 
ATOM     45  C   UNL     1      -1.281   7.107   5.252  1.00  0.00     0.029 A 
ATOM     46  N   UNL     1       0.885   7.051   5.872  1.00  0.00    -0.354 N 
ATOM     47  C   UNL     1      -3.012  10.667   4.397  1.00  0.00     0.074 A 
ATOM     48  C   UNL     1      -2.178  11.632   3.732  1.00  0.00     0.031 C 
ATOM     49  C   UNL     1      -1.153   6.126   6.158  1.00  0.00     0.029 A 
ATOM     50  C   UNL     1       0.141   6.291   6.795  1.00  0.00     0.049 A 
ATOM     51  H   UNL     1       1.863   7.032   5.756  1.00  0.00     0.167 HD
ATOM     52  C   UNL     1      -4.334  10.352   4.372  1.00  0.00     0.037 A 
ATOM     53  C   UNL     1       0.317   6.440   8.142  1.00  0.00     0.037 A 
ATOM     54  C   UNL     1      -4.656   9.362   5.399  1.00  0.00     0.049 A 
ATOM     55  C   UNL     1      -0.901   6.949   8.883  1.00  0.00     0.074 A 
ATOM     56  C   UNL     1      -5.019   8.028   5.375  1.00  0.00     0.029 A 
ATOM     57  N   UNL     1      -4.359   9.662   6.729  1.00  0.00    -0.354 N 
ATOM     58  N   UNL     1      -1.966   7.427   8.300  1.00  0.00    -0.248 NA
ATOM     59  C   UNL     1      -1.004   6.989  10.340  1.00  0.00     0.031 C 
ATOM     60  C   UNL     1      -4.794   7.496   6.678  1.00  0.00     0.029 A 
ATOM     61  C   UNL     1      -4.356   8.519   7.503  1.00  0.00     0.049 A 
ATOM     62  H   UNL     1      -4.176  10.568   7.070  1.00  0.00     0.167 HD
ATOM     63  C   UNL     1      -2.833   7.909   9.246  1.00  0.00     0.074 A 
ATOM     64  C   UNL     1      -2.208   7.562  10.509  1.00  0.00     0.031 C 
ATOM     65  C   UNL     1      -3.974   8.584   8.911  1.00  0.00     0.037 A 
BRANCH  52  66
ATOM     66  C   UNL     1      -5.278  10.789   3.269  1.00  0.00     0.058 A 
ATOM     67  C   UNL     1      -6.661  10.532   3.366  1.00  0.00     0.135 A 
ATOM     68  C   UNL     1      -4.865  11.322   2.024  1.00  0.00     0.135 A 
ATOM     69  F   UNL     1      -7.183   9.991   4.477  1.00  0.00    -0.206 F 
ATOM     70  C   UNL     1      -7.556  10.783   2.317  1.00  0.00     0.059 A 
ATOM     71  C   UNL     1      -5.745  11.632   0.987  1.00  0.00     0.059 A 
ATOM     72  F   UNL     1      -3.576  11.499   1.709  1.00  0.00    -0.206 F 
ATOM     73  C   UNL     1      -7.088  11.334   1.129  1.00  0.00     0.060 A 
BRANCH  73  74
ATOM     74  S   UNL     1      -8.220  11.627  -0.242  1.00  0.00     0.124 S 
ATOM     75  O   UNL     1      -8.442  10.274  -0.739  1.00  0.00    -0.237 OA
ATOM     76  O   UNL     1      -9.357  12.261   0.417  1.00  0.00    -0.237 OA
ATOM     77  O   UNL     1      -7.455  12.500  -1.131  1.00  0.00    -0.744 OA
ENDBRANCH  73  74
ENDBRANCH  52  66
BRANCH  53  78
ATOM     78  C   UNL     1       1.732   6.699   8.519  1.00  0.00     0.058 A 
ATOM     79  C   UNL     1       2.646   5.641   8.358  1.00  0.00     0.135 A 
ATOM     80  C   UNL     1       2.246   8.003   8.568  1.00  0.00     0.135 A 
ATOM     81  F   UNL     1       2.203   4.373   8.316  1.00  0.00    -0.206 F 
ATOM     82  C   UNL     1       3.988   5.872   8.087  1.00  0.00     0.059 A 
ATOM     83  C   UNL     1       3.593   8.258   8.302  1.00  0.00     0.059 A 
ATOM     84  F   UNL     1       1.421   9.049   8.720  1.00  0.00    -0.206 F 
ATOM     85  C   UNL     1       4.436   7.188   7.997  1.00  0.00     0.060 A 
BRANCH  85  86
ATOM     86  S   UNL     1       6.064   7.467   7.256  1.00  0.00     0.124 S 
ATOM     87  O   UNL     1       6.954   6.924   8.276  1.00  0.00    -0.237 OA
ATOM     88  O   UNL     1       5.960   6.685   6.026  1.00  0.00    -0.237 OA
ATOM     89  O   UNL     1       6.106   8.913   7.079  1.00  0.00    -0.744 OA
ENDBRANCH  85  86
ENDBRANCH  53  78
BRANCH  65  90
ATOM     90  C   UNL     1      -4.864   9.320   9.888  1.00  0.00     0.058 A 
ATOM     91  C   UNL     1      -4.406   9.942  11.064  1.00  0.00     0.135 A 
ATOM     92  C   UNL     1      -6.231   9.526   9.586  1.00  0.00     0.135 A 
ATOM     93  F   UNL     1      -3.107   9.932  11.397  1.00  0.00    -0.206 F 
ATOM     94  C   UNL     1      -5.258  10.636  11.927  1.00  0.00     0.059 A 
ATOM     95  C   UNL     1      -7.087  10.262  10.404  1.00  0.00     0.059 A 
ATOM     96  F   UNL     1      -6.782   9.019   8.472  1.00  0.00    -0.206 F 
ATOM     97  C   UNL     1      -6.600  10.784  11.593  1.00  0.00     0.060 A 
BRANCH  97  98
ATOM     98  S   UNL     1      -7.704  11.700  12.685  1.00  0.00     0.124 S 
ATOM     99  O   UNL     1      -8.221  10.633  13.536  1.00  0.00    -0.237 OA
ATOM    100  O   UNL     1      -6.806  12.647  13.339  1.00  0.00    -0.237 OA
ATOM    101  O   UNL     1      -8.665  12.295  11.762  1.00  0.00    -0.744 OA
ENDBRANCH  97  98
ENDBRANCH  65  90
ENDBRANCH  39  40
ENDBRANCH  31  34
ENDBRANCH  29  30
ENDBRANCH  28  29
ENDBRANCH  27  28
ENDBRANCH   1  27
TORSDOF 20
