REMARK SMILES CN(CC(C)(C)O)C(=O)N[C@H]1CC[C@H](C(=O)NCCCCNC(=O)c2ccc(-c3c4nc(c(-c5c(F)cc(S(=O)(=O)[O-])cc5F)c5ccc([nH]5)c(-c5c(F)cc(S(=O)(=O)[O-])cc5F)c5nc(c(-c6c(F)cc(S(=O)(=O)[O-])cc6F)c6ccc3[nH]6)C=C5)C=C4)cc2)C1
REMARK SMILES IDX 18 1 17 2 15 3 16 4 14 6 11 7 12 8 91 9 13 10 10 11 8 12
REMARK SMILES IDX 9 13 2 15 1 16 3 17 4 18 5 19 6 20 7 21 19 23 20 24 21 25
REMARK SMILES IDX 22 26 23 27 24 29 25 30 26 31 90 32 27 33 89 34 28 35 29 36
REMARK SMILES IDX 30 37 83 38 31 39 88 40 82 41 84 42 32 43 87 44 81 45 80 46
REMARK SMILES IDX 33 48 67 49 46 50 66 51 47 52 50 53 65 54 85 55 48 56 49 57
REMARK SMILES IDX 64 59 86 60 51 61 34 62 35 63 44 64 36 65 37 66 43 67 45 68
REMARK SMILES IDX 38 69 39 70 40 71 41 72 42 73 68 74 69 75 78 76 70 77 71 78
REMARK SMILES IDX 77 79 79 80 72 81 73 82 74 83 75 84 76 85 52 86 53 87 62 88
REMARK SMILES IDX 54 89 55 90 61 91 63 92 56 93 57 94 58 95 59 96 60 97
REMARK H PARENT 17 5 10 14 7 22 22 28 84 47 50 58
REMARK Flexibility Score: inf
ROOT
ATOM      1  C   UNL     1       2.107   3.784  -4.545  1.00  0.00     0.116 C 
ENDROOT
BRANCH   1   2
ATOM      2  N   UNL     1       1.310   4.589  -5.453  1.00  0.00    -0.356 N 
ATOM      3  C   UNL     1      -0.036   4.727  -5.591  1.00  0.00     0.223 C 
ATOM      4  O   UNL     1      -0.450   5.422  -6.521  1.00  0.00    -0.275 OA
ATOM      5  H   UNL     1       1.838   5.132  -6.082  1.00  0.00     0.163 HD
BRANCH   3   6
ATOM      6  C   UNL     1      -1.003   4.171  -4.564  1.00  0.00     0.080 C 
ATOM      7  C   UNL     1      -0.976   3.876  -2.125  1.00  0.00     0.084 C 
ATOM      8  C   UNL     1      -1.146   2.499  -2.793  1.00  0.00     0.026 C 
ATOM      9  C   UNL     1      -0.739   4.860  -3.245  1.00  0.00     0.038 C 
ATOM     10  C   UNL     1      -0.996   2.679  -4.303  1.00  0.00     0.015 C 
BRANCH   7  11
ATOM     11  N   UNL     1      -2.097   4.216  -1.269  1.00  0.00    -0.335 N 
ATOM     12  C   UNL     1      -2.595   5.329  -0.703  1.00  0.00     0.317 C 
ATOM     13  O   UNL     1      -3.700   5.170  -0.167  1.00  0.00    -0.249 OA
ATOM     14  H   UNL     1      -2.635   3.423  -1.044  1.00  0.00     0.165 HD
BRANCH  12  15
ATOM     15  N   UNL     1      -2.013   6.562  -0.777  1.00  0.00    -0.325 N 
ATOM     16  C   UNL     1      -2.966   7.669  -0.787  1.00  0.00     0.148 C 
BRANCH  15  17
ATOM     17  C   UNL     1      -0.604   6.985  -0.915  1.00  0.00     0.155 C 
BRANCH  17  18
ATOM     18  C   UNL     1       0.478   6.634   0.143  1.00  0.00     0.077 C 
ATOM     19  C   UNL     1       0.442   5.247   0.772  1.00  0.00     0.043 C 
ATOM     20  C   UNL     1       1.851   6.842  -0.532  1.00  0.00     0.043 C 
BRANCH  18  21
ATOM     21  O   UNL     1       0.379   7.590   1.211  1.00  0.00    -0.389 OA
ATOM     22  H   UNL     1      -0.476   7.487   1.658  1.00  0.00     0.211 HD
ENDBRANCH  18  21
ENDBRANCH  17  18
ENDBRANCH  15  17
ENDBRANCH  12  15
ENDBRANCH   7  11
ENDBRANCH   3   6
ENDBRANCH   1   2
BRANCH   1  23
ATOM     23  C   UNL     1       2.882   2.719  -5.315  1.00  0.00     0.023 C 
BRANCH  23  24
ATOM     24  C   UNL     1       3.908   3.294  -6.293  1.00  0.00     0.023 C 
BRANCH  24  25
ATOM     25  C   UNL     1       4.939   4.219  -5.655  1.00  0.00     0.116 C 
BRANCH  25  26
ATOM     26  N   UNL     1       5.739   3.542  -4.645  1.00  0.00    -0.352 N 
ATOM     27  C   UNL     1       7.105   3.366  -4.607  1.00  0.00     0.251 C 
ATOM     28  H   UNL     1       5.238   3.159  -3.889  1.00  0.00     0.163 HD
ATOM     29  O   UNL     1       7.616   2.624  -3.786  1.00  0.00    -0.269 OA
BRANCH  27  30
ATOM     30  C   UNL     1       7.929   4.080  -5.604  1.00  0.00     0.039 A 
ATOM     31  C   UNL     1       8.807   3.355  -6.412  1.00  0.00     0.014 A 
ATOM     32  C   UNL     1       7.760   5.455  -5.782  1.00  0.00     0.014 A 
ATOM     33  C   UNL     1       9.461   4.002  -7.462  1.00  0.00     0.010 A 
ATOM     34  C   UNL     1       8.350   6.077  -6.874  1.00  0.00     0.010 A 
ATOM     35  C   UNL     1       9.204   5.357  -7.727  1.00  0.00    -0.014 A 
BRANCH  35  36
ATOM     36  C   UNL     1       9.805   6.064  -8.885  1.00  0.00     0.031 A 
ATOM     37  C   UNL     1      10.702   7.245  -8.642  1.00  0.00     0.074 A 
ATOM     38  C   UNL     1       9.446   5.730 -10.140  1.00  0.00     0.049 A 
ATOM     39  N   UNL     1      11.177   8.112  -9.496  1.00  0.00    -0.248 NA
ATOM     40  C   UNL     1      11.076   7.508  -7.243  1.00  0.00     0.031 C 
ATOM     41  C   UNL     1       8.542   4.636 -10.500  1.00  0.00     0.029 A 
ATOM     42  N   UNL     1       9.771   6.301 -11.345  1.00  0.00    -0.354 N 
ATOM     43  C   UNL     1      11.869   9.047  -8.736  1.00  0.00     0.074 A 
ATOM     44  C   UNL     1      11.719   8.661  -7.350  1.00  0.00     0.031 C 
ATOM     45  C   UNL     1       8.383   4.617 -11.833  1.00  0.00     0.029 A 
ATOM     46  C   UNL     1       9.137   5.722 -12.419  1.00  0.00     0.049 A 
ATOM     47  H   UNL     1      10.398   7.055 -11.432  1.00  0.00     0.167 HD
ATOM     48  C   UNL     1      12.576  10.122  -9.157  1.00  0.00     0.037 A 
ATOM     49  C   UNL     1       9.143   6.056 -13.725  1.00  0.00     0.037 A 
ATOM     50  C   UNL     1      12.754  10.470 -10.541  1.00  0.00     0.049 A 
ATOM     51  C   UNL     1       9.965   7.230 -14.180  1.00  0.00     0.074 A 
ATOM     52  C   UNL     1      13.524  11.486 -11.079  1.00  0.00     0.029 A 
ATOM     53  N   UNL     1      12.153   9.814 -11.606  1.00  0.00    -0.354 N 
ATOM     54  N   UNL     1      10.674   8.063 -13.457  1.00  0.00    -0.248 NA
ATOM     55  C   UNL     1       9.995   7.509 -15.622  1.00  0.00     0.031 C 
ATOM     56  C   UNL     1      13.357  11.469 -12.468  1.00  0.00     0.029 A 
ATOM     57  C   UNL     1      12.520  10.413 -12.798  1.00  0.00     0.049 A 
ATOM     58  H   UNL     1      11.554   9.037 -11.525  1.00  0.00     0.167 HD
ATOM     59  C   UNL     1      11.258   8.948 -14.356  1.00  0.00     0.074 A 
ATOM     60  C   UNL     1      10.817   8.550 -15.678  1.00  0.00     0.031 C 
ATOM     61  C   UNL     1      12.087   9.991 -14.108  1.00  0.00     0.037 A 
BRANCH  48  62
ATOM     62  C   UNL     1      13.195  10.999  -8.104  1.00  0.00     0.058 A 
ATOM     63  C   UNL     1      14.269  10.561  -7.313  1.00  0.00     0.135 A 
ATOM     64  C   UNL     1      12.701  12.294  -7.880  1.00  0.00     0.135 A 
ATOM     65  F   UNL     1      14.771   9.327  -7.476  1.00  0.00    -0.206 F 
ATOM     66  C   UNL     1      14.797  11.356  -6.301  1.00  0.00     0.059 A 
ATOM     67  C   UNL     1      13.234  13.118  -6.894  1.00  0.00     0.059 A 
ATOM     68  F   UNL     1      11.677  12.764  -8.610  1.00  0.00    -0.206 F 
ATOM     69  C   UNL     1      14.266  12.630  -6.093  1.00  0.00     0.060 A 
BRANCH  69  70
ATOM     70  S   UNL     1      14.935  13.636  -4.753  1.00  0.00     0.124 S 
ATOM     71  O   UNL     1      14.328  13.003  -3.586  1.00  0.00    -0.237 OA
ATOM     72  O   UNL     1      16.374  13.442  -4.901  1.00  0.00    -0.237 OA
ATOM     73  O   UNL     1      14.452  14.978  -5.062  1.00  0.00    -0.744 OA
ENDBRANCH  69  70
ENDBRANCH  48  62
BRANCH  49  74
ATOM     74  C   UNL     1       8.352   5.245 -14.688  1.00  0.00     0.058 A 
ATOM     75  C   UNL     1       8.983   4.347 -15.561  1.00  0.00     0.135 A 
ATOM     76  C   UNL     1       6.949   5.300 -14.706  1.00  0.00     0.135 A 
ATOM     77  F   UNL     1      10.322   4.264 -15.585  1.00  0.00    -0.206 F 
ATOM     78  C   UNL     1       8.252   3.527 -16.415  1.00  0.00     0.059 A 
ATOM     79  C   UNL     1       6.196   4.476 -15.536  1.00  0.00     0.059 A 
ATOM     80  F   UNL     1       6.299   6.131 -13.877  1.00  0.00    -0.206 F 
ATOM     81  C   UNL     1       6.858   3.591 -16.388  1.00  0.00     0.060 A 
BRANCH  81  82
ATOM     82  S   UNL     1       5.919   2.453 -17.430  1.00  0.00     0.124 S 
ATOM     83  O   UNL     1       6.122   3.030 -18.754  1.00  0.00    -0.237 OA
ATOM     84  O   UNL     1       6.591   1.182 -17.177  1.00  0.00    -0.237 OA
ATOM     85  O   UNL     1       4.563   2.552 -16.898  1.00  0.00    -0.744 OA
ENDBRANCH  81  82
ENDBRANCH  49  74
BRANCH  61  86
ATOM     86  C   UNL     1      12.620  10.763 -15.282  1.00  0.00     0.058 A 
ATOM     87  C   UNL     1      11.833  11.703 -15.963  1.00  0.00     0.135 A 
ATOM     88  C   UNL     1      13.971  10.644 -15.646  1.00  0.00     0.135 A 
ATOM     89  F   UNL     1      10.535  11.847 -15.657  1.00  0.00    -0.206 F 
ATOM     90  C   UNL     1      12.371  12.506 -16.964  1.00  0.00     0.059 A 
ATOM     91  C   UNL     1      14.534  11.452 -16.628  1.00  0.00     0.059 A 
ATOM     92  F   UNL     1      14.766   9.764 -15.018  1.00  0.00    -0.206 F 
ATOM     93  C   UNL     1      13.726  12.382 -17.281  1.00  0.00     0.060 A 
BRANCH  93  94
ATOM     94  S   UNL     1      14.433  13.493 -18.516  1.00  0.00     0.124 S 
ATOM     95  O   UNL     1      13.900  12.936 -19.754  1.00  0.00    -0.237 OA
ATOM     96  O   UNL     1      13.890  14.789 -18.118  1.00  0.00    -0.237 OA
ATOM     97  O   UNL     1      15.873  13.340 -18.326  1.00  0.00    -0.744 OA
ENDBRANCH  93  94
ENDBRANCH  61  86
ENDBRANCH  35  36
ENDBRANCH  27  30
ENDBRANCH  25  26
ENDBRANCH  24  25
ENDBRANCH  23  24
ENDBRANCH   1  23
TORSDOF 19
