REMARK SMILES Cc1ccc2c(=O)c3cccc(CC(=O)NCCCCNC(=O)c4ccc(-c5c6nc(c(-c7c(F)cc(S(=O)(=O)[O-])cc7F)c7ccc([nH]7)c(-c7c(F)cc(S(=O)(=O)[O-])cc7F)c7nc(c(-c8c(F)cc(S(=O)(=O)[O-])cc8F)c8ccc5[nH]8)C=C7)C=C6)cc4)c3oc2c1C
REMARK SMILES IDX 19 1 18 2 17 3 16 4 14 5 15 6 13 8 12 9 1 10 2 11 3 12 93 13
REMARK SMILES IDX 4 14 92 15 94 16 5 17 91 18 6 19 90 20 7 21 8 22 9 23 11 24
REMARK SMILES IDX 10 25 20 26 21 27 22 28 23 30 24 31 25 32 89 33 26 34 88 35
REMARK SMILES IDX 27 36 28 37 29 38 82 39 30 40 87 41 81 42 83 43 31 44 86 45
REMARK SMILES IDX 80 46 79 47 32 49 66 50 45 51 65 52 46 53 49 54 64 55 84 56
REMARK SMILES IDX 47 57 48 58 63 60 85 61 50 62 33 63 34 64 43 65 35 66 36 67
REMARK SMILES IDX 42 68 44 69 37 70 38 71 39 72 40 73 41 74 67 75 68 76 77 77
REMARK SMILES IDX 69 78 70 79 76 80 78 81 71 82 72 83 73 84 74 85 75 86 51 87
REMARK SMILES IDX 52 88 61 89 53 90 54 91 60 92 62 93 55 94 56 95 57 96 58 97
REMARK SMILES IDX 59 98
REMARK H PARENT 16 7 21 29 83 48 49 59
REMARK Flexibility Score: inf
ROOT
ATOM      1  C   UNL     1       2.627   2.125   8.201  1.00  0.00     0.023 C 
ENDROOT
BRANCH   1   2
ATOM      2  C   UNL     1       1.108   2.140   8.377  1.00  0.00     0.023 C 
BRANCH   2   3
ATOM      3  C   UNL     1       0.436   3.482   8.087  1.00  0.00     0.116 C 
BRANCH   3   4
ATOM      4  N   UNL     1       0.511   3.849   6.687  1.00  0.00    -0.356 N 
ATOM      5  C   UNL     1      -0.436   3.733   5.710  1.00  0.00     0.224 C 
ATOM      6  O   UNL     1      -0.175   4.176   4.589  1.00  0.00    -0.275 OA
ATOM      7  H   UNL     1       1.368   4.238   6.399  1.00  0.00     0.163 HD
BRANCH   5   8
ATOM      8  C   UNL     1      -1.806   3.154   6.025  1.00  0.00     0.139 C 
BRANCH   8   9
ATOM      9  C   UNL     1      -1.815   1.696   6.433  1.00  0.00     0.005 A 
ATOM     10  C   UNL     1       0.962  -0.044  -0.106  1.00  0.00     0.045 C 
ATOM     11  C   UNL     1       0.495  -0.425   1.274  1.00  0.00    -0.044 A 
ATOM     12  C   UNL     1       0.555  -1.780   1.643  1.00  0.00     0.005 A 
ATOM     13  C   UNL     1       0.046   0.532   2.214  1.00  0.00    -0.005 A 
ATOM     14  C   UNL     1       0.147  -2.197   2.907  1.00  0.00     0.016 A 
ATOM     15  C   UNL     1      -0.384   0.096   3.487  1.00  0.00     0.141 A 
ATOM     16  C   UNL     1       0.016   2.008   1.907  1.00  0.00     0.049 C 
ATOM     17  C   UNL     1      -0.330  -1.256   3.819  1.00  0.00     0.066 A 
ATOM     18  O   UNL     1      -0.850   1.060   4.356  1.00  0.00    -0.455 OA
ATOM     19  C   UNL     1      -0.794  -1.684   5.144  1.00  0.00     0.200 A 
ATOM     20  C   UNL     1      -1.316   0.684   5.592  1.00  0.00     0.142 A 
ATOM     21  O   UNL     1      -0.774  -2.860   5.487  1.00  0.00    -0.288 OA
ATOM     22  C   UNL     1      -1.312  -0.639   6.035  1.00  0.00     0.066 A 
ATOM     23  C   UNL     1      -1.800  -0.977   7.301  1.00  0.00     0.016 A 
ATOM     24  C   UNL     1      -2.343   1.339   7.689  1.00  0.00     0.008 A 
ATOM     25  C   UNL     1      -2.323   0.014   8.125  1.00  0.00     0.001 A 
ENDBRANCH   8   9
ENDBRANCH   5   8
ENDBRANCH   3   4
ENDBRANCH   2   3
ENDBRANCH   1   2
BRANCH   1  26
ATOM     26  C   UNL     1       3.397   3.119   9.062  1.00  0.00     0.116 C 
BRANCH  26  27
ATOM     27  N   UNL     1       3.200   2.932  10.493  1.00  0.00    -0.352 N 
ATOM     28  C   UNL     1       4.110   3.118  11.510  1.00  0.00     0.251 C 
ATOM     29  H   UNL     1       2.303   2.634  10.768  1.00  0.00     0.163 HD
ATOM     30  O   UNL     1       3.813   2.835  12.667  1.00  0.00    -0.269 OA
BRANCH  28  31
ATOM     31  C   UNL     1       5.465   3.613  11.182  1.00  0.00     0.039 A 
ATOM     32  C   UNL     1       5.630   4.726  10.356  1.00  0.00     0.014 A 
ATOM     33  C   UNL     1       6.577   2.906  11.646  1.00  0.00     0.014 A 
ATOM     34  C   UNL     1       6.892   5.026   9.855  1.00  0.00     0.010 A 
ATOM     35  C   UNL     1       7.855   3.257  11.199  1.00  0.00     0.010 A 
ATOM     36  C   UNL     1       8.015   4.283  10.254  1.00  0.00    -0.014 A 
BRANCH  36  37
ATOM     37  C   UNL     1       9.337   4.574   9.640  1.00  0.00     0.031 A 
ATOM     38  C   UNL     1      10.003   3.565   8.740  1.00  0.00     0.074 A 
ATOM     39  C   UNL     1       9.904   5.780   9.834  1.00  0.00     0.049 A 
ATOM     40  N   UNL     1      11.139   3.659   8.096  1.00  0.00    -0.248 NA
ATOM     41  C   UNL     1       9.305   2.285   8.537  1.00  0.00     0.031 C 
ATOM     42  C   UNL     1       9.347   6.848  10.667  1.00  0.00     0.029 A 
ATOM     43  N   UNL     1      11.053   6.324   9.321  1.00  0.00    -0.354 N 
ATOM     44  C   UNL     1      11.301   2.450   7.428  1.00  0.00     0.074 A 
ATOM     45  C   UNL     1      10.159   1.627   7.764  1.00  0.00     0.031 C 
ATOM     46  C   UNL     1      10.124   7.936  10.563  1.00  0.00     0.029 A 
ATOM     47  C   UNL     1      11.262   7.628   9.703  1.00  0.00     0.049 A 
ATOM     48  H   UNL     1      11.670   5.828   8.735  1.00  0.00     0.167 HD
ATOM     49  C   UNL     1      12.303   2.067   6.601  1.00  0.00     0.037 A 
ATOM     50  C   UNL     1      12.260   8.480   9.401  1.00  0.00     0.037 A 
ATOM     51  C   UNL     1      13.425   2.896   6.246  1.00  0.00     0.049 A 
ATOM     52  C   UNL     1      13.375   8.020   8.508  1.00  0.00     0.074 A 
ATOM     53  C   UNL     1      14.483   2.599   5.404  1.00  0.00     0.029 A 
ATOM     54  N   UNL     1      13.632   4.188   6.706  1.00  0.00    -0.354 N 
ATOM     55  N   UNL     1      13.520   6.867   7.901  1.00  0.00    -0.248 NA
ATOM     56  C   UNL     1      14.470   8.970   8.270  1.00  0.00     0.031 C 
ATOM     57  C   UNL     1      15.346   3.701   5.379  1.00  0.00     0.029 A 
ATOM     58  C   UNL     1      14.808   4.697   6.178  1.00  0.00     0.049 A 
ATOM     59  H   UNL     1      13.032   4.673   7.317  1.00  0.00     0.167 HD
ATOM     60  C   UNL     1      14.722   6.951   7.209  1.00  0.00     0.074 A 
ATOM     61  C   UNL     1      15.254   8.277   7.455  1.00  0.00     0.031 C 
ATOM     62  C   UNL     1      15.331   6.013   6.444  1.00  0.00     0.037 A 
BRANCH  49  63
ATOM     63  C   UNL     1      12.238   0.679   6.024  1.00  0.00     0.058 A 
ATOM     64  C   UNL     1      11.348   0.354   4.990  1.00  0.00     0.135 A 
ATOM     65  C   UNL     1      13.107  -0.325   6.483  1.00  0.00     0.135 A 
ATOM     66  F   UNL     1      10.486   1.272   4.526  1.00  0.00    -0.206 F 
ATOM     67  C   UNL     1      11.307  -0.925   4.442  1.00  0.00     0.059 A 
ATOM     68  C   UNL     1      13.097  -1.605   5.936  1.00  0.00     0.059 A 
ATOM     69  F   UNL     1      13.977  -0.065   7.472  1.00  0.00    -0.206 F 
ATOM     70  C   UNL     1      12.184  -1.898   4.924  1.00  0.00     0.060 A 
BRANCH  70  71
ATOM     71  S   UNL     1      12.121  -3.551   4.200  1.00  0.00     0.124 S 
ATOM     72  O   UNL     1      10.886  -4.074   4.779  1.00  0.00    -0.237 OA
ATOM     73  O   UNL     1      12.078  -3.266   2.770  1.00  0.00    -0.237 OA
ATOM     74  O   UNL     1      13.351  -4.178   4.675  1.00  0.00    -0.744 OA
ENDBRANCH  70  71
ENDBRANCH  49  63
BRANCH  50  75
ATOM     75  C   UNL     1      12.234   9.858   9.952  1.00  0.00     0.058 A 
ATOM     76  C   UNL     1      11.933  10.954   9.133  1.00  0.00     0.135 A 
ATOM     77  C   UNL     1      12.451  10.097  11.318  1.00  0.00     0.135 A 
ATOM     78  F   UNL     1      11.725  10.773   7.819  1.00  0.00    -0.206 F 
ATOM     79  C   UNL     1      11.840  12.242   9.648  1.00  0.00     0.059 A 
ATOM     80  C   UNL     1      12.343  11.373  11.861  1.00  0.00     0.059 A 
ATOM     81  F   UNL     1      12.729   9.076  12.143  1.00  0.00    -0.206 F 
ATOM     82  C   UNL     1      12.038  12.440  11.017  1.00  0.00     0.060 A 
BRANCH  82  83
ATOM     83  S   UNL     1      11.827  14.101  11.692  1.00  0.00     0.124 S 
ATOM     84  O   UNL     1      13.049  14.758  11.244  1.00  0.00    -0.237 OA
ATOM     85  O   UNL     1      10.593  14.540  11.047  1.00  0.00    -0.237 OA
ATOM     86  O   UNL     1      11.723  13.867  13.129  1.00  0.00    -0.744 OA
ENDBRANCH  82  83
ENDBRANCH  50  75
BRANCH  62  87
ATOM     87  C   UNL     1      16.646   6.382   5.821  1.00  0.00     0.058 A 
ATOM     88  C   UNL     1      17.827   6.410   6.577  1.00  0.00     0.135 A 
ATOM     89  C   UNL     1      16.736   6.654   4.447  1.00  0.00     0.135 A 
ATOM     90  F   UNL     1      17.790   6.165   7.896  1.00  0.00    -0.206 F 
ATOM     91  C   UNL     1      19.054   6.710   5.995  1.00  0.00     0.059 A 
ATOM     92  C   UNL     1      17.956   6.938   3.840  1.00  0.00     0.059 A 
ATOM     93  F   UNL     1      15.635   6.632   3.679  1.00  0.00    -0.206 F 
ATOM     94  C   UNL     1      19.108   6.971   4.625  1.00  0.00     0.060 A 
BRANCH  94  95
ATOM     95  S   UNL     1      20.712   7.322   3.874  1.00  0.00     0.124 S 
ATOM     96  O   UNL     1      20.957   8.687   4.328  1.00  0.00    -0.237 OA
ATOM     97  O   UNL     1      21.566   6.295   4.464  1.00  0.00    -0.237 OA
ATOM     98  O   UNL     1      20.458   7.171   2.444  1.00  0.00    -0.744 OA
ENDBRANCH  94  95
ENDBRANCH  62  87
ENDBRANCH  36  37
ENDBRANCH  28  31
ENDBRANCH  26  27
ENDBRANCH   1  26
TORSDOF 15
