REMARK SMILES O=C(NCCCCNC(=O)[C@@H]1CCCC[C@@H]1C(=O)Nc1cccc(C(F)(F)F)c1)c1ccc(-c2c3nc(c(-c4c(F)cc(S(=O)(=O)[O-])cc4F)c4ccc([nH]4)c(-c4c(F)cc(S(=O)(=O)[O-])cc4F)c4nc(c(-c5c(F)cc(S(=O)(=O)[O-])cc5F)c5ccc2[nH]5)C=C4)C=C3)cc1
REMARK SMILES IDX 5 1 4 2 3 3 1 4 2 5 30 7 31 8 95 9 32 10 94 11 33 12 34 13
REMARK SMILES IDX 35 14 88 15 36 16 93 17 87 18 89 19 37 20 92 21 86 22 85 23
REMARK SMILES IDX 38 25 72 26 51 27 71 28 52 29 55 30 70 31 90 32 53 33 54 34
REMARK SMILES IDX 69 36 91 37 56 38 39 39 40 40 49 41 41 42 42 43 48 44 50 45
REMARK SMILES IDX 43 46 44 47 45 48 46 49 47 50 73 51 74 52 83 53 75 54 76 55
REMARK SMILES IDX 82 56 84 57 77 58 78 59 79 60 80 61 81 62 57 63 58 64 67 65
REMARK SMILES IDX 59 66 60 67 66 68 68 69 61 70 62 71 63 72 64 73 65 74 6 75
REMARK SMILES IDX 7 76 8 77 9 78 10 80 11 81 12 82 16 83 13 84 15 85 14 86
REMARK SMILES IDX 17 87 18 88 19 89 20 91 21 92 29 93 22 94 24 95 23 96 25 97
REMARK SMILES IDX 26 98 27 99 28 100
REMARK H PARENT 3 6 89 24 55 35 8 79 19 90
REMARK Flexibility Score: inf
ROOT
ATOM      1  C   UNL     1       4.193   2.696  -0.822  1.00  0.00     0.023 C 
ENDROOT
BRANCH   1   2
ATOM      2  C   UNL     1       4.145   1.471   0.086  1.00  0.00     0.116 C 
BRANCH   2   3
ATOM      3  N   UNL     1       2.784   1.028   0.315  1.00  0.00    -0.352 N 
ATOM      4  O   UNL     1       0.962  -0.264   0.054  1.00  0.00    -0.269 OA
ATOM      5  C   UNL     1       2.194  -0.171   0.004  1.00  0.00     0.251 C 
ATOM      6  H   UNL     1       2.198   1.684   0.758  1.00  0.00     0.163 HD
BRANCH   5   7
ATOM      7  C   UNL     1       3.007  -1.343  -0.386  1.00  0.00     0.039 A 
ATOM      8  C   UNL     1       4.184  -1.662   0.297  1.00  0.00     0.014 A 
ATOM      9  C   UNL     1       2.542  -2.184  -1.401  1.00  0.00     0.014 A 
ATOM     10  C   UNL     1       4.935  -2.770  -0.089  1.00  0.00     0.010 A 
ATOM     11  C   UNL     1       3.263  -3.333  -1.746  1.00  0.00     0.010 A 
ATOM     12  C   UNL     1       4.470  -3.631  -1.097  1.00  0.00    -0.014 A 
BRANCH  12  13
ATOM     13  C   UNL     1       5.206  -4.890  -1.383  1.00  0.00     0.031 A 
ATOM     14  C   UNL     1       5.896  -5.112  -2.700  1.00  0.00     0.074 A 
ATOM     15  C   UNL     1       5.246  -5.841  -0.428  1.00  0.00     0.049 A 
ATOM     16  N   UNL     1       6.584  -6.151  -3.100  1.00  0.00    -0.248 NA
ATOM     17  C   UNL     1       5.797  -4.037  -3.699  1.00  0.00     0.031 C 
ATOM     18  C   UNL     1       4.584  -5.753   0.877  1.00  0.00     0.029 A 
ATOM     19  N   UNL     1       5.870  -7.062  -0.398  1.00  0.00    -0.354 N 
ATOM     20  C   UNL     1       6.985  -5.868  -4.399  1.00  0.00     0.074 A 
ATOM     21  C   UNL     1       6.450  -4.563  -4.729  1.00  0.00     0.031 C 
ATOM     22  C   UNL     1       4.864  -6.854   1.590  1.00  0.00     0.029 A 
ATOM     23  C   UNL     1       5.683  -7.747   0.779  1.00  0.00     0.049 A 
ATOM     24  H   UNL     1       6.401  -7.414  -1.149  1.00  0.00     0.167 HD
ATOM     25  C   UNL     1       7.735  -6.625  -5.236  1.00  0.00     0.037 A 
ATOM     26  C   UNL     1       6.111  -8.965   1.162  1.00  0.00     0.037 A 
ATOM     27  C   UNL     1       8.284  -7.913  -4.893  1.00  0.00     0.049 A 
ATOM     28  C   UNL     1       6.947  -9.777   0.216  1.00  0.00     0.074 A 
ATOM     29  C   UNL     1       9.102  -8.730  -5.657  1.00  0.00     0.029 A 
ATOM     30  N   UNL     1       8.070  -8.575  -3.694  1.00  0.00    -0.354 N 
ATOM     31  N   UNL     1       7.355  -9.469  -0.991  1.00  0.00    -0.248 NA
ATOM     32  C   UNL     1       7.378 -11.102   0.681  1.00  0.00     0.031 C 
ATOM     33  C   UNL     1       9.355  -9.899  -4.931  1.00  0.00     0.029 A 
ATOM     34  C   UNL     1       8.724  -9.797  -3.703  1.00  0.00     0.049 A 
ATOM     35  H   UNL     1       7.532  -8.228  -2.946  1.00  0.00     0.167 HD
ATOM     36  C   UNL     1       8.096 -10.559  -1.428  1.00  0.00     0.074 A 
ATOM     37  C   UNL     1       8.099 -11.525  -0.348  1.00  0.00     0.031 C 
ATOM     38  C   UNL     1       8.714 -10.746  -2.620  1.00  0.00     0.037 A 
BRANCH  25  39
ATOM     39  C   UNL     1       8.014  -6.092  -6.612  1.00  0.00     0.058 A 
ATOM     40  C   UNL     1       8.963  -5.082  -6.831  1.00  0.00     0.135 A 
ATOM     41  C   UNL     1       7.385  -6.655  -7.735  1.00  0.00     0.135 A 
ATOM     42  F   UNL     1       9.582  -4.501  -5.791  1.00  0.00    -0.206 F 
ATOM     43  C   UNL     1       9.275  -4.644  -8.114  1.00  0.00     0.059 A 
ATOM     44  C   UNL     1       7.694  -6.245  -9.028  1.00  0.00     0.059 A 
ATOM     45  F   UNL     1       6.468  -7.624  -7.580  1.00  0.00    -0.206 F 
ATOM     46  C   UNL     1       8.638  -5.234  -9.207  1.00  0.00     0.060 A 
BRANCH  46  47
ATOM     47  S   UNL     1       9.079  -4.681 -10.869  1.00  0.00     0.124 S 
ATOM     48  O   UNL     1       8.397  -3.393 -10.937  1.00  0.00    -0.237 OA
ATOM     49  O   UNL     1      10.536  -4.623 -10.804  1.00  0.00    -0.237 OA
ATOM     50  O   UNL     1       8.535  -5.726 -11.731  1.00  0.00    -0.744 OA
ENDBRANCH  46  47
ENDBRANCH  25  39
BRANCH  26  51
ATOM     51  C   UNL     1       5.744  -9.491   2.501  1.00  0.00     0.058 A 
ATOM     52  C   UNL     1       6.699  -9.603   3.521  1.00  0.00     0.135 A 
ATOM     53  C   UNL     1       4.426  -9.877   2.790  1.00  0.00     0.135 A 
ATOM     54  F   UNL     1       7.972  -9.248   3.289  1.00  0.00    -0.206 F 
ATOM     55  C   UNL     1       6.366 -10.095   4.778  1.00  0.00     0.059 A 
ATOM     56  C   UNL     1       4.063 -10.349   4.047  1.00  0.00     0.059 A 
ATOM     57  F   UNL     1       3.472  -9.769   1.852  1.00  0.00    -0.206 F 
ATOM     58  C   UNL     1       5.044 -10.466   5.031  1.00  0.00     0.060 A 
BRANCH  58  59
ATOM     59  S   UNL     1       4.603 -11.059   6.678  1.00  0.00     0.124 S 
ATOM     60  O   UNL     1       5.055 -12.444   6.620  1.00  0.00    -0.237 OA
ATOM     61  O   UNL     1       5.371 -10.172   7.545  1.00  0.00    -0.237 OA
ATOM     62  O   UNL     1       3.156 -10.866   6.724  1.00  0.00    -0.744 OA
ENDBRANCH  58  59
ENDBRANCH  26  51
BRANCH  38  63
ATOM     63  C   UNL     1       9.454 -12.039  -2.808  1.00  0.00     0.058 A 
ATOM     64  C   UNL     1       8.773 -13.241  -3.050  1.00  0.00     0.135 A 
ATOM     65  C   UNL     1      10.856 -12.069  -2.775  1.00  0.00     0.135 A 
ATOM     66  F   UNL     1       7.431 -13.264  -3.082  1.00  0.00    -0.206 F 
ATOM     67  C   UNL     1       9.458 -14.438  -3.229  1.00  0.00     0.059 A 
ATOM     68  C   UNL     1      11.563 -13.251  -2.973  1.00  0.00     0.059 A 
ATOM     69  F   UNL     1      11.553 -10.943  -2.554  1.00  0.00    -0.206 F 
ATOM     70  C   UNL     1      10.853 -14.433  -3.186  1.00  0.00     0.060 A 
BRANCH  70  71
ATOM     71  S   UNL     1      11.737 -15.987  -3.441  1.00  0.00     0.124 S 
ATOM     72  O   UNL     1      11.591 -16.624  -2.137  1.00  0.00    -0.237 OA
ATOM     73  O   UNL     1      10.988 -16.601  -4.534  1.00  0.00    -0.237 OA
ATOM     74  O   UNL     1      13.088 -15.554  -3.783  1.00  0.00    -0.744 OA
ENDBRANCH  70  71
ENDBRANCH  38  63
ENDBRANCH  12  13
ENDBRANCH   5   7
ENDBRANCH   2   3
ENDBRANCH   1   2
BRANCH   1  75
ATOM     75  C   UNL     1       3.539   3.962  -0.242  1.00  0.00     0.023 C 
BRANCH  75  76
ATOM     76  C   UNL     1       4.090   4.410   1.118  1.00  0.00     0.116 C 
BRANCH  76  77
ATOM     77  N   UNL     1       5.523   4.615   1.034  1.00  0.00    -0.356 N 
ATOM     78  C   UNL     1       6.094   5.813   0.701  1.00  0.00     0.223 C 
ATOM     79  H   UNL     1       6.115   3.853   1.228  1.00  0.00     0.163 HD
ATOM     80  O   UNL     1       6.718   5.918  -0.350  1.00  0.00    -0.275 OA
BRANCH  78  81
ATOM     81  C   UNL     1       5.925   6.948   1.681  1.00  0.00     0.091 C 
ATOM     82  C   UNL     1       6.568   8.254   1.211  1.00  0.00     0.014 C 
ATOM     83  C   UNL     1       6.350   6.627   3.127  1.00  0.00     0.091 C 
ATOM     84  C   UNL     1       6.034   9.417   2.044  1.00  0.00     0.001 C 
ATOM     85  C   UNL     1       5.736   7.764   3.998  1.00  0.00     0.014 C 
ATOM     86  C   UNL     1       6.145   9.180   3.549  1.00  0.00     0.001 C 
BRANCH  83  87
ATOM     87  C   UNL     1       7.860   6.510   3.478  1.00  0.00     0.228 C 
ATOM     88  O   UNL     1       8.457   7.417   4.070  1.00  0.00    -0.274 OA
ATOM     89  N   UNL     1       8.555   5.343   3.355  1.00  0.00    -0.326 N 
ATOM     90  H   UNL     1       9.241   5.206   4.048  1.00  0.00     0.169 HD
BRANCH  89  91
ATOM     91  C   UNL     1       8.468   4.309   2.427  1.00  0.00     0.041 A 
ATOM     92  C   UNL     1       8.311   3.004   2.888  1.00  0.00     0.026 A 
ATOM     93  C   UNL     1       8.761   4.536   1.082  1.00  0.00     0.039 A 
ATOM     94  C   UNL     1       8.317   1.938   1.986  1.00  0.00     0.003 A 
ATOM     95  C   UNL     1       8.745   3.478   0.157  1.00  0.00     0.058 A 
ATOM     96  C   UNL     1       8.513   2.175   0.625  1.00  0.00     0.013 A 
BRANCH  95  97
ATOM     97  C   UNL     1       8.931   3.723  -1.324  1.00  0.00     0.416 C 
ATOM     98  F   UNL     1       9.961   2.994  -1.837  1.00  0.00    -0.166 F 
ATOM     99  F   UNL     1       7.830   3.363  -2.042  1.00  0.00    -0.166 F 
ATOM    100  F   UNL     1       9.200   5.016  -1.650  1.00  0.00    -0.166 F 
ENDBRANCH  95  97
ENDBRANCH  89  91
ENDBRANCH  83  87
ENDBRANCH  78  81
ENDBRANCH  76  77
ENDBRANCH  75  76
ENDBRANCH   1  75
TORSDOF 17
