REMARK SMILES O=C(NCCCCNC(=O)c1ccccc1NC(=S)NC(=O)c1ccc2ccccc2c1)c1ccc(-c2c3nc(c(-c4c(F)cc(S(=O)(=O)[O-])cc4F)c4ccc([nH]4)c(-c4c(F)cc(S(=O)(=O)[O-])cc4F)c4nc(c(-c5c(F)cc(S(=O)(=O)[O-])cc5F)c5ccc2[nH]5)C=C4)C=C3)cc1
REMARK SMILES IDX 6 1 5 2 4 3 3 4 1 5 2 6 33 8 34 9 98 10 35 11 97 12 36 13
REMARK SMILES IDX 37 14 38 15 91 16 39 17 96 18 90 19 92 20 40 21 95 22 89 23
REMARK SMILES IDX 88 24 41 26 75 27 54 28 74 29 55 30 58 31 73 32 93 33 56 34
REMARK SMILES IDX 57 35 72 37 94 38 59 39 42 40 43 41 52 42 44 43 45 44 51 45
REMARK SMILES IDX 53 46 46 47 47 48 48 49 49 50 50 51 76 52 77 53 86 54 78 55
REMARK SMILES IDX 79 56 85 57 87 58 80 59 81 60 82 61 83 62 84 63 60 64 61 65
REMARK SMILES IDX 70 66 62 67 63 68 69 69 71 70 64 71 65 72 66 73 67 74 68 75
REMARK SMILES IDX 7 76 8 77 9 78 10 80 11 81 12 82 16 83 13 84 15 85 14 86
REMARK SMILES IDX 17 87 18 89 19 90 20 91 21 92 22 94 23 95 24 96 32 97 25 98
REMARK SMILES IDX 31 99 26 100 30 101 27 102 29 103 28 104
REMARK H PARENT 3 7 92 25 58 36 8 79 17 88 20 93
REMARK Flexibility Score: inf
ROOT
ATOM      1  C   UNL     1       4.617  -3.643   0.414  1.00  0.00     0.023 C 
ENDROOT
BRANCH   1   2
ATOM      2  C   UNL     1       4.909  -2.249   0.963  1.00  0.00     0.023 C 
BRANCH   2   3
ATOM      3  C   UNL     1       4.582  -1.122  -0.006  1.00  0.00     0.116 C 
BRANCH   3   4
ATOM      4  N   UNL     1       3.155  -0.989  -0.238  1.00  0.00    -0.352 N 
ATOM      5  O   UNL     1       1.141   0.021  -0.078  1.00  0.00    -0.269 OA
ATOM      6  C   UNL     1       2.361   0.107   0.001  1.00  0.00     0.251 C 
ATOM      7  H   UNL     1       2.702  -1.779  -0.613  1.00  0.00     0.163 HD
BRANCH   6   8
ATOM      8  C   UNL     1       3.011   1.372   0.401  1.00  0.00     0.039 A 
ATOM      9  C   UNL     1       4.134   1.829  -0.292  1.00  0.00     0.014 A 
ATOM     10  C   UNL     1       2.549   2.050   1.529  1.00  0.00     0.014 A 
ATOM     11  C   UNL     1       4.906   2.843   0.254  1.00  0.00     0.010 A 
ATOM     12  C   UNL     1       3.260   3.155   2.002  1.00  0.00     0.010 A 
ATOM     13  C   UNL     1       4.469   3.534   1.396  1.00  0.00    -0.014 A 
BRANCH  13  14
ATOM     14  C   UNL     1       5.266   4.682   1.900  1.00  0.00     0.031 A 
ATOM     15  C   UNL     1       5.849   4.683   3.287  1.00  0.00     0.074 A 
ATOM     16  C   UNL     1       5.474   5.730   1.078  1.00  0.00     0.049 A 
ATOM     17  N   UNL     1       6.570   5.604   3.876  1.00  0.00    -0.248 NA
ATOM     18  C   UNL     1       5.582   3.506   4.128  1.00  0.00     0.031 C 
ATOM     19  C   UNL     1       4.959   5.841  -0.290  1.00  0.00     0.029 A 
ATOM     20  N   UNL     1       6.180   6.890   1.259  1.00  0.00    -0.354 N 
ATOM     21  C   UNL     1       6.821   5.133   5.160  1.00  0.00     0.074 A 
ATOM     22  C   UNL     1       6.144   3.859   5.276  1.00  0.00     0.031 C 
ATOM     23  C   UNL     1       5.410   6.974  -0.841  1.00  0.00     0.029 A 
ATOM     24  C   UNL     1       6.174   7.711   0.157  1.00  0.00     0.049 A 
ATOM     25  H   UNL     1       6.647   7.113   2.097  1.00  0.00     0.167 HD
ATOM     26  C   UNL     1       7.551   5.711   6.147  1.00  0.00     0.037 A 
ATOM     27  C   UNL     1       6.703   8.934  -0.028  1.00  0.00     0.037 A 
ATOM     28  C   UNL     1       8.213   6.986   6.016  1.00  0.00     0.049 A 
ATOM     29  C   UNL     1       7.459   9.576   1.098  1.00  0.00     0.074 A 
ATOM     30  C   UNL     1       9.006   7.643   6.941  1.00  0.00     0.029 A 
ATOM     31  N   UNL     1       8.145   7.810   4.899  1.00  0.00    -0.354 N 
ATOM     32  N   UNL     1       7.717   9.102   2.294  1.00  0.00    -0.248 NA
ATOM     33  C   UNL     1       7.997  10.918   0.850  1.00  0.00     0.031 C 
ATOM     34  C   UNL     1       9.347   8.894   6.418  1.00  0.00     0.029 A 
ATOM     35  C   UNL     1       8.848   8.983   5.129  1.00  0.00     0.049 A 
ATOM     36  H   UNL     1       7.667   7.593   4.066  1.00  0.00     0.167 HD
ATOM     37  C   UNL     1       8.484  10.072   2.928  1.00  0.00     0.074 A 
ATOM     38  C   UNL     1       8.650  11.155   1.979  1.00  0.00     0.031 C 
ATOM     39  C   UNL     1       9.011  10.059   4.178  1.00  0.00     0.037 A 
BRANCH  26  40
ATOM     40  C   UNL     1       7.631   4.993   7.472  1.00  0.00     0.058 A 
ATOM     41  C   UNL     1       8.284   3.757   7.619  1.00  0.00     0.135 A 
ATOM     42  C   UNL     1       7.055   5.560   8.622  1.00  0.00     0.135 A 
ATOM     43  F   UNL     1       8.849   3.159   6.558  1.00  0.00    -0.206 F 
ATOM     44  C   UNL     1       8.314   3.088   8.840  1.00  0.00     0.059 A 
ATOM     45  C   UNL     1       7.108   4.928   9.861  1.00  0.00     0.059 A 
ATOM     46  F   UNL     1       6.424   6.743   8.549  1.00  0.00    -0.206 F 
ATOM     47  C   UNL     1       7.719   3.680   9.955  1.00  0.00     0.060 A 
BRANCH  47  48
ATOM     48  S   UNL     1       7.738   2.783  11.521  1.00  0.00     0.124 S 
ATOM     49  O   UNL     1       6.827   1.679  11.234  1.00  0.00    -0.237 OA
ATOM     50  O   UNL     1       9.146   2.422  11.655  1.00  0.00    -0.237 OA
ATOM     51  O   UNL     1       7.250   3.764  12.484  1.00  0.00    -0.744 OA
ENDBRANCH  47  48
ENDBRANCH  26  40
BRANCH  27  52
ATOM     52  C   UNL     1       6.542   9.614  -1.341  1.00  0.00     0.058 A 
ATOM     53  C   UNL     1       7.643   9.823  -2.183  1.00  0.00     0.135 A 
ATOM     54  C   UNL     1       5.280  10.029  -1.798  1.00  0.00     0.135 A 
ATOM     55  F   UNL     1       8.869   9.448  -1.789  1.00  0.00    -0.206 F 
ATOM     56  C   UNL     1       7.503  10.427  -3.427  1.00  0.00     0.059 A 
ATOM     57  C   UNL     1       5.109  10.604  -3.052  1.00  0.00     0.059 A 
ATOM     58  F   UNL     1       4.191   9.835  -1.037  1.00  0.00    -0.206 F 
ATOM     59  C   UNL     1       6.229  10.805  -3.857  1.00  0.00     0.060 A 
BRANCH  59  60
ATOM     60  S   UNL     1       6.054  11.525  -5.503  1.00  0.00     0.124 S 
ATOM     61  O   UNL     1       6.723  12.810  -5.335  1.00  0.00    -0.237 OA
ATOM     62  O   UNL     1       6.748  10.547  -6.335  1.00  0.00    -0.237 OA
ATOM     63  O   UNL     1       4.608  11.586  -5.692  1.00  0.00    -0.744 OA
ENDBRANCH  59  60
ENDBRANCH  27  52
BRANCH  39  64
ATOM     64  C   UNL     1       9.875  11.227   4.578  1.00  0.00     0.058 A 
ATOM     65  C   UNL     1       9.354  12.517   4.774  1.00  0.00     0.135 A 
ATOM     66  C   UNL     1      11.249  11.039   4.803  1.00  0.00     0.135 A 
ATOM     67  F   UNL     1       8.050  12.759   4.567  1.00  0.00    -0.206 F 
ATOM     68  C   UNL     1      10.169  13.582   5.145  1.00  0.00     0.059 A 
ATOM     69  C   UNL     1      12.075  12.080   5.213  1.00  0.00     0.059 A 
ATOM     70  F   UNL     1      11.802   9.827   4.639  1.00  0.00    -0.206 F 
ATOM     71  C   UNL     1      11.529  13.352   5.367  1.00  0.00     0.060 A 
BRANCH  71  72
ATOM     72  S   UNL     1      12.569  14.737   5.874  1.00  0.00     0.124 S 
ATOM     73  O   UNL     1      12.611  15.537   4.654  1.00  0.00    -0.237 OA
ATOM     74  O   UNL     1      11.808  15.307   6.981  1.00  0.00    -0.237 OA
ATOM     75  O   UNL     1      13.828  14.099   6.249  1.00  0.00    -0.744 OA
ENDBRANCH  71  72
ENDBRANCH  39  64
ENDBRANCH  13  14
ENDBRANCH   6   8
ENDBRANCH   3   4
ENDBRANCH   2   3
ENDBRANCH   1   2
BRANCH   1  76
ATOM     76  C   UNL     1       5.129  -3.846  -1.003  1.00  0.00     0.116 C 
BRANCH  76  77
ATOM     77  N   UNL     1       6.458  -3.291  -1.183  1.00  0.00    -0.352 N 
ATOM     78  C   UNL     1       7.385  -3.519  -2.163  1.00  0.00     0.253 C 
ATOM     79  H   UNL     1       6.736  -2.648  -0.491  1.00  0.00     0.163 HD
ATOM     80  O   UNL     1       8.447  -2.964  -2.174  1.00  0.00    -0.269 OA
BRANCH  78  81
ATOM     81  C   UNL     1       7.207  -4.729  -2.940  1.00  0.00     0.063 A 
ATOM     82  C   UNL     1       7.918  -5.697  -2.253  1.00  0.00     0.016 A 
ATOM     83  C   UNL     1       6.211  -5.090  -3.878  1.00  0.00     0.053 A 
ATOM     84  C   UNL     1       7.536  -6.954  -2.499  1.00  0.00     0.001 A 
ATOM     85  C   UNL     1       6.268  -6.305  -4.465  1.00  0.00     0.027 A 
ATOM     86  C   UNL     1       6.830  -7.223  -3.647  1.00  0.00     0.002 A 
BRANCH  83  87
ATOM     87  N   UNL     1       5.007  -4.422  -4.054  1.00  0.00    -0.332 N 
ATOM     88  H   UNL     1       5.057  -3.441  -3.976  1.00  0.00     0.169 HD
BRANCH  87  89
ATOM     89  C   UNL     1       3.766  -4.920  -4.318  1.00  0.00     0.177 C 
ATOM     90  S   UNL     1       2.642  -3.792  -4.863  1.00  0.00    -0.040 S 
BRANCH  89  91
ATOM     91  N   UNL     1       3.316  -6.290  -4.162  1.00  0.00    -0.299 N 
ATOM     92  C   UNL     1       3.239  -7.783  -3.846  1.00  0.00     0.257 C 
ATOM     93  H   UNL     1       2.403  -6.176  -4.511  1.00  0.00     0.172 HD
ATOM     94  O   UNL     1       2.269  -8.347  -4.377  1.00  0.00    -0.269 OA
BRANCH  92  95
ATOM     95  C   UNL     1       4.193  -8.691  -3.033  1.00  0.00     0.040 A 
ATOM     96  C   UNL     1       4.991  -9.670  -3.678  1.00  0.00     0.014 A 
ATOM     97  C   UNL     1       4.414  -8.552  -1.645  1.00  0.00     0.022 A 
ATOM     98  C   UNL     1       6.197 -10.160  -3.030  1.00  0.00     0.009 A 
ATOM     99  C   UNL     1       5.596  -9.065  -0.963  1.00  0.00    -0.018 A 
ATOM    100  C   UNL     1       6.566  -9.793  -1.694  1.00  0.00    -0.018 A 
ATOM    101  C   UNL     1       5.955  -8.638   0.349  1.00  0.00     0.009 A 
ATOM    102  C   UNL     1       7.915  -9.865  -1.150  1.00  0.00     0.009 A 
ATOM    103  C   UNL     1       7.260  -8.756   0.877  1.00  0.00     0.001 A 
ATOM    104  C   UNL     1       8.261  -9.327   0.108  1.00  0.00     0.001 A 
ENDBRANCH  92  95
ENDBRANCH  89  91
ENDBRANCH  87  89
ENDBRANCH  83  87
ENDBRANCH  78  81
ENDBRANCH  76  77
ENDBRANCH   1  76
TORSDOF 18
