REMARK SMILES COc1ccc(C[C@H](C(=O)Nc2ccccc2)[C@@H](C)C(=O)NCCCCNC(=O)c2ccc(-c3c4nc(c(-c5c(F)cc(S(=O)(=O)[O-])cc5F)c5ccc([nH]5)c(-c5c(F)cc(S(=O)(=O)[O-])cc5F)c5nc(c(-c6c(F)cc(S(=O)(=O)[O-])cc6F)c6ccc3[nH]6)C=C5)C=C4)cc2)cc1
REMARK SMILES IDX 24 1 23 2 22 3 20 4 21 5 18 7 19 8 8 9 7 10 6 11 3 12 4 13
REMARK SMILES IDX 97 14 5 15 96 16 2 17 1 18 9 19 10 20 11 21 12 23 13 24
REMARK SMILES IDX 17 25 14 26 16 27 15 28 25 29 26 30 27 31 28 32 29 34 30 35
REMARK SMILES IDX 31 36 95 37 32 38 94 39 33 40 34 41 35 42 88 43 36 44 93 45
REMARK SMILES IDX 87 46 89 47 37 48 92 49 86 50 85 51 38 53 72 54 51 55 71 56
REMARK SMILES IDX 52 57 55 58 70 59 90 60 53 61 54 62 69 64 91 65 56 66 39 67
REMARK SMILES IDX 40 68 49 69 41 70 42 71 48 72 50 73 43 74 44 75 45 76 46 77
REMARK SMILES IDX 47 78 73 79 74 80 83 81 75 82 76 83 82 84 84 85 77 86 78 87
REMARK SMILES IDX 79 88 80 89 81 90 57 91 58 92 67 93 59 94 60 95 66 96 68 97
REMARK SMILES IDX 61 98 62 99 63 100 64 101 65 102
REMARK H PARENT 22 6 11 22 27 33 89 52 55 63
REMARK Flexibility Score: inf
ROOT
ATOM      1  C   UNL     1       3.768   7.261  -3.730  1.00  0.00     0.023 C 
ENDROOT
BRANCH   1   2
ATOM      2  C   UNL     1       4.431   8.097  -2.638  1.00  0.00     0.116 C 
BRANCH   2   3
ATOM      3  N   UNL     1       3.731   9.331  -2.343  1.00  0.00    -0.356 N 
ATOM      4  C   UNL     1       3.006   9.731  -1.269  1.00  0.00     0.223 C 
ATOM      5  O   UNL     1       2.699  10.927  -1.206  1.00  0.00    -0.275 OA
ATOM      6  H   UNL     1       3.794  10.007  -3.056  1.00  0.00     0.163 HD
BRANCH   4   7
ATOM      7  C   UNL     1       2.617   8.804  -0.125  1.00  0.00     0.088 C 
ATOM      8  C   UNL     1       3.872   8.585   0.737  1.00  0.00     0.019 C 
BRANCH   7   9
ATOM      9  C   UNL     1       1.842   7.521  -0.534  1.00  0.00     0.095 C 
BRANCH   9  10
ATOM     10  C   UNL     1       0.445   7.753  -1.153  1.00  0.00     0.049 C 
BRANCH  10  11
ATOM     11  C   UNL     1       0.302   8.307  -2.550  1.00  0.00    -0.047 A 
ATOM     12  C   UNL     1      -0.054   9.407  -5.111  1.00  0.00     0.118 A 
ATOM     13  C   UNL     1       0.112  10.242  -4.014  1.00  0.00     0.046 A 
ATOM     14  C   UNL     1      -0.057   8.023  -4.941  1.00  0.00     0.046 A 
ATOM     15  C   UNL     1       0.253   9.695  -2.741  1.00  0.00     0.007 A 
ATOM     16  C   UNL     1       0.121   7.474  -3.663  1.00  0.00     0.007 A 
BRANCH  12  17
ATOM     17  O   UNL     1      -0.101  10.011  -6.336  1.00  0.00    -0.497 OA
ATOM     18  C   UNL     1      -1.272   9.676  -7.077  1.00  0.00     0.278 C 
ENDBRANCH  12  17
ENDBRANCH  10  11
ENDBRANCH   9  10
BRANCH   9  19
ATOM     19  C   UNL     1       1.788   6.541   0.658  1.00  0.00     0.228 C 
ATOM     20  O   UNL     1       2.450   5.496   0.610  1.00  0.00    -0.274 OA
ATOM     21  N   UNL     1       1.188   6.845   1.853  1.00  0.00    -0.326 N 
ATOM     22  H   UNL     1       1.449   6.269   2.607  1.00  0.00     0.169 HD
BRANCH  21  23
ATOM     23  C   UNL     1       0.264   7.844   2.166  1.00  0.00     0.041 A 
ATOM     24  C   UNL     1       0.581   8.783   3.146  1.00  0.00     0.026 A 
ATOM     25  C   UNL     1      -0.991   7.879   1.559  1.00  0.00     0.026 A 
ATOM     26  C   UNL     1      -0.290   9.848   3.391  1.00  0.00     0.002 A 
ATOM     27  C   UNL     1      -1.857   8.947   1.793  1.00  0.00     0.002 A 
ATOM     28  C   UNL     1      -1.494   9.946   2.692  1.00  0.00     0.000 A 
ENDBRANCH  21  23
ENDBRANCH   9  19
ENDBRANCH   7   9
ENDBRANCH   4   7
ENDBRANCH   2   3
ENDBRANCH   1   2
BRANCH   1  29
ATOM     29  C   UNL     1       3.591   7.962  -5.075  1.00  0.00     0.023 C 
BRANCH  29  30
ATOM     30  C   UNL     1       4.863   8.537  -5.680  1.00  0.00     0.116 C 
BRANCH  30  31
ATOM     31  N   UNL     1       5.933   7.556  -5.789  1.00  0.00    -0.352 N 
ATOM     32  C   UNL     1       6.762   7.294  -6.852  1.00  0.00     0.251 C 
ATOM     33  H   UNL     1       6.085   7.004  -4.989  1.00  0.00     0.163 HD
ATOM     34  O   UNL     1       7.538   6.344  -6.809  1.00  0.00    -0.269 OA
BRANCH  32  35
ATOM     35  C   UNL     1       6.683   8.142  -8.058  1.00  0.00     0.039 A 
ATOM     36  C   UNL     1       6.568   7.527  -9.307  1.00  0.00     0.014 A 
ATOM     37  C   UNL     1       6.674   9.535  -7.949  1.00  0.00     0.014 A 
ATOM     38  C   UNL     1       6.358   8.310 -10.442  1.00  0.00     0.010 A 
ATOM     39  C   UNL     1       6.397  10.309  -9.070  1.00  0.00     0.010 A 
ATOM     40  C   UNL     1       6.225   9.703 -10.325  1.00  0.00    -0.014 A 
BRANCH  40  41
ATOM     41  C   UNL     1       5.875  10.550 -11.491  1.00  0.00     0.031 A 
ATOM     42  C   UNL     1       6.844  11.587 -11.983  1.00  0.00     0.074 A 
ATOM     43  C   UNL     1       4.649  10.445 -12.043  1.00  0.00     0.049 A 
ATOM     44  N   UNL     1       6.676  12.504 -12.899  1.00  0.00    -0.248 NA
ATOM     45  C   UNL     1       8.168  11.614 -11.340  1.00  0.00     0.031 C 
ATOM     46  C   UNL     1       3.609   9.504 -11.621  1.00  0.00     0.029 A 
ATOM     47  N   UNL     1       4.061  11.152 -13.062  1.00  0.00    -0.354 N 
ATOM     48  C   UNL     1       7.862  13.227 -12.932  1.00  0.00     0.074 A 
ATOM     49  C   UNL     1       8.726  12.669 -11.914  1.00  0.00     0.031 C 
ATOM     50  C   UNL     1       2.517   9.685 -12.380  1.00  0.00     0.029 A 
ATOM     51  C   UNL     1       2.760  10.784 -13.310  1.00  0.00     0.049 A 
ATOM     52  H   UNL     1       4.527  11.857 -13.567  1.00  0.00     0.167 HD
ATOM     53  C   UNL     1       8.204  14.250 -13.751  1.00  0.00     0.037 A 
ATOM     54  C   UNL     1       1.857  11.290 -14.172  1.00  0.00     0.037 A 
ATOM     55  C   UNL     1       7.345  14.780 -14.776  1.00  0.00     0.049 A 
ATOM     56  C   UNL     1       2.251  12.443 -15.052  1.00  0.00     0.074 A 
ATOM     57  C   UNL     1       7.626  15.764 -15.707  1.00  0.00     0.029 A 
ATOM     58  N   UNL     1       6.037  14.377 -15.001  1.00  0.00    -0.354 N 
ATOM     59  N   UNL     1       3.402  13.070 -15.120  1.00  0.00    -0.248 NA
ATOM     60  C   UNL     1       1.227  12.965 -15.967  1.00  0.00     0.031 C 
ATOM     61  C   UNL     1       6.472  15.988 -16.466  1.00  0.00     0.029 A 
ATOM     62  C   UNL     1       5.486  15.114 -16.035  1.00  0.00     0.049 A 
ATOM     63  H   UNL     1       5.570  13.671 -14.499  1.00  0.00     0.167 HD
ATOM     64  C   UNL     1       3.244  14.051 -16.092  1.00  0.00     0.074 A 
ATOM     65  C   UNL     1       1.892  13.924 -16.598  1.00  0.00     0.031 C 
ATOM     66  C   UNL     1       4.136  14.976 -16.523  1.00  0.00     0.037 A 
BRANCH  53  67
ATOM     67  C   UNL     1       9.566  14.859 -13.572  1.00  0.00     0.058 A 
ATOM     68  C   UNL     1      10.733  14.172 -13.943  1.00  0.00     0.135 A 
ATOM     69  C   UNL     1       9.706  16.158 -13.058  1.00  0.00     0.135 A 
ATOM     70  F   UNL     1      10.658  12.922 -14.425  1.00  0.00    -0.206 F 
ATOM     71  C   UNL     1      11.993  14.740 -13.783  1.00  0.00     0.059 A 
ATOM     72  C   UNL     1      10.955  16.756 -12.914  1.00  0.00     0.059 A 
ATOM     73  F   UNL     1       8.623  16.859 -12.688  1.00  0.00    -0.206 F 
ATOM     74  C   UNL     1      12.094  16.033 -13.267  1.00  0.00     0.060 A 
BRANCH  74  75
ATOM     75  S   UNL     1      13.736  16.756 -13.071  1.00  0.00     0.124 S 
ATOM     76  O   UNL     1      14.242  16.020 -11.916  1.00  0.00    -0.237 OA
ATOM     77  O   UNL     1      14.370  16.443 -14.348  1.00  0.00    -0.237 OA
ATOM     78  O   UNL     1      13.460  18.171 -12.842  1.00  0.00    -0.744 OA
ENDBRANCH  74  75
ENDBRANCH  53  67
BRANCH  54  79
ATOM     79  C   UNL     1       0.490  10.709 -14.240  1.00  0.00     0.058 A 
ATOM     80  C   UNL     1       0.083   9.953 -15.348  1.00  0.00     0.135 A 
ATOM     81  C   UNL     1      -0.429  10.880 -13.192  1.00  0.00     0.135 A 
ATOM     82  F   UNL     1       0.923   9.768 -16.378  1.00  0.00    -0.206 F 
ATOM     83  C   UNL     1      -1.189   9.393 -15.422  1.00  0.00     0.059 A 
ATOM     84  C   UNL     1      -1.698  10.312 -13.233  1.00  0.00     0.059 A 
ATOM     85  F   UNL     1      -0.084  11.583 -12.102  1.00  0.00    -0.206 F 
ATOM     86  C   UNL     1      -2.072   9.576 -14.357  1.00  0.00     0.060 A 
BRANCH  86  87
ATOM     87  S   UNL     1      -3.700   8.798 -14.435  1.00  0.00     0.124 S 
ATOM     88  O   UNL     1      -4.388   9.652 -15.396  1.00  0.00    -0.237 OA
ATOM     89  O   UNL     1      -3.376   7.451 -14.894  1.00  0.00    -0.237 OA
ATOM     90  O   UNL     1      -4.178   8.883 -13.058  1.00  0.00    -0.744 OA
ENDBRANCH  86  87
ENDBRANCH  54  79
BRANCH  66  91
ATOM     91  C   UNL     1       3.687  15.924 -17.599  1.00  0.00     0.058 A 
ATOM     92  C   UNL     1       2.820  16.991 -17.315  1.00  0.00     0.135 A 
ATOM     93  C   UNL     1       4.190  15.814 -18.905  1.00  0.00     0.135 A 
ATOM     94  F   UNL     1       2.304  17.133 -16.085  1.00  0.00    -0.206 F 
ATOM     95  C   UNL     1       2.464  17.914 -18.292  1.00  0.00     0.059 A 
ATOM     96  C   UNL     1       3.866  16.739 -19.891  1.00  0.00     0.059 A 
ATOM     97  F   UNL     1       5.027  14.814 -19.224  1.00  0.00    -0.206 F 
ATOM     98  C   UNL     1       2.998  17.784 -19.576  1.00  0.00     0.060 A 
BRANCH  98  99
ATOM     99  S   UNL     1       2.577  19.027 -20.816  1.00  0.00     0.124 S 
ATOM    100  O   UNL     1       1.196  18.675 -21.129  1.00  0.00    -0.237 OA
ATOM    101  O   UNL     1       2.763  20.276 -20.083  1.00  0.00    -0.237 OA
ATOM    102  O   UNL     1       3.545  18.785 -21.882  1.00  0.00    -0.744 OA
ENDBRANCH  98  99
ENDBRANCH  66  91
ENDBRANCH  40  41
ENDBRANCH  32  35
ENDBRANCH  30  31
ENDBRANCH  29  30
ENDBRANCH   1  29
TORSDOF 20
