REMARK SMILES CCC(=O)N1CCc2cc(C(=O)NC3(C(=O)NCCCCNC(=O)c4ccc(-c5c6nc(c(-c7c(F)cc(S(=O)(=O)[O-])cc7F)c7ccc([nH]7)c(-c7c(F)cc(S(=O)(=O)[O-])cc7F)c7nc(c(-c8c(F)cc(S(=O)(=O)[O-])cc8F)c8ccc5[nH]8)C=C7)C=C6)cc4)CCCC3)ccc21
REMARK SMILES IDX 19 1 18 2 17 3 15 4 16 5 14 7 91 8 94 9 92 10 93 11 13 12
REMARK SMILES IDX 11 13 12 14 10 16 5 17 6 18 97 19 7 20 8 21 96 22 9 23 95 24
REMARK SMILES IDX 3 25 4 26 2 27 1 28 20 29 21 30 22 31 23 32 24 34 25 35
REMARK SMILES IDX 26 36 90 37 27 38 89 39 28 40 29 41 30 42 83 43 31 44 88 45
REMARK SMILES IDX 82 46 84 47 32 48 87 49 81 50 80 51 33 53 67 54 46 55 66 56
REMARK SMILES IDX 47 57 50 58 65 59 85 60 48 61 49 62 64 64 86 65 51 66 34 67
REMARK SMILES IDX 35 68 44 69 36 70 37 71 43 72 45 73 38 74 39 75 40 76 41 77
REMARK SMILES IDX 42 78 68 79 69 80 78 81 70 82 71 83 77 84 79 85 72 86 73 87
REMARK SMILES IDX 74 88 75 89 76 90 52 91 53 92 62 93 54 94 55 95 61 96 63 97
REMARK SMILES IDX 56 98 57 99 58 100 59 101 60 102
REMARK H PARENT 17 6 13 15 22 33 84 52 50 63
REMARK Flexibility Score: inf
ROOT
ATOM      1  C   UNL     1       2.989  -4.318   4.798  1.00  0.00     0.023 C 
ENDROOT
BRANCH   1   2
ATOM      2  C   UNL     1       3.580  -2.938   4.519  1.00  0.00     0.116 C 
BRANCH   2   3
ATOM      3  N   UNL     1       5.007  -2.957   4.263  1.00  0.00    -0.354 N 
ATOM      4  C   UNL     1       5.748  -2.680   3.153  1.00  0.00     0.245 C 
ATOM      5  O   UNL     1       6.977  -2.660   3.312  1.00  0.00    -0.272 OA
ATOM      6  H   UNL     1       5.546  -3.221   5.043  1.00  0.00     0.163 HD
BRANCH   4   7
ATOM      7  C   UNL     1       5.141  -2.480   1.713  1.00  0.00     0.119 C 
ATOM      8  C   UNL     1       4.052  -1.404   1.686  1.00  0.00     0.038 C 
ATOM      9  C   UNL     1       4.512  -3.809   1.274  1.00  0.00     0.038 C 
ATOM     10  C   UNL     1       2.747  -2.100   1.293  1.00  0.00     0.003 C 
ATOM     11  C   UNL     1       3.012  -3.592   1.165  1.00  0.00     0.003 C 
BRANCH   7  12
ATOM     12  N   UNL     1       6.327  -2.164   0.851  1.00  0.00    -0.338 N 
ATOM     13  C   UNL     1       6.582  -1.687  -0.411  1.00  0.00     0.252 C 
ATOM     14  O   UNL     1       7.748  -1.631  -0.802  1.00  0.00    -0.269 OA
ATOM     15  H   UNL     1       7.166  -2.354   1.329  1.00  0.00     0.164 HD
BRANCH  13  16
ATOM     16  C   UNL     1       5.534  -1.114  -1.288  1.00  0.00     0.040 A 
ATOM     17  N   UNL     1       2.558   1.200  -2.984  1.00  0.00    -0.312 N 
ATOM     18  C   UNL     1       3.300   2.263  -3.662  1.00  0.00     0.130 C 
ATOM     19  C   UNL     1       3.461   0.256  -2.501  1.00  0.00     0.047 A 
ATOM     20  C   UNL     1       4.790   2.033  -3.354  1.00  0.00     0.059 C 
ATOM     21  C   UNL     1       4.754   0.765  -2.558  1.00  0.00    -0.022 A 
ATOM     22  C   UNL     1       3.230  -1.029  -2.063  1.00  0.00     0.027 A 
ATOM     23  C   UNL     1       5.798   0.114  -1.917  1.00  0.00     0.019 A 
ATOM     24  C   UNL     1       4.299  -1.735  -1.498  1.00  0.00     0.016 A 
BRANCH  17  25
ATOM     25  C   UNL     1       1.193   1.264  -2.839  1.00  0.00     0.226 C 
ATOM     26  O   UNL     1       0.457   1.464  -3.810  1.00  0.00    -0.275 OA
BRANCH  25  27
ATOM     27  C   UNL     1       0.656   1.513  -1.427  1.00  0.00     0.097 C 
ATOM     28  C   UNL     1       0.920   0.486  -0.353  1.00  0.00     0.014 C 
ENDBRANCH  25  27
ENDBRANCH  17  25
ENDBRANCH  13  16
ENDBRANCH   7  12
ENDBRANCH   4   7
ENDBRANCH   2   3
ENDBRANCH   1   2
BRANCH   1  29
ATOM     29  C   UNL     1       2.580  -4.534   6.253  1.00  0.00     0.023 C 
BRANCH  29  30
ATOM     30  C   UNL     1       1.589  -3.521   6.818  1.00  0.00     0.116 C 
BRANCH  30  31
ATOM     31  N   UNL     1       0.316  -3.453   6.113  1.00  0.00    -0.352 N 
ATOM     32  C   UNL     1      -0.923  -3.187   6.659  1.00  0.00     0.251 C 
ATOM     33  H   UNL     1       0.343  -3.613   5.142  1.00  0.00     0.163 HD
ATOM     34  O   UNL     1      -1.935  -3.205   5.965  1.00  0.00    -0.269 OA
BRANCH  32  35
ATOM     35  C   UNL     1      -1.005  -2.936   8.113  1.00  0.00     0.039 A 
ATOM     36  C   UNL     1      -1.788  -3.780   8.903  1.00  0.00     0.014 A 
ATOM     37  C   UNL     1      -0.194  -1.960   8.698  1.00  0.00     0.014 A 
ATOM     38  C   UNL     1      -1.682  -3.707  10.294  1.00  0.00     0.010 A 
ATOM     39  C   UNL     1      -0.032  -1.946  10.079  1.00  0.00     0.010 A 
ATOM     40  C   UNL     1      -0.764  -2.827  10.891  1.00  0.00    -0.014 A 
BRANCH  40  41
ATOM     41  C   UNL     1      -0.535  -2.825  12.360  1.00  0.00     0.031 A 
ATOM     42  C   UNL     1      -0.823  -1.587  13.163  1.00  0.00     0.074 A 
ATOM     43  C   UNL     1       0.013  -3.905  12.956  1.00  0.00     0.049 A 
ATOM     44  N   UNL     1      -0.606  -1.356  14.432  1.00  0.00    -0.248 NA
ATOM     45  C   UNL     1      -1.398  -0.444  12.435  1.00  0.00     0.031 C 
ATOM     46  C   UNL     1       0.405  -5.143  12.277  1.00  0.00     0.029 A 
ATOM     47  N   UNL     1       0.350  -4.130  14.268  1.00  0.00    -0.354 N 
ATOM     48  C   UNL     1      -0.993  -0.040  14.649  1.00  0.00     0.074 A 
ATOM     49  C   UNL     1      -1.409   0.495  13.370  1.00  0.00     0.031 C 
ATOM     50  C   UNL     1       0.905  -6.003  13.180  1.00  0.00     0.029 A 
ATOM     51  C   UNL     1       0.901  -5.370  14.495  1.00  0.00     0.049 A 
ATOM     52  H   UNL     1       0.210  -3.465  14.981  1.00  0.00     0.167 HD
ATOM     53  C   UNL     1      -1.026   0.654  15.811  1.00  0.00     0.037 A 
ATOM     54  C   UNL     1       1.355  -5.932  15.632  1.00  0.00     0.037 A 
ATOM     55  C   UNL     1      -0.655   0.105  17.088  1.00  0.00     0.049 A 
ATOM     56  C   UNL     1       1.270  -5.157  16.919  1.00  0.00     0.074 A 
ATOM     57  C   UNL     1      -0.726   0.702  18.334  1.00  0.00     0.029 A 
ATOM     58  N   UNL     1      -0.150  -1.172  17.284  1.00  0.00    -0.354 N 
ATOM     59  N   UNL     1       0.833  -3.936  17.116  1.00  0.00    -0.248 NA
ATOM     60  C   UNL     1       1.728  -5.837  18.138  1.00  0.00     0.031 C 
ATOM     61  C   UNL     1      -0.233  -0.203  19.281  1.00  0.00     0.029 A 
ATOM     62  C   UNL     1       0.107  -1.378  18.628  1.00  0.00     0.049 A 
ATOM     63  H   UNL     1       0.003  -1.834  16.571  1.00  0.00     0.167 HD
ATOM     64  C   UNL     1       0.942  -3.710  18.484  1.00  0.00     0.074 A 
ATOM     65  C   UNL     1       1.475  -4.924  19.067  1.00  0.00     0.031 C 
ATOM     66  C   UNL     1       0.629  -2.597  19.193  1.00  0.00     0.037 A 
BRANCH  53  67
ATOM     67  C   UNL     1      -1.495   2.081  15.753  1.00  0.00     0.058 A 
ATOM     68  C   UNL     1      -2.840   2.403  15.508  1.00  0.00     0.135 A 
ATOM     69  C   UNL     1      -0.596   3.138  15.966  1.00  0.00     0.135 A 
ATOM     70  F   UNL     1      -3.737   1.431  15.280  1.00  0.00    -0.206 F 
ATOM     71  C   UNL     1      -3.271   3.724  15.443  1.00  0.00     0.059 A 
ATOM     72  C   UNL     1      -1.011   4.467  15.933  1.00  0.00     0.059 A 
ATOM     73  F   UNL     1       0.701   2.886  16.203  1.00  0.00    -0.206 F 
ATOM     74  C   UNL     1      -2.348   4.749  15.654  1.00  0.00     0.060 A 
BRANCH  74  75
ATOM     75  S   UNL     1      -2.922   6.458  15.564  1.00  0.00     0.124 S 
ATOM     76  O   UNL     1      -3.071   6.637  14.123  1.00  0.00    -0.237 OA
ATOM     77  O   UNL     1      -4.165   6.412  16.328  1.00  0.00    -0.237 OA
ATOM     78  O   UNL     1      -1.837   7.213  16.182  1.00  0.00    -0.744 OA
ENDBRANCH  74  75
ENDBRANCH  53  67
BRANCH  54  79
ATOM     79  C   UNL     1       1.900  -7.316  15.612  1.00  0.00     0.058 A 
ATOM     80  C   UNL     1       1.177  -8.382  16.167  1.00  0.00     0.135 A 
ATOM     81  C   UNL     1       3.143  -7.603  15.026  1.00  0.00     0.135 A 
ATOM     82  F   UNL     1      -0.013  -8.156  16.744  1.00  0.00    -0.206 F 
ATOM     83  C   UNL     1       1.671  -9.682  16.155  1.00  0.00     0.059 A 
ATOM     84  C   UNL     1       3.648  -8.899  14.983  1.00  0.00     0.059 A 
ATOM     85  F   UNL     1       3.865  -6.620  14.466  1.00  0.00    -0.206 F 
ATOM     86  C   UNL     1       2.908  -9.931  15.558  1.00  0.00     0.060 A 
BRANCH  86  87
ATOM     87  S   UNL     1       3.515 -11.631  15.497  1.00  0.00     0.124 S 
ATOM     88  O   UNL     1       3.946 -11.839  16.874  1.00  0.00    -0.237 OA
ATOM     89  O   UNL     1       2.326 -12.368  15.081  1.00  0.00    -0.237 OA
ATOM     90  O   UNL     1       4.582 -11.568  14.502  1.00  0.00    -0.744 OA
ENDBRANCH  86  87
ENDBRANCH  54  79
BRANCH  66  91
ATOM     91  C   UNL     1       0.823  -2.648  20.681  1.00  0.00     0.058 A 
ATOM     92  C   UNL     1       2.100  -2.585  21.260  1.00  0.00     0.135 A 
ATOM     93  C   UNL     1      -0.287  -2.702  21.540  1.00  0.00     0.135 A 
ATOM     94  F   UNL     1       3.192  -2.538  20.481  1.00  0.00    -0.206 F 
ATOM     95  C   UNL     1       2.272  -2.594  22.640  1.00  0.00     0.059 A 
ATOM     96  C   UNL     1      -0.139  -2.688  22.923  1.00  0.00     0.059 A 
ATOM     97  F   UNL     1      -1.530  -2.753  21.036  1.00  0.00    -0.206 F 
ATOM     98  C   UNL     1       1.145  -2.645  23.464  1.00  0.00     0.060 A 
BRANCH  98  99
ATOM     99  S   UNL     1       1.378  -2.618  25.254  1.00  0.00     0.124 S 
ATOM    100  O   UNL     1       1.822  -3.984  25.512  1.00  0.00    -0.237 OA
ATOM    101  O   UNL     1       2.390  -1.580  25.424  1.00  0.00    -0.237 OA
ATOM    102  O   UNL     1       0.052  -2.281  25.763  1.00  0.00    -0.744 OA
ENDBRANCH  98  99
ENDBRANCH  66  91
ENDBRANCH  40  41
ENDBRANCH  32  35
ENDBRANCH  30  31
ENDBRANCH  29  30
ENDBRANCH   1  29
TORSDOF 18
