REMARK SMILES CC(=O)Nc1cc(NC(C)=O)cc(C(=O)Nc2ccc(Br)cc2C(=O)NCCCCNC(=O)c2ccc(-c3c4nc(c(-c5c(F)cc(S(=O)(=O)[O-])cc5F)c5ccc([nH]5)c(-c5c(F)cc(S(=O)(=O)[O-])cc5F)c5nc(c(-c6c(F)cc(S(=O)(=O)[O-])cc6F)c6ccc3[nH]6)C=C5)C=C4)cc2)c1
REMARK SMILES IDX 28 1 27 2 26 3 24 4 25 5 23 7 17 8 18 9 19 10 22 11 20 12
REMARK SMILES IDX 21 13 16 14 14 15 15 16 13 18 5 19 6 20 100 21 7 22 12 23
REMARK SMILES IDX 4 24 1 25 2 26 3 27 8 29 9 30 10 32 11 33 29 34 30 35 31 36
REMARK SMILES IDX 32 37 33 39 34 40 35 41 99 42 36 43 98 44 37 45 38 46 39 47
REMARK SMILES IDX 92 48 40 49 97 50 91 51 93 52 41 53 96 54 90 55 89 56 42 58
REMARK SMILES IDX 76 59 55 60 75 61 56 62 59 63 74 64 94 65 57 66 58 67 73 69
REMARK SMILES IDX 95 70 60 71 43 72 44 73 53 74 45 75 46 76 52 77 54 78 47 79
REMARK SMILES IDX 48 80 49 81 50 82 51 83 77 84 78 85 87 86 79 87 80 88 86 89
REMARK SMILES IDX 88 90 81 91 82 92 83 93 84 94 85 95 61 96 62 97 71 98 63 99
REMARK SMILES IDX 64 100 70 101 72 102 65 103 66 104 67 105 68 106 69 107
REMARK H PARENT 26 6 16 17 4 28 8 31 31 38 93 57 59 68
REMARK Flexibility Score: inf
ROOT
ATOM      1  C   UNL     1       7.928  -0.029  -2.761  1.00  0.00     0.023 C 
ENDROOT
BRANCH   1   2
ATOM      2  C   UNL     1       6.591  -0.040  -2.029  1.00  0.00     0.116 C 
BRANCH   2   3
ATOM      3  N   UNL     1       5.618  -0.966  -2.575  1.00  0.00    -0.352 N 
ATOM      4  C   UNL     1       4.479  -1.476  -2.002  1.00  0.00     0.253 C 
ATOM      5  O   UNL     1       3.810  -2.288  -2.639  1.00  0.00    -0.269 OA
ATOM      6  H   UNL     1       5.801  -1.274  -3.492  1.00  0.00     0.163 HD
BRANCH   4   7
ATOM      7  C   UNL     1       4.076  -1.150  -0.607  1.00  0.00     0.064 A 
ATOM      8  C   UNL     1       4.075   0.126  -0.009  1.00  0.00     0.054 A 
ATOM      9  C   UNL     1       3.880   0.222   1.379  1.00  0.00     0.028 A 
ATOM     10  C   UNL     1       3.515  -0.897   2.131  1.00  0.00     0.018 A 
ATOM     11  C   UNL     1       3.674  -2.266   0.154  1.00  0.00     0.031 A 
ATOM     12  C   UNL     1       3.372  -2.129   1.505  1.00  0.00     0.018 A 
ATOM     13  Br  UNL     1       2.764  -3.619   2.494  1.00  0.00    -0.051 Br
BRANCH   8  14
ATOM     14  N   UNL     1       4.162   1.371  -0.673  1.00  0.00    -0.321 N 
ATOM     15  C   UNL     1       3.706   1.763  -1.919  1.00  0.00     0.255 C 
ATOM     16  O   UNL     1       4.131   2.801  -2.421  1.00  0.00    -0.269 OA
ATOM     17  H   UNL     1       4.625   2.076  -0.165  1.00  0.00     0.170 HD
BRANCH  15  18
ATOM     18  C   UNL     1       2.647   0.999  -2.620  1.00  0.00     0.044 A 
ATOM     19  C   UNL     1       0.742  -0.484  -2.518  1.00  0.00     0.044 A 
ATOM     20  C   UNL     1       0.821  -0.628  -3.912  1.00  0.00     0.052 A 
ATOM     21  C   UNL     1       1.625   0.383  -1.892  1.00  0.00     0.040 A 
ATOM     22  C   UNL     1       1.754   0.090  -4.673  1.00  0.00     0.044 A 
ATOM     23  C   UNL     1       2.684   0.896  -4.013  1.00  0.00     0.040 A 
BRANCH  19  24
ATOM     24  N   UNL     1      -0.164  -1.315  -1.832  1.00  0.00    -0.326 N 
ATOM     25  C   UNL     1      -0.377  -0.211   0.403  1.00  0.00     0.114 C 
ATOM     26  C   UNL     1      -0.595  -1.362  -0.538  1.00  0.00     0.221 C 
ATOM     27  O   UNL     1      -1.212  -2.359  -0.153  1.00  0.00    -0.275 OA
ATOM     28  H   UNL     1      -0.570  -2.005  -2.404  1.00  0.00     0.169 HD
ENDBRANCH  19  24
BRANCH  22  29
ATOM     29  N   UNL     1       1.825   0.042  -6.083  1.00  0.00    -0.326 N 
ATOM     30  C   UNL     1       0.970  -0.626  -6.942  1.00  0.00     0.221 C 
ATOM     31  H   UNL     1       2.566   0.537  -6.500  1.00  0.00     0.169 HD
ATOM     32  C   UNL     1       1.326  -0.439  -8.397  1.00  0.00     0.114 C 
ATOM     33  O   UNL     1      -0.009  -1.294  -6.625  1.00  0.00    -0.275 OA
ENDBRANCH  22  29
ENDBRANCH  15  18
ENDBRANCH   8  14
ENDBRANCH   4   7
ENDBRANCH   2   3
ENDBRANCH   1   2
BRANCH   1  34
ATOM     34  C   UNL     1       7.877   0.297  -4.257  1.00  0.00     0.023 C 
BRANCH  34  35
ATOM     35  C   UNL     1       6.971   1.450  -4.687  1.00  0.00     0.116 C 
BRANCH  35  36
ATOM     36  N   UNL     1       7.330   2.738  -4.112  1.00  0.00    -0.352 N 
ATOM     37  C   UNL     1       7.837   3.869  -4.712  1.00  0.00     0.251 C 
ATOM     38  H   UNL     1       7.189   2.813  -3.141  1.00  0.00     0.163 HD
ATOM     39  O   UNL     1       8.173   4.833  -4.030  1.00  0.00    -0.269 OA
BRANCH  37  40
ATOM     40  C   UNL     1       8.018   3.907  -6.179  1.00  0.00     0.039 A 
ATOM     41  C   UNL     1       9.263   4.267  -6.699  1.00  0.00     0.014 A 
ATOM     42  C   UNL     1       6.975   3.550  -7.037  1.00  0.00     0.014 A 
ATOM     43  C   UNL     1       9.499   4.148  -8.071  1.00  0.00     0.010 A 
ATOM     44  C   UNL     1       7.233   3.361  -8.393  1.00  0.00     0.010 A 
ATOM     45  C   UNL     1       8.507   3.629  -8.919  1.00  0.00    -0.014 A 
BRANCH  45  46
ATOM     46  C   UNL     1       8.795   3.296 -10.340  1.00  0.00     0.031 A 
ATOM     47  C   UNL     1       8.052   3.982 -11.452  1.00  0.00     0.074 A 
ATOM     48  C   UNL     1       9.662   2.301 -10.623  1.00  0.00     0.049 A 
ATOM     49  N   UNL     1       8.078   3.735 -12.736  1.00  0.00    -0.248 NA
ATOM     50  C   UNL     1       7.140   5.070 -11.067  1.00  0.00     0.031 C 
ATOM     51  C   UNL     1      10.413   1.523  -9.634  1.00  0.00     0.029 A 
ATOM     52  N   UNL     1      10.047   1.761 -11.826  1.00  0.00    -0.354 N 
ATOM     53  C   UNL     1       7.178   4.623 -13.312  1.00  0.00     0.074 A 
ATOM     54  C   UNL     1       6.588   5.384 -12.230  1.00  0.00     0.031 C 
ATOM     55  C   UNL     1      11.181   0.623 -10.270  1.00  0.00     0.029 A 
ATOM     56  C   UNL     1      10.947   0.727 -11.706  1.00  0.00     0.049 A 
ATOM     57  H   UNL     1       9.710   2.083 -12.693  1.00  0.00     0.167 HD
ATOM     58  C   UNL     1       6.886   4.804 -14.622  1.00  0.00     0.037 A 
ATOM     59  C   UNL     1      11.512  -0.059 -12.643  1.00  0.00     0.037 A 
ATOM     60  C   UNL     1       7.496   4.067 -15.698  1.00  0.00     0.049 A 
ATOM     61  C   UNL     1      11.164   0.155 -14.091  1.00  0.00     0.074 A 
ATOM     62  C   UNL     1       7.305   4.218 -17.061  1.00  0.00     0.029 A 
ATOM     63  N   UNL     1       8.417   3.043 -15.536  1.00  0.00    -0.354 N 
ATOM     64  N   UNL     1      10.347   1.035 -14.619  1.00  0.00    -0.248 NA
ATOM     65  C   UNL     1      11.811  -0.730 -15.070  1.00  0.00     0.031 C 
ATOM     66  C   UNL     1       8.085   3.263 -17.721  1.00  0.00     0.029 A 
ATOM     67  C   UNL     1       8.791   2.542 -16.772  1.00  0.00     0.049 A 
ATOM     68  H   UNL     1       8.756   2.720 -14.670  1.00  0.00     0.167 HD
ATOM     69  C   UNL     1      10.399   0.824 -15.992  1.00  0.00     0.074 A 
ATOM     70  C   UNL     1      11.335  -0.259 -16.215  1.00  0.00     0.031 C 
ATOM     71  C   UNL     1       9.732   1.470 -16.979  1.00  0.00     0.037 A 
BRANCH  58  72
ATOM     72  C   UNL     1       5.867   5.854 -14.967  1.00  0.00     0.058 A 
ATOM     73  C   UNL     1       6.157   7.222 -14.848  1.00  0.00     0.135 A 
ATOM     74  C   UNL     1       4.600   5.491 -15.451  1.00  0.00     0.135 A 
ATOM     75  F   UNL     1       7.348   7.622 -14.377  1.00  0.00    -0.206 F 
ATOM     76  C   UNL     1       5.216   8.195 -15.167  1.00  0.00     0.059 A 
ATOM     77  C   UNL     1       3.651   6.448 -15.801  1.00  0.00     0.059 A 
ATOM     78  F   UNL     1       4.272   4.196 -15.585  1.00  0.00    -0.206 F 
ATOM     79  C   UNL     1       3.964   7.797 -15.639  1.00  0.00     0.060 A 
BRANCH  79  80
ATOM     80  S   UNL     1       2.751   9.072 -16.044  1.00  0.00     0.124 S 
ATOM     81  O   UNL     1       2.323   9.495 -14.714  1.00  0.00    -0.237 OA
ATOM     82  O   UNL     1       3.549  10.039 -16.791  1.00  0.00    -0.237 OA
ATOM     83  O   UNL     1       1.751   8.352 -16.826  1.00  0.00    -0.744 OA
ENDBRANCH  79  80
ENDBRANCH  58  72
BRANCH  59  84
ATOM     84  C   UNL     1      12.479  -1.115 -12.246  1.00  0.00     0.058 A 
ATOM     85  C   UNL     1      13.847  -0.978 -12.527  1.00  0.00     0.135 A 
ATOM     86  C   UNL     1      12.062  -2.276 -11.578  1.00  0.00     0.135 A 
ATOM     87  F   UNL     1      14.292   0.113 -13.171  1.00  0.00    -0.206 F 
ATOM     88  C   UNL     1      14.766  -1.960 -12.176  1.00  0.00     0.059 A 
ATOM     89  C   UNL     1      12.966  -3.263 -11.195  1.00  0.00     0.059 A 
ATOM     90  F   UNL     1      10.767  -2.447 -11.271  1.00  0.00    -0.206 F 
ATOM     91  C   UNL     1      14.315  -3.101 -11.509  1.00  0.00     0.060 A 
BRANCH  91  92
ATOM     92  S   UNL     1      15.521  -4.352 -11.017  1.00  0.00     0.124 S 
ATOM     93  O   UNL     1      15.800  -5.006 -12.290  1.00  0.00    -0.237 OA
ATOM     94  O   UNL     1      16.601  -3.539 -10.466  1.00  0.00    -0.237 OA
ATOM     95  O   UNL     1      14.790  -5.153 -10.039  1.00  0.00    -0.744 OA
ENDBRANCH  91  92
ENDBRANCH  59  84
BRANCH  71  96
ATOM     96  C   UNL     1      10.005   1.046 -18.394  1.00  0.00     0.058 A 
ATOM     97  C   UNL     1       9.474  -0.141 -18.920  1.00  0.00     0.135 A 
ATOM     98  C   UNL     1      10.749   1.871 -19.252  1.00  0.00     0.135 A 
ATOM     99  F   UNL     1       8.764  -0.968 -18.136  1.00  0.00    -0.206 F 
ATOM    100  C   UNL     1       9.678  -0.501 -20.247  1.00  0.00     0.059 A 
ATOM    101  C   UNL     1      10.947   1.542 -20.589  1.00  0.00     0.059 A 
ATOM    102  F   UNL     1      11.273   3.021 -18.799  1.00  0.00    -0.206 F 
ATOM    103  C   UNL     1      10.413   0.350 -21.076  1.00  0.00     0.060 A 
BRANCH 103 104
ATOM    104  S   UNL     1      10.623  -0.101 -22.812  1.00  0.00     0.124 S 
ATOM    105  O   UNL     1      11.626  -1.156 -22.723  1.00  0.00    -0.237 OA
ATOM    106  O   UNL     1       9.280  -0.532 -23.189  1.00  0.00    -0.237 OA
ATOM    107  O   UNL     1      11.071   1.142 -23.433  1.00  0.00    -0.744 OA
ENDBRANCH 103 104
ENDBRANCH  71  96
ENDBRANCH  45  46
ENDBRANCH  37  40
ENDBRANCH  35  36
ENDBRANCH  34  35
ENDBRANCH   1  34
TORSDOF 18
