REMARK SMILES O=C(NCCCCNC(=O)c1ccc(OC[C@H]2C[C@H]3CC[C@@H]2C3)c(Cl)c1)c1ccc(-c2c3nc(c(-c4c(F)cc(S(=O)(=O)[O-])cc4F)c4ccc([nH]4)c(-c4c(F)cc(S(=O)(=O)[O-])cc4F)c4nc(c(-c5c(F)cc(S(=O)(=O)[O-])cc5F)c5ccc2[nH]5)C=C4)C=C3)cc1
REMARK SMILES IDX 5 1 4 2 3 3 1 4 2 5 27 7 28 8 92 9 29 10 91 11 30 12 31 13
REMARK SMILES IDX 32 14 85 15 33 16 90 17 84 18 86 19 34 20 89 21 83 22 82 23
REMARK SMILES IDX 35 25 69 26 48 27 68 28 49 29 52 30 67 31 87 32 50 33 51 34
REMARK SMILES IDX 66 36 88 37 53 38 36 39 37 40 46 41 38 42 39 43 45 44 47 45
REMARK SMILES IDX 40 46 41 47 42 48 43 49 44 50 70 51 71 52 80 53 72 54 73 55
REMARK SMILES IDX 79 56 81 57 74 58 75 59 76 60 77 61 78 62 54 63 55 64 64 65
REMARK SMILES IDX 56 66 57 67 63 68 65 69 58 70 59 71 60 72 61 73 62 74 6 75
REMARK SMILES IDX 7 76 8 77 9 78 10 80 11 81 12 82 26 83 13 84 24 85 14 86
REMARK SMILES IDX 25 87 15 88 16 89 17 90 18 91 22 92 19 93 21 94 23 95 20 96
REMARK H PARENT 3 6 86 24 52 35 8 79
REMARK Flexibility Score: inf
ROOT
ATOM      1  C   UNL     1       4.740   5.888  18.371  1.00  0.00     0.023 C 
ENDROOT
BRANCH   1   2
ATOM      2  C   UNL     1       3.409   6.381  18.929  1.00  0.00     0.116 C 
BRANCH   2   3
ATOM      3  N   UNL     1       2.932   5.590  20.052  1.00  0.00    -0.352 N 
ATOM      4  O   UNL     1       2.137   5.210  22.127  1.00  0.00    -0.269 OA
ATOM      5  C   UNL     1       2.385   6.020  21.238  1.00  0.00     0.251 C 
ATOM      6  H   UNL     1       3.010   4.614  19.948  1.00  0.00     0.163 HD
BRANCH   5   7
ATOM      7  C   UNL     1       2.131   7.462  21.450  1.00  0.00     0.039 A 
ATOM      8  C   UNL     1       1.496   8.229  20.470  1.00  0.00     0.014 A 
ATOM      9  C   UNL     1       2.544   8.053  22.648  1.00  0.00     0.014 A 
ATOM     10  C   UNL     1       1.389   9.607  20.634  1.00  0.00     0.010 A 
ATOM     11  C   UNL     1       2.374   9.427  22.839  1.00  0.00     0.010 A 
ATOM     12  C   UNL     1       1.823  10.219  21.821  1.00  0.00    -0.014 A 
BRANCH  12  13
ATOM     13  C   UNL     1       1.641  11.681  21.997  1.00  0.00     0.031 A 
ATOM     14  C   UNL     1       2.821  12.609  22.072  1.00  0.00     0.074 A 
ATOM     15  C   UNL     1       0.388  12.171  22.074  1.00  0.00     0.049 A 
ATOM     16  N   UNL     1       2.836  13.911  22.209  1.00  0.00    -0.248 NA
ATOM     17  C   UNL     1       4.157  12.000  21.992  1.00  0.00     0.031 C 
ATOM     18  C   UNL     1      -0.834  11.363  22.039  1.00  0.00     0.029 A 
ATOM     19  N   UNL     1      -0.068  13.458  22.188  1.00  0.00    -0.354 N 
ATOM     20  C   UNL     1       4.175  14.276  22.253  1.00  0.00     0.074 A 
ATOM     21  C   UNL     1       4.947  13.055  22.145  1.00  0.00     0.031 C 
ATOM     22  C   UNL     1      -1.899  12.175  22.099  1.00  0.00     0.029 A 
ATOM     23  C   UNL     1      -1.438  13.554  22.221  1.00  0.00     0.049 A 
ATOM     24  H   UNL     1       0.529  14.239  22.240  1.00  0.00     0.167 HD
ATOM     25  C   UNL     1       4.711  15.516  22.367  1.00  0.00     0.037 A 
ATOM     26  C   UNL     1      -2.237  14.629  22.348  1.00  0.00     0.037 A 
ATOM     27  C   UNL     1       3.938  16.728  22.452  1.00  0.00     0.049 A 
ATOM     28  C   UNL     1      -1.621  15.991  22.457  1.00  0.00     0.074 A 
ATOM     29  C   UNL     1       4.389  18.036  22.520  1.00  0.00     0.029 A 
ATOM     30  N   UNL     1       2.552  16.784  22.485  1.00  0.00    -0.354 N 
ATOM     31  N   UNL     1      -0.351  16.320  22.456  1.00  0.00    -0.248 NA
ATOM     32  C   UNL     1      -2.541  17.128  22.586  1.00  0.00     0.031 C 
ATOM     33  C   UNL     1       3.277  18.879  22.625  1.00  0.00     0.029 A 
ATOM     34  C   UNL     1       2.131  18.100  22.591  1.00  0.00     0.049 A 
ATOM     35  H   UNL     1       1.954  16.003  22.440  1.00  0.00     0.167 HD
ATOM     36  C   UNL     1      -0.319  17.703  22.583  1.00  0.00     0.074 A 
ATOM     37  C   UNL     1      -1.697  18.150  22.637  1.00  0.00     0.031 C 
ATOM     38  C   UNL     1       0.756  18.526  22.654  1.00  0.00     0.037 A 
BRANCH  25  39
ATOM     39  C   UNL     1       6.209  15.622  22.423  1.00  0.00     0.058 A 
ATOM     40  C   UNL     1       7.004  15.453  21.278  1.00  0.00     0.135 A 
ATOM     41  C   UNL     1       6.857  15.927  23.631  1.00  0.00     0.135 A 
ATOM     42  F   UNL     1       6.436  15.148  20.101  1.00  0.00    -0.206 F 
ATOM     43  C   UNL     1       8.390  15.555  21.334  1.00  0.00     0.059 A 
ATOM     44  C   UNL     1       8.241  16.052  23.707  1.00  0.00     0.059 A 
ATOM     45  F   UNL     1       6.144  16.099  24.755  1.00  0.00    -0.206 F 
ATOM     46  C   UNL     1       9.001  15.848  22.555  1.00  0.00     0.060 A 
BRANCH  46  47
ATOM     47  S   UNL     1      10.802  15.965  22.620  1.00  0.00     0.124 S 
ATOM     48  O   UNL     1      11.183  14.556  22.611  1.00  0.00    -0.237 OA
ATOM     49  O   UNL     1      11.114  16.712  21.406  1.00  0.00    -0.237 OA
ATOM     50  O   UNL     1      11.050  16.675  23.870  1.00  0.00    -0.744 OA
ENDBRANCH  46  47
ENDBRANCH  25  39
BRANCH  26  51
ATOM     51  C   UNL     1      -3.709  14.438  22.379  1.00  0.00     0.058 A 
ATOM     52  C   UNL     1      -4.504  14.771  21.275  1.00  0.00     0.135 A 
ATOM     53  C   UNL     1      -4.336  13.856  23.491  1.00  0.00     0.135 A 
ATOM     54  F   UNL     1      -3.946  15.332  20.191  1.00  0.00    -0.206 F 
ATOM     55  C   UNL     1      -5.874  14.531  21.268  1.00  0.00     0.059 A 
ATOM     56  C   UNL     1      -5.700  13.587  23.501  1.00  0.00     0.059 A 
ATOM     57  F   UNL     1      -3.611  13.503  24.564  1.00  0.00    -0.206 F 
ATOM     58  C   UNL     1      -6.462  13.932  22.385  1.00  0.00     0.060 A 
BRANCH  58  59
ATOM     59  S   UNL     1      -8.224  13.540  22.338  1.00  0.00     0.124 S 
ATOM     60  O   UNL     1      -8.820  14.838  22.628  1.00  0.00    -0.237 OA
ATOM     61  O   UNL     1      -8.398  13.047  20.975  1.00  0.00    -0.237 OA
ATOM     62  O   UNL     1      -8.367  12.529  23.382  1.00  0.00    -0.744 OA
ENDBRANCH  58  59
ENDBRANCH  26  51
BRANCH  38  63
ATOM     63  C   UNL     1       0.480  19.994  22.796  1.00  0.00     0.058 A 
ATOM     64  C   UNL     1       0.079  20.545  24.023  1.00  0.00     0.135 A 
ATOM     65  C   UNL     1       0.648  20.862  21.706  1.00  0.00     0.135 A 
ATOM     66  F   UNL     1      -0.105  19.753  25.091  1.00  0.00    -0.206 F 
ATOM     67  C   UNL     1      -0.164  21.907  24.160  1.00  0.00     0.059 A 
ATOM     68  C   UNL     1       0.429  22.230  21.826  1.00  0.00     0.059 A 
ATOM     69  F   UNL     1       1.036  20.383  20.514  1.00  0.00    -0.206 F 
ATOM     70  C   UNL     1       0.011  22.742  23.055  1.00  0.00     0.060 A 
BRANCH  70  71
ATOM     71  S   UNL     1      -0.280  24.514  23.247  1.00  0.00     0.124 S 
ATOM     72  O   UNL     1      -1.736  24.579  23.190  1.00  0.00    -0.237 OA
ATOM     73  O   UNL     1       0.316  24.793  24.550  1.00  0.00    -0.237 OA
ATOM     74  O   UNL     1       0.422  25.096  22.107  1.00  0.00    -0.744 OA
ENDBRANCH  70  71
ENDBRANCH  38  63
ENDBRANCH  12  13
ENDBRANCH   5   7
ENDBRANCH   2   3
ENDBRANCH   1   2
BRANCH   1  75
ATOM     75  C   UNL     1       4.752   4.441  17.874  1.00  0.00     0.023 C 
BRANCH  75  76
ATOM     76  C   UNL     1       3.631   4.088  16.900  1.00  0.00     0.116 C 
BRANCH  76  77
ATOM     77  N   UNL     1       3.690   4.880  15.682  1.00  0.00    -0.352 N 
ATOM     78  C   UNL     1       3.995   4.462  14.413  1.00  0.00     0.251 C 
ATOM     79  H   UNL     1       3.484   5.838  15.781  1.00  0.00     0.163 HD
ATOM     80  O   UNL     1       3.954   5.218  13.450  1.00  0.00    -0.269 OA
BRANCH  78  81
ATOM     81  C   UNL     1       4.359   3.054  14.218  1.00  0.00     0.041 A 
ATOM     82  C   UNL     1       3.375   2.152  13.820  1.00  0.00     0.018 A 
ATOM     83  C   UNL     1       5.651   2.627  14.527  1.00  0.00     0.038 A 
ATOM     84  C   UNL     1       3.697   0.800  13.732  1.00  0.00     0.049 A 
ATOM     85  C   UNL     1       5.958   1.264  14.470  1.00  0.00     0.083 A 
ATOM     86  C   UNL     1       4.991   0.348  14.031  1.00  0.00     0.137 A 
ATOM     87  Cl  UNL     1       7.500   0.798  15.089  1.00  0.00    -0.080 Cl
BRANCH  86  88
ATOM     88  O   UNL     1       5.117  -1.010  13.974  1.00  0.00    -0.492 OA
BRANCH  88  89
ATOM     89  C   UNL     1       6.188  -1.571  13.209  1.00  0.00     0.233 C 
BRANCH  89  90
ATOM     90  C   UNL     1       6.200  -1.187  11.722  1.00  0.00     0.030 C 
ATOM     91  C   UNL     1       7.127   0.007  11.385  1.00  0.00     0.011 C 
ATOM     92  C   UNL     1       6.769  -2.299  10.795  1.00  0.00    -0.004 C 
ATOM     93  C   UNL     1       8.093  -0.575  10.338  1.00  0.00    -0.010 C 
ATOM     94  C   UNL     1       8.144  -2.786  11.284  1.00  0.00     0.004 C 
ATOM     95  C   UNL     1       7.170  -1.501   9.552  1.00  0.00     0.007 C 
ATOM     96  C   UNL     1       9.042  -1.567  11.035  1.00  0.00     0.004 C 
ENDBRANCH  89  90
ENDBRANCH  88  89
ENDBRANCH  86  88
ENDBRANCH  78  81
ENDBRANCH  76  77
ENDBRANCH  75  76
ENDBRANCH   1  75
TORSDOF 17
