REMARK SMILES O=C(NCCCCNC(=O)C1([NH+]2CCOCC2)CCC1)c1ccc(-c2c3nc(c(-c4c(F)cc(S(=O)(=O)[O-])cc4F)c4ccc([nH]4)c(-c4c(F)cc(S(=O)(=O)[O-])cc4F)c4nc(c(-c5c(F)cc(S(=O)(=O)[O-])cc5F)c5ccc2[nH]5)C=C4)C=C3)cc1
REMARK SMILES IDX 4 1 3 2 1 3 2 4 21 6 22 7 86 8 23 9 85 10 24 11 25 12 26 13
REMARK SMILES IDX 79 14 27 15 84 16 78 17 80 18 28 19 83 20 77 21 76 22 29 24
REMARK SMILES IDX 63 25 42 26 62 27 43 28 46 29 61 30 81 31 44 32 45 33 60 35
REMARK SMILES IDX 82 36 47 37 30 38 31 39 40 40 32 41 33 42 39 43 41 44 34 45
REMARK SMILES IDX 35 46 36 47 37 48 38 49 64 50 65 51 74 52 66 53 67 54 73 55
REMARK SMILES IDX 75 56 68 57 69 58 70 59 71 60 72 61 48 62 49 63 58 64 50 65
REMARK SMILES IDX 51 66 57 67 59 68 52 69 53 70 54 71 55 72 56 73 5 74 6 75
REMARK SMILES IDX 7 76 8 77 9 78 10 80 11 81 18 82 20 83 19 84 12 85 13 86
REMARK SMILES IDX 17 87 14 89 16 90 15 91
REMARK H PARENT 3 5 80 23 46 34 8 79 12 88
REMARK Flexibility Score: inf
ROOT
ATOM      1  C   UNL     1       4.308  -1.072  -0.542  1.00  0.00     0.116 C 
ENDROOT
BRANCH   1   2
ATOM      2  N   UNL     1       2.921  -0.661  -0.697  1.00  0.00    -0.352 N 
ATOM      3  O   UNL     1       1.014   0.395  -0.105  1.00  0.00    -0.269 OA
ATOM      4  C   UNL     1       2.208   0.222   0.084  1.00  0.00     0.251 C 
ATOM      5  H   UNL     1       2.433  -1.063  -1.452  1.00  0.00     0.163 HD
BRANCH   4   6
ATOM      6  C   UNL     1       2.912   0.920   1.182  1.00  0.00     0.039 A 
ATOM      7  C   UNL     1       4.129   1.560   0.941  1.00  0.00     0.014 A 
ATOM      8  C   UNL     1       2.378   0.871   2.472  1.00  0.00     0.014 A 
ATOM      9  C   UNL     1       4.884   2.018   2.012  1.00  0.00     0.010 A 
ATOM     10  C   UNL     1       3.106   1.404   3.539  1.00  0.00     0.010 A 
ATOM     11  C   UNL     1       4.382   1.945   3.322  1.00  0.00    -0.014 A 
BRANCH  11  12
ATOM     12  C   UNL     1       5.208   2.468   4.439  1.00  0.00     0.031 A 
ATOM     13  C   UNL     1       5.760   1.550   5.495  1.00  0.00     0.074 A 
ATOM     14  C   UNL     1       5.498   3.783   4.462  1.00  0.00     0.049 A 
ATOM     15  N   UNL     1       6.540   1.837   6.506  1.00  0.00    -0.248 NA
ATOM     16  C   UNL     1       5.384   0.130   5.414  1.00  0.00     0.031 C 
ATOM     17  C   UNL     1       5.008   4.769   3.495  1.00  0.00     0.029 A 
ATOM     18  N   UNL     1       6.295   4.513   5.304  1.00  0.00    -0.354 N 
ATOM     19  C   UNL     1       6.724   0.645   7.199  1.00  0.00     0.074 A 
ATOM     20  C   UNL     1       5.963  -0.368   6.498  1.00  0.00     0.031 C 
ATOM     21  C   UNL     1       5.561   5.961   3.762  1.00  0.00     0.029 A 
ATOM     22  C   UNL     1       6.401   5.836   4.948  1.00  0.00     0.049 A 
ATOM     23  H   UNL     1       6.748   4.127   6.088  1.00  0.00     0.167 HD
ATOM     24  C   UNL     1       7.462   0.419   8.312  1.00  0.00     0.037 A 
ATOM     25  C   UNL     1       7.096   6.840   5.514  1.00  0.00     0.037 A 
ATOM     26  C   UNL     1       8.243   1.427   8.983  1.00  0.00     0.049 A 
ATOM     27  C   UNL     1       7.922   6.558   6.734  1.00  0.00     0.074 A 
ATOM     28  C   UNL     1       9.059   1.289  10.093  1.00  0.00     0.029 A 
ATOM     29  N   UNL     1       8.308   2.761   8.606  1.00  0.00    -0.354 N 
ATOM     30  N   UNL     1       8.101   5.420   7.360  1.00  0.00    -0.248 NA
ATOM     31  C   UNL     1       8.636   7.695   7.326  1.00  0.00     0.031 C 
ATOM     32  C   UNL     1       9.592   2.546  10.406  1.00  0.00     0.029 A 
ATOM     33  C   UNL     1       9.137   3.460   9.470  1.00  0.00     0.049 A 
ATOM     34  H   UNL     1       7.834   3.154   7.838  1.00  0.00     0.167 HD
ATOM     35  C   UNL     1       8.958   5.700   8.416  1.00  0.00     0.074 A 
ATOM     36  C   UNL     1       9.275   7.113   8.332  1.00  0.00     0.031 C 
ATOM     37  C   UNL     1       9.437   4.866   9.371  1.00  0.00     0.037 A 
BRANCH  24  38
ATOM     38  C   UNL     1       7.445  -0.968   8.892  1.00  0.00     0.058 A 
ATOM     39  C   UNL     1       8.133  -2.033   8.290  1.00  0.00     0.135 A 
ATOM     40  C   UNL     1       6.754  -1.228  10.088  1.00  0.00     0.135 A 
ATOM     41  F   UNL     1       8.797  -1.843   7.139  1.00  0.00    -0.206 F 
ATOM     42  C   UNL     1       8.117  -3.312   8.838  1.00  0.00     0.059 A 
ATOM     43  C   UNL     1       6.742  -2.495  10.665  1.00  0.00     0.059 A 
ATOM     44  F   UNL     1       6.080  -0.246  10.705  1.00  0.00    -0.206 F 
ATOM     45  C   UNL     1       7.414  -3.534  10.024  1.00  0.00     0.060 A 
BRANCH  45  46
ATOM     46  S   UNL     1       7.393  -5.200  10.722  1.00  0.00     0.124 S 
ATOM     47  O   UNL     1       6.434  -5.868   9.847  1.00  0.00    -0.237 OA
ATOM     48  O   UNL     1       8.783  -5.621  10.577  1.00  0.00    -0.237 OA
ATOM     49  O   UNL     1       6.947  -4.986  12.095  1.00  0.00    -0.744 OA
ENDBRANCH  45  46
ENDBRANCH  24  38
BRANCH  25  50
ATOM     50  C   UNL     1       7.045   8.196   4.912  1.00  0.00     0.058 A 
ATOM     51  C   UNL     1       8.149   8.720   4.225  1.00  0.00     0.135 A 
ATOM     52  C   UNL     1       5.879   8.975   4.973  1.00  0.00     0.135 A 
ATOM     53  F   UNL     1       9.286   8.011   4.143  1.00  0.00    -0.206 F 
ATOM     54  C   UNL     1       8.103   9.972   3.622  1.00  0.00     0.059 A 
ATOM     55  C   UNL     1       5.800  10.219   4.358  1.00  0.00     0.059 A 
ATOM     56  F   UNL     1       4.790   8.507   5.603  1.00  0.00    -0.206 F 
ATOM     57  C   UNL     1       6.921  10.712   3.690  1.00  0.00     0.060 A 
BRANCH  57  58
ATOM     58  S   UNL     1       6.841  12.306   2.845  1.00  0.00     0.124 S 
ATOM     59  O   UNL     1       7.559  13.167   3.777  1.00  0.00    -0.237 OA
ATOM     60  O   UNL     1       7.521  12.023   1.584  1.00  0.00    -0.237 OA
ATOM     61  O   UNL     1       5.407  12.551   2.731  1.00  0.00    -0.744 OA
ENDBRANCH  57  58
ENDBRANCH  25  50
BRANCH  37  62
ATOM     62  C   UNL     1      10.370   5.461  10.385  1.00  0.00     0.058 A 
ATOM     63  C   UNL     1       9.899   6.283  11.420  1.00  0.00     0.135 A 
ATOM     64  C   UNL     1      11.747   5.194  10.328  1.00  0.00     0.135 A 
ATOM     65  F   UNL     1       8.592   6.574  11.511  1.00  0.00    -0.206 F 
ATOM     66  C   UNL     1      10.767   6.846  12.350  1.00  0.00     0.059 A 
ATOM     67  C   UNL     1      12.630   5.728  11.260  1.00  0.00     0.059 A 
ATOM     68  F   UNL     1      12.244   4.407   9.361  1.00  0.00    -0.206 F 
ATOM     69  C   UNL     1      12.132   6.566  12.258  1.00  0.00     0.060 A 
BRANCH  69  70
ATOM     70  S   UNL     1      13.253   7.291  13.474  1.00  0.00     0.124 S 
ATOM     71  O   UNL     1      13.396   8.651  12.965  1.00  0.00    -0.237 OA
ATOM     72  O   UNL     1      12.501   7.156  14.718  1.00  0.00    -0.237 OA
ATOM     73  O   UNL     1      14.444   6.454  13.376  1.00  0.00    -0.744 OA
ENDBRANCH  69  70
ENDBRANCH  37  62
ENDBRANCH  11  12
ENDBRANCH   4   6
ENDBRANCH   1   2
BRANCH   1  74
ATOM     74  C   UNL     1       4.563  -2.509  -0.972  1.00  0.00     0.023 C 
BRANCH  74  75
ATOM     75  C   UNL     1       4.221  -2.818  -2.429  1.00  0.00     0.023 C 
BRANCH  75  76
ATOM     76  C   UNL     1       5.016  -2.013  -3.458  1.00  0.00     0.116 C 
BRANCH  76  77
ATOM     77  N   UNL     1       6.401  -2.422  -3.485  1.00  0.00    -0.351 N 
ATOM     78  C   UNL     1       7.074  -3.272  -4.336  1.00  0.00     0.281 C 
ATOM     79  H   UNL     1       6.959  -2.028  -2.776  1.00  0.00     0.163 HD
ATOM     80  O   UNL     1       8.267  -3.456  -4.052  1.00  0.00    -0.268 OA
BRANCH  78  81
ATOM     81  C   UNL     1       6.353  -3.930  -5.618  1.00  0.00     0.177 C 
ATOM     82  C   UNL     1       6.704  -5.463  -5.719  1.00  0.00     0.079 C 
ATOM     83  C   UNL     1       4.865  -4.367  -5.582  1.00  0.00     0.079 C 
ATOM     84  C   UNL     1       5.237  -5.779  -6.043  1.00  0.00     0.014 C 
BRANCH  81  85
ATOM     85  N   UNL     1       6.757  -3.247  -6.888  1.00  0.00    -0.318 N 
ATOM     86  C   UNL     1       6.553  -1.788  -6.900  1.00  0.00     0.291 C 
ATOM     87  C   UNL     1       6.427  -3.807  -8.204  1.00  0.00     0.291 C 
ATOM     88  H   UNL     1       7.745  -3.486  -6.801  1.00  0.00     0.349 HD
ATOM     89  C   UNL     1       5.210  -1.352  -7.500  1.00  0.00     0.221 C 
ATOM     90  C   UNL     1       5.108  -3.307  -8.816  1.00  0.00     0.221 C 
ATOM     91  O   UNL     1       5.030  -1.877  -8.820  1.00  0.00    -0.370 OA
ENDBRANCH  81  85
ENDBRANCH  78  81
ENDBRANCH  76  77
ENDBRANCH  75  76
ENDBRANCH  74  75
ENDBRANCH   1  74
TORSDOF 15
