REMARK SMILES Cn1cc(C(=O)NCCCCNC(=O)c2ccc(-c3c4nc(c(-c5c(F)cc(S(=O)(=O)[O-])cc5F)c5ccc([nH]5)c(-c5c(F)cc(S(=O)(=O)[O-])cc5F)c5nc(c(-c6c(F)cc(S(=O)(=O)[O-])cc6F)c6ccc3[nH]6)C=C5)C=C4)cc2)c(C(=O)Nc2ccc(-c3nc4cc(Cl)ccc4o3)cc2)n1
REMARK SMILES IDX 9 1 8 2 7 3 5 4 6 5 4 7 1 8 2 9 3 10 101 11 81 12 82 13
REMARK SMILES IDX 83 14 84 15 85 17 86 18 100 19 87 20 99 21 88 22 89 23 90 24
REMARK SMILES IDX 98 25 91 26 97 27 92 28 96 29 93 30 95 31 94 32 10 33 11 34
REMARK SMILES IDX 12 35 13 36 14 38 15 39 16 40 80 41 17 42 79 43 18 44 19 45
REMARK SMILES IDX 20 46 73 47 21 48 78 49 72 50 74 51 22 52 77 53 71 54 70 55
REMARK SMILES IDX 23 57 57 58 36 59 56 60 37 61 40 62 55 63 75 64 38 65 39 66
REMARK SMILES IDX 54 68 76 69 41 70 24 71 25 72 34 73 26 74 27 75 33 76 35 77
REMARK SMILES IDX 28 78 29 79 30 80 31 81 32 82 58 83 59 84 68 85 60 86 61 87
REMARK SMILES IDX 67 88 69 89 62 90 63 91 64 92 65 93 66 94 42 95 43 96 52 97
REMARK SMILES IDX 44 98 45 99 51 100 53 101 46 102 47 103 48 104 49 105 50 106
REMARK H PARENT 7 6 84 16 12 37 74 56 40 67
REMARK Flexibility Score: inf
ROOT
ATOM      1  C   UNL     1       0.647  -4.418  -0.653  1.00  0.00     0.023 C 
ENDROOT
BRANCH   1   2
ATOM      2  C   UNL     1       0.572  -4.012   0.817  1.00  0.00     0.116 C 
BRANCH   2   3
ATOM      3  N   UNL     1       1.642  -3.154   1.275  1.00  0.00    -0.352 N 
ATOM      4  C   UNL     1       1.785  -1.786   1.364  1.00  0.00     0.255 C 
ATOM      5  O   UNL     1       2.701  -1.390   2.100  1.00  0.00    -0.269 OA
ATOM      6  H   UNL     1       2.433  -3.650   1.588  1.00  0.00     0.163 HD
BRANCH   4   7
ATOM      7  C   UNL     1       0.937  -0.842   0.653  1.00  0.00     0.090 A 
ATOM      8  C   UNL     1      -2.096   0.603  -0.666  1.00  0.00     0.173 C 
ATOM      9  N   UNL     1      -0.761   0.226  -0.265  1.00  0.00    -0.274 N 
ATOM     10  C   UNL     1      -0.353  -0.994   0.183  1.00  0.00     0.123 A 
ATOM     11  N   UNL     1       0.194   1.155  -0.231  1.00  0.00    -0.167 NA
ATOM     12  C   UNL     1       1.244   0.548   0.365  1.00  0.00     0.163 A 
BRANCH  12  13
ATOM     13  C   UNL     1       2.436   1.359   0.706  1.00  0.00     0.276 C 
ATOM     14  O   UNL     1       2.324   2.477   1.222  1.00  0.00    -0.267 OA
ATOM     15  N   UNL     1       3.719   0.881   0.529  1.00  0.00    -0.321 N 
ATOM     16  H   UNL     1       4.413   1.387   1.010  1.00  0.00     0.170 HD
BRANCH  15  17
ATOM     17  C   UNL     1       4.199  -0.198  -0.217  1.00  0.00     0.041 A 
ATOM     18  C   UNL     1       5.352  -0.842   0.249  1.00  0.00     0.027 A 
ATOM     19  C   UNL     1       3.565  -0.662  -1.365  1.00  0.00     0.027 A 
ATOM     20  C   UNL     1       5.780  -2.035  -0.338  1.00  0.00     0.016 A 
ATOM     21  C   UNL     1       4.014  -1.832  -1.971  1.00  0.00     0.016 A 
ATOM     22  C   UNL     1       5.089  -2.559  -1.433  1.00  0.00     0.037 A 
BRANCH  22  23
ATOM     23  C   UNL     1       5.357  -3.880  -1.977  1.00  0.00     0.227 A 
ATOM     24  N   UNL     1       4.939  -4.363  -3.132  1.00  0.00    -0.209 NA
ATOM     25  O   UNL     1       5.847  -4.820  -1.102  1.00  0.00    -0.436 OA
ATOM     26  C   UNL     1       5.093  -5.711  -2.992  1.00  0.00     0.111 A 
ATOM     27  C   UNL     1       5.649  -6.002  -1.757  1.00  0.00     0.155 A 
ATOM     28  C   UNL     1       4.715  -6.747  -3.845  1.00  0.00     0.053 A 
ATOM     29  C   UNL     1       5.881  -7.286  -1.283  1.00  0.00     0.051 A 
ATOM     30  C   UNL     1       4.890  -8.053  -3.385  1.00  0.00     0.043 A 
ATOM     31  C   UNL     1       5.471  -8.320  -2.137  1.00  0.00     0.024 A 
ATOM     32  Cl  UNL     1       4.312  -9.332  -4.378  1.00  0.00    -0.084 Cl
ENDBRANCH  22  23
ENDBRANCH  15  17
ENDBRANCH  12  13
ENDBRANCH   4   7
ENDBRANCH   2   3
ENDBRANCH   1   2
BRANCH   1  33
ATOM     33  C   UNL     1       1.796  -5.361  -1.036  1.00  0.00     0.023 C 
BRANCH  33  34
ATOM     34  C   UNL     1       1.988  -6.628  -0.198  1.00  0.00     0.116 C 
BRANCH  34  35
ATOM     35  N   UNL     1       0.806  -7.464  -0.092  1.00  0.00    -0.352 N 
ATOM     36  C   UNL     1       0.687  -8.828   0.057  1.00  0.00     0.251 C 
ATOM     37  H   UNL     1      -0.048  -6.977  -0.133  1.00  0.00     0.163 HD
ATOM     38  O   UNL     1      -0.444  -9.312   0.088  1.00  0.00    -0.269 OA
BRANCH  36  39
ATOM     39  C   UNL     1       1.869  -9.731   0.138  1.00  0.00     0.039 A 
ATOM     40  C   UNL     1       1.780 -10.991  -0.472  1.00  0.00     0.014 A 
ATOM     41  C   UNL     1       3.036  -9.399   0.828  1.00  0.00     0.014 A 
ATOM     42  C   UNL     1       2.870 -11.873  -0.460  1.00  0.00     0.010 A 
ATOM     43  C   UNL     1       4.142 -10.258   0.797  1.00  0.00     0.010 A 
ATOM     44  C   UNL     1       4.082 -11.498   0.136  1.00  0.00    -0.014 A 
BRANCH  44  45
ATOM     45  C   UNL     1       5.312 -12.337   0.031  1.00  0.00     0.031 A 
ATOM     46  C   UNL     1       5.988 -12.877   1.261  1.00  0.00     0.074 A 
ATOM     47  C   UNL     1       5.909 -12.510  -1.166  1.00  0.00     0.049 A 
ATOM     48  N   UNL     1       7.149 -13.473   1.368  1.00  0.00    -0.248 NA
ATOM     49  C   UNL     1       5.271 -12.718   2.534  1.00  0.00     0.031 C 
ATOM     50  C   UNL     1       5.384 -12.044  -2.446  1.00  0.00     0.029 A 
ATOM     51  N   UNL     1       7.120 -13.070  -1.496  1.00  0.00    -0.354 N 
ATOM     52  C   UNL     1       7.304 -13.764   2.717  1.00  0.00     0.074 A 
ATOM     53  C   UNL     1       6.140 -13.229   3.396  1.00  0.00     0.031 C 
ATOM     54  C   UNL     1       6.298 -12.252  -3.406  1.00  0.00     0.029 A 
ATOM     55  C   UNL     1       7.468 -12.886  -2.814  1.00  0.00     0.049 A 
ATOM     56  H   UNL     1       7.684 -13.556  -0.851  1.00  0.00     0.167 HD
ATOM     57  C   UNL     1       8.304 -14.441   3.332  1.00  0.00     0.037 A 
ATOM     58  C   UNL     1       8.601 -13.176  -3.481  1.00  0.00     0.037 A 
ATOM     59  C   UNL     1       9.444 -15.011   2.664  1.00  0.00     0.049 A 
ATOM     60  C   UNL     1       9.709 -13.904  -2.783  1.00  0.00     0.074 A 
ATOM     61  C   UNL     1      10.454 -15.796   3.197  1.00  0.00     0.029 A 
ATOM     62  N   UNL     1       9.731 -14.859   1.317  1.00  0.00    -0.354 N 
ATOM     63  N   UNL     1       9.799 -14.241  -1.520  1.00  0.00    -0.248 NA
ATOM     64  C   UNL     1      10.850 -14.329  -3.607  1.00  0.00     0.031 C 
ATOM     65  C   UNL     1      11.359 -16.106   2.174  1.00  0.00     0.029 A 
ATOM     66  C   UNL     1      10.904 -15.527   1.002  1.00  0.00     0.049 A 
ATOM     67  H   UNL     1       9.182 -14.351   0.677  1.00  0.00     0.167 HD
ATOM     68  C   UNL     1      10.978 -14.965  -1.408  1.00  0.00     0.074 A 
ATOM     69  C   UNL     1      11.584 -14.994  -2.723  1.00  0.00     0.031 C 
ATOM     70  C   UNL     1      11.494 -15.572  -0.312  1.00  0.00     0.037 A 
BRANCH  57  71
ATOM     71  C   UNL     1       8.182 -14.625   4.815  1.00  0.00     0.058 A 
ATOM     72  C   UNL     1       7.286 -15.559   5.359  1.00  0.00     0.135 A 
ATOM     73  C   UNL     1       8.957 -13.860   5.700  1.00  0.00     0.135 A 
ATOM     74  F   UNL     1       6.516 -16.305   4.551  1.00  0.00    -0.206 F 
ATOM     75  C   UNL     1       7.130 -15.699   6.733  1.00  0.00     0.059 A 
ATOM     76  C   UNL     1       8.830 -13.997   7.079  1.00  0.00     0.059 A 
ATOM     77  F   UNL     1       9.828 -12.956   5.227  1.00  0.00    -0.206 F 
ATOM     78  C   UNL     1       7.896 -14.902   7.585  1.00  0.00     0.060 A 
BRANCH  78  79
ATOM     79  S   UNL     1       7.661 -15.052   9.368  1.00  0.00     0.124 S 
ATOM     80  O   UNL     1       6.520 -14.167   9.582  1.00  0.00    -0.237 OA
ATOM     81  O   UNL     1       7.397 -16.477   9.540  1.00  0.00    -0.237 OA
ATOM     82  O   UNL     1       8.932 -14.584   9.912  1.00  0.00    -0.744 OA
ENDBRANCH  78  79
ENDBRANCH  57  71
BRANCH  58  83
ATOM     83  C   UNL     1       8.726 -12.800  -4.910  1.00  0.00     0.058 A 
ATOM     84  C   UNL     1       8.491 -13.736  -5.925  1.00  0.00     0.135 A 
ATOM     85  C   UNL     1       9.053 -11.487  -5.283  1.00  0.00     0.135 A 
ATOM     86  F   UNL     1       8.175 -15.001  -5.609  1.00  0.00    -0.206 F 
ATOM     87  C   UNL     1       8.586 -13.389  -7.267  1.00  0.00     0.059 A 
ATOM     88  C   UNL     1       9.144 -11.113  -6.619  1.00  0.00     0.059 A 
ATOM     89  F   UNL     1       9.270 -10.556  -4.341  1.00  0.00    -0.206 F 
ATOM     90  C   UNL     1       8.915 -12.074  -7.605  1.00  0.00     0.060 A 
BRANCH  90  91
ATOM     91  S   UNL     1       8.989 -11.621  -9.352  1.00  0.00     0.124 S 
ATOM     92  O   UNL     1      10.270 -12.193  -9.748  1.00  0.00    -0.237 OA
ATOM     93  O   UNL     1       7.802 -12.277  -9.892  1.00  0.00    -0.237 OA
ATOM     94  O   UNL     1       8.929 -10.162  -9.321  1.00  0.00    -0.744 OA
ENDBRANCH  90  91
ENDBRANCH  58  83
BRANCH  70  95
ATOM     95  C   UNL     1      12.745 -16.377  -0.500  1.00  0.00     0.058 A 
ATOM     96  C   UNL     1      14.008 -15.772  -0.570  1.00  0.00     0.135 A 
ATOM     97  C   UNL     1      12.678 -17.776  -0.582  1.00  0.00     0.135 A 
ATOM     98  F   UNL     1      14.121 -14.435  -0.508  1.00  0.00    -0.206 F 
ATOM     99  C   UNL     1      15.166 -16.528  -0.726  1.00  0.00     0.059 A 
ATOM    100  C   UNL     1      13.823 -18.553  -0.726  1.00  0.00     0.059 A 
ATOM    101  F   UNL     1      11.491 -18.400  -0.520  1.00  0.00    -0.206 F 
ATOM    102  C   UNL     1      15.062 -17.919  -0.806  1.00  0.00     0.060 A 
BRANCH 102 103
ATOM    103  S   UNL     1      16.567 -18.903  -0.971  1.00  0.00     0.124 S 
ATOM    104  O   UNL     1      16.809 -18.831  -2.408  1.00  0.00    -0.237 OA
ATOM    105  O   UNL     1      17.517 -18.179  -0.132  1.00  0.00    -0.237 OA
ATOM    106  O   UNL     1      16.168 -20.213  -0.464  1.00  0.00    -0.744 OA
ENDBRANCH 102 103
ENDBRANCH  70  95
ENDBRANCH  44  45
ENDBRANCH  36  39
ENDBRANCH  34  35
ENDBRANCH  33  34
ENDBRANCH   1  33
TORSDOF 17
