REMARK SMILES O=C(NCCCCNC(=O)c1oc2cccc3c2c1CCC3)c1ccc(-c2c3nc(c(-c4c(F)cc(S(=O)(=O)[O-])cc4F)c4ccc([nH]4)c(-c4c(F)cc(S(=O)(=O)[O-])cc4F)c4nc(c(-c5c(F)cc(S(=O)(=O)[O-])cc5F)c5ccc2[nH]5)C=C4)C=C3)cc1
REMARK SMILES IDX 4 1 3 2 1 3 2 4 23 6 24 7 88 8 25 9 87 10 26 11 27 12 28 13
REMARK SMILES IDX 81 14 29 15 86 16 80 17 82 18 30 19 85 20 79 21 78 22 31 24
REMARK SMILES IDX 65 25 44 26 64 27 45 28 48 29 63 30 83 31 46 32 47 33 62 35
REMARK SMILES IDX 84 36 49 37 32 38 33 39 42 40 34 41 35 42 41 43 43 44 36 45
REMARK SMILES IDX 37 46 38 47 39 48 40 49 66 50 67 51 76 52 68 53 69 54 75 55
REMARK SMILES IDX 77 56 70 57 71 58 72 59 73 60 74 61 50 62 51 63 60 64 52 65
REMARK SMILES IDX 53 66 59 67 61 68 54 69 55 70 56 71 57 72 58 73 5 74 6 75
REMARK SMILES IDX 7 76 8 77 9 78 10 80 11 81 12 82 19 83 13 84 18 85 20 86
REMARK SMILES IDX 14 87 17 88 21 89 15 90 16 91 22 92
REMARK H PARENT 3 5 82 23 48 34 8 79
REMARK Flexibility Score: inf
ROOT
ATOM      1  C   UNL     1       4.814  -0.960  -0.843  1.00  0.00     0.116 C 
ENDROOT
BRANCH   1   2
ATOM      2  N   UNL     1       3.433  -0.628  -1.150  1.00  0.00    -0.352 N 
ATOM      3  O   UNL     1       1.369   0.212  -1.004  1.00  0.00    -0.269 OA
ATOM      4  C   UNL     1       2.437  -0.012  -0.433  1.00  0.00     0.251 C 
ATOM      5  H   UNL     1       3.155  -0.900  -2.055  1.00  0.00     0.163 HD
BRANCH   4   6
ATOM      6  C   UNL     1       2.571   0.310   1.007  1.00  0.00     0.039 A 
ATOM      7  C   UNL     1       3.771   0.708   1.595  1.00  0.00     0.014 A 
ATOM      8  C   UNL     1       1.421   0.194   1.803  1.00  0.00     0.014 A 
ATOM      9  C   UNL     1       3.862   0.825   2.975  1.00  0.00     0.010 A 
ATOM     10  C   UNL     1       1.496   0.372   3.183  1.00  0.00     0.010 A 
ATOM     11  C   UNL     1       2.732   0.635   3.776  1.00  0.00    -0.014 A 
BRANCH  11  12
ATOM     12  C   UNL     1       2.905   0.834   5.216  1.00  0.00     0.031 A 
ATOM     13  C   UNL     1       3.371   2.188   5.642  1.00  0.00     0.074 A 
ATOM     14  C   UNL     1       2.560  -0.063   6.160  1.00  0.00     0.049 A 
ATOM     15  N   UNL     1       4.421   2.512   6.329  1.00  0.00    -0.248 NA
ATOM     16  C   UNL     1       2.569   3.336   5.189  1.00  0.00     0.031 C 
ATOM     17  C   UNL     1       1.792  -1.297   5.994  1.00  0.00     0.029 A 
ATOM     18  N   UNL     1       2.746   0.015   7.510  1.00  0.00    -0.354 N 
ATOM     19  C   UNL     1       4.326   3.886   6.544  1.00  0.00     0.074 A 
ATOM     20  C   UNL     1       3.224   4.356   5.742  1.00  0.00     0.031 C 
ATOM     21  C   UNL     1       1.391  -1.730   7.210  1.00  0.00     0.029 A 
ATOM     22  C   UNL     1       1.978  -0.880   8.235  1.00  0.00     0.049 A 
ATOM     23  H   UNL     1       3.369   0.651   7.931  1.00  0.00     0.167 HD
ATOM     24  C   UNL     1       5.046   4.552   7.488  1.00  0.00     0.037 A 
ATOM     25  C   UNL     1       1.767  -0.864   9.572  1.00  0.00     0.037 A 
ATOM     26  C   UNL     1       6.177   3.812   7.964  1.00  0.00     0.049 A 
ATOM     27  C   UNL     1       2.856  -0.079  10.205  1.00  0.00     0.074 A 
ATOM     28  C   UNL     1       7.328   3.309   7.391  1.00  0.00     0.029 A 
ATOM     29  N   UNL     1       6.099   3.233   9.206  1.00  0.00    -0.354 N 
ATOM     30  N   UNL     1       4.107  -0.445  10.261  1.00  0.00    -0.248 NA
ATOM     31  C   UNL     1       2.605   1.318  10.531  1.00  0.00     0.031 C 
ATOM     32  C   UNL     1       7.631   2.125   8.124  1.00  0.00     0.029 A 
ATOM     33  C   UNL     1       6.640   1.976   9.095  1.00  0.00     0.049 A 
ATOM     34  H   UNL     1       5.727   3.642  10.020  1.00  0.00     0.167 HD
ATOM     35  C   UNL     1       4.830   0.738  10.248  1.00  0.00     0.074 A 
ATOM     36  C   UNL     1       3.857   1.778  10.549  1.00  0.00     0.031 C 
ATOM     37  C   UNL     1       6.091   0.796   9.730  1.00  0.00     0.037 A 
BRANCH  24  38
ATOM     38  C   UNL     1       4.543   5.795   8.168  1.00  0.00     0.058 A 
ATOM     39  C   UNL     1       5.434   6.701   8.772  1.00  0.00     0.135 A 
ATOM     40  C   UNL     1       3.172   5.997   8.441  1.00  0.00     0.135 A 
ATOM     41  F   UNL     1       6.759   6.566   8.609  1.00  0.00    -0.206 F 
ATOM     42  C   UNL     1       4.990   7.736   9.599  1.00  0.00     0.059 A 
ATOM     43  C   UNL     1       2.705   7.048   9.221  1.00  0.00     0.059 A 
ATOM     44  F   UNL     1       2.243   5.127   8.019  1.00  0.00    -0.206 F 
ATOM     45  C   UNL     1       3.624   7.895   9.822  1.00  0.00     0.060 A 
BRANCH  45  46
ATOM     46  S   UNL     1       3.051   9.184  10.945  1.00  0.00     0.124 S 
ATOM     47  O   UNL     1       3.385   8.608  12.242  1.00  0.00    -0.237 OA
ATOM     48  O   UNL     1       3.851  10.333  10.531  1.00  0.00    -0.237 OA
ATOM     49  O   UNL     1       1.626   9.282  10.642  1.00  0.00    -0.744 OA
ENDBRANCH  45  46
ENDBRANCH  24  38
BRANCH  25  50
ATOM     50  C   UNL     1       0.516  -1.217  10.292  1.00  0.00     0.058 A 
ATOM     51  C   UNL     1       0.510  -1.403  11.685  1.00  0.00     0.135 A 
ATOM     52  C   UNL     1      -0.746  -1.115   9.672  1.00  0.00     0.135 A 
ATOM     53  F   UNL     1       1.665  -1.481  12.362  1.00  0.00    -0.206 F 
ATOM     54  C   UNL     1      -0.676  -1.441  12.425  1.00  0.00     0.059 A 
ATOM     55  C   UNL     1      -1.941  -1.169  10.385  1.00  0.00     0.059 A 
ATOM     56  F   UNL     1      -0.859  -0.861   8.360  1.00  0.00    -0.206 F 
ATOM     57  C   UNL     1      -1.897  -1.304  11.765  1.00  0.00     0.060 A 
BRANCH  57  58
ATOM     58  S   UNL     1      -3.418  -1.177  12.732  1.00  0.00     0.124 S 
ATOM     59  O   UNL     1      -3.522  -2.514  13.307  1.00  0.00    -0.237 OA
ATOM     60  O   UNL     1      -3.096  -0.103  13.666  1.00  0.00    -0.237 OA
ATOM     61  O   UNL     1      -4.430  -0.848  11.732  1.00  0.00    -0.744 OA
ENDBRANCH  57  58
ENDBRANCH  25  50
BRANCH  37  62
ATOM     62  C   UNL     1       6.833  -0.497   9.517  1.00  0.00     0.058 A 
ATOM     63  C   UNL     1       6.434  -1.481   8.597  1.00  0.00     0.135 A 
ATOM     64  C   UNL     1       8.072  -0.676  10.152  1.00  0.00     0.135 A 
ATOM     65  F   UNL     1       5.317  -1.332   7.871  1.00  0.00    -0.206 F 
ATOM     66  C   UNL     1       7.213  -2.611   8.348  1.00  0.00     0.059 A 
ATOM     67  C   UNL     1       8.881  -1.781   9.895  1.00  0.00     0.059 A 
ATOM     68  F   UNL     1       8.538   0.262  10.994  1.00  0.00    -0.206 F 
ATOM     69  C   UNL     1       8.439  -2.751   8.998  1.00  0.00     0.060 A 
BRANCH  69  70
ATOM     70  S   UNL     1       9.492  -4.159   8.584  1.00  0.00     0.124 S 
ATOM     71  O   UNL     1       8.809  -5.261   9.253  1.00  0.00    -0.237 OA
ATOM     72  O   UNL     1       9.442  -4.175   7.124  1.00  0.00    -0.237 OA
ATOM     73  O   UNL     1      10.789  -3.793   9.148  1.00  0.00    -0.744 OA
ENDBRANCH  69  70
ENDBRANCH  37  62
ENDBRANCH  11  12
ENDBRANCH   4   6
ENDBRANCH   1   2
BRANCH   1  74
ATOM     74  C   UNL     1       5.025  -2.050   0.211  1.00  0.00     0.023 C 
BRANCH  74  75
ATOM     75  C   UNL     1       4.498  -3.436  -0.156  1.00  0.00     0.023 C 
BRANCH  75  76
ATOM     76  C   UNL     1       4.922  -3.953  -1.524  1.00  0.00     0.116 C 
BRANCH  76  77
ATOM     77  N   UNL     1       6.358  -4.051  -1.698  1.00  0.00    -0.349 N 
ATOM     78  C   UNL     1       7.053  -4.937  -2.507  1.00  0.00     0.287 C 
ATOM     79  H   UNL     1       6.903  -3.414  -1.182  1.00  0.00     0.163 HD
ATOM     80  O   UNL     1       8.267  -4.901  -2.506  1.00  0.00    -0.266 OA
BRANCH  78  81
ATOM     81  C   UNL     1       6.267  -5.866  -3.293  1.00  0.00     0.195 A 
ATOM     82  O   UNL     1       6.447  -7.216  -3.050  1.00  0.00    -0.451 OA
ATOM     83  C   UNL     1       5.280  -5.695  -4.246  1.00  0.00     0.012 A 
ATOM     84  C   UNL     1       5.508  -7.888  -3.778  1.00  0.00     0.135 A 
ATOM     85  C   UNL     1       4.785  -6.983  -4.512  1.00  0.00     0.028 A 
ATOM     86  C   UNL     1       4.649  -4.529  -4.926  1.00  0.00     0.041 C 
ATOM     87  C   UNL     1       5.245  -9.250  -3.805  1.00  0.00     0.048 A 
ATOM     88  C   UNL     1       3.726  -7.352  -5.339  1.00  0.00    -0.037 A 
ATOM     89  C   UNL     1       3.898  -4.986  -6.213  1.00  0.00     0.010 C 
ATOM     90  C   UNL     1       4.162  -9.640  -4.618  1.00  0.00     0.004 A 
ATOM     91  C   UNL     1       3.408  -8.713  -5.365  1.00  0.00     0.004 A 
ATOM     92  C   UNL     1       2.984  -6.238  -6.025  1.00  0.00     0.036 C 
ENDBRANCH  78  81
ENDBRANCH  76  77
ENDBRANCH  75  76
ENDBRANCH  74  75
ENDBRANCH   1  74
TORSDOF 14
