REMARK SMILES CC1=C([C@H](NC(=O)[C@@H]2[C@H](C)c3cc(F)ccc3N2C)C(=O)NCCCCNC(=O)c2ccc(-c3c4nc(c(-c5c(F)cc(S(=O)(=O)[O-])cc5F)c5ccc([nH]5)c(-c5c(F)cc(S(=O)(=O)[O-])cc5F)c5nc(c(-c6c(F)cc(S(=O)(=O)[O-])cc6F)c6ccc3[nH]6)C=C5)C=C4)cc2)[C@@H](C)N=N1
REMARK SMILES IDX 25 1 24 2 23 3 22 4 20 5 21 6 4 8 3 9 1 10 2 11 99 12 96 13
REMARK SMILES IDX 98 14 97 15 5 16 6 17 7 19 8 20 9 21 18 22 11 23 10 24 17 25
REMARK SMILES IDX 19 26 12 27 16 28 13 29 15 30 14 31 26 32 27 33 28 34 29 36
REMARK SMILES IDX 30 37 31 38 95 39 32 40 94 41 33 42 34 43 35 44 88 45 36 46
REMARK SMILES IDX 93 47 87 48 89 49 37 50 92 51 86 52 85 53 38 55 72 56 51 57
REMARK SMILES IDX 71 58 52 59 55 60 70 61 90 62 53 63 54 64 69 66 91 67 56 68
REMARK SMILES IDX 39 69 40 70 49 71 41 72 42 73 48 74 50 75 43 76 44 77 45 78
REMARK SMILES IDX 46 79 47 80 73 81 74 82 83 83 75 84 76 85 82 86 84 87 77 88
REMARK SMILES IDX 78 89 79 90 80 91 81 92 57 93 58 94 67 95 59 96 60 97 66 98
REMARK SMILES IDX 68 99 61 100 62 101 63 102 64 103 65 104
REMARK H PARENT 22 7 5 18 27 35 89 54 55 65
REMARK Flexibility Score: inf
ROOT
ATOM      1  C   UNL     1      -1.837   6.434  -2.561  1.00  0.00     0.023 C 
ENDROOT
BRANCH   1   2
ATOM      2  C   UNL     1      -0.965   5.191  -2.737  1.00  0.00     0.023 C 
BRANCH   2   3
ATOM      3  C   UNL     1       0.228   5.110  -1.799  1.00  0.00     0.116 C 
BRANCH   3   4
ATOM      4  N   UNL     1      -0.155   4.922  -0.413  1.00  0.00    -0.354 N 
ATOM      5  C   UNL     1       0.422   4.121   0.534  1.00  0.00     0.247 C 
ATOM      6  O   UNL     1       0.084   4.273   1.712  1.00  0.00    -0.272 OA
ATOM      7  H   UNL     1      -0.936   5.441  -0.113  1.00  0.00     0.163 HD
BRANCH   5   8
ATOM      8  C   UNL     1       1.510   3.079   0.144  1.00  0.00     0.202 C 
BRANCH   8   9
ATOM      9  C   UNL     1       2.772   3.686  -0.380  1.00  0.00     0.011 C 
ATOM     10  C   UNL     1       3.089   5.634   1.242  1.00  0.00     0.069 C 
ATOM     11  C   UNL     1       3.439   4.750   0.093  1.00  0.00     0.064 C 
ATOM     12  N   UNL     1       4.638   4.946  -0.541  1.00  0.00    -0.160 NA
ATOM     13  C   UNL     1       3.651   3.137  -1.460  1.00  0.00     0.156 C 
ATOM     14  N   UNL     1       4.834   4.042  -1.395  1.00  0.00    -0.181 NA
ATOM     15  C   UNL     1       3.122   3.205  -2.889  1.00  0.00     0.040 C 
ENDBRANCH   8   9
BRANCH   8  16
ATOM     16  N   UNL     1       0.908   2.137  -0.787  1.00  0.00    -0.339 N 
ATOM     17  C   UNL     1       0.987   0.774  -0.826  1.00  0.00     0.244 C 
ATOM     18  H   UNL     1       0.361   2.544  -1.497  1.00  0.00     0.164 HD
ATOM     19  O   UNL     1       0.196   0.201  -1.575  1.00  0.00    -0.273 OA
BRANCH  17  20
ATOM     20  C   UNL     1       2.012   0.040   0.061  1.00  0.00     0.178 C 
ATOM     21  C   UNL     1       2.849  -1.068  -0.668  1.00  0.00     0.050 C 
ATOM     22  N   UNL     1       1.354  -0.614   1.210  1.00  0.00    -0.362 N 
ATOM     23  C   UNL     1       2.704  -2.232   0.278  1.00  0.00    -0.016 A 
ATOM     24  C   UNL     1       2.454  -1.443  -2.092  1.00  0.00     0.015 C 
ATOM     25  C   UNL     1       1.834  -1.900   1.322  1.00  0.00     0.041 A 
ATOM     26  C   UNL     1       0.498   0.043   2.164  1.00  0.00     0.144 C 
ATOM     27  C   UNL     1       3.296  -3.485   0.192  1.00  0.00     0.045 A 
ATOM     28  C   UNL     1       1.540  -2.836   2.300  1.00  0.00     0.029 A 
ATOM     29  C   UNL     1       2.992  -4.415   1.179  1.00  0.00     0.123 A 
ATOM     30  C   UNL     1       2.123  -4.104   2.227  1.00  0.00     0.041 A 
ATOM     31  F   UNL     1       3.542  -5.636   1.123  1.00  0.00    -0.207 F 
ENDBRANCH  17  20
ENDBRANCH   8  16
ENDBRANCH   5   8
ENDBRANCH   3   4
ENDBRANCH   2   3
ENDBRANCH   1   2
BRANCH   1  32
ATOM     32  C   UNL     1      -1.079   7.764  -2.585  1.00  0.00     0.116 C 
BRANCH  32  33
ATOM     33  N   UNL     1      -0.248   7.957  -3.756  1.00  0.00    -0.352 N 
ATOM     34  C   UNL     1      -0.459   8.490  -4.998  1.00  0.00     0.251 C 
ATOM     35  H   UNL     1       0.673   7.632  -3.630  1.00  0.00     0.163 HD
ATOM     36  O   UNL     1       0.550   8.661  -5.687  1.00  0.00    -0.269 OA
BRANCH  34  37
ATOM     37  C   UNL     1      -1.793   8.803  -5.579  1.00  0.00     0.039 A 
ATOM     38  C   UNL     1      -3.014   8.661  -4.920  1.00  0.00     0.014 A 
ATOM     39  C   UNL     1      -1.802   9.188  -6.933  1.00  0.00     0.014 A 
ATOM     40  C   UNL     1      -4.208   8.766  -5.620  1.00  0.00     0.010 A 
ATOM     41  C   UNL     1      -2.995   9.325  -7.633  1.00  0.00     0.010 A 
ATOM     42  C   UNL     1      -4.194   9.050  -6.986  1.00  0.00    -0.014 A 
BRANCH  42  43
ATOM     43  C   UNL     1      -5.479   9.092  -7.672  1.00  0.00     0.031 A 
ATOM     44  C   UNL     1      -6.438  10.117  -7.167  1.00  0.00     0.074 A 
ATOM     45  C   UNL     1      -5.768   8.315  -8.733  1.00  0.00     0.049 A 
ATOM     46  N   UNL     1      -7.596   9.938  -6.617  1.00  0.00    -0.248 NA
ATOM     47  C   UNL     1      -5.990  11.518  -7.172  1.00  0.00     0.031 C 
ATOM     48  C   UNL     1      -4.867   7.455  -9.505  1.00  0.00     0.029 A 
ATOM     49  N   UNL     1      -6.946   8.204  -9.406  1.00  0.00    -0.354 N 
ATOM     50  C   UNL     1      -8.112  11.211  -6.378  1.00  0.00     0.074 A 
ATOM     51  C   UNL     1      -7.029  12.133  -6.606  1.00  0.00     0.031 C 
ATOM     52  C   UNL     1      -5.473   7.097 -10.659  1.00  0.00     0.029 A 
ATOM     53  C   UNL     1      -6.843   7.582 -10.641  1.00  0.00     0.049 A 
ATOM     54  H   UNL     1      -7.799   8.538  -9.046  1.00  0.00     0.167 HD
ATOM     55  C   UNL     1      -9.443  11.434  -6.189  1.00  0.00     0.037 A 
ATOM     56  C   UNL     1      -7.797   7.531 -11.604  1.00  0.00     0.037 A 
ATOM     57  C   UNL     1     -10.134  10.225  -5.827  1.00  0.00     0.049 A 
ATOM     58  C   UNL     1      -9.105   7.776 -10.939  1.00  0.00     0.074 A 
ATOM     59  C   UNL     1     -10.050   9.343  -4.766  1.00  0.00     0.029 A 
ATOM     60  N   UNL     1     -10.858   9.570  -6.793  1.00  0.00    -0.354 N 
ATOM     61  N   UNL     1      -9.649   6.956 -10.080  1.00  0.00    -0.248 NA
ATOM     62  C   UNL     1      -9.590   9.147 -10.881  1.00  0.00     0.031 C 
ATOM     63  C   UNL     1     -10.278   8.058  -5.337  1.00  0.00     0.029 A 
ATOM     64  C   UNL     1     -10.536   8.240  -6.696  1.00  0.00     0.049 A 
ATOM     65  H   UNL     1     -11.487   9.977  -7.432  1.00  0.00     0.167 HD
ATOM     66  C   UNL     1     -10.228   7.773  -9.119  1.00  0.00     0.074 A 
ATOM     67  C   UNL     1     -10.230   9.109  -9.710  1.00  0.00     0.031 C 
ATOM     68  C   UNL     1     -10.404   7.351  -7.831  1.00  0.00     0.037 A 
BRANCH  55  69
ATOM     69  C   UNL     1     -10.173  12.678  -6.640  1.00  0.00     0.058 A 
ATOM     70  C   UNL     1     -11.521  12.873  -6.269  1.00  0.00     0.135 A 
ATOM     71  C   UNL     1      -9.694  13.539  -7.654  1.00  0.00     0.135 A 
ATOM     72  F   UNL     1     -12.085  12.115  -5.315  1.00  0.00    -0.206 F 
ATOM     73  C   UNL     1     -12.351  13.791  -6.916  1.00  0.00     0.059 A 
ATOM     74  C   UNL     1     -10.489  14.496  -8.274  1.00  0.00     0.059 A 
ATOM     75  F   UNL     1      -8.462  13.426  -8.163  1.00  0.00    -0.206 F 
ATOM     76  C   UNL     1     -11.828  14.582  -7.934  1.00  0.00     0.060 A 
BRANCH  76  77
ATOM     77  S   UNL     1     -12.926  15.658  -8.873  1.00  0.00     0.124 S 
ATOM     78  O   UNL     1     -13.758  14.685  -9.571  1.00  0.00    -0.237 OA
ATOM     79  O   UNL     1     -13.581  16.419  -7.814  1.00  0.00    -0.237 OA
ATOM     80  O   UNL     1     -12.009  16.423  -9.713  1.00  0.00    -0.744 OA
ENDBRANCH  76  77
ENDBRANCH  55  69
BRANCH  56  81
ATOM     81  C   UNL     1      -7.591   7.630 -13.073  1.00  0.00     0.058 A 
ATOM     82  C   UNL     1      -8.601   7.292 -13.990  1.00  0.00     0.135 A 
ATOM     83  C   UNL     1      -6.471   8.302 -13.608  1.00  0.00     0.135 A 
ATOM     84  F   UNL     1      -9.720   6.685 -13.566  1.00  0.00    -0.206 F 
ATOM     85  C   UNL     1      -8.516   7.618 -15.350  1.00  0.00     0.059 A 
ATOM     86  C   UNL     1      -6.358   8.627 -14.958  1.00  0.00     0.059 A 
ATOM     87  F   UNL     1      -5.484   8.744 -12.814  1.00  0.00    -0.206 F 
ATOM     88  C   UNL     1      -7.393   8.300 -15.823  1.00  0.00     0.060 A 
BRANCH  88  89
ATOM     89  S   UNL     1      -7.334   8.839 -17.548  1.00  0.00     0.124 S 
ATOM     90  O   UNL     1      -7.300   7.568 -18.262  1.00  0.00    -0.237 OA
ATOM     91  O   UNL     1      -8.567   9.608 -17.671  1.00  0.00    -0.237 OA
ATOM     92  O   UNL     1      -6.104   9.624 -17.617  1.00  0.00    -0.744 OA
ENDBRANCH  88  89
ENDBRANCH  56  81
BRANCH  68  93
ATOM     93  C   UNL     1     -10.181   5.894  -7.511  1.00  0.00     0.058 A 
ATOM     94  C   UNL     1      -8.927   5.261  -7.591  1.00  0.00     0.135 A 
ATOM     95  C   UNL     1     -11.221   5.174  -6.904  1.00  0.00     0.135 A 
ATOM     96  F   UNL     1      -7.856   5.913  -8.061  1.00  0.00    -0.206 F 
ATOM     97  C   UNL     1      -8.722   3.968  -7.108  1.00  0.00     0.059 A 
ATOM     98  C   UNL     1     -11.032   3.893  -6.388  1.00  0.00     0.059 A 
ATOM     99  F   UNL     1     -12.426   5.745  -6.739  1.00  0.00    -0.206 F 
ATOM    100  C   UNL     1      -9.778   3.295  -6.496  1.00  0.00     0.060 A 
BRANCH 100 101
ATOM    101  S   UNL     1      -9.475   1.676  -5.753  1.00  0.00     0.124 S 
ATOM    102  O   UNL     1      -9.270   0.833  -6.930  1.00  0.00    -0.237 OA
ATOM    103  O   UNL     1      -8.284   1.923  -4.940  1.00  0.00    -0.237 OA
ATOM    104  O   UNL     1     -10.689   1.410  -4.998  1.00  0.00    -0.744 OA
ENDBRANCH 100 101
ENDBRANCH  68  93
ENDBRANCH  42  43
ENDBRANCH  34  37
ENDBRANCH  32  33
ENDBRANCH   1  32
TORSDOF 17
