REMARK SMILES C[C@@H](Oc1ccc(/C=C2\C(=O)[NH+]=C(NCCCCNC(=O)c3ccc(-c4c5nc(c(-c6c(F)cc(S(=O)(=O)[O-])cc6F)c6ccc([nH]6)c(-c6c(F)cc(S(=O)(=O)[O-])cc6F)c6nc(c(-c7c(F)cc(S(=O)(=O)[O-])cc7F)c7ccc4[nH]7)C=C6)C=C5)cc3)N(c3ccc4c(c3)OCO4)C2=O)cc1)C(=O)[O-]
REMARK SMILES IDX 16 1 15 2 14 3 8 4 9 5 10 6 98 7 11 8 12 9 88 10 99 11 13 12
REMARK SMILES IDX 7 15 4 16 5 17 101 18 6 19 100 20 3 21 2 22 1 23 102 24
REMARK SMILES IDX 103 25 104 26 89 27 90 28 94 29 91 30 93 31 92 32 95 33
REMARK SMILES IDX 97 34 96 35 17 36 18 37 19 38 20 39 21 41 22 42 23 43 87 44
REMARK SMILES IDX 24 45 86 46 25 47 26 48 27 49 80 50 28 51 85 52 79 53 81 54
REMARK SMILES IDX 29 55 84 56 78 57 77 58 30 60 64 61 43 62 63 63 44 64 47 65
REMARK SMILES IDX 62 66 82 67 45 68 46 69 61 71 83 72 48 73 31 74 32 75 41 76
REMARK SMILES IDX 33 77 34 78 40 79 42 80 35 81 36 82 37 83 38 84 39 85 65 86
REMARK SMILES IDX 66 87 75 88 67 89 68 90 74 91 76 92 69 93 70 94 71 95 72 96
REMARK SMILES IDX 73 97 49 98 50 99 59 100 51 101 52 102 58 103 60 104 53 105
REMARK SMILES IDX 54 106 55 107 56 108 57 109
REMARK H PARENT 12 13 14 14 19 40 81 59 47 70
REMARK Flexibility Score: inf
ROOT
ATOM      1  C   UNL     1       8.456   7.946  -5.879  1.00  0.00     0.039 C 
ENDROOT
BRANCH   1   2
ATOM      2  C   UNL     1       8.013   6.653  -6.557  1.00  0.00     0.197 C 
BRANCH   2   3
ATOM      3  N   UNL     1       8.730   5.516  -6.011  1.00  0.00    -0.277 N 
ATOM      4  C   UNL     1       6.309   1.696  -3.133  1.00  0.00     0.031 C 
ATOM      5  C   UNL     1       7.005   2.789  -3.502  1.00  0.00     0.138 C 
ATOM      6  C   UNL     1       6.499   4.171  -3.563  1.00  0.00     0.321 C 
ATOM      7  C   UNL     1       8.418   2.569  -3.864  1.00  0.00     0.328 C 
ATOM      8  O   UNL     1       5.616   4.577  -2.822  1.00  0.00    -0.250 OA
ATOM      9  N   UNL     1       7.071   4.952  -4.525  1.00  0.00    -0.210 N 
ATOM     10  N   UNL     1       8.969   3.574  -4.648  1.00  0.00    -0.162 N 
ATOM     11  O   UNL     1       9.015   1.557  -3.492  1.00  0.00    -0.249 OA
ATOM     12  C   UNL     1       8.234   4.690  -5.031  1.00  0.00     0.366 C 
ATOM     13  H   UNL     1       6.581   5.744  -4.846  1.00  0.00     0.270 HD
ATOM     14  H   UNL     1       9.629   5.325  -6.364  1.00  0.00     0.260 HD
BRANCH   4  15
ATOM     15  C   UNL     1       4.898   1.544  -2.759  1.00  0.00    -0.024 A 
ATOM     16  C   UNL     1       2.231   1.019  -2.052  1.00  0.00     0.120 A 
ATOM     17  C   UNL     1       2.519   1.962  -3.035  1.00  0.00     0.047 A 
ATOM     18  C   UNL     1       3.263   0.301  -1.458  1.00  0.00     0.047 A 
ATOM     19  C   UNL     1       3.848   2.216  -3.394  1.00  0.00     0.012 A 
ATOM     20  C   UNL     1       4.588   0.572  -1.799  1.00  0.00     0.012 A 
BRANCH  16  21
ATOM     21  O   UNL     1       0.919   0.730  -1.804  1.00  0.00    -0.485 OA
BRANCH  21  22
ATOM     22  C   UNL     1       0.494   1.030  -0.467  1.00  0.00     0.216 C 
ATOM     23  C   UNL     1       0.693  -0.154   0.477  1.00  0.00     0.059 C 
BRANCH  22  24
ATOM     24  C   UNL     1      -0.997   1.342  -0.498  1.00  0.00     0.082 C 
ATOM     25  O   UNL     1      -1.564   2.203   0.160  1.00  0.00    -0.546 OA
ATOM     26  O   UNL     1      -1.722   0.506  -1.272  1.00  0.00    -0.546 OA
ENDBRANCH  22  24
ENDBRANCH  21  22
ENDBRANCH  16  21
ENDBRANCH   4  15
BRANCH  10  27
ATOM     27  C   UNL     1      10.298   3.355  -5.103  1.00  0.00     0.115 A 
ATOM     28  C   UNL     1      11.363   4.105  -4.558  1.00  0.00     0.048 A 
ATOM     29  C   UNL     1      10.548   2.288  -5.976  1.00  0.00     0.094 A 
ATOM     30  C   UNL     1      12.688   3.754  -4.846  1.00  0.00     0.054 A 
ATOM     31  C   UNL     1      11.860   1.967  -6.232  1.00  0.00     0.169 A 
ATOM     32  C   UNL     1      12.901   2.668  -5.670  1.00  0.00     0.166 A 
ATOM     33  O   UNL     1      12.283   0.925  -6.995  1.00  0.00    -0.453 OA
ATOM     34  O   UNL     1      14.109   2.136  -5.997  1.00  0.00    -0.454 OA
ATOM     35  C   UNL     1      13.697   0.948  -6.705  1.00  0.00     0.468 C 
ENDBRANCH  10  27
ENDBRANCH   2   3
ENDBRANCH   1   2
BRANCH   1  36
ATOM     36  C   UNL     1       9.929   8.305  -6.095  1.00  0.00     0.024 C 
BRANCH  36  37
ATOM     37  C   UNL     1      10.378   8.380  -7.551  1.00  0.00     0.116 C 
BRANCH  37  38
ATOM     38  N   UNL     1       9.638   9.363  -8.325  1.00  0.00    -0.352 N 
ATOM     39  C   UNL     1      10.111  10.320  -9.191  1.00  0.00     0.251 C 
ATOM     40  H   UNL     1       8.660   9.341  -8.213  1.00  0.00     0.163 HD
ATOM     41  O   UNL     1       9.343  11.157  -9.655  1.00  0.00    -0.269 OA
BRANCH  39  42
ATOM     42  C   UNL     1      11.550  10.359  -9.533  1.00  0.00     0.039 A 
ATOM     43  C   UNL     1      12.218  11.586  -9.499  1.00  0.00     0.014 A 
ATOM     44  C   UNL     1      12.243   9.194  -9.872  1.00  0.00     0.014 A 
ATOM     45  C   UNL     1      13.594  11.633  -9.735  1.00  0.00     0.010 A 
ATOM     46  C   UNL     1      13.626   9.232 -10.036  1.00  0.00     0.010 A 
ATOM     47  C   UNL     1      14.318  10.451  -9.966  1.00  0.00    -0.014 A 
BRANCH  47  48
ATOM     48  C   UNL     1      15.797  10.470 -10.123  1.00  0.00     0.031 A 
ATOM     49  C   UNL     1      16.427  10.032 -11.418  1.00  0.00     0.074 A 
ATOM     50  C   UNL     1      16.574  10.819  -9.077  1.00  0.00     0.049 A 
ATOM     51  N   UNL     1      17.695   9.909 -11.719  1.00  0.00    -0.248 NA
ATOM     52  C   UNL     1      15.515   9.660 -12.512  1.00  0.00     0.031 C 
ATOM     53  C   UNL     1      16.086  11.218  -7.755  1.00  0.00     0.029 A 
ATOM     54  N   UNL     1      17.940  10.883  -8.956  1.00  0.00    -0.354 N 
ATOM     55  C   UNL     1      17.733   9.432 -13.024  1.00  0.00     0.074 A 
ATOM     56  C   UNL     1      16.361   9.243 -13.444  1.00  0.00     0.031 C 
ATOM     57  C   UNL     1      17.133  11.505  -6.965  1.00  0.00     0.029 A 
ATOM     58  C   UNL     1      18.368  11.272  -7.707  1.00  0.00     0.049 A 
ATOM     59  H   UNL     1      18.557  10.671  -9.693  1.00  0.00     0.167 HD
ATOM     60  C   UNL     1      18.811   9.193 -13.807  1.00  0.00     0.037 A 
ATOM     61  C   UNL     1      19.614  11.413  -7.211  1.00  0.00     0.037 A 
ATOM     62  C   UNL     1      20.173   9.416 -13.396  1.00  0.00     0.049 A 
ATOM     63  C   UNL     1      20.794  11.137  -8.104  1.00  0.00     0.074 A 
ATOM     64  C   UNL     1      21.330   9.271 -14.142  1.00  0.00     0.029 A 
ATOM     65  N   UNL     1      20.564   9.830 -12.131  1.00  0.00    -0.354 N 
ATOM     66  N   UNL     1      20.808  10.755  -9.359  1.00  0.00    -0.248 NA
ATOM     67  C   UNL     1      22.130  11.317  -7.517  1.00  0.00     0.031 C 
ATOM     68  C   UNL     1      22.423   9.548 -13.315  1.00  0.00     0.029 A 
ATOM     69  C   UNL     1      21.945   9.921 -12.069  1.00  0.00     0.049 A 
ATOM     70  H   UNL     1      19.951  10.030 -11.387  1.00  0.00     0.167 HD
ATOM     71  C   UNL     1      22.149  10.682  -9.720  1.00  0.00     0.074 A 
ATOM     72  C   UNL     1      22.917  11.070  -8.555  1.00  0.00     0.031 C 
ATOM     73  C   UNL     1      22.696  10.326 -10.908  1.00  0.00     0.037 A 
BRANCH  60  74
ATOM     74  C   UNL     1      18.573   8.669 -15.197  1.00  0.00     0.058 A 
ATOM     75  C   UNL     1      18.032   9.478 -16.208  1.00  0.00     0.135 A 
ATOM     76  C   UNL     1      18.961   7.363 -15.541  1.00  0.00     0.135 A 
ATOM     77  F   UNL     1      17.629  10.729 -15.930  1.00  0.00    -0.206 F 
ATOM     78  C   UNL     1      17.869   9.008 -17.507  1.00  0.00     0.059 A 
ATOM     79  C   UNL     1      18.833   6.881 -16.840  1.00  0.00     0.059 A 
ATOM     80  F   UNL     1      19.482   6.546 -14.613  1.00  0.00    -0.206 F 
ATOM     81  C   UNL     1      18.279   7.710 -17.815  1.00  0.00     0.060 A 
BRANCH  81  82
ATOM     82  S   UNL     1      18.093   7.129 -19.514  1.00  0.00     0.124 S 
ATOM     83  O   UNL     1      16.645   6.967 -19.609  1.00  0.00    -0.237 OA
ATOM     84  O   UNL     1      18.659   8.232 -20.284  1.00  0.00    -0.237 OA
ATOM     85  O   UNL     1      18.865   5.890 -19.537  1.00  0.00    -0.744 OA
ENDBRANCH  81  82
ENDBRANCH  60  74
BRANCH  61  86
ATOM     86  C   UNL     1      19.818  11.846  -5.801  1.00  0.00     0.058 A 
ATOM     87  C   UNL     1      20.374  13.099  -5.504  1.00  0.00     0.135 A 
ATOM     88  C   UNL     1      19.485  11.008  -4.725  1.00  0.00     0.135 A 
ATOM     89  F   UNL     1      20.714  13.934  -6.498  1.00  0.00    -0.206 F 
ATOM     90  C   UNL     1      20.625  13.495  -4.194  1.00  0.00     0.059 A 
ATOM     91  C   UNL     1      19.699  11.393  -3.405  1.00  0.00     0.059 A 
ATOM     92  F   UNL     1      18.933   9.806  -4.952  1.00  0.00    -0.206 F 
ATOM     93  C   UNL     1      20.286  12.632  -3.150  1.00  0.00     0.060 A 
BRANCH  93  94
ATOM     94  S   UNL     1      20.601  13.159  -1.452  1.00  0.00     0.124 S 
ATOM     95  O   UNL     1      22.052  13.032  -1.371  1.00  0.00    -0.237 OA
ATOM     96  O   UNL     1      20.078  14.522  -1.452  1.00  0.00    -0.237 OA
ATOM     97  O   UNL     1      19.837  12.203  -0.658  1.00  0.00    -0.744 OA
ENDBRANCH  93  94
ENDBRANCH  61  86
BRANCH  73  98
ATOM     98  C   UNL     1      24.194  10.384 -11.030  1.00  0.00     0.058 A 
ATOM     99  C   UNL     1      25.026   9.449 -10.394  1.00  0.00     0.135 A 
ATOM    100  C   UNL     1      24.802  11.358 -11.838  1.00  0.00     0.135 A 
ATOM    101  F   UNL     1      24.496   8.501  -9.604  1.00  0.00    -0.206 F 
ATOM    102  C   UNL     1      26.409   9.492 -10.536  1.00  0.00     0.059 A 
ATOM    103  C   UNL     1      26.181  11.402 -12.019  1.00  0.00     0.059 A 
ATOM    104  F   UNL     1      24.053  12.270 -12.478  1.00  0.00    -0.206 F 
ATOM    105  C   UNL     1      26.977  10.472 -11.353  1.00  0.00     0.060 A 
BRANCH 105 106
ATOM    106  S   UNL     1      28.771  10.494 -11.557  1.00  0.00     0.124 S 
ATOM    107  O   UNL     1      29.207  11.018 -10.267  1.00  0.00    -0.237 OA
ATOM    108  O   UNL     1      29.074   9.089 -11.807  1.00  0.00    -0.237 OA
ATOM    109  O   UNL     1      28.972  11.385 -12.697  1.00  0.00    -0.744 OA
ENDBRANCH 105 106
ENDBRANCH  73  98
ENDBRANCH  47  48
ENDBRANCH  39  42
ENDBRANCH  37  38
ENDBRANCH  36  37
ENDBRANCH   1  36
TORSDOF 18
