REMARK SMILES Cc1c(CC(=O)N[C@@H](C)C(=O)NCCCCNC(=O)c2ccc(-c3c4nc(c(-c5c(F)cc(S(=O)(=O)[O-])cc5F)c5ccc([nH]5)c(-c5c(F)cc(S(=O)(=O)[O-])cc5F)c5nc(c(-c6c(F)cc(S(=O)(=O)[O-])cc6F)c6ccc3[nH]6)C=C5)C=C4)cc2)c(=O)oc2cc3oc4c(c3cc12)CCCC4
REMARK SMILES IDX 14 1 13 2 12 3 10 4 11 5 8 7 9 8 7 9 5 10 6 11 4 13 3 14
REMARK SMILES IDX 1 15 2 16 97 17 86 18 89 19 96 20 87 21 88 22 90 23 95 24
REMARK SMILES IDX 91 25 94 26 92 27 93 28 98 29 101 30 99 31 100 32 15 33
REMARK SMILES IDX 16 34 17 35 18 36 19 38 20 39 21 40 85 41 22 42 84 43 23 44
REMARK SMILES IDX 24 45 25 46 78 47 26 48 83 49 77 50 79 51 27 52 82 53 76 54
REMARK SMILES IDX 75 55 28 57 62 58 41 59 61 60 42 61 45 62 60 63 80 64 43 65
REMARK SMILES IDX 44 66 59 68 81 69 46 70 29 71 30 72 39 73 31 74 32 75 38 76
REMARK SMILES IDX 40 77 33 78 34 79 35 80 36 81 37 82 63 83 64 84 73 85 65 86
REMARK SMILES IDX 66 87 72 88 74 89 67 90 68 91 69 92 70 93 71 94 47 95 48 96
REMARK SMILES IDX 57 97 49 98 50 99 56 100 58 101 51 102 52 103 53 104 54 105
REMARK SMILES IDX 55 106
REMARK H PARENT 12 6 7 12 17 37 79 56 45 67
REMARK Flexibility Score: inf
ROOT
ATOM      1  C   UNL     1       6.837   3.518   0.757  1.00  0.00     0.023 C 
ENDROOT
BRANCH   1   2
ATOM      2  C   UNL     1       5.917   3.107   1.902  1.00  0.00     0.116 C 
BRANCH   2   3
ATOM      3  N   UNL     1       5.213   4.246   2.479  1.00  0.00    -0.354 N 
ATOM      4  C   UNL     1       3.919   4.394   2.881  1.00  0.00     0.242 C 
ATOM      5  O   UNL     1       3.641   5.355   3.601  1.00  0.00    -0.273 OA
ATOM      6  H   UNL     1       5.769   5.048   2.600  1.00  0.00     0.163 HD
BRANCH   4   7
ATOM      7  C   UNL     1       2.875   3.331   2.548  1.00  0.00     0.168 C 
ATOM      8  C   UNL     1       3.140   2.079   3.385  1.00  0.00     0.041 C 
BRANCH   7   9
ATOM      9  N   UNL     1       2.876   3.097   1.102  1.00  0.00    -0.344 N 
ATOM     10  C   UNL     1       1.833   3.027   0.234  1.00  0.00     0.225 C 
ATOM     11  O   UNL     1       2.084   2.971  -0.971  1.00  0.00    -0.275 OA
ATOM     12  H   UNL     1       3.765   2.973   0.699  1.00  0.00     0.164 HD
BRANCH  10  13
ATOM     13  C   UNL     1       0.401   2.978   0.744  1.00  0.00     0.143 C 
BRANCH  13  14
ATOM     14  C   UNL     1       0.187   1.782   1.638  1.00  0.00     0.051 A 
ATOM     15  C   UNL     1       0.954   0.105  -0.086  1.00  0.00     0.046 C 
ATOM     16  C   UNL     1       0.532   0.520   1.305  1.00  0.00    -0.029 A 
ATOM     17  C   UNL     1       0.435  -0.533   2.327  1.00  0.00     0.022 A 
ATOM     18  C   UNL     1      -0.388   2.108   2.972  1.00  0.00     0.340 A 
ATOM     19  C   UNL     1      -0.197  -0.250   3.540  1.00  0.00     0.142 A 
ATOM     20  C   UNL     1       0.842  -1.844   2.062  1.00  0.00     0.024 A 
ATOM     21  O   UNL     1      -0.717   3.249   3.276  1.00  0.00    -0.246 OA
ATOM     22  O   UNL     1      -0.554   1.068   3.869  1.00  0.00    -0.422 OA
ATOM     23  C   UNL     1      -0.610  -1.231   4.446  1.00  0.00     0.095 A 
ATOM     24  C   UNL     1       0.266  -2.860   2.834  1.00  0.00     0.025 A 
ATOM     25  C   UNL     1      -0.481  -2.522   3.959  1.00  0.00     0.138 A 
ATOM     26  C   UNL     1      -0.009  -4.220   2.562  1.00  0.00     0.001 A 
ATOM     27  O   UNL     1      -1.227  -3.591   4.368  1.00  0.00    -0.461 OA
ATOM     28  C   UNL     1      -1.063  -4.523   3.398  1.00  0.00     0.108 A 
ATOM     29  C   UNL     1       0.170  -4.978   1.297  1.00  0.00     0.040 C 
ATOM     30  C   UNL     1      -2.236  -5.307   2.927  1.00  0.00     0.076 C 
ATOM     31  C   UNL     1      -1.179  -5.016   0.544  1.00  0.00     0.005 C 
ATOM     32  C   UNL     1      -2.446  -4.884   1.444  1.00  0.00     0.008 C 
ENDBRANCH  13  14
ENDBRANCH  10  13
ENDBRANCH   7   9
ENDBRANCH   4   7
ENDBRANCH   2   3
ENDBRANCH   1   2
BRANCH   1  33
ATOM     33  C   UNL     1       7.791   4.661   1.103  1.00  0.00     0.023 C 
BRANCH  33  34
ATOM     34  C   UNL     1       8.548   4.457   2.415  1.00  0.00     0.116 C 
BRANCH  34  35
ATOM     35  N   UNL     1       9.669   3.546   2.291  1.00  0.00    -0.352 N 
ATOM     36  C   UNL     1      10.971   3.842   1.907  1.00  0.00     0.251 C 
ATOM     37  H   UNL     1       9.485   2.603   2.504  1.00  0.00     0.163 HD
ATOM     38  O   UNL     1      11.803   2.973   1.768  1.00  0.00    -0.269 OA
BRANCH  36  39
ATOM     39  C   UNL     1      11.274   5.259   1.629  1.00  0.00     0.039 A 
ATOM     40  C   UNL     1      11.107   6.202   2.644  1.00  0.00     0.014 A 
ATOM     41  C   UNL     1      11.530   5.642   0.312  1.00  0.00     0.014 A 
ATOM     42  C   UNL     1      10.996   7.540   2.304  1.00  0.00     0.010 A 
ATOM     43  C   UNL     1      11.484   6.995  -0.017  1.00  0.00     0.010 A 
ATOM     44  C   UNL     1      11.144   7.931   0.968  1.00  0.00    -0.014 A 
BRANCH  44  45
ATOM     45  C   UNL     1      10.932   9.353   0.688  1.00  0.00     0.031 A 
ATOM     46  C   UNL     1      12.180  10.102   0.378  1.00  0.00     0.074 A 
ATOM     47  C   UNL     1       9.791   9.809   0.135  1.00  0.00     0.049 A 
ATOM     48  N   UNL     1      12.740  10.081  -0.794  1.00  0.00    -0.248 NA
ATOM     49  C   UNL     1      13.001  10.701   1.428  1.00  0.00     0.031 C 
ATOM     50  C   UNL     1       8.999   9.095  -0.874  1.00  0.00     0.029 A 
ATOM     51  N   UNL     1       9.253  11.071   0.163  1.00  0.00    -0.354 N 
ATOM     52  C   UNL     1      14.004  10.615  -0.642  1.00  0.00     0.074 A 
ATOM     53  C   UNL     1      14.123  10.987   0.751  1.00  0.00     0.031 C 
ATOM     54  C   UNL     1       8.212   9.987  -1.510  1.00  0.00     0.029 A 
ATOM     55  C   UNL     1       8.320  11.279  -0.846  1.00  0.00     0.049 A 
ATOM     56  H   UNL     1       9.502  11.755   0.826  1.00  0.00     0.167 HD
ATOM     57  C   UNL     1      14.892  10.719  -1.663  1.00  0.00     0.037 A 
ATOM     58  C   UNL     1       8.037  12.495  -1.389  1.00  0.00     0.037 A 
ATOM     59  C   UNL     1      14.414  10.319  -2.951  1.00  0.00     0.049 A 
ATOM     60  C   UNL     1       9.239  12.660  -2.291  1.00  0.00     0.074 A 
ATOM     61  C   UNL     1      14.400   9.169  -3.710  1.00  0.00     0.029 A 
ATOM     62  N   UNL     1      13.683  11.232  -3.678  1.00  0.00    -0.354 N 
ATOM     63  N   UNL     1       9.397  12.109  -3.468  1.00  0.00    -0.248 NA
ATOM     64  C   UNL     1      10.479  13.164  -1.692  1.00  0.00     0.031 C 
ATOM     65  C   UNL     1      13.308   9.323  -4.621  1.00  0.00     0.029 A 
ATOM     66  C   UNL     1      12.688  10.534  -4.318  1.00  0.00     0.049 A 
ATOM     67  H   UNL     1      13.844  12.203  -3.730  1.00  0.00     0.167 HD
ATOM     68  C   UNL     1      10.777  11.932  -3.612  1.00  0.00     0.074 A 
ATOM     69  C   UNL     1      11.384  12.646  -2.510  1.00  0.00     0.031 C 
ATOM     70  C   UNL     1      11.346  11.051  -4.485  1.00  0.00     0.037 A 
BRANCH  57  71
ATOM     71  C   UNL     1      16.218  11.344  -1.525  1.00  0.00     0.058 A 
ATOM     72  C   UNL     1      16.391  12.661  -1.969  1.00  0.00     0.135 A 
ATOM     73  C   UNL     1      17.346  10.617  -1.128  1.00  0.00     0.135 A 
ATOM     74  F   UNL     1      15.326  13.385  -2.352  1.00  0.00    -0.206 F 
ATOM     75  C   UNL     1      17.652  13.229  -2.070  1.00  0.00     0.059 A 
ATOM     76  C   UNL     1      18.622  11.166  -1.218  1.00  0.00     0.059 A 
ATOM     77  F   UNL     1      17.220   9.354  -0.692  1.00  0.00    -0.206 F 
ATOM     78  C   UNL     1      18.764  12.463  -1.716  1.00  0.00     0.060 A 
BRANCH  78  79
ATOM     79  S   UNL     1      20.399  13.183  -1.972  1.00  0.00     0.124 S 
ATOM     80  O   UNL     1      20.432  13.338  -3.423  1.00  0.00    -0.237 OA
ATOM     81  O   UNL     1      20.308  14.419  -1.202  1.00  0.00    -0.237 OA
ATOM     82  O   UNL     1      21.303  12.174  -1.429  1.00  0.00    -0.744 OA
ENDBRANCH  78  79
ENDBRANCH  57  71
BRANCH  58  83
ATOM     83  C   UNL     1       7.583  13.483  -0.354  1.00  0.00     0.058 A 
ATOM     84  C   UNL     1       6.509  13.095   0.482  1.00  0.00     0.135 A 
ATOM     85  C   UNL     1       8.178  14.715  -0.056  1.00  0.00     0.135 A 
ATOM     86  F   UNL     1       5.786  12.001   0.188  1.00  0.00    -0.206 F 
ATOM     87  C   UNL     1       6.193  13.770   1.655  1.00  0.00     0.059 A 
ATOM     88  C   UNL     1       7.896  15.402   1.127  1.00  0.00     0.059 A 
ATOM     89  F   UNL     1       9.081  15.266  -0.877  1.00  0.00    -0.206 F 
ATOM     90  C   UNL     1       6.940  14.889   2.001  1.00  0.00     0.060 A 
BRANCH  90  91
ATOM     91  S   UNL     1       6.703  15.599   3.643  1.00  0.00     0.124 S 
ATOM     92  O   UNL     1       5.300  15.997   3.604  1.00  0.00    -0.237 OA
ATOM     93  O   UNL     1       7.020  14.462   4.502  1.00  0.00    -0.237 OA
ATOM     94  O   UNL     1       7.668  16.693   3.680  1.00  0.00    -0.744 OA
ENDBRANCH  90  91
ENDBRANCH  58  83
BRANCH  70  95
ATOM     95  C   UNL     1      10.429  10.428  -5.484  1.00  0.00     0.058 A 
ATOM     96  C   UNL     1       9.958  11.179  -6.569  1.00  0.00     0.135 A 
ATOM     97  C   UNL     1      10.070   9.072  -5.419  1.00  0.00     0.135 A 
ATOM     98  F   UNL     1      10.277  12.479  -6.684  1.00  0.00    -0.206 F 
ATOM     99  C   UNL     1       9.194  10.598  -7.577  1.00  0.00     0.059 A 
ATOM    100  C   UNL     1       9.328   8.464  -6.429  1.00  0.00     0.059 A 
ATOM    101  F   UNL     1      10.469   8.304  -4.391  1.00  0.00    -0.206 F 
ATOM    102  C   UNL     1       8.900   9.235  -7.508  1.00  0.00     0.060 A 
BRANCH 102 103
ATOM    103  S   UNL     1       8.025   8.467  -8.887  1.00  0.00     0.124 S 
ATOM    104  O   UNL     1       6.664   8.957  -8.696  1.00  0.00    -0.237 OA
ATOM    105  O   UNL     1       8.734   9.003 -10.046  1.00  0.00    -0.237 OA
ATOM    106  O   UNL     1       8.215   7.037  -8.658  1.00  0.00    -0.744 OA
ENDBRANCH 102 103
ENDBRANCH  70  95
ENDBRANCH  44  45
ENDBRANCH  36  39
ENDBRANCH  34  35
ENDBRANCH  33  34
ENDBRANCH   1  33
TORSDOF 17
