REMARK SMILES C/C(=N\NC(N)=S)c1nnn(-c2ccc(C(=O)NCCCCNC(=O)c3ccc(-c4c5nc(c(-c6c(F)cc(S(=O)(=O)[O-])cc6F)c6ccc([nH]6)c(-c6c(F)cc(S(=O)(=O)[O-])cc6F)c6nc(c(-c7c(F)cc(S(=O)(=O)[O-])cc7F)c7ccc4[nH]7)C=C6)C=C5)cc3)cc2)c1C
REMARK SMILES IDX 19 1 18 2 16 3 17 4 15 6 12 7 13 8 93 9 14 10 92 11 11 12
REMARK SMILES IDX 8 13 9 14 94 15 10 16 95 17 2 18 1 19 3 20 4 21 5 23 7 24
REMARK SMILES IDX 6 25 20 28 21 29 22 30 23 31 24 32 25 34 26 35 27 36 91 37
REMARK SMILES IDX 28 38 90 39 29 40 30 41 31 42 84 43 32 44 89 45 83 46 85 47
REMARK SMILES IDX 33 48 88 49 82 50 81 51 34 53 68 54 47 55 67 56 48 57 51 58
REMARK SMILES IDX 66 59 86 60 49 61 50 62 65 64 87 65 52 66 35 67 36 68 45 69
REMARK SMILES IDX 37 70 38 71 44 72 46 73 39 74 40 75 41 76 42 77 43 78 69 79
REMARK SMILES IDX 70 80 79 81 71 82 72 83 78 84 80 85 73 86 74 87 75 88 76 89
REMARK SMILES IDX 77 90 53 91 54 92 63 93 55 94 56 95 62 96 64 97 57 98 58 99
REMARK SMILES IDX 59 100 60 101 61 102
REMARK H PARENT 18 5 4 22 6 26 6 27 23 33 85 52 51 63
REMARK Flexibility Score: inf
ROOT
ATOM      1  C   UNL     1       8.384   0.600   6.376  1.00  0.00     0.116 C 
ENDROOT
BRANCH   1   2
ATOM      2  N   UNL     1       7.995  -0.588   7.117  1.00  0.00    -0.352 N 
ATOM      3  C   UNL     1       6.798  -1.247   7.274  1.00  0.00     0.251 C 
ATOM      4  O   UNL     1       6.793  -2.259   7.976  1.00  0.00    -0.269 OA
ATOM      5  H   UNL     1       8.740  -1.006   7.606  1.00  0.00     0.163 HD
BRANCH   3   6
ATOM      6  C   UNL     1       5.528  -0.833   6.607  1.00  0.00     0.039 A 
ATOM      7  C   UNL     1       3.212  -0.261   5.150  1.00  0.00     0.067 A 
ATOM      8  C   UNL     1       3.367  -1.533   5.700  1.00  0.00     0.029 A 
ATOM      9  C   UNL     1       4.134   0.750   5.411  1.00  0.00     0.029 A 
ATOM     10  C   UNL     1       4.543  -1.820   6.403  1.00  0.00     0.016 A 
ATOM     11  C   UNL     1       5.261   0.468   6.177  1.00  0.00     0.016 A 
BRANCH   7  12
ATOM     12  N   UNL     1       2.181  -0.008   4.232  1.00  0.00    -0.217 N 
ATOM     13  C   UNL     1       1.021   0.433   2.451  1.00  0.00     0.132 A 
ATOM     14  N   UNL     1       0.161   0.113   3.471  1.00  0.00    -0.128 NA
ATOM     15  C   UNL     1       2.323   0.357   2.906  1.00  0.00     0.071 A 
ATOM     16  N   UNL     1       0.883  -0.219   4.533  1.00  0.00    -0.061 NA
ATOM     17  C   UNL     1       3.615   0.416   2.182  1.00  0.00     0.069 C 
BRANCH  13  18
ATOM     18  C   UNL     1       0.574   0.537   1.075  1.00  0.00     0.087 C 
ATOM     19  C   UNL     1       0.595  -0.753   0.302  1.00  0.00     0.071 C 
ATOM     20  N   UNL     1       0.168   1.713   0.695  1.00  0.00    -0.176 NA
BRANCH  20  21
ATOM     21  N   UNL     1      -0.368   1.946  -0.539  1.00  0.00    -0.254 N 
ATOM     22  H   UNL     1      -1.288   2.296  -0.535  1.00  0.00     0.193 HD
BRANCH  21  23
ATOM     23  C   UNL     1       0.184   1.766  -1.791  1.00  0.00     0.184 C 
ATOM     24  S   UNL     1       1.674   1.178  -2.231  1.00  0.00    -0.040 S 
BRANCH  23  25
ATOM     25  N   UNL     1      -0.672   2.156  -2.788  1.00  0.00    -0.375 N 
ATOM     26  H   UNL     1      -1.563   2.508  -2.561  1.00  0.00     0.159 HD
ATOM     27  H   UNL     1      -0.396   2.083  -3.730  1.00  0.00     0.159 HD
ENDBRANCH  23  25
ENDBRANCH  21  23
ENDBRANCH  20  21
ENDBRANCH  13  18
ENDBRANCH   7  12
ENDBRANCH   3   6
ENDBRANCH   1   2
BRANCH   1  28
ATOM     28  C   UNL     1       8.328   1.857   7.257  1.00  0.00     0.023 C 
BRANCH  28  29
ATOM     29  C   UNL     1       9.488   2.023   8.249  1.00  0.00     0.023 C 
BRANCH  29  30
ATOM     30  C   UNL     1      10.836   2.329   7.610  1.00  0.00     0.116 C 
BRANCH  30  31
ATOM     31  N   UNL     1      10.845   3.591   6.864  1.00  0.00    -0.352 N 
ATOM     32  C   UNL     1      11.805   4.052   5.973  1.00  0.00     0.251 C 
ATOM     33  H   UNL     1      10.075   4.186   7.013  1.00  0.00     0.163 HD
ATOM     34  O   UNL     1      11.920   5.239   5.729  1.00  0.00    -0.269 OA
BRANCH  32  35
ATOM     35  C   UNL     1      12.664   3.054   5.311  1.00  0.00     0.039 A 
ATOM     36  C   UNL     1      14.039   3.240   5.139  1.00  0.00     0.014 A 
ATOM     37  C   UNL     1      12.045   1.876   4.911  1.00  0.00     0.014 A 
ATOM     38  C   UNL     1      14.797   2.184   4.634  1.00  0.00     0.010 A 
ATOM     39  C   UNL     1      12.811   0.786   4.609  1.00  0.00     0.010 A 
ATOM     40  C   UNL     1      14.172   0.953   4.387  1.00  0.00    -0.014 A 
BRANCH  40  41
ATOM     41  C   UNL     1      14.919  -0.227   3.972  1.00  0.00     0.031 A 
ATOM     42  C   UNL     1      15.989  -0.649   4.917  1.00  0.00     0.074 A 
ATOM     43  C   UNL     1      14.484  -1.017   2.964  1.00  0.00     0.049 A 
ATOM     44  N   UNL     1      17.267  -0.593   4.743  1.00  0.00    -0.248 NA
ATOM     45  C   UNL     1      15.601  -1.026   6.288  1.00  0.00     0.031 C 
ATOM     46  C   UNL     1      13.249  -0.893   2.175  1.00  0.00     0.029 A 
ATOM     47  N   UNL     1      15.001  -2.185   2.506  1.00  0.00    -0.354 N 
ATOM     48  C   UNL     1      17.835  -1.169   5.878  1.00  0.00     0.074 A 
ATOM     49  C   UNL     1      16.792  -1.194   6.867  1.00  0.00     0.031 C 
ATOM     50  C   UNL     1      12.996  -2.057   1.536  1.00  0.00     0.029 A 
ATOM     51  C   UNL     1      14.134  -2.935   1.716  1.00  0.00     0.049 A 
ATOM     52  H   UNL     1      15.917  -2.479   2.715  1.00  0.00     0.167 HD
ATOM     53  C   UNL     1      19.034  -1.817   5.815  1.00  0.00     0.037 A 
ATOM     54  C   UNL     1      14.333  -4.202   1.270  1.00  0.00     0.037 A 
ATOM     55  C   UNL     1      19.701  -1.527   4.567  1.00  0.00     0.049 A 
ATOM     56  C   UNL     1      15.799  -4.450   1.345  1.00  0.00     0.074 A 
ATOM     57  C   UNL     1      20.146  -0.377   3.946  1.00  0.00     0.029 A 
ATOM     58  N   UNL     1      19.638  -2.486   3.583  1.00  0.00    -0.354 N 
ATOM     59  N   UNL     1      16.678  -3.795   0.632  1.00  0.00    -0.248 NA
ATOM     60  C   UNL     1      16.314  -5.059   2.562  1.00  0.00     0.031 C 
ATOM     61  C   UNL     1      19.849  -0.570   2.565  1.00  0.00     0.029 A 
ATOM     62  C   UNL     1      19.322  -1.855   2.409  1.00  0.00     0.049 A 
ATOM     63  H   UNL     1      19.792  -3.451   3.701  1.00  0.00     0.167 HD
ATOM     64  C   UNL     1      17.732  -3.548   1.503  1.00  0.00     0.074 A 
ATOM     65  C   UNL     1      17.482  -4.415   2.654  1.00  0.00     0.031 C 
ATOM     66  C   UNL     1      18.542  -2.458   1.348  1.00  0.00     0.037 A 
BRANCH  53  67
ATOM     67  C   UNL     1      19.436  -3.011   6.659  1.00  0.00     0.058 A 
ATOM     68  C   UNL     1      20.744  -3.529   6.518  1.00  0.00     0.135 A 
ATOM     69  C   UNL     1      18.533  -3.840   7.358  1.00  0.00     0.135 A 
ATOM     70  F   UNL     1      21.698  -2.822   5.893  1.00  0.00    -0.206 F 
ATOM     71  C   UNL     1      21.090  -4.816   6.932  1.00  0.00     0.059 A 
ATOM     72  C   UNL     1      18.873  -5.105   7.826  1.00  0.00     0.059 A 
ATOM     73  F   UNL     1      17.249  -3.516   7.543  1.00  0.00    -0.206 F 
ATOM     74  C   UNL     1      20.137  -5.605   7.564  1.00  0.00     0.060 A 
BRANCH  74  75
ATOM     75  S   UNL     1      20.538  -7.309   7.982  1.00  0.00     0.124 S 
ATOM     76  O   UNL     1      20.636  -7.916   6.659  1.00  0.00    -0.237 OA
ATOM     77  O   UNL     1      21.792  -7.154   8.710  1.00  0.00    -0.237 OA
ATOM     78  O   UNL     1      19.398  -7.733   8.789  1.00  0.00    -0.744 OA
ENDBRANCH  74  75
ENDBRANCH  53  67
BRANCH  54  79
ATOM     79  C   UNL     1      13.320  -5.289   1.159  1.00  0.00     0.058 A 
ATOM     80  C   UNL     1      13.583  -6.473   0.447  1.00  0.00     0.135 A 
ATOM     81  C   UNL     1      12.169  -5.303   1.976  1.00  0.00     0.135 A 
ATOM     82  F   UNL     1      14.669  -6.561  -0.335  1.00  0.00    -0.206 F 
ATOM     83  C   UNL     1      12.775  -7.614   0.566  1.00  0.00     0.059 A 
ATOM     84  C   UNL     1      11.347  -6.423   2.104  1.00  0.00     0.059 A 
ATOM     85  F   UNL     1      11.856  -4.250   2.746  1.00  0.00    -0.206 F 
ATOM     86  C   UNL     1      11.667  -7.584   1.412  1.00  0.00     0.060 A 
BRANCH  86  87
ATOM     87  S   UNL     1      10.708  -9.095   1.688  1.00  0.00     0.124 S 
ATOM     88  O   UNL     1      10.064  -9.285   0.393  1.00  0.00    -0.237 OA
ATOM     89  O   UNL     1      11.745 -10.061   2.033  1.00  0.00    -0.237 OA
ATOM     90  O   UNL     1       9.811  -8.731   2.783  1.00  0.00    -0.744 OA
ENDBRANCH  86  87
ENDBRANCH  54  79
BRANCH  66  91
ATOM     91  C   UNL     1      18.477  -1.677   0.060  1.00  0.00     0.058 A 
ATOM     92  C   UNL     1      17.378  -0.898  -0.347  1.00  0.00     0.135 A 
ATOM     93  C   UNL     1      19.663  -1.541  -0.675  1.00  0.00     0.135 A 
ATOM     94  F   UNL     1      16.236  -0.898   0.351  1.00  0.00    -0.206 F 
ATOM     95  C   UNL     1      17.456  -0.032  -1.442  1.00  0.00     0.059 A 
ATOM     96  C   UNL     1      19.772  -0.665  -1.750  1.00  0.00     0.059 A 
ATOM     97  F   UNL     1      20.765  -2.213  -0.300  1.00  0.00    -0.206 F 
ATOM     98  C   UNL     1      18.663   0.086  -2.131  1.00  0.00     0.060 A 
BRANCH  98  99
ATOM     99  S   UNL     1      18.802   1.289  -3.471  1.00  0.00     0.124 S 
ATOM    100  O   UNL     1      17.992   0.676  -4.519  1.00  0.00    -0.237 OA
ATOM    101  O   UNL     1      18.250   2.500  -2.870  1.00  0.00    -0.237 OA
ATOM    102  O   UNL     1      20.237   1.337  -3.740  1.00  0.00    -0.744 OA
ENDBRANCH  98  99
ENDBRANCH  66  91
ENDBRANCH  40  41
ENDBRANCH  32  35
ENDBRANCH  30  31
ENDBRANCH  29  30
ENDBRANCH  28  29
ENDBRANCH   1  28
TORSDOF 19
