REMARK SMILES COc1cc2c(cc1OC)[C@@H](CC(=O)NCCCCNC(=O)c1ccc(-c3c4nc(c(-c5c(F)cc(S(=O)(=O)[O-])cc5F)c5ccc([nH]5)c(-c5c(F)cc(S(=O)(=O)[O-])cc5F)c5nc(c(-c6c(F)cc(S(=O)(=O)[O-])cc6F)c6ccc3[nH]6)C=C5)C=C4)cc1)N(C(=O)Nc1ccc(Cl)cc1)CC2
REMARK SMILES IDX 17 1 16 2 15 3 13 4 14 5 12 7 11 8 3 9 4 10 8 11 5 12 7 13
REMARK SMILES IDX 6 14 101 15 100 16 89 17 2 18 1 19 9 20 10 21 90 22 91 23
REMARK SMILES IDX 92 24 93 26 94 27 99 28 95 29 98 30 96 31 97 32 18 33 19 34
REMARK SMILES IDX 20 35 21 36 22 38 23 39 24 40 88 41 25 42 87 43 26 44 27 45
REMARK SMILES IDX 28 46 81 47 29 48 86 49 80 50 82 51 30 52 85 53 79 54 78 55
REMARK SMILES IDX 31 57 65 58 44 59 64 60 45 61 48 62 63 63 83 64 46 65 47 66
REMARK SMILES IDX 62 68 84 69 49 70 32 71 33 72 42 73 34 74 35 75 41 76 43 77
REMARK SMILES IDX 36 78 37 79 38 80 39 81 40 82 66 83 67 84 76 85 68 86 69 87
REMARK SMILES IDX 75 88 77 89 70 90 71 91 72 92 73 93 74 94 50 95 51 96 60 97
REMARK SMILES IDX 52 98 53 99 59 100 61 101 54 102 55 103 56 104 57 105 58 106
REMARK H PARENT 15 6 92 25 20 37 82 56 48 67
REMARK Flexibility Score: inf
ROOT
ATOM      1  C   UNL     1       1.945   4.213  -9.646  1.00  0.00     0.023 C 
ENDROOT
BRANCH   1   2
ATOM      2  C   UNL     1       3.208   3.529  -9.116  1.00  0.00     0.116 C 
BRANCH   2   3
ATOM      3  N   UNL     1       3.634   4.138  -7.862  1.00  0.00    -0.356 N 
ATOM      4  C   UNL     1       3.574   3.716  -6.570  1.00  0.00     0.222 C 
ATOM      5  O   UNL     1       3.904   4.504  -5.681  1.00  0.00    -0.275 OA
ATOM      6  H   UNL     1       4.045   5.027  -7.971  1.00  0.00     0.163 HD
BRANCH   4   7
ATOM      7  C   UNL     1       3.179   2.298  -6.214  1.00  0.00     0.130 C 
BRANCH   7   8
ATOM      8  C   UNL     1       1.811   2.257  -5.485  1.00  0.00     0.127 C 
ATOM      9  C   UNL     1       1.483   0.228  -1.629  1.00  0.00     0.161 A 
ATOM     10  C   UNL     1       0.356   0.526  -2.375  1.00  0.00     0.054 A 
ATOM     11  C   UNL     1       2.755   0.643  -2.050  1.00  0.00     0.161 A 
ATOM     12  C   UNL     1       0.503   1.195  -3.588  1.00  0.00    -0.037 A 
ATOM     13  C   UNL     1       2.886   1.374  -3.249  1.00  0.00     0.056 A 
ATOM     14  C   UNL     1       1.772   1.613  -4.072  1.00  0.00    -0.018 A 
ATOM     15  C   UNL     1      -0.673   1.273  -4.518  1.00  0.00     0.057 C 
ATOM     16  C   UNL     1      -0.138   0.650  -5.795  1.00  0.00     0.127 C 
ATOM     17  N   UNL     1       0.842   1.559  -6.392  1.00  0.00    -0.317 N 
BRANCH   9  18
ATOM     18  O   UNL     1       1.298  -0.616  -0.563  1.00  0.00    -0.493 OA
ATOM     19  C   UNL     1       1.278   0.113   0.658  1.00  0.00     0.278 C 
ENDBRANCH   9  18
BRANCH  11  20
ATOM     20  O   UNL     1       3.791   0.257  -1.240  1.00  0.00    -0.493 OA
ATOM     21  C   UNL     1       5.109   0.553  -1.671  1.00  0.00     0.278 C 
ENDBRANCH  11  20
BRANCH  17  22
ATOM     22  C   UNL     1       0.335   2.205  -7.510  1.00  0.00     0.322 C 
ATOM     23  O   UNL     1       0.004   3.381  -7.499  1.00  0.00    -0.248 OA
ATOM     24  N   UNL     1       0.157   1.290  -8.531  1.00  0.00    -0.308 N 
ATOM     25  H   UNL     1       0.942   0.764  -8.805  1.00  0.00     0.171 HD
BRANCH  24  26
ATOM     26  C   UNL     1      -1.045   1.047  -9.210  1.00  0.00     0.042 A 
ATOM     27  C   UNL     1      -1.109  -0.120  -9.980  1.00  0.00     0.028 A 
ATOM     28  C   UNL     1      -2.198   1.803  -8.998  1.00  0.00     0.028 A 
ATOM     29  C   UNL     1      -2.334  -0.568 -10.475  1.00  0.00     0.022 A 
ATOM     30  C   UNL     1      -3.425   1.351  -9.491  1.00  0.00     0.022 A 
ATOM     31  C   UNL     1      -3.490   0.158 -10.209  1.00  0.00     0.041 A 
ATOM     32  Cl  UNL     1      -5.014  -0.442 -10.734  1.00  0.00    -0.084 Cl
ENDBRANCH  24  26
ENDBRANCH  17  22
ENDBRANCH   7   8
ENDBRANCH   4   7
ENDBRANCH   2   3
ENDBRANCH   1   2
BRANCH   1  33
ATOM     33  C   UNL     1       1.979   4.617 -11.109  1.00  0.00     0.023 C 
BRANCH  33  34
ATOM     34  C   UNL     1       2.200   3.475 -12.089  1.00  0.00     0.116 C 
BRANCH  34  35
ATOM     35  N   UNL     1       1.198   2.410 -12.054  1.00  0.00    -0.352 N 
ATOM     36  C   UNL     1       0.598   1.766 -13.123  1.00  0.00     0.251 C 
ATOM     37  H   UNL     1       0.915   2.115 -11.159  1.00  0.00     0.163 HD
ATOM     38  O   UNL     1      -0.174   0.834 -12.962  1.00  0.00    -0.269 OA
BRANCH  36  39
ATOM     39  C   UNL     1       0.869   2.292 -14.476  1.00  0.00     0.039 A 
ATOM     40  C   UNL     1      -0.179   2.882 -15.185  1.00  0.00     0.014 A 
ATOM     41  C   UNL     1       2.189   2.423 -14.901  1.00  0.00     0.014 A 
ATOM     42  C   UNL     1       0.115   3.746 -16.242  1.00  0.00     0.010 A 
ATOM     43  C   UNL     1       2.479   3.372 -15.872  1.00  0.00     0.010 A 
ATOM     44  C   UNL     1       1.449   4.074 -16.527  1.00  0.00    -0.014 A 
BRANCH  44  45
ATOM     45  C   UNL     1       1.829   5.164 -17.469  1.00  0.00     0.031 A 
ATOM     46  C   UNL     1       2.801   4.858 -18.575  1.00  0.00     0.074 A 
ATOM     47  C   UNL     1       1.433   6.437 -17.252  1.00  0.00     0.049 A 
ATOM     48  N   UNL     1       3.521   5.676 -19.296  1.00  0.00    -0.248 NA
ATOM     49  C   UNL     1       3.044   3.433 -18.855  1.00  0.00     0.031 C 
ATOM     50  C   UNL     1       0.523   6.888 -16.195  1.00  0.00     0.029 A 
ATOM     51  N   UNL     1       1.769   7.599 -17.906  1.00  0.00    -0.354 N 
ATOM     52  C   UNL     1       4.348   4.865 -20.064  1.00  0.00     0.074 A 
ATOM     53  C   UNL     1       4.069   3.496 -19.690  1.00  0.00     0.031 C 
ATOM     54  C   UNL     1       0.349   8.217 -16.294  1.00  0.00     0.029 A 
ATOM     55  C   UNL     1       1.180   8.727 -17.378  1.00  0.00     0.049 A 
ATOM     56  H   UNL     1       2.375   7.623 -18.681  1.00  0.00     0.167 HD
ATOM     57  C   UNL     1       5.244   5.228 -21.012  1.00  0.00     0.037 A 
ATOM     58  C   UNL     1       1.311  10.025 -17.718  1.00  0.00     0.037 A 
ATOM     59  C   UNL     1       5.450   6.584 -21.439  1.00  0.00     0.049 A 
ATOM     60  C   UNL     1       2.259  10.398 -18.829  1.00  0.00     0.074 A 
ATOM     61  C   UNL     1       6.308   7.060 -22.415  1.00  0.00     0.029 A 
ATOM     62  N   UNL     1       4.757   7.678 -20.944  1.00  0.00    -0.354 N 
ATOM     63  N   UNL     1       3.048   9.621 -19.531  1.00  0.00    -0.248 NA
ATOM     64  C   UNL     1       2.340  11.821 -19.190  1.00  0.00     0.031 C 
ATOM     65  C   UNL     1       6.130   8.444 -22.513  1.00  0.00     0.029 A 
ATOM     66  C   UNL     1       5.146   8.824 -21.614  1.00  0.00     0.049 A 
ATOM     67  H   UNL     1       4.087   7.644 -20.223  1.00  0.00     0.167 HD
ATOM     68  C   UNL     1       3.687  10.454 -20.442  1.00  0.00     0.074 A 
ATOM     69  C   UNL     1       3.199  11.795 -20.201  1.00  0.00     0.031 C 
ATOM     70  C   UNL     1       4.600  10.138 -21.392  1.00  0.00     0.037 A 
BRANCH  57  71
ATOM     71  C   UNL     1       6.043   4.136 -21.660  1.00  0.00     0.058 A 
ATOM     72  C   UNL     1       5.450   3.221 -22.545  1.00  0.00     0.135 A 
ATOM     73  C   UNL     1       7.416   3.999 -21.396  1.00  0.00     0.135 A 
ATOM     74  F   UNL     1       4.137   3.296 -22.814  1.00  0.00    -0.206 F 
ATOM     75  C   UNL     1       6.179   2.183 -23.113  1.00  0.00     0.059 A 
ATOM     76  C   UNL     1       8.171   2.985 -21.978  1.00  0.00     0.059 A 
ATOM     77  F   UNL     1       8.032   4.846 -20.558  1.00  0.00    -0.206 F 
ATOM     78  C   UNL     1       7.538   2.069 -22.818  1.00  0.00     0.060 A 
BRANCH  78  79
ATOM     79  S   UNL     1       8.470   0.708 -23.550  1.00  0.00     0.124 S 
ATOM     80  O   UNL     1       8.061  -0.409 -22.704  1.00  0.00    -0.237 OA
ATOM     81  O   UNL     1       7.967   0.682 -24.920  1.00  0.00    -0.237 OA
ATOM     82  O   UNL     1       9.859   1.132 -23.404  1.00  0.00    -0.744 OA
ENDBRANCH  78  79
ENDBRANCH  57  71
BRANCH  58  83
ATOM     83  C   UNL     1       0.512  11.074 -17.029  1.00  0.00     0.058 A 
ATOM     84  C   UNL     1      -0.542  11.717 -17.698  1.00  0.00     0.135 A 
ATOM     85  C   UNL     1       0.790  11.473 -15.714  1.00  0.00     0.135 A 
ATOM     86  F   UNL     1      -0.842  11.373 -18.960  1.00  0.00    -0.206 F 
ATOM     87  C   UNL     1      -1.272  12.738 -17.100  1.00  0.00     0.059 A 
ATOM     88  C   UNL     1       0.058  12.478 -15.085  1.00  0.00     0.059 A 
ATOM     89  F   UNL     1       1.775  10.878 -15.024  1.00  0.00    -0.206 F 
ATOM     90  C   UNL     1      -0.961  13.117 -15.794  1.00  0.00     0.060 A 
BRANCH  90  91
ATOM     91  S   UNL     1      -1.923  14.435 -15.019  1.00  0.00     0.124 S 
ATOM     92  O   UNL     1      -1.351  15.621 -15.646  1.00  0.00    -0.237 OA
ATOM     93  O   UNL     1      -3.287  14.098 -15.415  1.00  0.00    -0.237 OA
ATOM     94  O   UNL     1      -1.633  14.268 -13.598  1.00  0.00    -0.744 OA
ENDBRANCH  90  91
ENDBRANCH  58  83
BRANCH  70  95
ATOM     95  C   UNL     1       5.074  11.232 -22.301  1.00  0.00     0.058 A 
ATOM     96  C   UNL     1       6.053  12.150 -21.899  1.00  0.00     0.135 A 
ATOM     97  C   UNL     1       4.621  11.284 -23.629  1.00  0.00     0.135 A 
ATOM     98  F   UNL     1       6.510  12.142 -20.637  1.00  0.00    -0.206 F 
ATOM     99  C   UNL     1       6.577  13.082 -22.788  1.00  0.00     0.059 A 
ATOM    100  C   UNL     1       5.143  12.195 -24.539  1.00  0.00     0.059 A 
ATOM    101  F   UNL     1       3.688  10.419 -24.059  1.00  0.00    -0.206 F 
ATOM    102  C   UNL     1       6.122  13.090 -24.109  1.00  0.00     0.060 A 
BRANCH 102 103
ATOM    103  S   UNL     1       6.876  14.240 -25.279  1.00  0.00     0.124 S 
ATOM    104  O   UNL     1       6.238  15.498 -24.908  1.00  0.00    -0.237 OA
ATOM    105  O   UNL     1       8.296  14.130 -24.956  1.00  0.00    -0.237 OA
ATOM    106  O   UNL     1       6.494  13.700 -26.580  1.00  0.00    -0.744 OA
ENDBRANCH 102 103
ENDBRANCH  70  95
ENDBRANCH  44  45
ENDBRANCH  36  39
ENDBRANCH  34  35
ENDBRANCH  33  34
ENDBRANCH   1  33
TORSDOF 19
