REMARK SMILES [NH3+][C@H]1CCCN(C(=O)NC[C@H]2CC[C@@H](C(=O)NCCCCNC(=O)c3ccc(-c4c5nc(c(-c6c(F)cc(S(=O)(=O)[O-])cc6F)c6ccc([nH]6)c(-c6c(F)cc(S(=O)(=O)[O-])cc6F)c6nc(c(-c7c(F)cc(S(=O)(=O)[O-])cc7F)c7ccc4[nH]7)C=C6)C=C5)cc3)CC2)C1
REMARK SMILES IDX 19 1 18 2 17 3 15 4 16 5 14 7 11 8 12 9 92 10 13 11 91 12
REMARK SMILES IDX 10 13 9 14 7 15 8 16 6 18 2 19 3 20 93 21 4 22 5 23 1 24
REMARK SMILES IDX 20 28 21 29 22 30 23 31 24 33 25 34 26 35 90 36 27 37 89 38
REMARK SMILES IDX 28 39 29 40 30 41 83 42 31 43 88 44 82 45 84 46 32 47 87 48
REMARK SMILES IDX 81 49 80 50 33 52 67 53 46 54 66 55 47 56 50 57 65 58 85 59
REMARK SMILES IDX 48 60 49 61 64 63 86 64 51 65 34 66 35 67 44 68 36 69 37 70
REMARK SMILES IDX 43 71 45 72 38 73 39 74 40 75 41 76 42 77 68 78 69 79 78 80
REMARK SMILES IDX 70 81 71 82 77 83 79 84 72 85 73 86 74 87 75 88 76 89 52 90
REMARK SMILES IDX 53 91 62 92 54 93 55 94 61 95 63 96 56 97 57 98 58 99 59 100
REMARK SMILES IDX 60 101
REMARK H PARENT 17 6 9 17 1 25 1 26 1 27 22 32 84 51 50 62
REMARK Flexibility Score: inf
ROOT
ATOM      1  C   UNL     1      -0.638   3.856  -0.265  1.00  0.00     0.023 C 
ENDROOT
BRANCH   1   2
ATOM      2  C   UNL     1      -0.141   5.007   0.606  1.00  0.00     0.116 C 
BRANCH   2   3
ATOM      3  N   UNL     1      -1.220   5.869   1.041  1.00  0.00    -0.356 N 
ATOM      4  C   UNL     1      -1.841   6.052   2.229  1.00  0.00     0.223 C 
ATOM      5  O   UNL     1      -2.735   6.907   2.250  1.00  0.00    -0.275 OA
ATOM      6  H   UNL     1      -1.577   6.439   0.322  1.00  0.00     0.163 HD
BRANCH   4   7
ATOM      7  C   UNL     1      -1.540   5.270   3.507  1.00  0.00     0.078 C 
ATOM      8  C   UNL     1      -0.656   3.341   5.599  1.00  0.00     0.008 C 
ATOM      9  C   UNL     1      -0.085   4.779   5.505  1.00  0.00     0.006 C 
ATOM     10  C   UNL     1      -2.020   3.247   4.891  1.00  0.00     0.006 C 
ATOM     11  C   UNL     1      -0.128   5.370   4.082  1.00  0.00     0.014 C 
ATOM     12  C   UNL     1      -2.011   3.817   3.469  1.00  0.00     0.014 C 
BRANCH   8  13
ATOM     13  C   UNL     1       0.395   2.334   5.092  1.00  0.00     0.121 C 
BRANCH  13  14
ATOM     14  N   UNL     1      -0.132   1.015   4.791  1.00  0.00    -0.338 N 
ATOM     15  C   UNL     1      -0.289   0.290   3.661  1.00  0.00     0.317 C 
ATOM     16  O   UNL     1      -1.085  -0.650   3.741  1.00  0.00    -0.249 OA
ATOM     17  H   UNL     1      -0.447   0.540   5.594  1.00  0.00     0.165 HD
BRANCH  15  18
ATOM     18  N   UNL     1       0.371   0.592   2.497  1.00  0.00    -0.319 N 
ATOM     19  C   UNL     1       0.815  -0.315   0.172  1.00  0.00     0.200 C 
ATOM     20  C   UNL     1       1.835   0.794  -0.018  1.00  0.00     0.068 C 
ATOM     21  C   UNL     1      -0.213   0.078   1.249  1.00  0.00     0.186 C 
ATOM     22  C   UNL     1       2.501   1.174   1.286  1.00  0.00     0.028 C 
ATOM     23  C   UNL     1       1.494   1.511   2.371  1.00  0.00     0.122 C 
BRANCH  19  24
ATOM     24  N   UNL     1       0.199  -0.578  -1.135  1.00  0.00    -0.354 N 
ATOM     25  H   UNL     1       0.922  -0.833  -1.807  1.00  0.00     0.344 HD
ATOM     26  H   UNL     1      -0.285   0.260  -1.458  1.00  0.00     0.344 HD
ATOM     27  H   UNL     1      -0.469  -1.344  -1.048  1.00  0.00     0.344 HD
ENDBRANCH  19  24
ENDBRANCH  15  18
ENDBRANCH  13  14
ENDBRANCH   8  13
ENDBRANCH   4   7
ENDBRANCH   2   3
ENDBRANCH   1   2
BRANCH   1  28
ATOM     28  C   UNL     1      -0.255   3.865  -1.750  1.00  0.00     0.023 C 
BRANCH  28  29
ATOM     29  C   UNL     1       1.136   4.338  -2.178  1.00  0.00     0.116 C 
BRANCH  29  30
ATOM     30  N   UNL     1       2.259   3.522  -1.727  1.00  0.00    -0.352 N 
ATOM     31  C   UNL     1       3.177   2.802  -2.470  1.00  0.00     0.251 C 
ATOM     32  H   UNL     1       2.381   3.478  -0.751  1.00  0.00     0.163 HD
ATOM     33  O   UNL     1       4.046   2.128  -1.926  1.00  0.00    -0.269 OA
BRANCH  31  34
ATOM     34  C   UNL     1       3.123   2.882  -3.938  1.00  0.00     0.039 A 
ATOM     35  C   UNL     1       3.006   1.737  -4.732  1.00  0.00     0.014 A 
ATOM     36  C   UNL     1       3.134   4.152  -4.508  1.00  0.00     0.014 A 
ATOM     37  C   UNL     1       2.797   1.880  -6.108  1.00  0.00     0.010 A 
ATOM     38  C   UNL     1       2.813   4.292  -5.842  1.00  0.00     0.010 A 
ATOM     39  C   UNL     1       2.646   3.162  -6.659  1.00  0.00    -0.014 A 
BRANCH  39  40
ATOM     40  C   UNL     1       2.320   3.424  -8.082  1.00  0.00     0.031 A 
ATOM     41  C   UNL     1       3.249   4.311  -8.867  1.00  0.00     0.074 A 
ATOM     42  C   UNL     1       1.118   3.062  -8.570  1.00  0.00     0.049 A 
ATOM     43  N   UNL     1       3.028   4.979  -9.966  1.00  0.00    -0.248 NA
ATOM     44  C   UNL     1       4.580   4.545  -8.277  1.00  0.00     0.031 C 
ATOM     45  C   UNL     1       0.119   2.256  -7.864  1.00  0.00     0.029 A 
ATOM     46  N   UNL     1       0.509   3.372  -9.760  1.00  0.00    -0.354 N 
ATOM     47  C   UNL     1       4.165   5.755 -10.165  1.00  0.00     0.074 A 
ATOM     48  C   UNL     1       5.045   5.520  -9.043  1.00  0.00     0.031 C 
ATOM     49  C   UNL     1      -0.974   2.132  -8.634  1.00  0.00     0.029 A 
ATOM     50  C   UNL     1      -0.776   2.891  -9.863  1.00  0.00     0.049 A 
ATOM     51  H   UNL     1       0.950   3.889 -10.473  1.00  0.00     0.167 HD
ATOM     52  C   UNL     1       4.452   6.573 -11.205  1.00  0.00     0.037 A 
ATOM     53  C   UNL     1      -1.696   3.069 -10.831  1.00  0.00     0.037 A 
ATOM     54  C   UNL     1       3.581   6.730 -12.338  1.00  0.00     0.049 A 
ATOM     55  C   UNL     1      -1.331   3.930 -12.011  1.00  0.00     0.074 A 
ATOM     56  C   UNL     1       3.797   7.443 -13.502  1.00  0.00     0.029 A 
ATOM     57  N   UNL     1       2.327   6.143 -12.451  1.00  0.00    -0.354 N 
ATOM     58  N   UNL     1      -0.229   4.612 -12.220  1.00  0.00    -0.248 NA
ATOM     59  C   UNL     1      -2.327   4.048 -13.083  1.00  0.00     0.031 C 
ATOM     60  C   UNL     1       2.661   7.311 -14.307  1.00  0.00     0.029 A 
ATOM     61  C   UNL     1       1.753   6.484 -13.662  1.00  0.00     0.049 A 
ATOM     62  H   UNL     1       1.909   5.568 -11.770  1.00  0.00     0.167 HD
ATOM     63  C   UNL     1      -0.388   5.223 -13.457  1.00  0.00     0.074 A 
ATOM     64  C   UNL     1      -1.689   4.819 -13.955  1.00  0.00     0.031 C 
ATOM     65  C   UNL     1       0.458   6.048 -14.123  1.00  0.00     0.037 A 
BRANCH  52  66
ATOM     66  C   UNL     1       5.755   7.326 -11.170  1.00  0.00     0.058 A 
ATOM     67  C   UNL     1       6.992   6.665 -11.257  1.00  0.00     0.135 A 
ATOM     68  C   UNL     1       5.774   8.726 -11.059  1.00  0.00     0.135 A 
ATOM     69  F   UNL     1       7.038   5.326 -11.348  1.00  0.00    -0.206 F 
ATOM     70  C   UNL     1       8.197   7.356 -11.193  1.00  0.00     0.059 A 
ATOM     71  C   UNL     1       6.969   9.443 -11.027  1.00  0.00     0.059 A 
ATOM     72  F   UNL     1       4.625   9.414 -10.971  1.00  0.00    -0.206 F 
ATOM     73  C   UNL     1       8.176   8.746 -11.076  1.00  0.00     0.060 A 
BRANCH  73  74
ATOM     74  S   UNL     1       9.750   9.627 -10.998  1.00  0.00     0.124 S 
ATOM     75  O   UNL     1      10.198   9.301  -9.647  1.00  0.00    -0.237 OA
ATOM     76  O   UNL     1      10.507   9.009 -12.082  1.00  0.00    -0.237 OA
ATOM     77  O   UNL     1       9.372  11.020 -11.214  1.00  0.00    -0.744 OA
ENDBRANCH  73  74
ENDBRANCH  52  66
BRANCH  53  78
ATOM     78  C   UNL     1      -3.019   2.394 -10.739  1.00  0.00     0.058 A 
ATOM     79  C   UNL     1      -3.324   1.311 -11.578  1.00  0.00     0.135 A 
ATOM     80  C   UNL     1      -3.985   2.778  -9.796  1.00  0.00     0.135 A 
ATOM     81  F   UNL     1      -2.434   0.906 -12.498  1.00  0.00    -0.206 F 
ATOM     82  C   UNL     1      -4.540   0.640 -11.495  1.00  0.00     0.059 A 
ATOM     83  C   UNL     1      -5.201   2.108  -9.678  1.00  0.00     0.059 A 
ATOM     84  F   UNL     1      -3.737   3.794  -8.954  1.00  0.00    -0.206 F 
ATOM     85  C   UNL     1      -5.472   1.044 -10.538  1.00  0.00     0.060 A 
BRANCH  85  86
ATOM     86  S   UNL     1      -7.023   0.127 -10.404  1.00  0.00     0.124 S 
ATOM     87  O   UNL     1      -7.726   0.562 -11.605  1.00  0.00    -0.237 OA
ATOM     88  O   UNL     1      -6.561  -1.257 -10.400  1.00  0.00    -0.237 OA
ATOM     89  O   UNL     1      -7.582   0.597  -9.139  1.00  0.00    -0.744 OA
ENDBRANCH  85  86
ENDBRANCH  53  78
BRANCH  65  90
ATOM     90  C   UNL     1       0.014   6.545 -15.467  1.00  0.00     0.058 A 
ATOM     91  C   UNL     1      -0.947   7.559 -15.589  1.00  0.00     0.135 A 
ATOM     92  C   UNL     1       0.626   6.067 -16.637  1.00  0.00     0.135 A 
ATOM     93  F   UNL     1      -1.565   8.040 -14.498  1.00  0.00    -0.206 F 
ATOM     94  C   UNL     1      -1.292   8.081 -16.829  1.00  0.00     0.059 A 
ATOM     95  C   UNL     1       0.315   6.593 -17.885  1.00  0.00     0.059 A 
ATOM     96  F   UNL     1       1.559   5.104 -16.568  1.00  0.00    -0.206 F 
ATOM     97  C   UNL     1      -0.648   7.597 -17.971  1.00  0.00     0.060 A 
BRANCH  97  98
ATOM     98  S   UNL     1      -1.056   8.335 -19.567  1.00  0.00     0.124 S 
ATOM     99  O   UNL     1      -2.379   7.775 -19.819  1.00  0.00    -0.237 OA
ATOM    100  O   UNL     1      -1.017   9.763 -19.268  1.00  0.00    -0.237 OA
ATOM    101  O   UNL     1       0.008   7.855 -20.444  1.00  0.00    -0.744 OA
ENDBRANCH  97  98
ENDBRANCH  65  90
ENDBRANCH  39  40
ENDBRANCH  31  34
ENDBRANCH  29  30
ENDBRANCH  28  29
ENDBRANCH   1  28
TORSDOF 18
