REMARK SMILES O=C(NCCCCNC(=O)[C@H]1[C@H]2CC[C@H](CC2)[C@@H]1C(=O)Nc1sc2c(c1C(=O)N1CCCCC1)CCCC2)c1ccc(-c2c3nc(c(-c4c(F)cc(S(=O)(=O)[O-])cc4F)c4ccc([nH]4)c(-c4c(F)cc(S(=O)(=O)[O-])cc4F)c4nc(c(-c5c(F)cc(S(=O)(=O)[O-])cc5F)c5ccc2[nH]5)C=C4)C=C3)cc1
REMARK SMILES IDX 5 1 4 2 3 3 1 4 2 5 39 7 40 8 104 9 41 10 103 11 42 12 43 13
REMARK SMILES IDX 44 14 97 15 45 16 102 17 96 18 98 19 46 20 101 21 95 22
REMARK SMILES IDX 94 23 47 25 81 26 60 27 80 28 61 29 64 30 79 31 99 32 62 33
REMARK SMILES IDX 63 34 78 36 100 37 65 38 48 39 49 40 58 41 50 42 51 43 57 44
REMARK SMILES IDX 59 45 52 46 53 47 54 48 55 49 56 50 82 51 83 52 92 53 84 54
REMARK SMILES IDX 85 55 91 56 93 57 86 58 87 59 88 60 89 61 90 62 66 63 67 64
REMARK SMILES IDX 76 65 68 66 69 67 75 68 77 69 70 70 71 71 72 72 73 73 74 74
REMARK SMILES IDX 6 75 7 76 8 77 9 78 10 80 11 81 12 82 18 83 13 84 17 85
REMARK SMILES IDX 15 86 14 87 16 88 19 89 20 90 21 91 22 93 23 94 26 95 24 96
REMARK SMILES IDX 25 97 38 98 35 99 37 100 36 101 27 102 28 103 29 104 30 105
REMARK SMILES IDX 34 106 31 107 33 108 32 109
REMARK H PARENT 3 6 98 24 64 35 8 79 21 92
REMARK Flexibility Score: inf
ROOT
ATOM      1  C   UNL     1       5.124  -2.229  -0.689  1.00  0.00     0.023 C 
ENDROOT
BRANCH   1   2
ATOM      2  C   UNL     1       4.658  -0.782  -0.688  1.00  0.00     0.116 C 
BRANCH   2   3
ATOM      3  N   UNL     1       3.208  -0.627  -0.783  1.00  0.00    -0.352 N 
ATOM      4  O   UNL     1       1.142   0.037  -0.146  1.00  0.00    -0.269 OA
ATOM      5  C   UNL     1       2.350   0.077   0.034  1.00  0.00     0.251 C 
ATOM      6  H   UNL     1       2.783  -1.092  -1.540  1.00  0.00     0.163 HD
BRANCH   5   7
ATOM      7  C   UNL     1       2.924   0.837   1.161  1.00  0.00     0.039 A 
ATOM      8  C   UNL     1       4.030   1.656   0.945  1.00  0.00     0.014 A 
ATOM      9  C   UNL     1       2.434   0.626   2.451  1.00  0.00     0.014 A 
ATOM     10  C   UNL     1       4.787   2.064   2.031  1.00  0.00     0.010 A 
ATOM     11  C   UNL     1       3.130   1.153   3.543  1.00  0.00     0.010 A 
ATOM     12  C   UNL     1       4.347   1.822   3.344  1.00  0.00    -0.014 A 
BRANCH  12  13
ATOM     13  C   UNL     1       5.183   2.302   4.475  1.00  0.00     0.031 A 
ATOM     14  C   UNL     1       5.769   1.346   5.481  1.00  0.00     0.074 A 
ATOM     15  C   UNL     1       5.470   3.617   4.541  1.00  0.00     0.049 A 
ATOM     16  N   UNL     1       6.550   1.604   6.500  1.00  0.00    -0.248 NA
ATOM     17  C   UNL     1       5.430  -0.079   5.340  1.00  0.00     0.031 C 
ATOM     18  C   UNL     1       4.952   4.636   3.622  1.00  0.00     0.029 A 
ATOM     19  N   UNL     1       6.295   4.319   5.379  1.00  0.00    -0.354 N 
ATOM     20  C   UNL     1       6.758   0.390   7.146  1.00  0.00     0.074 A 
ATOM     21  C   UNL     1       6.015  -0.609   6.407  1.00  0.00     0.031 C 
ATOM     22  C   UNL     1       5.539   5.810   3.889  1.00  0.00     0.029 A 
ATOM     23  C   UNL     1       6.406   5.648   5.049  1.00  0.00     0.049 A 
ATOM     24  H   UNL     1       6.762   3.911   6.143  1.00  0.00     0.167 HD
ATOM     25  C   UNL     1       7.500   0.136   8.252  1.00  0.00     0.037 A 
ATOM     26  C   UNL     1       7.117   6.636   5.621  1.00  0.00     0.037 A 
ATOM     27  C   UNL     1       8.273   1.131   8.950  1.00  0.00     0.049 A 
ATOM     28  C   UNL     1       7.947   6.322   6.828  1.00  0.00     0.074 A 
ATOM     29  C   UNL     1       9.090   0.969  10.056  1.00  0.00     0.029 A 
ATOM     30  N   UNL     1       8.332   2.475   8.607  1.00  0.00    -0.354 N 
ATOM     31  N   UNL     1       8.128   5.167   7.423  1.00  0.00    -0.248 NA
ATOM     32  C   UNL     1       8.658   7.444   7.450  1.00  0.00     0.031 C 
ATOM     33  C   UNL     1       9.615   2.220  10.402  1.00  0.00     0.029 A 
ATOM     34  C   UNL     1       9.157   3.155   9.488  1.00  0.00     0.049 A 
ATOM     35  H   UNL     1       7.856   2.885   7.849  1.00  0.00     0.167 HD
ATOM     36  C   UNL     1       8.980   5.422   8.489  1.00  0.00     0.074 A 
ATOM     37  C   UNL     1       9.296   6.836   8.441  1.00  0.00     0.031 C 
ATOM     38  C   UNL     1       9.454   4.564   9.425  1.00  0.00     0.037 A 
BRANCH  25  39
ATOM     39  C   UNL     1       7.490  -1.268   8.798  1.00  0.00     0.058 A 
ATOM     40  C   UNL     1       8.169  -2.320   8.165  1.00  0.00     0.135 A 
ATOM     41  C   UNL     1       6.818  -1.553   9.998  1.00  0.00     0.135 A 
ATOM     42  F   UNL     1       8.816  -2.109   7.008  1.00  0.00    -0.206 F 
ATOM     43  C   UNL     1       8.160  -3.611   8.688  1.00  0.00     0.059 A 
ATOM     44  C   UNL     1       6.814  -2.831  10.551  1.00  0.00     0.059 A 
ATOM     45  F   UNL     1       6.154  -0.584  10.648  1.00  0.00    -0.206 F 
ATOM     46  C   UNL     1       7.475  -3.858   9.880  1.00  0.00     0.060 A 
BRANCH  46  47
ATOM     47  S   UNL     1       7.464  -5.537  10.544  1.00  0.00     0.124 S 
ATOM     48  O   UNL     1       6.509  -6.194   9.655  1.00  0.00    -0.237 OA
ATOM     49  O   UNL     1       8.856  -5.947  10.389  1.00  0.00    -0.237 OA
ATOM     50  O   UNL     1       7.017  -5.356  11.921  1.00  0.00    -0.744 OA
ENDBRANCH  46  47
ENDBRANCH  25  39
BRANCH  26  51
ATOM     51  C   UNL     1       7.061   8.006   5.050  1.00  0.00     0.058 A 
ATOM     52  C   UNL     1       8.165   8.554   4.383  1.00  0.00     0.135 A 
ATOM     53  C   UNL     1       5.886   8.771   5.114  1.00  0.00     0.135 A 
ATOM     54  F   UNL     1       9.310   7.859   4.297  1.00  0.00    -0.206 F 
ATOM     55  C   UNL     1       8.110   9.816   3.802  1.00  0.00     0.059 A 
ATOM     56  C   UNL     1       5.797  10.024   4.518  1.00  0.00     0.059 A 
ATOM     57  F   UNL     1       4.796   8.280   5.724  1.00  0.00    -0.206 F 
ATOM     58  C   UNL     1       6.918  10.542   3.872  1.00  0.00     0.060 A 
BRANCH  58  59
ATOM     59  S   UNL     1       6.830  12.151   3.059  1.00  0.00     0.124 S 
ATOM     60  O   UNL     1       7.544  12.997   4.008  1.00  0.00    -0.237 OA
ATOM     61  O   UNL     1       7.509  11.897   1.792  1.00  0.00    -0.237 OA
ATOM     62  O   UNL     1       5.394  12.392   2.952  1.00  0.00    -0.744 OA
ENDBRANCH  58  59
ENDBRANCH  26  51
BRANCH  38  63
ATOM     63  C   UNL     1      10.381   5.138  10.457  1.00  0.00     0.058 A 
ATOM     64  C   UNL     1       9.907   5.948  11.500  1.00  0.00     0.135 A 
ATOM     65  C   UNL     1      11.757   4.865  10.406  1.00  0.00     0.135 A 
ATOM     66  F   UNL     1       8.601   6.245  11.584  1.00  0.00    -0.206 F 
ATOM     67  C   UNL     1      10.771   6.496  12.441  1.00  0.00     0.059 A 
ATOM     68  C   UNL     1      12.636   5.383  11.351  1.00  0.00     0.059 A 
ATOM     69  F   UNL     1      12.257   4.088   9.432  1.00  0.00    -0.206 F 
ATOM     70  C   UNL     1      12.135   6.211  12.355  1.00  0.00     0.060 A 
BRANCH  70  71
ATOM     71  S   UNL     1      13.250   6.919  13.586  1.00  0.00     0.124 S 
ATOM     72  O   UNL     1      13.381   8.291  13.108  1.00  0.00    -0.237 OA
ATOM     73  O   UNL     1      12.499   6.749  14.827  1.00  0.00    -0.237 OA
ATOM     74  O   UNL     1      14.449   6.094  13.470  1.00  0.00    -0.744 OA
ENDBRANCH  70  71
ENDBRANCH  38  63
ENDBRANCH  12  13
ENDBRANCH   5   7
ENDBRANCH   2   3
ENDBRANCH   1   2
BRANCH   1  75
ATOM     75  C   UNL     1       4.599  -3.069  -1.841  1.00  0.00     0.023 C 
BRANCH  75  76
ATOM     76  C   UNL     1       4.743  -2.442  -3.222  1.00  0.00     0.116 C 
BRANCH  76  77
ATOM     77  N   UNL     1       6.108  -2.361  -3.692  1.00  0.00    -0.356 N 
ATOM     78  C   UNL     1       6.749  -2.771  -4.811  1.00  0.00     0.224 C 
ATOM     79  H   UNL     1       6.705  -1.906  -3.055  1.00  0.00     0.163 HD
ATOM     80  O   UNL     1       7.915  -2.362  -4.922  1.00  0.00    -0.275 OA
BRANCH  78  81
ATOM     81  C   UNL     1       6.234  -3.783  -5.842  1.00  0.00     0.094 C 
ATOM     82  C   UNL     1       6.766  -5.203  -5.477  1.00  0.00     0.002 C 
ATOM     83  C   UNL     1       4.721  -3.833  -6.236  1.00  0.00     0.094 C 
ATOM     84  C   UNL     1       6.030  -5.744  -4.249  1.00  0.00     0.005 C 
ATOM     85  C   UNL     1       6.488  -6.156  -6.659  1.00  0.00     0.005 C 
ATOM     86  C   UNL     1       4.245  -5.295  -5.972  1.00  0.00     0.002 C 
ATOM     87  C   UNL     1       4.529  -5.739  -4.520  1.00  0.00     0.005 C 
ATOM     88  C   UNL     1       4.983  -6.260  -6.907  1.00  0.00     0.005 C 
BRANCH  83  89
ATOM     89  C   UNL     1       4.507  -3.246  -7.662  1.00  0.00     0.229 C 
ATOM     90  O   UNL     1       5.409  -2.606  -8.218  1.00  0.00    -0.274 OA
ATOM     91  N   UNL     1       3.321  -3.290  -8.350  1.00  0.00    -0.317 N 
ATOM     92  H   UNL     1       3.197  -2.635  -9.073  1.00  0.00     0.170 HD
BRANCH  91  93
ATOM     93  C   UNL     1       2.293  -4.169  -8.116  1.00  0.00     0.108 A 
ATOM     94  S   UNL     1       1.242  -3.839  -6.826  1.00  0.00    -0.122 S 
ATOM     95  C   UNL     1       1.943  -5.288  -8.863  1.00  0.00     0.078 A 
ATOM     96  C   UNL     1       0.669  -5.441  -6.890  1.00  0.00     0.011 A 
ATOM     97  C   UNL     1       1.026  -6.092  -8.065  1.00  0.00    -0.019 A 
ATOM     98  C   UNL     1      -0.060  -6.059  -5.737  1.00  0.00     0.047 C 
ATOM     99  C   UNL     1       0.607  -7.516  -8.301  1.00  0.00     0.037 C 
ATOM    100  C   UNL     1       0.065  -7.588  -5.812  1.00  0.00     0.006 C 
ATOM    101  C   UNL     1      -0.310  -8.085  -7.208  1.00  0.00     0.005 C 
BRANCH  95 102
ATOM    102  C   UNL     1       2.667  -5.584 -10.117  1.00  0.00     0.257 C 
ATOM    103  O   UNL     1       3.487  -4.793 -10.588  1.00  0.00    -0.269 OA
ATOM    104  N   UNL     1       2.486  -6.830 -10.710  1.00  0.00    -0.339 N 
ATOM    105  C   UNL     1       3.690  -7.462 -11.236  1.00  0.00     0.120 C 
ATOM    106  C   UNL     1       1.296  -7.048 -11.520  1.00  0.00     0.120 C 
ATOM    107  C   UNL     1       3.491  -8.965 -11.369  1.00  0.00     0.022 C 
ATOM    108  C   UNL     1       1.027  -8.539 -11.716  1.00  0.00     0.022 C 
ATOM    109  C   UNL     1       2.264  -9.280 -12.224  1.00  0.00     0.004 C 
ENDBRANCH  95 102
ENDBRANCH  91  93
ENDBRANCH  83  89
ENDBRANCH  78  81
ENDBRANCH  76  77
ENDBRANCH  75  76
ENDBRANCH   1  75
TORSDOF 17
