REMARK SMILES CCN(CC)c1ccc([C@@H]2[NH2+][C@@H](C(=O)NCCCCNC(=O)c3ccc(-c4c5nc(c(-c6c(F)cc(S(=O)(=O)[O-])cc6F)c6ccc([nH]6)c(-c6c(F)cc(S(=O)(=O)[O-])cc6F)c6nc(c(-c7c(F)cc(S(=O)(=O)[O-])cc7F)c7ccc4[nH]7)C=C6)C=C5)cc3)Cc3c2[nH]c2ccccc32)cc1
REMARK SMILES IDX 17 1 16 2 15 3 13 4 14 5 12 7 10 8 11 9 91 10 90 13 92 14
REMARK SMILES IDX 89 15 98 16 93 17 97 19 94 20 96 21 95 22 9 23 6 24 7 25
REMARK SMILES IDX 100 26 8 27 99 28 3 29 2 30 1 31 4 32 5 33 18 34 19 35 20 36
REMARK SMILES IDX 21 37 22 39 23 40 24 41 88 42 25 43 87 44 26 45 27 46 28 47
REMARK SMILES IDX 81 48 29 49 86 50 80 51 82 52 30 53 85 54 79 55 78 56 31 58
REMARK SMILES IDX 65 59 44 60 64 61 45 62 48 63 63 64 83 65 46 66 47 67 62 69
REMARK SMILES IDX 84 70 49 71 32 72 33 73 42 74 34 75 35 76 41 77 43 78 36 79
REMARK SMILES IDX 37 80 38 81 39 82 40 83 66 84 67 85 76 86 68 87 69 88 75 89
REMARK SMILES IDX 77 90 70 91 71 92 72 93 73 94 74 95 50 96 51 97 60 98 52 99
REMARK SMILES IDX 53 100 59 101 61 102 54 103 55 104 56 105 57 106 58 107
REMARK H PARENT 15 6 11 11 11 12 92 18 20 38 82 57 48 68
REMARK Flexibility Score: inf
ROOT
ATOM      1  C   UNL     1      10.540  -2.569  -0.108  1.00  0.00     0.023 C 
ENDROOT
BRANCH   1   2
ATOM      2  C   UNL     1       9.147  -1.974  -0.303  1.00  0.00     0.116 C 
BRANCH   2   3
ATOM      3  N   UNL     1       9.133  -0.536  -0.124  1.00  0.00    -0.351 N 
ATOM      4  C   UNL     1       8.388   0.413  -0.769  1.00  0.00     0.278 C 
ATOM      5  O   UNL     1       8.707   1.595  -0.590  1.00  0.00    -0.268 OA
ATOM      6  H   UNL     1       9.749  -0.192   0.562  1.00  0.00     0.163 HD
BRANCH   4   7
ATOM      7  C   UNL     1       7.155   0.069  -1.649  1.00  0.00     0.277 C 
ATOM      8  C   UNL     1       6.235  -2.341  -1.735  1.00  0.00     0.262 C 
ATOM      9  N   UNL     1       6.399  -1.043  -1.024  1.00  0.00    -0.325 N 
ATOM     10  C   UNL     1       6.760  -2.223  -3.124  1.00  0.00     0.083 A 
ATOM     11  H   UNL     1       6.863  -1.251  -0.140  1.00  0.00     0.347 HD
ATOM     12  H   UNL     1       5.446  -0.681  -0.988  1.00  0.00     0.347 HD
ATOM     13  C   UNL     1       6.871  -1.074  -3.869  1.00  0.00    -0.006 A 
ATOM     14  N   UNL     1       7.233  -3.164  -4.004  1.00  0.00    -0.353 N 
ATOM     15  C   UNL     1       7.362   0.141  -3.186  1.00  0.00     0.114 C 
ATOM     16  C   UNL     1       6.176  -1.508  -5.028  1.00  0.00     0.003 A 
ATOM     17  C   UNL     1       6.705  -2.792  -5.232  1.00  0.00     0.046 A 
ATOM     18  H   UNL     1       7.817  -3.931  -3.808  1.00  0.00     0.166 HD
ATOM     19  C   UNL     1       5.113  -1.109  -5.865  1.00  0.00     0.010 A 
ATOM     20  C   UNL     1       6.507  -3.544  -6.387  1.00  0.00     0.026 A 
ATOM     21  C   UNL     1       4.693  -2.001  -6.875  1.00  0.00     0.001 A 
ATOM     22  C   UNL     1       5.431  -3.150  -7.181  1.00  0.00     0.002 A 
BRANCH   8  23
ATOM     23  C   UNL     1       4.711  -2.643  -1.671  1.00  0.00     0.016 A 
ATOM     24  C   UNL     1       1.924  -2.061  -1.721  1.00  0.00     0.037 A 
ATOM     25  C   UNL     1       2.578  -2.625  -2.820  1.00  0.00     0.026 A 
ATOM     26  C   UNL     1       2.650  -2.035  -0.528  1.00  0.00     0.026 A 
ATOM     27  C   UNL     1       3.944  -2.930  -2.798  1.00  0.00     0.012 A 
ATOM     28  C   UNL     1       4.009  -2.363  -0.486  1.00  0.00     0.012 A 
BRANCH  24  29
ATOM     29  N   UNL     1       0.643  -1.533  -1.802  1.00  0.00    -0.372 N 
BRANCH  29  30
ATOM     30  C   UNL     1       0.409  -0.115  -1.467  1.00  0.00     0.113 C 
ATOM     31  C   UNL     1       0.422   0.180   0.026  1.00  0.00     0.027 C 
ENDBRANCH  29  30
BRANCH  29  32
ATOM     32  C   UNL     1      -0.404  -2.236  -2.549  1.00  0.00     0.113 C 
ATOM     33  C   UNL     1      -0.449  -1.887  -4.033  1.00  0.00     0.027 C 
ENDBRANCH  29  32
ENDBRANCH  24  29
ENDBRANCH   8  23
ENDBRANCH   4   7
ENDBRANCH   2   3
ENDBRANCH   1   2
BRANCH   1  34
ATOM     34  C   UNL     1      10.993  -2.716   1.346  1.00  0.00     0.023 C 
BRANCH  34  35
ATOM     35  C   UNL     1      10.234  -3.752   2.178  1.00  0.00     0.116 C 
BRANCH  35  36
ATOM     36  N   UNL     1      10.304  -5.098   1.622  1.00  0.00    -0.352 N 
ATOM     37  C   UNL     1      10.807  -6.258   2.152  1.00  0.00     0.251 C 
ATOM     38  H   UNL     1       9.928  -5.189   0.717  1.00  0.00     0.163 HD
ATOM     39  O   UNL     1      10.897  -7.258   1.428  1.00  0.00    -0.269 OA
BRANCH  37  40
ATOM     40  C   UNL     1      11.263  -6.330   3.557  1.00  0.00     0.039 A 
ATOM     41  C   UNL     1      12.445  -7.017   3.853  1.00  0.00     0.014 A 
ATOM     42  C   UNL     1      10.527  -5.745   4.590  1.00  0.00     0.014 A 
ATOM     43  C   UNL     1      12.926  -7.048   5.165  1.00  0.00     0.010 A 
ATOM     44  C   UNL     1      11.047  -5.709   5.884  1.00  0.00     0.010 A 
ATOM     45  C   UNL     1      12.255  -6.356   6.187  1.00  0.00    -0.014 A 
BRANCH  45  46
ATOM     46  C   UNL     1      12.810  -6.283   7.566  1.00  0.00     0.031 A 
ATOM     47  C   UNL     1      12.046  -6.859   8.730  1.00  0.00     0.074 A 
ATOM     48  C   UNL     1      13.972  -5.633   7.782  1.00  0.00     0.049 A 
ATOM     49  N   UNL     1      12.338  -6.829  10.005  1.00  0.00    -0.248 NA
ATOM     50  C   UNL     1      10.775  -7.533   8.422  1.00  0.00     0.031 C 
ATOM     51  C   UNL     1      14.783  -4.986   6.748  1.00  0.00     0.029 A 
ATOM     52  N   UNL     1      14.668  -5.396   8.942  1.00  0.00    -0.354 N 
ATOM     53  C   UNL     1      11.284  -7.464  10.652  1.00  0.00     0.074 A 
ATOM     54  C   UNL     1      10.321  -7.822   9.633  1.00  0.00     0.031 C 
ATOM     55  C   UNL     1      15.872  -4.444   7.316  1.00  0.00     0.029 A 
ATOM     56  C   UNL     1      15.819  -4.665   8.758  1.00  0.00     0.049 A 
ATOM     57  H   UNL     1      14.371  -5.719   9.824  1.00  0.00     0.167 HD
ATOM     58  C   UNL     1      11.140  -7.741  11.971  1.00  0.00     0.037 A 
ATOM     59  C   UNL     1      16.724  -4.210   9.647  1.00  0.00     0.037 A 
ATOM     60  C   UNL     1      12.113  -7.398  12.978  1.00  0.00     0.049 A 
ATOM     61  C   UNL     1      16.542  -4.527  11.107  1.00  0.00     0.074 A 
ATOM     62  C   UNL     1      12.090  -7.694  14.330  1.00  0.00     0.029 A 
ATOM     63  N   UNL     1      13.275  -6.676  12.748  1.00  0.00    -0.354 N 
ATOM     64  N   UNL     1      15.576  -5.195  11.691  1.00  0.00    -0.248 NA
ATOM     65  C   UNL     1      17.576  -4.037  12.029  1.00  0.00     0.031 C 
ATOM     66  C   UNL     1      13.208  -7.103  14.927  1.00  0.00     0.029 A 
ATOM     67  C   UNL     1      13.962  -6.493  13.938  1.00  0.00     0.049 A 
ATOM     68  H   UNL     1      13.569  -6.344  11.870  1.00  0.00     0.167 HD
ATOM     69  C   UNL     1      15.900  -5.229  13.044  1.00  0.00     0.074 A 
ATOM     70  C   UNL     1      17.158  -4.526  13.188  1.00  0.00     0.031 C 
ATOM     71  C   UNL     1      15.217  -5.793  14.071  1.00  0.00     0.037 A 
BRANCH  58  72
ATOM     72  C   UNL     1       9.883  -8.448  12.406  1.00  0.00     0.058 A 
ATOM     73  C   UNL     1       9.628  -9.786  12.061  1.00  0.00     0.135 A 
ATOM     74  C   UNL     1       8.938  -7.791  13.211  1.00  0.00     0.135 A 
ATOM     75  F   UNL     1      10.489 -10.460  11.284  1.00  0.00    -0.206 F 
ATOM     76  C   UNL     1       8.467 -10.434  12.469  1.00  0.00     0.059 A 
ATOM     77  C   UNL     1       7.785  -8.431  13.658  1.00  0.00     0.059 A 
ATOM     78  F   UNL     1       9.130  -6.513  13.575  1.00  0.00    -0.206 F 
ATOM     79  C   UNL     1       7.551  -9.748  13.268  1.00  0.00     0.060 A 
BRANCH  79  80
ATOM     80  S   UNL     1       6.050 -10.606  13.789  1.00  0.00     0.124 S 
ATOM     81  O   UNL     1       5.304 -10.674  12.536  1.00  0.00    -0.237 OA
ATOM     82  O   UNL     1       6.573 -11.876  14.283  1.00  0.00    -0.237 OA
ATOM     83  O   UNL     1       5.488  -9.724  14.806  1.00  0.00    -0.744 OA
ENDBRANCH  79  80
ENDBRANCH  58  72
BRANCH  59  84
ATOM     84  C   UNL     1      17.893  -3.418   9.176  1.00  0.00     0.058 A 
ATOM     85  C   UNL     1      19.191  -3.948   9.217  1.00  0.00     0.135 A 
ATOM     86  C   UNL     1      17.733  -2.123   8.657  1.00  0.00     0.135 A 
ATOM     87  F   UNL     1      19.398  -5.178   9.712  1.00  0.00    -0.206 F 
ATOM     88  C   UNL     1      20.291  -3.220   8.774  1.00  0.00     0.059 A 
ATOM     89  C   UNL     1      18.813  -1.387   8.181  1.00  0.00     0.059 A 
ATOM     90  F   UNL     1      16.510  -1.575   8.580  1.00  0.00    -0.206 F 
ATOM     91  C   UNL     1      20.090  -1.941   8.252  1.00  0.00     0.060 A 
BRANCH  91  92
ATOM     92  S   UNL     1      21.518  -1.028   7.626  1.00  0.00     0.124 S 
ATOM     93  O   UNL     1      22.212  -0.685   8.861  1.00  0.00    -0.237 OA
ATOM     94  O   UNL     1      22.170  -2.025   6.782  1.00  0.00    -0.237 OA
ATOM     95  O   UNL     1      20.913   0.090   6.909  1.00  0.00    -0.744 OA
ENDBRANCH  91  92
ENDBRANCH  59  84
BRANCH  71  96
ATOM     96  C   UNL     1      15.830  -5.709  15.444  1.00  0.00     0.058 A 
ATOM     97  C   UNL     1      15.889  -4.502  16.158  1.00  0.00     0.135 A 
ATOM     98  C   UNL     1      16.317  -6.866  16.074  1.00  0.00     0.135 A 
ATOM     99  F   UNL     1      15.443  -3.365  15.601  1.00  0.00    -0.206 F 
ATOM    100  C   UNL     1      16.431  -4.440  17.438  1.00  0.00     0.059 A 
ATOM    101  C   UNL     1      16.835  -6.833  17.365  1.00  0.00     0.059 A 
ATOM    102  F   UNL     1      16.277  -8.050  15.442  1.00  0.00    -0.206 F 
ATOM    103  C   UNL     1      16.899  -5.613  18.035  1.00  0.00     0.060 A 
BRANCH 103 104
ATOM    104  S   UNL     1      17.569  -5.524  19.709  1.00  0.00     0.124 S 
ATOM    105  O   UNL     1      18.843  -4.851  19.481  1.00  0.00    -0.237 OA
ATOM    106  O   UNL     1      16.555  -4.741  20.409  1.00  0.00    -0.237 OA
ATOM    107  O   UNL     1      17.662  -6.923  20.114  1.00  0.00    -0.744 OA
ENDBRANCH 103 104
ENDBRANCH  71  96
ENDBRANCH  45  46
ENDBRANCH  37  40
ENDBRANCH  35  36
ENDBRANCH  34  35
ENDBRANCH   1  34
TORSDOF 18
