REMARK SMILES Nc1cc(=O)[nH]c(SCC(=O)Nc2ccccc2C(=O)NCCCCNC(=O)c2ccc(-c3c4nc(c(-c5c(F)cc(S(=O)(=O)[O-])cc5F)c5ccc([nH]5)c(-c5c(F)cc(S(=O)(=O)[O-])cc5F)c5nc(c(-c6c(F)cc(S(=O)(=O)[O-])cc6F)c6ccc3[nH]6)C=C5)C=C4)cc2)n1
REMARK SMILES IDX 22 1 21 2 19 3 20 4 18 6 13 7 14 8 15 9 17 10 16 11 12 12
REMARK SMILES IDX 10 13 11 14 9 16 8 17 7 18 2 19 3 20 95 21 4 22 5 23 6 24
REMARK SMILES IDX 1 26 23 29 24 30 25 31 26 32 27 33 28 35 29 36 30 37 94 38
REMARK SMILES IDX 31 39 93 40 32 41 33 42 34 43 87 44 35 45 92 46 86 47 88 48
REMARK SMILES IDX 36 49 91 50 85 51 84 52 37 54 71 55 50 56 70 57 51 58 54 59
REMARK SMILES IDX 69 60 89 61 52 62 53 63 68 65 90 66 55 67 38 68 39 69 48 70
REMARK SMILES IDX 40 71 41 72 47 73 49 74 42 75 43 76 44 77 45 78 46 79 72 80
REMARK SMILES IDX 73 81 82 82 74 83 75 84 81 85 83 86 76 87 77 88 78 89 79 90
REMARK SMILES IDX 80 91 56 92 57 93 66 94 58 95 59 96 65 97 67 98 60 99 61 100
REMARK SMILES IDX 62 101 63 102 64 103
REMARK H PARENT 21 5 12 15 6 25 1 27 1 28 26 34 88 53 54 64
REMARK Flexibility Score: inf
ROOT
ATOM      1  C   UNL     1       2.093   2.195   2.689  1.00  0.00     0.116 C 
ENDROOT
BRANCH   1   2
ATOM      2  N   UNL     1       0.734   2.060   2.203  1.00  0.00    -0.352 N 
ATOM      3  C   UNL     1      -0.238   3.012   1.968  1.00  0.00     0.253 C 
ATOM      4  O   UNL     1      -1.350   2.618   1.604  1.00  0.00    -0.269 OA
ATOM      5  H   UNL     1       0.458   1.135   2.008  1.00  0.00     0.163 HD
BRANCH   3   6
ATOM      6  C   UNL     1      -0.074   4.480   2.196  1.00  0.00     0.063 A 
ATOM      7  C   UNL     1       1.106   5.222   2.206  1.00  0.00     0.054 A 
ATOM      8  C   UNL     1       1.137   6.379   3.018  1.00  0.00     0.027 A 
ATOM      9  C   UNL     1      -0.022   6.921   3.578  1.00  0.00     0.002 A 
ATOM     10  C   UNL     1      -1.264   5.104   2.649  1.00  0.00     0.016 A 
ATOM     11  C   UNL     1      -1.243   6.326   3.316  1.00  0.00     0.001 A 
BRANCH   7  12
ATOM     12  N   UNL     1       2.325   4.952   1.562  1.00  0.00    -0.325 N 
ATOM     13  C   UNL     1       2.763   4.376   0.411  1.00  0.00     0.234 C 
ATOM     14  O   UNL     1       3.994   4.180   0.418  1.00  0.00    -0.274 OA
ATOM     15  H   UNL     1       3.083   5.274   2.102  1.00  0.00     0.169 HD
BRANCH  13  16
ATOM     16  C   UNL     1       2.046   4.197  -0.912  1.00  0.00     0.178 C 
BRANCH  16  17
ATOM     17  S   UNL     1       0.380   3.616  -1.053  1.00  0.00    -0.078 SA
BRANCH  17  18
ATOM     18  C   UNL     1       0.395   1.873  -0.982  1.00  0.00     0.170 A 
ATOM     19  C   UNL     1       1.171  -0.277  -1.018  1.00  0.00     0.131 A 
ATOM     20  C   UNL     1      -0.037  -0.778  -0.706  1.00  0.00     0.118 A 
ATOM     21  N   UNL     1       1.411   1.087  -1.135  1.00  0.00    -0.207 NA
ATOM     22  C   UNL     1      -1.166   0.130  -0.524  1.00  0.00     0.253 A 
ATOM     23  O   UNL     1      -2.268  -0.274  -0.188  1.00  0.00    -0.269 OA
ATOM     24  N   UNL     1      -0.866   1.435  -0.730  1.00  0.00    -0.301 N 
ATOM     25  H   UNL     1      -1.595   2.095  -0.695  1.00  0.00     0.172 HD
BRANCH  19  26
ATOM     26  N   UNL     1       2.187  -1.174  -1.192  1.00  0.00    -0.383 N 
ATOM     27  H   UNL     1       2.012  -2.139  -1.108  1.00  0.00     0.158 HD
ATOM     28  H   UNL     1       3.094  -0.855  -1.402  1.00  0.00     0.158 HD
ENDBRANCH  19  26
ENDBRANCH  17  18
ENDBRANCH  16  17
ENDBRANCH  13  16
ENDBRANCH   7  12
ENDBRANCH   3   6
ENDBRANCH   1   2
BRANCH   1  29
ATOM     29  C   UNL     1       2.816   0.906   3.071  1.00  0.00     0.023 C 
BRANCH  29  30
ATOM     30  C   UNL     1       3.284   0.019   1.906  1.00  0.00     0.023 C 
BRANCH  30  31
ATOM     31  C   UNL     1       4.166   0.652   0.819  1.00  0.00     0.116 C 
BRANCH  31  32
ATOM     32  N   UNL     1       5.509   0.982   1.265  1.00  0.00    -0.352 N 
ATOM     33  C   UNL     1       6.719   0.433   0.901  1.00  0.00     0.251 C 
ATOM     34  H   UNL     1       5.563   1.708   1.928  1.00  0.00     0.163 HD
ATOM     35  O   UNL     1       7.739   0.759   1.506  1.00  0.00    -0.269 OA
BRANCH  33  36
ATOM     36  C   UNL     1       6.814  -0.568  -0.193  1.00  0.00     0.039 A 
ATOM     37  C   UNL     1       7.543  -1.740   0.033  1.00  0.00     0.014 A 
ATOM     38  C   UNL     1       6.248  -0.343  -1.452  1.00  0.00     0.014 A 
ATOM     39  C   UNL     1       7.644  -2.711  -0.972  1.00  0.00     0.010 A 
ATOM     40  C   UNL     1       6.306  -1.338  -2.438  1.00  0.00     0.010 A 
ATOM     41  C   UNL     1       6.996  -2.540  -2.207  1.00  0.00    -0.014 A 
BRANCH  41  42
ATOM     42  C   UNL     1       7.010  -3.623  -3.236  1.00  0.00     0.031 A 
ATOM     43  C   UNL     1       7.669  -3.417  -4.577  1.00  0.00     0.074 A 
ATOM     44  C   UNL     1       6.380  -4.791  -2.981  1.00  0.00     0.049 A 
ATOM     45  N   UNL     1       7.734  -4.233  -5.599  1.00  0.00    -0.248 NA
ATOM     46  C   UNL     1       8.327  -2.121  -4.806  1.00  0.00     0.031 C 
ATOM     47  C   UNL     1       5.666  -5.112  -1.743  1.00  0.00     0.029 A 
ATOM     48  N   UNL     1       6.225  -5.921  -3.750  1.00  0.00    -0.354 N 
ATOM     49  C   UNL     1       8.421  -3.549  -6.596  1.00  0.00     0.074 A 
ATOM     50  C   UNL     1       8.726  -2.236  -6.067  1.00  0.00     0.031 C 
ATOM     51  C   UNL     1       5.158  -6.351  -1.833  1.00  0.00     0.029 A 
ATOM     52  C   UNL     1       5.472  -6.904  -3.147  1.00  0.00     0.049 A 
ATOM     53  H   UNL     1       6.617  -6.018  -4.648  1.00  0.00     0.167 HD
ATOM     54  C   UNL     1       8.777  -3.978  -7.832  1.00  0.00     0.037 A 
ATOM     55  C   UNL     1       5.059  -8.105  -3.602  1.00  0.00     0.037 A 
ATOM     56  C   UNL     1       8.500  -5.296  -8.348  1.00  0.00     0.049 A 
ATOM     57  C   UNL     1       5.470  -8.555  -4.981  1.00  0.00     0.074 A 
ATOM     58  C   UNL     1       8.895  -5.843  -9.558  1.00  0.00     0.029 A 
ATOM     59  N   UNL     1       7.754  -6.267  -7.699  1.00  0.00    -0.354 N 
ATOM     60  N   UNL     1       6.196  -7.923  -5.872  1.00  0.00    -0.248 NA
ATOM     61  C   UNL     1       5.013  -9.884  -5.414  1.00  0.00     0.031 C 
ATOM     62  C   UNL     1       8.336  -7.119  -9.668  1.00  0.00     0.029 A 
ATOM     63  C   UNL     1       7.648  -7.395  -8.498  1.00  0.00     0.049 A 
ATOM     64  H   UNL     1       7.359  -6.170  -6.803  1.00  0.00     0.167 HD
ATOM     65  C   UNL     1       6.305  -8.789  -6.956  1.00  0.00     0.074 A 
ATOM     66  C   UNL     1       5.587  -9.995  -6.604  1.00  0.00     0.031 C 
ATOM     67  C   UNL     1       6.942  -8.599  -8.138  1.00  0.00     0.037 A 
BRANCH  54  68
ATOM     68  C   UNL     1       9.511  -3.022  -8.737  1.00  0.00     0.058 A 
ATOM     69  C   UNL     1      10.849  -2.665  -8.510  1.00  0.00     0.135 A 
ATOM     70  C   UNL     1       8.895  -2.539  -9.905  1.00  0.00     0.135 A 
ATOM     71  F   UNL     1      11.484  -3.088  -7.405  1.00  0.00    -0.206 F 
ATOM     72  C   UNL     1      11.548  -1.858  -9.402  1.00  0.00     0.059 A 
ATOM     73  C   UNL     1       9.584  -1.753 -10.825  1.00  0.00     0.059 A 
ATOM     74  F   UNL     1       7.617  -2.851 -10.174  1.00  0.00    -0.206 F 
ATOM     75  C   UNL     1      10.909  -1.413 -10.562  1.00  0.00     0.060 A 
BRANCH  75  76
ATOM     76  S   UNL     1      11.847  -0.406 -11.731  1.00  0.00     0.124 S 
ATOM     77  O   UNL     1      11.983   0.846 -10.994  1.00  0.00    -0.237 OA
ATOM     78  O   UNL     1      13.073  -1.181 -11.894  1.00  0.00    -0.237 OA
ATOM     79  O   UNL     1      10.983  -0.351 -12.905  1.00  0.00    -0.744 OA
ENDBRANCH  75  76
ENDBRANCH  54  68
BRANCH  55  80
ATOM     80  C   UNL     1       4.191  -8.971  -2.755  1.00  0.00     0.058 A 
ATOM     81  C   UNL     1       4.648 -10.199  -2.254  1.00  0.00     0.135 A 
ATOM     82  C   UNL     1       2.871  -8.596  -2.454  1.00  0.00     0.135 A 
ATOM     83  F   UNL     1       5.899 -10.607  -2.519  1.00  0.00    -0.206 F 
ATOM     84  C   UNL     1       3.821 -11.041  -1.517  1.00  0.00     0.059 A 
ATOM     85  C   UNL     1       2.035  -9.405  -1.691  1.00  0.00     0.059 A 
ATOM     86  F   UNL     1       2.387  -7.423  -2.891  1.00  0.00    -0.206 F 
ATOM     87  C   UNL     1       2.514 -10.635  -1.242  1.00  0.00     0.060 A 
BRANCH  87  88
ATOM     88  S   UNL     1       1.452 -11.725  -0.270  1.00  0.00     0.124 S 
ATOM     89  O   UNL     1       1.164 -12.785  -1.228  1.00  0.00    -0.237 OA
ATOM     90  O   UNL     1       2.323 -12.088   0.843  1.00  0.00    -0.237 OA
ATOM     91  O   UNL     1       0.324 -10.867   0.082  1.00  0.00    -0.744 OA
ENDBRANCH  87  88
ENDBRANCH  55  80
BRANCH  67  92
ATOM     92  C   UNL     1       6.932  -9.733  -9.129  1.00  0.00     0.058 A 
ATOM     93  C   UNL     1       5.768 -10.105  -9.821  1.00  0.00     0.135 A 
ATOM     94  C   UNL     1       8.118 -10.425  -9.428  1.00  0.00     0.135 A 
ATOM     95  F   UNL     1       4.605  -9.483  -9.571  1.00  0.00    -0.206 F 
ATOM     96  C   UNL     1       5.775 -11.139 -10.753  1.00  0.00     0.059 A 
ATOM     97  C   UNL     1       8.155 -11.440 -10.380  1.00  0.00     0.059 A 
ATOM     98  F   UNL     1       9.263 -10.105  -8.804  1.00  0.00    -0.206 F 
ATOM     99  C   UNL     1       6.974 -11.798 -11.028  1.00  0.00     0.060 A 
BRANCH  99 100
ATOM    100  S   UNL     1       6.974 -13.116 -12.263  1.00  0.00     0.124 S 
ATOM    101  O   UNL     1       6.274 -14.182 -11.556  1.00  0.00    -0.237 OA
ATOM    102  O   UNL     1       6.247 -12.504 -13.371  1.00  0.00    -0.237 OA
ATOM    103  O   UNL     1       8.394 -13.353 -12.508  1.00  0.00    -0.744 OA
ENDBRANCH  99 100
ENDBRANCH  67  92
ENDBRANCH  41  42
ENDBRANCH  33  36
ENDBRANCH  31  32
ENDBRANCH  30  31
ENDBRANCH  29  30
ENDBRANCH   1  29
TORSDOF 19
