REMARK SMILES CC(C)N(CCCC(=O)NCCCCNC(=O)c1ccc(-c2c3nc(c(-c4c(F)cc(S(=O)(=O)[O-])cc4F)c4ccc([nH]4)c(-c4c(F)cc(S(=O)(=O)[O-])cc4F)c4nc(c(-c5c(F)cc(S(=O)(=O)[O-])cc5F)c5ccc2[nH]5)C=C4)C=C3)cc1)C(=O)N[C@@H]1CCCC1(C)C
REMARK SMILES IDX 11 1 10 2 8 3 9 4 7 6 6 7 5 8 4 9 2 10 1 11 3 12 84 13 85 14
REMARK SMILES IDX 86 15 87 17 88 18 91 19 89 20 90 21 92 22 93 23 12 24 13 25
REMARK SMILES IDX 14 26 15 27 16 28 17 30 18 31 19 32 83 33 20 34 82 35 21 36
REMARK SMILES IDX 22 37 23 38 76 39 24 40 81 41 75 42 77 43 25 44 80 45 74 46
REMARK SMILES IDX 73 47 26 49 60 50 39 51 59 52 40 53 43 54 58 55 78 56 41 57
REMARK SMILES IDX 42 58 57 60 79 61 44 62 27 63 28 64 37 65 29 66 30 67 36 68
REMARK SMILES IDX 38 69 31 70 32 71 33 72 34 73 35 74 61 75 62 76 71 77 63 78
REMARK SMILES IDX 64 79 70 80 72 81 65 82 66 83 67 84 68 85 69 86 45 87 46 88
REMARK SMILES IDX 55 89 47 90 48 91 54 92 56 93 49 94 50 95 51 96 52 97 53 98
REMARK H PARENT 10 5 86 16 15 29 77 48 43 59
REMARK Flexibility Score: inf
ROOT
ATOM      1  C   UNL     1      -1.578   0.061   0.802  1.00  0.00     0.116 C 
ENDROOT
BRANCH   1   2
ATOM      2  N   UNL     1      -0.706   0.685  -0.174  1.00  0.00    -0.356 N 
ATOM      3  C   UNL     1      -0.781   0.997  -1.486  1.00  0.00     0.220 C 
ATOM      4  O   UNL     1       0.246   1.486  -1.975  1.00  0.00    -0.275 OA
ATOM      5  H   UNL     1       0.159   0.947   0.218  1.00  0.00     0.163 HD
BRANCH   3   6
ATOM      6  C   UNL     1      -2.036   0.953  -2.337  1.00  0.00     0.102 C 
BRANCH   6   7
ATOM      7  C   UNL     1      -2.821  -0.308  -2.693  1.00  0.00     0.031 C 
BRANCH   7   8
ATOM      8  C   UNL     1      -3.138  -1.391  -1.674  1.00  0.00     0.122 C 
BRANCH   8   9
ATOM      9  N   UNL     1      -4.468  -1.643  -1.052  1.00  0.00    -0.322 N 
BRANCH   9  10
ATOM     10  C   UNL     1      -4.678  -3.115  -0.826  1.00  0.00     0.080 C 
ATOM     11  C   UNL     1      -4.920  -3.480   0.644  1.00  0.00     0.031 C 
ATOM     12  C   UNL     1      -5.718  -3.734  -1.768  1.00  0.00     0.031 C 
ENDBRANCH   9  10
BRANCH   9  13
ATOM     13  C   UNL     1      -5.524  -0.868  -0.658  1.00  0.00     0.317 C 
ATOM     14  O   UNL     1      -6.641  -1.367  -0.457  1.00  0.00    -0.249 OA
ATOM     15  N   UNL     1      -5.551   0.434  -0.387  1.00  0.00    -0.335 N 
ATOM     16  H   UNL     1      -6.481   0.717  -0.231  1.00  0.00     0.165 HD
BRANCH  15  17
ATOM     17  C   UNL     1      -4.679   1.567  -0.244  1.00  0.00     0.089 C 
ATOM     18  C   UNL     1      -4.446   2.046   1.193  1.00  0.00     0.025 C 
ATOM     19  C   UNL     1      -5.196   2.868  -0.924  1.00  0.00    -0.015 C 
ATOM     20  C   UNL     1      -3.803   3.429   1.008  1.00  0.00     0.003 C 
ATOM     21  C   UNL     1      -4.145   3.880  -0.423  1.00  0.00     0.008 C 
ATOM     22  C   UNL     1      -5.263   2.782  -2.451  1.00  0.00     0.013 C 
ATOM     23  C   UNL     1      -6.593   3.319  -0.428  1.00  0.00     0.013 C 
ENDBRANCH  15  17
ENDBRANCH   9  13
ENDBRANCH   8   9
ENDBRANCH   7   8
ENDBRANCH   6   7
ENDBRANCH   3   6
ENDBRANCH   1   2
BRANCH   1  24
ATOM     24  C   UNL     1      -0.955  -1.243   1.316  1.00  0.00     0.023 C 
BRANCH  24  25
ATOM     25  C   UNL     1      -0.496  -1.117   2.768  1.00  0.00     0.023 C 
BRANCH  25  26
ATOM     26  C   UNL     1      -1.661  -1.143   3.754  1.00  0.00     0.116 C 
BRANCH  26  27
ATOM     27  N   UNL     1      -2.179  -2.491   3.935  1.00  0.00    -0.352 N 
ATOM     28  C   UNL     1      -2.168  -3.274   5.067  1.00  0.00     0.251 C 
ATOM     29  H   UNL     1      -2.593  -2.898   3.140  1.00  0.00     0.163 HD
ATOM     30  O   UNL     1      -2.439  -4.462   5.002  1.00  0.00    -0.269 OA
BRANCH  28  31
ATOM     31  C   UNL     1      -1.807  -2.655   6.361  1.00  0.00     0.039 A 
ATOM     32  C   UNL     1      -0.851  -3.271   7.171  1.00  0.00     0.014 A 
ATOM     33  C   UNL     1      -2.409  -1.458   6.760  1.00  0.00     0.014 A 
ATOM     34  C   UNL     1      -0.459  -2.656   8.362  1.00  0.00     0.010 A 
ATOM     35  C   UNL     1      -1.967  -0.812   7.909  1.00  0.00     0.010 A 
ATOM     36  C   UNL     1      -0.998  -1.412   8.729  1.00  0.00    -0.014 A 
BRANCH  36  37
ATOM     37  C   UNL     1      -0.605  -0.743   9.994  1.00  0.00     0.031 A 
ATOM     38  C   UNL     1      -1.632  -0.548  11.077  1.00  0.00     0.074 A 
ATOM     39  C   UNL     1       0.645  -0.262  10.145  1.00  0.00     0.049 A 
ATOM     40  N   UNL     1      -1.527   0.093  12.212  1.00  0.00    -0.248 NA
ATOM     41  C   UNL     1      -2.967  -1.119  10.832  1.00  0.00     0.031 C 
ATOM     42  C   UNL     1       1.711  -0.337   9.143  1.00  0.00     0.029 A 
ATOM     43  N   UNL     1       1.227   0.397  11.198  1.00  0.00    -0.354 N 
ATOM     44  C   UNL     1      -2.783   0.019  12.805  1.00  0.00     0.074 A 
ATOM     45  C   UNL     1      -3.648  -0.678  11.879  1.00  0.00     0.031 C 
ATOM     46  C   UNL     1       2.819   0.242   9.636  1.00  0.00     0.029 A 
ATOM     47  C   UNL     1       2.539   0.744  10.977  1.00  0.00     0.049 A 
ATOM     48  H   UNL     1       0.749   0.602  12.034  1.00  0.00     0.167 HD
ATOM     49  C   UNL     1      -3.173   0.464  14.023  1.00  0.00     0.037 A 
ATOM     50  C   UNL     1       3.414   1.391  11.771  1.00  0.00     0.037 A 
ATOM     51  C   UNL     1      -2.297   1.119  14.956  1.00  0.00     0.049 A 
ATOM     52  C   UNL     1       2.978   1.808  13.150  1.00  0.00     0.074 A 
ATOM     53  C   UNL     1      -2.583   1.597  16.223  1.00  0.00     0.029 A 
ATOM     54  N   UNL     1      -0.950   1.365  14.731  1.00  0.00    -0.354 N 
ATOM     55  N   UNL     1       1.793   1.708  13.704  1.00  0.00    -0.248 NA
ATOM     56  C   UNL     1       4.001   2.404  14.021  1.00  0.00     0.031 C 
ATOM     57  C   UNL     1      -1.409   2.136  16.762  1.00  0.00     0.029 A 
ATOM     58  C   UNL     1      -0.387   1.968  15.842  1.00  0.00     0.049 A 
ATOM     59  H   UNL     1      -0.467   1.143  13.902  1.00  0.00     0.167 HD
ATOM     60  C   UNL     1       1.936   2.198  14.998  1.00  0.00     0.074 A 
ATOM     61  C   UNL     1       3.324   2.586  15.146  1.00  0.00     0.031 C 
ATOM     62  C   UNL     1       1.004   2.317  15.975  1.00  0.00     0.037 A 
BRANCH  49  63
ATOM     63  C   UNL     1      -4.604   0.230  14.416  1.00  0.00     0.058 A 
ATOM     64  C   UNL     1      -5.075  -1.058  14.721  1.00  0.00     0.135 A 
ATOM     65  C   UNL     1      -5.514   1.296  14.499  1.00  0.00     0.135 A 
ATOM     66  F   UNL     1      -4.252  -2.115  14.637  1.00  0.00    -0.206 F 
ATOM     67  C   UNL     1      -6.403  -1.286  15.062  1.00  0.00     0.059 A 
ATOM     68  C   UNL     1      -6.842   1.094  14.865  1.00  0.00     0.059 A 
ATOM     69  F   UNL     1      -5.118   2.546  14.216  1.00  0.00    -0.206 F 
ATOM     70  C   UNL     1      -7.281  -0.203  15.127  1.00  0.00     0.060 A 
BRANCH  70  71
ATOM     71  S   UNL     1      -9.004  -0.513  15.569  1.00  0.00     0.124 S 
ATOM     72  O   UNL     1      -9.529  -1.060  14.322  1.00  0.00    -0.237 OA
ATOM     73  O   UNL     1      -8.880  -1.460  16.673  1.00  0.00    -0.237 OA
ATOM     74  O   UNL     1      -9.502   0.809  15.935  1.00  0.00    -0.744 OA
ENDBRANCH  70  71
ENDBRANCH  49  63
BRANCH  50  75
ATOM     75  C   UNL     1       4.801   1.645  11.302  1.00  0.00     0.058 A 
ATOM     76  C   UNL     1       5.883   0.921  11.824  1.00  0.00     0.135 A 
ATOM     77  C   UNL     1       5.073   2.614  10.325  1.00  0.00     0.135 A 
ATOM     78  F   UNL     1       5.673  -0.015  12.762  1.00  0.00    -0.206 F 
ATOM     79  C   UNL     1       7.190   1.166  11.416  1.00  0.00     0.059 A 
ATOM     80  C   UNL     1       6.370   2.862   9.883  1.00  0.00     0.059 A 
ATOM     81  F   UNL     1       4.070   3.317   9.778  1.00  0.00    -0.206 F 
ATOM     82  C   UNL     1       7.424   2.142  10.446  1.00  0.00     0.060 A 
BRANCH  82  83
ATOM     83  S   UNL     1       9.119   2.432   9.894  1.00  0.00     0.124 S 
ATOM     84  O   UNL     1       9.653   3.226  10.994  1.00  0.00    -0.237 OA
ATOM     85  O   UNL     1       9.642   1.075   9.772  1.00  0.00    -0.237 OA
ATOM     86  O   UNL     1       8.940   3.141   8.630  1.00  0.00    -0.744 OA
ENDBRANCH  82  83
ENDBRANCH  50  75
BRANCH  62  87
ATOM     87  C   UNL     1       1.466   2.835  17.306  1.00  0.00     0.058 A 
ATOM     88  C   UNL     1       1.749   4.193  17.512  1.00  0.00     0.135 A 
ATOM     89  C   UNL     1       1.587   1.962  18.398  1.00  0.00     0.135 A 
ATOM     90  F   UNL     1       1.651   5.065  16.496  1.00  0.00    -0.206 F 
ATOM     91  C   UNL     1       2.164   4.665  18.752  1.00  0.00     0.059 A 
ATOM     92  C   UNL     1       1.980   2.416  19.652  1.00  0.00     0.059 A 
ATOM     93  F   UNL     1       1.317   0.655  18.253  1.00  0.00    -0.206 F 
ATOM     94  C   UNL     1       2.280   3.768  19.816  1.00  0.00     0.060 A 
BRANCH  94  95
ATOM     95  S   UNL     1       2.798   4.392  21.428  1.00  0.00     0.124 S 
ATOM     96  O   UNL     1       4.240   4.521  21.242  1.00  0.00    -0.237 OA
ATOM     97  O   UNL     1       2.058   5.646  21.535  1.00  0.00    -0.237 OA
ATOM     98  O   UNL     1       2.374   3.342  22.349  1.00  0.00    -0.744 OA
ENDBRANCH  94  95
ENDBRANCH  62  87
ENDBRANCH  36  37
ENDBRANCH  28  31
ENDBRANCH  26  27
ENDBRANCH  25  26
ENDBRANCH  24  25
ENDBRANCH   1  24
TORSDOF 20
