REMARK SMILES CCCCCCNC(=O)Oc1cccc(-c2ccc(CC(=O)NCCCCNC(=O)c3ccc(-c4c5nc(c(-c6c(F)cc(S(=O)(=O)[O-])cc6F)c6ccc([nH]6)c(-c6c(F)cc(S(=O)(=O)[O-])cc6F)c6nc(c(-c7c(F)cc(S(=O)(=O)[O-])cc7F)c7ccc4[nH]7)C=C6)C=C5)cc3)cc2F)c1
REMARK SMILES IDX 21 1 22 2 23 3 20 5 19 6 16 7 17 8 98 9 18 10 97 11 99 12
REMARK SMILES IDX 15 13 11 14 12 15 100 16 13 17 14 18 10 19 8 20 7 21 9 23
REMARK SMILES IDX 6 24 5 25 4 26 3 27 2 28 1 29 24 30 25 31 26 32 27 33 28 34
REMARK SMILES IDX 29 35 30 37 31 38 32 39 96 40 33 41 95 42 34 43 35 44 36 45
REMARK SMILES IDX 89 46 37 47 94 48 88 49 90 50 38 51 93 52 87 53 86 54 39 56
REMARK SMILES IDX 73 57 52 58 72 59 53 60 56 61 71 62 91 63 54 64 55 65 70 67
REMARK SMILES IDX 92 68 57 69 40 70 41 71 50 72 42 73 43 74 49 75 51 76 44 77
REMARK SMILES IDX 45 78 46 79 47 80 48 81 74 82 75 83 84 84 76 85 77 86 83 87
REMARK SMILES IDX 85 88 78 89 79 90 80 91 81 92 82 93 58 94 59 95 68 96 60 97
REMARK SMILES IDX 61 98 67 99 69 100 62 101 63 102 64 103 65 104 66 105
REMARK H PARENT 23 4 7 22 28 36 90 55 56 66
REMARK Flexibility Score: inf
ROOT
ATOM      1  C   UNL     1      -5.981 -14.354  -0.355  1.00  0.00     0.224 C 
ATOM      2  O   UNL     1      -6.016 -15.428  -0.960  1.00  0.00    -0.275 OA
ATOM      3  N   UNL     1      -7.129 -13.891   0.223  1.00  0.00    -0.356 N 
ATOM      4  H   UNL     1      -7.910 -14.487   0.149  1.00  0.00     0.163 HD
ENDROOT
BRANCH   1   5
ATOM      5  C   UNL     1      -4.683 -13.576  -0.213  1.00  0.00     0.135 C 
BRANCH   5   6
ATOM      6  C   UNL     1      -4.680 -12.255  -0.942  1.00  0.00    -0.036 A 
ATOM      7  C   UNL     1      -4.890  -9.745  -2.247  1.00  0.00     0.018 A 
ATOM      8  C   UNL     1      -5.057 -10.947  -2.956  1.00  0.00     0.012 A 
ATOM      9  C   UNL     1      -4.565  -9.839  -0.886  1.00  0.00     0.131 A 
ATOM     10  C   UNL     1      -4.951 -12.187  -2.314  1.00  0.00     0.005 A 
ATOM     11  C   UNL     1      -4.444 -11.068  -0.243  1.00  0.00     0.044 A 
ATOM     12  F   UNL     1      -4.399  -8.732  -0.146  1.00  0.00    -0.206 F 
BRANCH   7  13
ATOM     13  C   UNL     1      -5.066  -8.439  -2.903  1.00  0.00    -0.012 A 
ATOM     14  C   UNL     1      -4.297  -6.175  -3.337  1.00  0.00     0.133 A 
ATOM     15  C   UNL     1      -5.437  -5.900  -4.086  1.00  0.00     0.047 A 
ATOM     16  C   UNL     1      -4.114  -7.421  -2.737  1.00  0.00     0.056 A 
ATOM     17  C   UNL     1      -6.390  -6.900  -4.265  1.00  0.00     0.004 A 
ATOM     18  C   UNL     1      -6.204  -8.158  -3.681  1.00  0.00     0.009 A 
BRANCH  14  19
ATOM     19  O   UNL     1      -3.407  -5.116  -3.102  1.00  0.00    -0.410 OA
BRANCH  19  20
ATOM     20  C   UNL     1      -2.055  -5.347  -3.296  1.00  0.00     0.412 C 
ATOM     21  N   UNL     1      -1.265  -4.308  -2.896  1.00  0.00    -0.321 N 
ATOM     22  H   UNL     1      -0.295  -4.417  -3.027  1.00  0.00     0.167 HD
ATOM     23  O   UNL     1      -1.553  -6.359  -3.783  1.00  0.00    -0.224 OA
BRANCH  21  24
ATOM     24  C   UNL     1      -1.702  -3.063  -2.299  1.00  0.00     0.119 C 
BRANCH  24  25
ATOM     25  C   UNL     1      -1.087  -2.843  -0.917  1.00  0.00     0.021 C 
BRANCH  25  26
ATOM     26  C   UNL     1       0.444  -2.737  -0.899  1.00  0.00     0.002 C 
BRANCH  26  27
ATOM     27  C   UNL     1       1.040  -1.628  -1.773  1.00  0.00    -0.000 C 
BRANCH  27  28
ATOM     28  C   UNL     1       0.568  -0.209  -1.445  1.00  0.00    -0.003 C 
ATOM     29  C   UNL     1       0.951   0.244  -0.045  1.00  0.00     0.004 C 
ENDBRANCH  27  28
ENDBRANCH  26  27
ENDBRANCH  25  26
ENDBRANCH  24  25
ENDBRANCH  21  24
ENDBRANCH  19  20
ENDBRANCH  14  19
ENDBRANCH   7  13
ENDBRANCH   5   6
ENDBRANCH   1   5
BRANCH   3  30
ATOM     30  C   UNL     1      -7.361 -12.646   0.931  1.00  0.00     0.116 C 
BRANCH  30  31
ATOM     31  C   UNL     1      -8.083 -11.617   0.059  1.00  0.00     0.023 C 
BRANCH  31  32
ATOM     32  C   UNL     1      -9.539 -11.964  -0.267  1.00  0.00     0.023 C 
BRANCH  32  33
ATOM     33  C   UNL     1     -10.447 -12.166   0.941  1.00  0.00     0.116 C 
BRANCH  33  34
ATOM     34  N   UNL     1     -10.530 -10.994   1.799  1.00  0.00    -0.352 N 
ATOM     35  C   UNL     1     -11.626 -10.484   2.454  1.00  0.00     0.251 C 
ATOM     36  H   UNL     1      -9.688 -10.500   1.927  1.00  0.00     0.163 HD
ATOM     37  O   UNL     1     -11.543  -9.413   3.047  1.00  0.00    -0.269 OA
BRANCH  35  38
ATOM     38  C   UNL     1     -12.913 -11.212   2.406  1.00  0.00     0.039 A 
ATOM     39  C   UNL     1     -14.077 -10.504   2.100  1.00  0.00     0.014 A 
ATOM     40  C   UNL     1     -12.968 -12.589   2.638  1.00  0.00     0.014 A 
ATOM     41  C   UNL     1     -15.287 -11.189   1.957  1.00  0.00     0.010 A 
ATOM     42  C   UNL     1     -14.159 -13.280   2.426  1.00  0.00     0.010 A 
ATOM     43  C   UNL     1     -15.330 -12.588   2.082  1.00  0.00    -0.014 A 
BRANCH  43  44
ATOM     44  C   UNL     1     -16.587 -13.345   1.846  1.00  0.00     0.031 A 
ATOM     45  C   UNL     1     -17.221 -14.125   2.965  1.00  0.00     0.074 A 
ATOM     46  C   UNL     1     -17.118 -13.387   0.608  1.00  0.00     0.049 A 
ATOM     47  N   UNL     1     -18.270 -14.906   2.937  1.00  0.00    -0.248 NA
ATOM     48  C   UNL     1     -16.576 -14.037   4.285  1.00  0.00     0.031 C 
ATOM     49  C   UNL     1     -16.570 -12.713  -0.572  1.00  0.00     0.029 A 
ATOM     50  N   UNL     1     -18.231 -14.034   0.130  1.00  0.00    -0.354 N 
ATOM     51  C   UNL     1     -18.403 -15.412   4.224  1.00  0.00     0.074 A 
ATOM     52  C   UNL     1     -17.296 -14.891   4.997  1.00  0.00     0.031 C 
ATOM     53  C   UNL     1     -17.358 -12.965  -1.630  1.00  0.00     0.029 A 
ATOM     54  C   UNL     1     -18.444 -13.848  -1.216  1.00  0.00     0.049 A 
ATOM     55  H   UNL     1     -18.822 -14.579   0.698  1.00  0.00     0.167 HD
ATOM     56  C   UNL     1     -19.370 -16.218   4.723  1.00  0.00     0.037 A 
ATOM     57  C   UNL     1     -19.400 -14.341  -2.028  1.00  0.00     0.037 A 
ATOM     58  C   UNL     1     -20.483 -16.714   3.955  1.00  0.00     0.049 A 
ATOM     59  C   UNL     1     -20.464 -15.235  -1.451  1.00  0.00     0.074 A 
ATOM     60  C   UNL     1     -21.546 -17.490   4.383  1.00  0.00     0.029 A 
ATOM     61  N   UNL     1     -20.676 -16.485   2.600  1.00  0.00    -0.354 N 
ATOM     62  N   UNL     1     -20.608 -15.652  -0.215  1.00  0.00    -0.248 NA
ATOM     63  C   UNL     1     -21.498 -15.721  -2.375  1.00  0.00     0.031 C 
ATOM     64  C   UNL     1     -22.359 -17.766   3.279  1.00  0.00     0.029 A 
ATOM     65  C   UNL     1     -21.830 -17.120   2.172  1.00  0.00     0.049 A 
ATOM     66  H   UNL     1     -20.080 -15.950   2.027  1.00  0.00     0.167 HD
ATOM     67  C   UNL     1     -21.764 -16.426  -0.208  1.00  0.00     0.074 A 
ATOM     68  C   UNL     1     -22.285 -16.410  -1.560  1.00  0.00     0.031 C 
ATOM     69  C   UNL     1     -22.342 -17.088   0.825  1.00  0.00     0.037 A 
BRANCH  56  70
ATOM     70  C   UNL     1     -19.271 -16.610   6.173  1.00  0.00     0.058 A 
ATOM     71  C   UNL     1     -19.486 -15.681   7.204  1.00  0.00     0.135 A 
ATOM     72  C   UNL     1     -18.992 -17.938   6.537  1.00  0.00     0.135 A 
ATOM     73  F   UNL     1     -19.742 -14.396   6.913  1.00  0.00    -0.206 F 
ATOM     74  C   UNL     1     -19.396 -16.045   8.543  1.00  0.00     0.059 A 
ATOM     75  C   UNL     1     -18.926 -18.331   7.871  1.00  0.00     0.059 A 
ATOM     76  F   UNL     1     -18.779 -18.868   5.593  1.00  0.00    -0.206 F 
ATOM     77  C   UNL     1     -19.114 -17.373   8.867  1.00  0.00     0.060 A 
BRANCH  77  78
ATOM     78  S   UNL     1     -19.001 -17.830  10.610  1.00  0.00     0.124 S 
ATOM     79  O   UNL     1     -17.725 -17.229  10.985  1.00  0.00    -0.237 OA
ATOM     80  O   UNL     1     -20.189 -17.198  11.175  1.00  0.00    -0.237 OA
ATOM     81  O   UNL     1     -19.024 -19.289  10.582  1.00  0.00    -0.744 OA
ENDBRANCH  77  78
ENDBRANCH  56  70
BRANCH  57  82
ATOM     82  C   UNL     1     -19.408 -13.980  -3.471  1.00  0.00     0.058 A 
ATOM     83  C   UNL     1     -20.393 -13.130  -3.996  1.00  0.00     0.135 A 
ATOM     84  C   UNL     1     -18.428 -14.465  -4.351  1.00  0.00     0.135 A 
ATOM     85  F   UNL     1     -21.356 -12.645  -3.196  1.00  0.00    -0.206 F 
ATOM     86  C   UNL     1     -20.418 -12.787  -5.344  1.00  0.00     0.059 A 
ATOM     87  C   UNL     1     -18.416 -14.116  -5.697  1.00  0.00     0.059 A 
ATOM     88  F   UNL     1     -17.454 -15.268  -3.895  1.00  0.00    -0.206 F 
ATOM     89  C   UNL     1     -19.422 -13.283  -6.187  1.00  0.00     0.060 A 
BRANCH  89  90
ATOM     90  S   UNL     1     -19.435 -12.792  -7.925  1.00  0.00     0.124 S 
ATOM     91  O   UNL     1     -20.555 -13.569  -8.441  1.00  0.00    -0.237 OA
ATOM     92  O   UNL     1     -19.645 -11.350  -7.834  1.00  0.00    -0.237 OA
ATOM     93  O   UNL     1     -18.114 -13.197  -8.397  1.00  0.00    -0.744 OA
ENDBRANCH  89  90
ENDBRANCH  57  82
BRANCH  69  94
ATOM     94  C   UNL     1     -23.625 -17.822   0.547  1.00  0.00     0.058 A 
ATOM     95  C   UNL     1     -23.649 -19.017  -0.188  1.00  0.00     0.135 A 
ATOM     96  C   UNL     1     -24.840 -17.349   1.071  1.00  0.00     0.135 A 
ATOM     97  F   UNL     1     -22.517 -19.508  -0.717  1.00  0.00    -0.206 F 
ATOM     98  C   UNL     1     -24.836 -19.707  -0.413  1.00  0.00     0.059 A 
ATOM     99  C   UNL     1     -26.034 -18.037   0.882  1.00  0.00     0.059 A 
ATOM    100  F   UNL     1     -24.871 -16.216   1.790  1.00  0.00    -0.206 F 
ATOM    101  C   UNL     1     -26.024 -19.210   0.129  1.00  0.00     0.060 A 
BRANCH 101 102
ATOM    102  S   UNL     1     -27.551 -20.134  -0.139  1.00  0.00     0.124 S 
ATOM    103  O   UNL     1     -27.833 -19.837  -1.540  1.00  0.00    -0.237 OA
ATOM    104  O   UNL     1     -27.142 -21.506   0.147  1.00  0.00    -0.237 OA
ATOM    105  O   UNL     1     -28.477 -19.549   0.826  1.00  0.00    -0.744 OA
ENDBRANCH 101 102
ENDBRANCH  69  94
ENDBRANCH  43  44
ENDBRANCH  35  38
ENDBRANCH  33  34
ENDBRANCH  32  33
ENDBRANCH  31  32
ENDBRANCH  30  31
ENDBRANCH   3  30
TORSDOF 23
