REMARK SMILES C[C@]12C[C@@H](O)[C@@H]3[C@@H](CCC4=CC(=O)CC[C@]43C)[C@H]1CC[C@]2(O)C(=O)COC(=O)CCC(=O)NCCCCNC(=O)c1ccc(-c2c3nc(c(-c4c(F)cc(S(=O)(=O)[O-])cc4F)c4ccc([nH]4)c(-c4c(F)cc(S(=O)(=O)[O-])cc4F)c4nc(c(-c5c(F)cc(S(=O)(=O)[O-])cc5F)c5ccc2[nH]5)C=C4)C=C3)cc1
REMARK SMILES IDX 31 1 32 2 33 3 30 5 29 6 27 7 28 8 26 9 25 10 23 11 24 12
REMARK SMILES IDX 21 13 17 14 16 15 15 16 10 17 6 18 14 19 11 20 9 21 7 22
REMARK SMILES IDX 4 23 12 24 8 25 18 26 3 27 13 28 2 29 19 30 1 31 20 32 5 33
REMARK SMILES IDX 22 35 34 37 35 38 36 39 37 40 38 41 39 42 40 44 41 45 42 46
REMARK SMILES IDX 106 47 43 48 105 49 44 50 45 51 46 52 99 53 47 54 104 55
REMARK SMILES IDX 98 56 100 57 48 58 103 59 97 60 96 61 49 63 83 64 62 65
REMARK SMILES IDX 82 66 63 67 66 68 81 69 101 70 64 71 65 72 80 74 102 75
REMARK SMILES IDX 67 76 50 77 51 78 60 79 52 80 53 81 59 82 61 83 54 84 55 85
REMARK SMILES IDX 56 86 57 87 58 88 84 89 85 90 94 91 86 92 87 93 93 94 95 95
REMARK SMILES IDX 88 96 89 97 90 98 91 99 92 100 68 101 69 102 78 103 70 104
REMARK SMILES IDX 71 105 77 106 79 107 72 108 73 109 74 110 75 111 76 112
REMARK H PARENT 33 4 5 34 22 36 38 43 100 62 66 73
REMARK Flexibility Score: inf
ROOT
ATOM      1  C   UNL     1       5.796   2.929   2.215  1.00  0.00     0.220 C 
ATOM      2  O   UNL     1       6.406   2.855   1.144  1.00  0.00    -0.275 OA
ATOM      3  N   UNL     1       5.436   4.167   2.642  1.00  0.00    -0.356 N 
ATOM      4  H   UNL     1       5.858   4.888   2.122  1.00  0.00     0.163 HD
ENDROOT
BRANCH   1   5
ATOM      5  C   UNL     1       5.478   1.661   2.974  1.00  0.00     0.111 C 
BRANCH   5   6
ATOM      6  C   UNL     1       6.119   1.576   4.346  1.00  0.00     0.132 C 
BRANCH   6   7
ATOM      7  C   UNL     1       5.073   1.355   5.406  1.00  0.00     0.306 C 
ATOM      8  O   UNL     1       4.723   0.251   5.808  1.00  0.00    -0.252 OA
BRANCH   7   9
ATOM      9  O   UNL     1       4.497   2.526   5.770  1.00  0.00    -0.458 OA
BRANCH   9  10
ATOM     10  C   UNL     1       3.603   2.560   6.882  1.00  0.00     0.311 C 
BRANCH  10  11
ATOM     11  C   UNL     1       2.175   3.126   6.628  1.00  0.00     0.202 C 
ATOM     12  O   UNL     1       1.717   3.929   7.441  1.00  0.00    -0.293 OA
BRANCH  11  13
ATOM     13  C   UNL     1       1.245   2.496   5.577  1.00  0.00     0.132 C 
ATOM     14  C   UNL     1       0.496   0.075  -0.541  1.00  0.00     0.016 C 
ATOM     15  C   UNL     1       0.071  -0.209   0.932  1.00  0.00    -0.005 C 
ATOM     16  C   UNL     1      -1.259  -1.009   0.847  1.00  0.00     0.020 C 
ATOM     17  C   UNL     1       0.980  -1.188   1.679  1.00  0.00    -0.060 C 
ATOM     18  C   UNL     1      -0.047   1.169   1.704  1.00  0.00     0.031 C 
ATOM     19  C   UNL     1      -1.026  -2.494   0.459  1.00  0.00     0.081 C 
ATOM     20  C   UNL     1       1.462  -2.288   1.077  1.00  0.00     0.047 C 
ATOM     21  C   UNL     1       0.772  -1.325   3.163  1.00  0.00     0.032 C 
ATOM     22  C   UNL     1      -0.462   0.979   3.176  1.00  0.00    -0.000 C 
ATOM     23  C   UNL     1       1.148   2.197   1.616  1.00  0.00     0.119 C 
ATOM     24  C   UNL     1       0.435  -2.861   0.159  1.00  0.00     0.155 C 
ATOM     25  C   UNL     1       0.503  -0.008   3.821  1.00  0.00     0.009 C 
ATOM     26  C   UNL     1      -0.531   2.380   3.850  1.00  0.00     0.002 C 
ATOM     27  C   UNL     1       1.776   2.735   2.928  1.00  0.00     0.042 C 
ATOM     28  O   UNL     1       0.759  -3.713  -0.662  1.00  0.00    -0.295 OA
ATOM     29  C   UNL     1       0.847   3.061   4.114  1.00  0.00     0.009 C 
ATOM     30  C   UNL     1      -1.221   2.432   5.204  1.00  0.00     0.008 C 
ATOM     31  C   UNL     1       0.582   4.587   4.062  1.00  0.00     0.015 C 
ATOM     32  C   UNL     1      -0.138   2.272   6.260  1.00  0.00     0.044 C 
BRANCH  23  33
ATOM     33  O   UNL     1       2.247   1.738   0.838  1.00  0.00    -0.393 OA
ATOM     34  H   UNL     1       2.691   1.012   1.304  1.00  0.00     0.210 HD
ENDBRANCH  23  33
BRANCH  13  35
ATOM     35  O   UNL     1       1.856   1.205   5.573  1.00  0.00    -0.381 OA
ATOM     36  H   UNL     1       1.393   0.630   4.944  1.00  0.00     0.212 HD
ENDBRANCH  13  35
ENDBRANCH  11  13
ENDBRANCH  10  11
ENDBRANCH   9  10
ENDBRANCH   7   9
ENDBRANCH   6   7
ENDBRANCH   5   6
ENDBRANCH   1   5
BRANCH   3  37
ATOM     37  C   UNL     1       4.566   4.663   3.698  1.00  0.00     0.116 C 
BRANCH  37  38
ATOM     38  C   UNL     1       5.315   5.372   4.837  1.00  0.00     0.023 C 
BRANCH  38  39
ATOM     39  C   UNL     1       4.582   6.583   5.452  1.00  0.00     0.023 C 
BRANCH  39  40
ATOM     40  C   UNL     1       3.139   6.371   5.897  1.00  0.00     0.116 C 
BRANCH  40  41
ATOM     41  N   UNL     1       2.931   6.206   7.324  1.00  0.00    -0.352 N 
ATOM     42  C   UNL     1       1.862   6.579   8.118  1.00  0.00     0.251 C 
ATOM     43  H   UNL     1       3.667   5.759   7.801  1.00  0.00     0.163 HD
ATOM     44  O   UNL     1       1.754   6.125   9.257  1.00  0.00    -0.269 OA
BRANCH  42  45
ATOM     45  C   UNL     1       0.937   7.643   7.689  1.00  0.00     0.039 A 
ATOM     46  C   UNL     1       0.775   8.688   8.598  1.00  0.00     0.014 A 
ATOM     47  C   UNL     1       0.375   7.720   6.415  1.00  0.00     0.014 A 
ATOM     48  C   UNL     1       0.234   9.888   8.168  1.00  0.00     0.010 A 
ATOM     49  C   UNL     1      -0.093   8.945   5.955  1.00  0.00     0.010 A 
ATOM     50  C   UNL     1      -0.100  10.050   6.816  1.00  0.00    -0.014 A 
BRANCH  50  51
ATOM     51  C   UNL     1      -0.319  11.412   6.290  1.00  0.00     0.031 A 
ATOM     52  C   UNL     1      -1.660  11.816   5.774  1.00  0.00     0.074 A 
ATOM     53  C   UNL     1       0.733  12.255   6.260  1.00  0.00     0.049 A 
ATOM     54  N   UNL     1      -2.040  12.976   5.315  1.00  0.00    -0.248 NA
ATOM     55  C   UNL     1      -2.704  10.780   5.746  1.00  0.00     0.031 C 
ATOM     56  C   UNL     1       2.102  11.915   6.670  1.00  0.00     0.029 A 
ATOM     57  N   UNL     1       0.825  13.568   5.880  1.00  0.00    -0.354 N 
ATOM     58  C   UNL     1      -3.365  12.813   4.940  1.00  0.00     0.074 A 
ATOM     59  C   UNL     1      -3.708  11.428   5.173  1.00  0.00     0.031 C 
ATOM     60  C   UNL     1       2.882  13.000   6.557  1.00  0.00     0.029 A 
ATOM     61  C   UNL     1       2.085  14.101   6.031  1.00  0.00     0.049 A 
ATOM     62  H   UNL     1       0.061  14.082   5.530  1.00  0.00     0.167 HD
ATOM     63  C   UNL     1      -4.218  13.750   4.468  1.00  0.00     0.037 A 
ATOM     64  C   UNL     1       2.541  15.341   5.773  1.00  0.00     0.037 A 
ATOM     65  C   UNL     1      -3.852  15.127   4.265  1.00  0.00     0.049 A 
ATOM     66  C   UNL     1       1.564  16.365   5.268  1.00  0.00     0.074 A 
ATOM     67  C   UNL     1      -4.653  16.178   3.860  1.00  0.00     0.029 A 
ATOM     68  N   UNL     1      -2.574  15.641   4.444  1.00  0.00    -0.354 N 
ATOM     69  N   UNL     1       0.284  16.223   5.012  1.00  0.00    -0.248 NA
ATOM     70  C   UNL     1       2.081  17.717   5.025  1.00  0.00     0.031 C 
ATOM     71  C   UNL     1      -3.849  17.316   3.740  1.00  0.00     0.029 A 
ATOM     72  C   UNL     1      -2.558  16.988   4.128  1.00  0.00     0.049 A 
ATOM     73  H   UNL     1      -1.795  15.123   4.750  1.00  0.00     0.167 HD
ATOM     74  C   UNL     1      -0.162  17.471   4.597  1.00  0.00     0.074 A 
ATOM     75  C   UNL     1       0.982  18.360   4.656  1.00  0.00     0.031 C 
ATOM     76  C   UNL     1      -1.402  17.849   4.200  1.00  0.00     0.037 A 
BRANCH  63  77
ATOM     77  C   UNL     1      -5.619  13.318   4.140  1.00  0.00     0.058 A 
ATOM     78  C   UNL     1      -6.534  12.952   5.141  1.00  0.00     0.135 A 
ATOM     79  C   UNL     1      -6.065  13.305   2.809  1.00  0.00     0.135 A 
ATOM     80  F   UNL     1      -6.154  12.925   6.429  1.00  0.00    -0.206 F 
ATOM     81  C   UNL     1      -7.834  12.568   4.832  1.00  0.00     0.059 A 
ATOM     82  C   UNL     1      -7.370  12.953   2.479  1.00  0.00     0.059 A 
ATOM     83  F   UNL     1      -5.229  13.637   1.813  1.00  0.00    -0.206 F 
ATOM     84  C   UNL     1      -8.244  12.575   3.498  1.00  0.00     0.060 A 
BRANCH  84  85
ATOM     85  S   UNL     1      -9.941  12.095   3.117  1.00  0.00     0.124 S 
ATOM     86  O   UNL     1      -9.899  10.657   3.367  1.00  0.00    -0.237 OA
ATOM     87  O   UNL     1     -10.709  12.882   4.076  1.00  0.00    -0.237 OA
ATOM     88  O   UNL     1     -10.100  12.483   1.719  1.00  0.00    -0.744 OA
ENDBRANCH  84  85
ENDBRANCH  63  77
BRANCH  64  89
ATOM     89  C   UNL     1       3.973  15.675   5.998  1.00  0.00     0.058 A 
ATOM     90  C   UNL     1       4.366  16.556   7.016  1.00  0.00     0.135 A 
ATOM     91  C   UNL     1       4.983  15.107   5.204  1.00  0.00     0.135 A 
ATOM     92  F   UNL     1       3.442  17.125   7.804  1.00  0.00    -0.206 F 
ATOM     93  C   UNL     1       5.704  16.882   7.224  1.00  0.00     0.059 A 
ATOM     94  C   UNL     1       6.328  15.395   5.410  1.00  0.00     0.059 A 
ATOM     95  F   UNL     1       4.665  14.239   4.231  1.00  0.00    -0.206 F 
ATOM     96  C   UNL     1       6.678  16.295   6.415  1.00  0.00     0.060 A 
BRANCH  96  97
ATOM     97  S   UNL     1       8.413  16.699   6.712  1.00  0.00     0.124 S 
ATOM     98  O   UNL     1       8.485  18.067   6.213  1.00  0.00    -0.237 OA
ATOM     99  O   UNL     1       8.521  16.540   8.159  1.00  0.00    -0.237 OA
ATOM    100  O   UNL     1       9.129  15.700   5.924  1.00  0.00    -0.744 OA
ENDBRANCH  96  97
ENDBRANCH  64  89
BRANCH  76 101
ATOM    101  C   UNL     1      -1.591  19.291   3.822  1.00  0.00     0.058 A 
ATOM    102  C   UNL     1      -1.068  19.814   2.631  1.00  0.00     0.135 A 
ATOM    103  C   UNL     1      -2.360  20.140   4.635  1.00  0.00     0.135 A 
ATOM    104  F   UNL     1      -0.320  19.044   1.825  1.00  0.00    -0.206 F 
ATOM    105  C   UNL     1      -1.282  21.139   2.266  1.00  0.00     0.059 A 
ATOM    106  C   UNL     1      -2.613  21.459   4.274  1.00  0.00     0.059 A 
ATOM    107  F   UNL     1      -2.891  19.684   5.780  1.00  0.00    -0.206 F 
ATOM    108  C   UNL     1      -2.061  21.951   3.093  1.00  0.00     0.060 A 
BRANCH 108 109
ATOM    109  S   UNL     1      -2.367  23.655   2.585  1.00  0.00     0.124 S 
ATOM    110  O   UNL     1      -1.066  24.271   2.824  1.00  0.00    -0.237 OA
ATOM    111  O   UNL     1      -2.748  23.499   1.185  1.00  0.00    -0.237 OA
ATOM    112  O   UNL     1      -3.440  24.088   3.476  1.00  0.00    -0.744 OA
ENDBRANCH 108 109
ENDBRANCH  76 101
ENDBRANCH  50  51
ENDBRANCH  42  45
ENDBRANCH  40  41
ENDBRANCH  39  40
ENDBRANCH  38  39
ENDBRANCH  37  38
ENDBRANCH   3  37
TORSDOF 22
