REMARK SMILES O=C(NCCCCNC(=O)c1ccc(-c2c3nc(c(-c4c(F)cc(S(=O)(=O)[O-])cc4F)c4ccc([nH]4)c(-c4c(F)cc(S(=O)(=O)[O-])cc4F)c4nc(c(-c5c(F)cc(S(=O)(=O)[O-])cc5F)c5ccc2[nH]5)C=C4)C=C3)cc1)c1ccc(/N=C\c2ccccc2O)cc1
REMARK SMILES IDX 5 1 4 2 3 3 1 4 2 5 77 7 78 8 91 9 79 10 90 11 80 12 81 13
REMARK SMILES IDX 82 14 83 15 84 16 88 17 85 18 87 19 86 20 89 21 6 23 7 24
REMARK SMILES IDX 8 25 9 26 10 28 11 29 12 30 76 31 13 32 75 33 14 34 15 35
REMARK SMILES IDX 16 36 69 37 17 38 74 39 68 40 70 41 18 42 73 43 67 44 66 45
REMARK SMILES IDX 19 47 53 48 32 49 52 50 33 51 36 52 51 53 71 54 34 55 35 56
REMARK SMILES IDX 50 58 72 59 37 60 20 61 21 62 30 63 22 64 23 65 29 66 31 67
REMARK SMILES IDX 24 68 25 69 26 70 27 71 28 72 54 73 55 74 64 75 56 76 57 77
REMARK SMILES IDX 63 78 65 79 58 80 59 81 60 82 61 83 62 84 38 85 39 86 48 87
REMARK SMILES IDX 40 88 41 89 47 90 49 91 42 92 43 93 44 94 45 95 46 96
REMARK H PARENT 3 6 89 22 8 27 70 46 36 57
REMARK Flexibility Score: inf
ROOT
ATOM      1  C   UNL     1       4.992  -2.371   0.487  1.00  0.00     0.023 C 
ENDROOT
BRANCH   1   2
ATOM      2  C   UNL     1       4.736  -1.109  -0.330  1.00  0.00     0.116 C 
BRANCH   2   3
ATOM      3  N   UNL     1       3.336  -0.892  -0.655  1.00  0.00    -0.352 N 
ATOM      4  O   UNL     1       1.346   0.156  -0.764  1.00  0.00    -0.269 OA
ATOM      5  C   UNL     1       2.538   0.211  -0.470  1.00  0.00     0.251 C 
ATOM      6  H   UNL     1       2.887  -1.660  -1.077  1.00  0.00     0.163 HD
BRANCH   5   7
ATOM      7  C   UNL     1       3.078   1.448   0.138  1.00  0.00     0.039 A 
ATOM      8  C   UNL     1       4.318   1.980  -0.214  1.00  0.00     0.016 A 
ATOM      9  C   UNL     1       2.302   2.102   1.095  1.00  0.00     0.016 A 
ATOM     10  C   UNL     1       4.857   3.030   0.533  1.00  0.00     0.029 A 
ATOM     11  C   UNL     1       2.820   3.204   1.782  1.00  0.00     0.029 A 
ATOM     12  C   UNL     1       4.143   3.613   1.586  1.00  0.00     0.063 A 
BRANCH  12  13
ATOM     13  N   UNL     1       4.823   4.583   2.341  1.00  0.00    -0.256 NA
ATOM     14  C   UNL     1       4.621   4.849   3.596  1.00  0.00     0.123 C 
BRANCH  14  15
ATOM     15  C   UNL     1       3.669   4.239   4.534  1.00  0.00     0.035 A 
ATOM     16  C   UNL     1       2.671   5.084   5.033  1.00  0.00     0.013 A 
ATOM     17  C   UNL     1       3.689   2.886   4.879  1.00  0.00     0.124 A 
ATOM     18  C   UNL     1       1.654   4.557   5.827  1.00  0.00     0.001 A 
ATOM     19  C   UNL     1       2.677   2.366   5.683  1.00  0.00     0.047 A 
ATOM     20  C   UNL     1       1.652   3.198   6.142  1.00  0.00     0.004 A 
BRANCH  17  21
ATOM     21  O   UNL     1       4.647   2.011   4.452  1.00  0.00    -0.507 OA
ATOM     22  H   UNL     1       5.348   2.313   3.909  1.00  0.00     0.293 HD
ENDBRANCH  17  21
ENDBRANCH  14  15
ENDBRANCH  12  13
ENDBRANCH   5   7
ENDBRANCH   2   3
ENDBRANCH   1   2
BRANCH   1  23
ATOM     23  C   UNL     1       4.521  -3.681  -0.137  1.00  0.00     0.023 C 
BRANCH  23  24
ATOM     24  C   UNL     1       4.939  -3.916  -1.583  1.00  0.00     0.116 C 
BRANCH  24  25
ATOM     25  N   UNL     1       6.381  -3.940  -1.773  1.00  0.00    -0.352 N 
ATOM     26  C   UNL     1       7.149  -4.862  -2.448  1.00  0.00     0.251 C 
ATOM     27  H   UNL     1       6.876  -3.194  -1.362  1.00  0.00     0.163 HD
ATOM     28  O   UNL     1       8.370  -4.779  -2.428  1.00  0.00    -0.269 OA
BRANCH  26  29
ATOM     29  C   UNL     1       6.487  -5.976  -3.164  1.00  0.00     0.039 A 
ATOM     30  C   UNL     1       6.934  -7.282  -2.943  1.00  0.00     0.014 A 
ATOM     31  C   UNL     1       5.408  -5.737  -4.018  1.00  0.00     0.014 A 
ATOM     32  C   UNL     1       6.244  -8.356  -3.514  1.00  0.00     0.010 A 
ATOM     33  C   UNL     1       4.681  -6.809  -4.526  1.00  0.00     0.010 A 
ATOM     34  C   UNL     1       5.087  -8.130  -4.277  1.00  0.00    -0.014 A 
BRANCH  34  35
ATOM     35  C   UNL     1       4.283  -9.249  -4.834  1.00  0.00     0.031 A 
ATOM     36  C   UNL     1       4.138  -9.388  -6.325  1.00  0.00     0.074 A 
ATOM     37  C   UNL     1       3.609 -10.075  -4.007  1.00  0.00     0.049 A 
ATOM     38  N   UNL     1       3.358 -10.184  -7.009  1.00  0.00    -0.248 NA
ATOM     39  C   UNL     1       4.954  -8.488  -7.157  1.00  0.00     0.031 C 
ATOM     40  C   UNL     1       3.634 -10.018  -2.544  1.00  0.00     0.029 A 
ATOM     41  N   UNL     1       2.750 -11.110  -4.282  1.00  0.00    -0.354 N 
ATOM     42  C   UNL     1       3.563  -9.859  -8.345  1.00  0.00     0.074 A 
ATOM     43  C   UNL     1       4.516  -8.772  -8.376  1.00  0.00     0.031 C 
ATOM     44  C   UNL     1       2.832 -10.977  -2.051  1.00  0.00     0.029 A 
ATOM     45  C   UNL     1       2.205 -11.691  -3.159  1.00  0.00     0.049 A 
ATOM     46  H   UNL     1       2.542 -11.409  -5.196  1.00  0.00     0.167 HD
ATOM     47  C   UNL     1       3.019 -10.428  -9.446  1.00  0.00     0.037 A 
ATOM     48  C   UNL     1       1.292 -12.674  -3.037  1.00  0.00     0.037 A 
ATOM     49  C   UNL     1       2.113 -11.545  -9.413  1.00  0.00     0.049 A 
ATOM     50  C   UNL     1       0.725 -13.310  -4.280  1.00  0.00     0.074 A 
ATOM     51  C   UNL     1       1.559 -12.234 -10.478  1.00  0.00     0.029 A 
ATOM     52  N   UNL     1       1.638 -12.145  -8.257  1.00  0.00    -0.354 N 
ATOM     53  N   UNL     1       0.970 -13.023  -5.536  1.00  0.00    -0.248 NA
ATOM     54  C   UNL     1      -0.238 -14.405  -4.091  1.00  0.00     0.031 C 
ATOM     55  C   UNL     1       0.727 -13.234  -9.966  1.00  0.00     0.029 A 
ATOM     56  C   UNL     1       0.794 -13.192  -8.583  1.00  0.00     0.049 A 
ATOM     57  H   UNL     1       1.867 -11.867  -7.340  1.00  0.00     0.167 HD
ATOM     58  C   UNL     1       0.222 -13.926  -6.285  1.00  0.00     0.074 A 
ATOM     59  C   UNL     1      -0.483 -14.769  -5.343  1.00  0.00     0.031 C 
ATOM     60  C   UNL     1       0.130 -14.046  -7.631  1.00  0.00     0.037 A 
BRANCH  47  61
ATOM     61  C   UNL     1       3.395  -9.865 -10.787  1.00  0.00     0.058 A 
ATOM     62  C   UNL     1       4.665 -10.080 -11.344  1.00  0.00     0.135 A 
ATOM     63  C   UNL     1       2.454  -9.158 -11.553  1.00  0.00     0.135 A 
ATOM     64  F   UNL     1       5.607 -10.734 -10.647  1.00  0.00    -0.206 F 
ATOM     65  C   UNL     1       4.995  -9.601 -12.607  1.00  0.00     0.059 A 
ATOM     66  C   UNL     1       2.754  -8.691 -12.829  1.00  0.00     0.059 A 
ATOM     67  F   UNL     1       1.225  -8.924 -11.066  1.00  0.00    -0.206 F 
ATOM     68  C   UNL     1       4.031  -8.911 -13.344  1.00  0.00     0.060 A 
BRANCH  68  69
ATOM     69  S   UNL     1       4.464  -8.324 -14.995  1.00  0.00     0.124 S 
ATOM     70  O   UNL     1       5.324  -7.187 -14.683  1.00  0.00    -0.237 OA
ATOM     71  O   UNL     1       5.135  -9.484 -15.574  1.00  0.00    -0.237 OA
ATOM     72  O   UNL     1       3.173  -7.991 -15.588  1.00  0.00    -0.744 OA
ENDBRANCH  68  69
ENDBRANCH  47  61
BRANCH  48  73
ATOM     73  C   UNL     1       0.854 -13.133  -1.691  1.00  0.00     0.058 A 
ATOM     74  C   UNL     1       1.223 -14.396  -1.206  1.00  0.00     0.135 A 
ATOM     75  C   UNL     1       0.043 -12.331  -0.874  1.00  0.00     0.135 A 
ATOM     76  F   UNL     1       1.993 -15.202  -1.953  1.00  0.00    -0.206 F 
ATOM     77  C   UNL     1       0.778 -14.863   0.027  1.00  0.00     0.059 A 
ATOM     78  C   UNL     1      -0.395 -12.765   0.373  1.00  0.00     0.059 A 
ATOM     79  F   UNL     1      -0.323 -11.106  -1.284  1.00  0.00    -0.206 F 
ATOM     80  C   UNL     1      -0.036 -14.041   0.807  1.00  0.00     0.060 A 
BRANCH  80  81
ATOM     81  S   UNL     1      -0.598 -14.648   2.413  1.00  0.00     0.124 S 
ATOM     82  O   UNL     1      -1.651 -15.577   2.023  1.00  0.00    -0.237 OA
ATOM     83  O   UNL     1       0.615 -15.250   2.959  1.00  0.00    -0.237 OA
ATOM     84  O   UNL     1      -1.043 -13.434   3.091  1.00  0.00    -0.744 OA
ENDBRANCH  80  81
ENDBRANCH  48  73
BRANCH  60  85
ATOM     85  C   UNL     1      -0.708 -15.166  -8.178  1.00  0.00     0.058 A 
ATOM     86  C   UNL     1      -2.109 -15.105  -8.185  1.00  0.00     0.135 A 
ATOM     87  C   UNL     1      -0.093 -16.275  -8.781  1.00  0.00     0.135 A 
ATOM     88  F   UNL     1      -2.743 -14.068  -7.616  1.00  0.00    -0.206 F 
ATOM     89  C   UNL     1      -2.874 -16.111  -8.766  1.00  0.00     0.059 A 
ATOM     90  C   UNL     1      -0.837 -17.281  -9.387  1.00  0.00     0.059 A 
ATOM     91  F   UNL     1       1.246 -16.375  -8.807  1.00  0.00    -0.206 F 
ATOM     92  C   UNL     1      -2.229 -17.193  -9.369  1.00  0.00     0.060 A 
BRANCH  92  93
ATOM     93  S   UNL     1      -3.230 -18.461 -10.175  1.00  0.00     0.124 S 
ATOM     94  O   UNL     1      -3.743 -19.203  -9.029  1.00  0.00    -0.237 OA
ATOM     95  O   UNL     1      -4.212 -17.668 -10.908  1.00  0.00    -0.237 OA
ATOM     96  O   UNL     1      -2.266 -19.176 -11.007  1.00  0.00    -0.744 OA
ENDBRANCH  92  93
ENDBRANCH  60  85
ENDBRANCH  34  35
ENDBRANCH  26  29
ENDBRANCH  24  25
ENDBRANCH  23  24
ENDBRANCH   1  23
TORSDOF 17
