REMARK SMILES Nc1cccc(C(=O)N2CCC[C@H]2C(=O)NCCCCNC(=O)c2ccc(-c3c4nc(c(-c5c(F)cc(S(=O)(=O)[O-])cc5F)c5ccc([nH]5)c(-c5c(F)cc(S(=O)(=O)[O-])cc5F)c5nc(c(-c6c(F)cc(S(=O)(=O)[O-])cc6F)c6ccc3[nH]6)C=C5)C=C4)cc2)c1
REMARK SMILES IDX 18 1 17 2 16 3 14 4 15 5 13 7 9 8 10 9 11 10 12 11 7 12 8 13
REMARK SMILES IDX 6 14 2 15 3 16 90 17 4 18 5 19 1 20 19 23 20 24 21 25 22 26
REMARK SMILES IDX 23 28 24 29 25 30 89 31 26 32 88 33 27 34 28 35 29 36 82 37
REMARK SMILES IDX 30 38 87 39 81 40 83 41 31 42 86 43 80 44 79 45 32 47 66 48
REMARK SMILES IDX 45 49 65 50 46 51 49 52 64 53 84 54 47 55 48 56 63 58 85 59
REMARK SMILES IDX 50 60 33 61 34 62 43 63 35 64 36 65 42 66 44 67 37 68 38 69
REMARK SMILES IDX 39 70 40 71 41 72 67 73 68 74 77 75 69 76 70 77 76 78 78 79
REMARK SMILES IDX 71 80 72 81 73 82 74 83 75 84 51 85 52 86 61 87 53 88 54 89
REMARK SMILES IDX 60 90 62 91 55 92 56 93 57 94 58 95 59 96
REMARK H PARENT 16 6 1 21 1 22 21 27 83 46 49 57
REMARK Flexibility Score: inf
ROOT
ATOM      1  C   UNL     1      -2.946   4.673  -2.409  1.00  0.00     0.023 C 
ENDROOT
BRANCH   1   2
ATOM      2  C   UNL     1      -2.525   5.932  -1.660  1.00  0.00     0.116 C 
BRANCH   2   3
ATOM      3  N   UNL     1      -3.029   5.989  -0.308  1.00  0.00    -0.354 N 
ATOM      4  C   UNL     1      -2.453   5.610   0.868  1.00  0.00     0.242 C 
ATOM      5  O   UNL     1      -2.982   6.040   1.901  1.00  0.00    -0.273 OA
ATOM      6  H   UNL     1      -3.937   6.361  -0.222  1.00  0.00     0.163 HD
BRANCH   4   7
ATOM      7  C   UNL     1      -1.091   4.883   0.948  1.00  0.00     0.174 C 
ATOM      8  N   UNL     1      -0.862   3.707   0.102  1.00  0.00    -0.327 N 
ATOM      9  C   UNL     1       0.235   3.925  -0.826  1.00  0.00     0.121 C 
ATOM     10  C   UNL     1       1.089   4.962  -0.123  1.00  0.00     0.024 C 
ATOM     11  C   UNL     1       0.080   5.825   0.634  1.00  0.00     0.037 C 
BRANCH   8  12
ATOM     12  C   UNL     1      -1.501   2.526   0.453  1.00  0.00     0.254 C 
ATOM     13  O   UNL     1      -2.556   2.526   1.084  1.00  0.00    -0.269 OA
BRANCH  12  14
ATOM     14  C   UNL     1      -0.882   1.210   0.151  1.00  0.00     0.042 A 
ATOM     15  C   UNL     1       1.063  -0.254   0.105  1.00  0.00     0.032 A 
ATOM     16  C   UNL     1       0.221  -1.332  -0.174  1.00  0.00     0.025 A 
ATOM     17  C   UNL     1       0.491   0.997   0.336  1.00  0.00     0.039 A 
ATOM     18  C   UNL     1      -1.159  -1.148  -0.299  1.00  0.00     0.003 A 
ATOM     19  C   UNL     1      -1.710   0.124  -0.146  1.00  0.00     0.014 A 
BRANCH  15  20
ATOM     20  N   UNL     1       2.423  -0.448   0.298  1.00  0.00    -0.399 N 
ATOM     21  H   UNL     1       2.822  -1.332   0.135  1.00  0.00     0.156 HD
ATOM     22  H   UNL     1       2.988   0.300   0.599  1.00  0.00     0.156 HD
ENDBRANCH  15  20
ENDBRANCH  12  14
ENDBRANCH   8  12
ENDBRANCH   4   7
ENDBRANCH   2   3
ENDBRANCH   1   2
BRANCH   1  23
ATOM     23  C   UNL     1      -4.413   4.645  -2.836  1.00  0.00     0.023 C 
BRANCH  23  24
ATOM     24  C   UNL     1      -4.853   5.795  -3.736  1.00  0.00     0.116 C 
BRANCH  24  25
ATOM     25  N   UNL     1      -4.062   5.917  -4.952  1.00  0.00    -0.352 N 
ATOM     26  C   UNL     1      -4.476   6.302  -6.205  1.00  0.00     0.251 C 
ATOM     27  H   UNL     1      -3.106   5.695  -4.867  1.00  0.00     0.163 HD
ATOM     28  O   UNL     1      -3.698   6.255  -7.154  1.00  0.00    -0.269 OA
BRANCH  26  29
ATOM     29  C   UNL     1      -5.876   6.732  -6.404  1.00  0.00     0.039 A 
ATOM     30  C   UNL     1      -6.616   6.165  -7.445  1.00  0.00     0.014 A 
ATOM     31  C   UNL     1      -6.466   7.659  -5.540  1.00  0.00     0.014 A 
ATOM     32  C   UNL     1      -7.971   6.476  -7.575  1.00  0.00     0.010 A 
ATOM     33  C   UNL     1      -7.831   7.913  -5.630  1.00  0.00     0.010 A 
ATOM     34  C   UNL     1      -8.598   7.324  -6.647  1.00  0.00    -0.014 A 
BRANCH  34  35
ATOM     35  C   UNL     1     -10.054   7.604  -6.717  1.00  0.00     0.031 A 
ATOM     36  C   UNL     1     -10.539   9.005  -6.978  1.00  0.00     0.074 A 
ATOM     37  C   UNL     1     -10.936   6.616  -6.464  1.00  0.00     0.049 A 
ATOM     38  N   UNL     1     -11.762   9.465  -6.993  1.00  0.00    -0.248 NA
ATOM     39  C   UNL     1      -9.510  10.030  -7.220  1.00  0.00     0.031 C 
ATOM     40  C   UNL     1     -10.587   5.233  -6.130  1.00  0.00     0.029 A 
ATOM     41  N   UNL     1     -12.308   6.627  -6.427  1.00  0.00    -0.354 N 
ATOM     42  C   UNL     1     -11.651  10.832  -7.217  1.00  0.00     0.074 A 
ATOM     43  C   UNL     1     -10.238  11.134  -7.293  1.00  0.00     0.031 C 
ATOM     44  C   UNL     1     -11.713   4.528  -5.935  1.00  0.00     0.029 A 
ATOM     45  C   UNL     1     -12.863   5.412  -6.099  1.00  0.00     0.049 A 
ATOM     46  H   UNL     1     -12.845   7.430  -6.618  1.00  0.00     0.167 HD
ATOM     47  C   UNL     1     -12.637  11.748  -7.365  1.00  0.00     0.037 A 
ATOM     48  C   UNL     1     -14.152   5.054  -5.940  1.00  0.00     0.037 A 
ATOM     49  C   UNL     1     -14.041  11.431  -7.338  1.00  0.00     0.049 A 
ATOM     50  C   UNL     1     -15.230   6.080  -6.163  1.00  0.00     0.074 A 
ATOM     51  C   UNL     1     -15.116  12.270  -7.570  1.00  0.00     0.029 A 
ATOM     52  N   UNL     1     -14.564  10.175  -7.066  1.00  0.00    -0.354 N 
ATOM     53  N   UNL     1     -15.107   7.352  -6.461  1.00  0.00    -0.248 NA
ATOM     54  C   UNL     1     -16.621   5.623  -6.041  1.00  0.00     0.031 C 
ATOM     55  C   UNL     1     -16.291  11.530  -7.404  1.00  0.00     0.029 A 
ATOM     56  C   UNL     1     -15.947  10.221  -7.110  1.00  0.00     0.049 A 
ATOM     57  H   UNL     1     -14.031   9.371  -6.871  1.00  0.00     0.167 HD
ATOM     58  C   UNL     1     -16.403   7.838  -6.590  1.00  0.00     0.074 A 
ATOM     59  C   UNL     1     -17.294   6.723  -6.348  1.00  0.00     0.031 C 
ATOM     60  C   UNL     1     -16.818   9.095  -6.884  1.00  0.00     0.037 A 
BRANCH  47  61
ATOM     61  C   UNL     1     -12.238  13.180  -7.581  1.00  0.00     0.058 A 
ATOM     62  C   UNL     1     -11.674  13.614  -8.791  1.00  0.00     0.135 A 
ATOM     63  C   UNL     1     -12.469  14.142  -6.584  1.00  0.00     0.135 A 
ATOM     64  F   UNL     1     -11.416  12.734  -9.771  1.00  0.00    -0.206 F 
ATOM     65  C   UNL     1     -11.333  14.947  -8.998  1.00  0.00     0.059 A 
ATOM     66  C   UNL     1     -12.159  15.485  -6.779  1.00  0.00     0.059 A 
ATOM     67  F   UNL     1     -13.004  13.780  -5.407  1.00  0.00    -0.206 F 
ATOM     68  C   UNL     1     -11.581  15.875  -7.986  1.00  0.00     0.060 A 
BRANCH  68  69
ATOM     69  S   UNL     1     -11.153  17.605  -8.277  1.00  0.00     0.124 S 
ATOM     70  O   UNL     1      -9.699  17.569  -8.155  1.00  0.00    -0.237 OA
ATOM     71  O   UNL     1     -11.669  17.832  -9.623  1.00  0.00    -0.237 OA
ATOM     72  O   UNL     1     -11.855  18.313  -7.212  1.00  0.00    -0.744 OA
ENDBRANCH  68  69
ENDBRANCH  47  61
BRANCH  48  73
ATOM     73  C   UNL     1     -14.499   3.655  -5.573  1.00  0.00     0.058 A 
ATOM     74  C   UNL     1     -15.100   2.793  -6.502  1.00  0.00     0.135 A 
ATOM     75  C   UNL     1     -14.240   3.154  -4.288  1.00  0.00     0.135 A 
ATOM     76  F   UNL     1     -15.370   3.228  -7.742  1.00  0.00    -0.206 F 
ATOM     77  C   UNL     1     -15.457   1.492  -6.164  1.00  0.00     0.059 A 
ATOM     78  C   UNL     1     -14.566   1.848  -3.934  1.00  0.00     0.059 A 
ATOM     79  F   UNL     1     -13.648   3.933  -3.369  1.00  0.00    -0.206 F 
ATOM     80  C   UNL     1     -15.188   1.029  -4.875  1.00  0.00     0.060 A 
BRANCH  80  81
ATOM     81  S   UNL     1     -15.626  -0.672  -4.455  1.00  0.00     0.124 S 
ATOM     82  O   UNL     1     -17.071  -0.568  -4.287  1.00  0.00    -0.237 OA
ATOM     83  O   UNL     1     -15.171  -1.408  -5.630  1.00  0.00    -0.237 OA
ATOM     84  O   UNL     1     -14.863  -0.921  -3.235  1.00  0.00    -0.744 OA
ENDBRANCH  80  81
ENDBRANCH  48  73
BRANCH  60  85
ATOM     85  C   UNL     1     -18.298   9.324  -7.006  1.00  0.00     0.058 A 
ATOM     86  C   UNL     1     -19.133   9.370  -5.879  1.00  0.00     0.135 A 
ATOM     87  C   UNL     1     -18.878   9.552  -8.264  1.00  0.00     0.135 A 
ATOM     88  F   UNL     1     -18.628   9.154  -4.654  1.00  0.00    -0.206 F 
ATOM     89  C   UNL     1     -20.497   9.612  -5.997  1.00  0.00     0.059 A 
ATOM     90  C   UNL     1     -20.235   9.819  -8.404  1.00  0.00     0.059 A 
ATOM     91  F   UNL     1     -18.120   9.529  -9.372  1.00  0.00    -0.206 F 
ATOM     92  C   UNL     1     -21.040   9.835  -7.265  1.00  0.00     0.060 A 
BRANCH  92  93
ATOM     93  S   UNL     1     -22.806  10.180  -7.405  1.00  0.00     0.124 S 
ATOM     94  O   UNL     1     -23.379   8.850  -7.232  1.00  0.00    -0.237 OA
ATOM     95  O   UNL     1     -23.033  11.116  -6.308  1.00  0.00    -0.237 OA
ATOM     96  O   UNL     1     -22.934  10.751  -8.743  1.00  0.00    -0.744 OA
ENDBRANCH  92  93
ENDBRANCH  60  85
ENDBRANCH  34  35
ENDBRANCH  26  29
ENDBRANCH  24  25
ENDBRANCH  23  24
ENDBRANCH   1  23
TORSDOF 17
