REMARK SMILES CC(=O)N[C@@H](Cc1c(C)[nH]c2ccccc2c1=O)C(=O)NCCCCNC(=O)c1ccc(-c2c3nc(c(-c4c(F)cc(S(=O)(=O)[O-])cc4F)c4ccc([nH]4)c(-c4c(F)cc(S(=O)(=O)[O-])cc4F)c4nc(c(-c5c(F)cc(S(=O)(=O)[O-])cc5F)c5ccc2[nH]5)C=C4)C=C3)cc1
REMARK SMILES IDX 24 1 23 2 22 3 21 4 19 5 20 6 5 8 4 9 1 10 2 11 3 12 6 14
REMARK SMILES IDX 7 15 8 16 17 17 9 18 10 19 16 20 18 21 11 22 15 24 12 25
REMARK SMILES IDX 14 26 13 27 25 28 26 29 27 30 28 32 29 33 30 34 94 35 31 36
REMARK SMILES IDX 93 37 32 38 33 39 34 40 87 41 35 42 92 43 86 44 88 45 36 46
REMARK SMILES IDX 91 47 85 48 84 49 37 51 71 52 50 53 70 54 51 55 54 56 69 57
REMARK SMILES IDX 89 58 52 59 53 60 68 62 90 63 55 64 38 65 39 66 48 67 40 68
REMARK SMILES IDX 41 69 47 70 49 71 42 72 43 73 44 74 45 75 46 76 72 77 73 78
REMARK SMILES IDX 82 79 74 80 75 81 81 82 83 83 76 84 77 85 78 86 79 87 80 88
REMARK SMILES IDX 56 89 57 90 66 91 58 92 59 93 65 94 67 95 60 96 61 97 62 98
REMARK SMILES IDX 63 99 64 100
REMARK H PARENT 21 7 4 13 10 23 26 31 88 50 54 61
REMARK Flexibility Score: inf
ROOT
ATOM      1  C   UNL     1      -1.997   5.694   3.557  1.00  0.00     0.023 C 
ENDROOT
BRANCH   1   2
ATOM      2  C   UNL     1      -1.266   4.933   2.459  1.00  0.00     0.023 C 
BRANCH   2   3
ATOM      3  C   UNL     1       0.178   4.562   2.747  1.00  0.00     0.116 C 
BRANCH   3   4
ATOM      4  N   UNL     1       0.385   3.328   3.460  1.00  0.00    -0.354 N 
ATOM      5  C   UNL     1       1.208   2.290   3.124  1.00  0.00     0.242 C 
ATOM      6  O   UNL     1       1.473   1.473   4.014  1.00  0.00    -0.273 OA
ATOM      7  H   UNL     1      -0.130   3.219   4.291  1.00  0.00     0.163 HD
BRANCH   5   8
ATOM      8  C   UNL     1       1.852   2.127   1.716  1.00  0.00     0.175 C 
BRANCH   8   9
ATOM      9  N   UNL     1       0.880   2.096   0.627  1.00  0.00    -0.344 N 
ATOM     10  C   UNL     1       0.893  -0.348   0.292  1.00  0.00     0.114 C 
ATOM     11  C   UNL     1       0.372   1.023  -0.042  1.00  0.00     0.217 C 
ATOM     12  O   UNL     1      -0.474   1.188  -0.919  1.00  0.00    -0.275 OA
ATOM     13  H   UNL     1       0.544   2.974   0.334  1.00  0.00     0.164 HD
ENDBRANCH   8   9
BRANCH   8  14
ATOM     14  C   UNL     1       3.136   2.955   1.417  1.00  0.00     0.076 C 
BRANCH  14  15
ATOM     15  C   UNL     1       3.123   4.462   1.208  1.00  0.00     0.022 A 
ATOM     16  C   UNL     1       3.907   5.371   1.838  1.00  0.00     0.019 A 
ATOM     17  C   UNL     1       2.202   5.008   0.146  1.00  0.00     0.192 A 
ATOM     18  C   UNL     1       5.021   5.004   2.791  1.00  0.00     0.064 C 
ATOM     19  N   UNL     1       3.767   6.735   1.648  1.00  0.00    -0.358 N 
ATOM     20  C   UNL     1       1.917   6.457   0.127  1.00  0.00     0.046 A 
ATOM     21  O   UNL     1       1.619   4.269  -0.641  1.00  0.00    -0.289 OA
ATOM     22  C   UNL     1       2.746   7.292   0.877  1.00  0.00     0.049 A 
ATOM     23  H   UNL     1       4.417   7.338   2.076  1.00  0.00     0.166 HD
ATOM     24  C   UNL     1       0.820   6.964  -0.580  1.00  0.00     0.014 A 
ATOM     25  C   UNL     1       2.486   8.662   0.888  1.00  0.00     0.027 A 
ATOM     26  C   UNL     1       0.556   8.330  -0.543  1.00  0.00     0.001 A 
ATOM     27  C   UNL     1       1.398   9.178   0.177  1.00  0.00     0.002 A 
ENDBRANCH  14  15
ENDBRANCH   8  14
ENDBRANCH   5   8
ENDBRANCH   3   4
ENDBRANCH   2   3
ENDBRANCH   1   2
BRANCH   1  28
ATOM     28  C   UNL     1      -1.287   6.912   4.142  1.00  0.00     0.116 C 
BRANCH  28  29
ATOM     29  N   UNL     1      -0.856   7.921   3.180  1.00  0.00    -0.352 N 
ATOM     30  C   UNL     1      -0.888   9.302   3.308  1.00  0.00     0.251 C 
ATOM     31  H   UNL     1      -0.496   7.578   2.331  1.00  0.00     0.163 HD
ATOM     32  O   UNL     1      -0.510  10.034   2.415  1.00  0.00    -0.269 OA
BRANCH  30  33
ATOM     33  C   UNL     1      -1.462   9.890   4.538  1.00  0.00     0.039 A 
ATOM     34  C   UNL     1      -1.076   9.426   5.794  1.00  0.00     0.014 A 
ATOM     35  C   UNL     1      -2.486  10.834   4.410  1.00  0.00     0.014 A 
ATOM     36  C   UNL     1      -1.873   9.718   6.892  1.00  0.00     0.010 A 
ATOM     37  C   UNL     1      -3.225  11.202   5.535  1.00  0.00     0.010 A 
ATOM     38  C   UNL     1      -2.976  10.579   6.766  1.00  0.00    -0.014 A 
BRANCH  38  39
ATOM     39  C   UNL     1      -3.894  10.748   7.921  1.00  0.00     0.031 A 
ATOM     40  C   UNL     1      -5.311  10.238   7.848  1.00  0.00     0.074 A 
ATOM     41  C   UNL     1      -3.412  11.262   9.067  1.00  0.00     0.049 A 
ATOM     42  N   UNL     1      -6.239  10.250   8.771  1.00  0.00    -0.248 NA
ATOM     43  C   UNL     1      -5.748   9.639   6.575  1.00  0.00     0.031 C 
ATOM     44  C   UNL     1      -2.047  11.760   9.254  1.00  0.00     0.029 A 
ATOM     45  N   UNL     1      -3.992  11.408  10.300  1.00  0.00    -0.354 N 
ATOM     46  C   UNL     1      -7.369   9.687   8.187  1.00  0.00     0.074 A 
ATOM     47  C   UNL     1      -7.021   9.364   6.821  1.00  0.00     0.031 C 
ATOM     48  C   UNL     1      -1.870  12.080  10.544  1.00  0.00     0.029 A 
ATOM     49  C   UNL     1      -3.125  11.873  11.259  1.00  0.00     0.049 A 
ATOM     50  H   UNL     1      -4.937  11.200  10.480  1.00  0.00     0.167 HD
ATOM     51  C   UNL     1      -8.582   9.452   8.743  1.00  0.00     0.037 A 
ATOM     52  C   UNL     1      -3.319  12.108  12.570  1.00  0.00     0.037 A 
ATOM     53  C   UNL     1      -8.909   9.750  10.113  1.00  0.00     0.049 A 
ATOM     54  C   UNL     1      -4.675  11.857  13.159  1.00  0.00     0.074 A 
ATOM     55  C   UNL     1     -10.109   9.562  10.775  1.00  0.00     0.029 A 
ATOM     56  N   UNL     1      -8.023  10.289  11.036  1.00  0.00    -0.354 N 
ATOM     57  N   UNL     1      -5.744  11.365  12.578  1.00  0.00    -0.248 NA
ATOM     58  C   UNL     1      -4.861  12.210  14.572  1.00  0.00     0.031 C 
ATOM     59  C   UNL     1      -9.956  10.011  12.092  1.00  0.00     0.029 A 
ATOM     60  C   UNL     1      -8.652  10.449  12.259  1.00  0.00     0.049 A 
ATOM     61  H   UNL     1      -7.085  10.523  10.848  1.00  0.00     0.167 HD
ATOM     62  C   UNL     1      -6.734  11.358  13.552  1.00  0.00     0.074 A 
ATOM     63  C   UNL     1      -6.128  11.869  14.766  1.00  0.00     0.031 C 
ATOM     64  C   UNL     1      -8.030  10.974  13.448  1.00  0.00     0.037 A 
BRANCH  51  65
ATOM     65  C   UNL     1      -9.649   8.857   7.866  1.00  0.00     0.058 A 
ATOM     66  C   UNL     1      -9.627   7.505   7.490  1.00  0.00     0.135 A 
ATOM     67  C   UNL     1     -10.724   9.642   7.417  1.00  0.00     0.135 A 
ATOM     68  F   UNL     1      -8.613   6.714   7.876  1.00  0.00    -0.206 F 
ATOM     69  C   UNL     1     -10.618   6.957   6.682  1.00  0.00     0.059 A 
ATOM     70  C   UNL     1     -11.738   9.111   6.625  1.00  0.00     0.059 A 
ATOM     71  F   UNL     1     -10.794  10.942   7.745  1.00  0.00    -0.206 F 
ATOM     72  C   UNL     1     -11.669   7.770   6.250  1.00  0.00     0.060 A 
BRANCH  72  73
ATOM     73  S   UNL     1     -12.945   7.047   5.196  1.00  0.00     0.124 S 
ATOM     74  O   UNL     1     -12.237   6.930   3.925  1.00  0.00    -0.237 OA
ATOM     75  O   UNL     1     -13.238   5.790   5.876  1.00  0.00    -0.237 OA
ATOM     76  O   UNL     1     -14.015   8.039   5.229  1.00  0.00    -0.744 OA
ENDBRANCH  72  73
ENDBRANCH  51  65
BRANCH  52  77
ATOM     77  C   UNL     1      -2.187  12.596  13.398  1.00  0.00     0.058 A 
ATOM     78  C   UNL     1      -1.550  11.749  14.315  1.00  0.00     0.135 A 
ATOM     79  C   UNL     1      -1.670  13.890  13.229  1.00  0.00     0.135 A 
ATOM     80  F   UNL     1      -2.013  10.505  14.513  1.00  0.00    -0.206 F 
ATOM     81  C   UNL     1      -0.430  12.162  15.028  1.00  0.00     0.059 A 
ATOM     82  C   UNL     1      -0.538  14.319  13.914  1.00  0.00     0.059 A 
ATOM     83  F   UNL     1      -2.236  14.731  12.350  1.00  0.00    -0.206 F 
ATOM     84  C   UNL     1       0.076  13.446  14.812  1.00  0.00     0.060 A 
BRANCH  84  85
ATOM     85  S   UNL     1       1.592  13.937  15.661  1.00  0.00     0.124 S 
ATOM     86  O   UNL     1       1.104  14.189  17.011  1.00  0.00    -0.237 OA
ATOM     87  O   UNL     1       2.434  12.755  15.496  1.00  0.00    -0.237 OA
ATOM     88  O   UNL     1       2.027  15.113  14.914  1.00  0.00    -0.744 OA
ENDBRANCH  84  85
ENDBRANCH  52  77
BRANCH  64  89
ATOM     89  C   UNL     1      -8.880  11.107  14.676  1.00  0.00     0.058 A 
ATOM     90  C   UNL     1      -9.380  12.354  15.079  1.00  0.00     0.135 A 
ATOM     91  C   UNL     1      -9.242   9.975  15.422  1.00  0.00     0.135 A 
ATOM     92  F   UNL     1      -9.054  13.464  14.399  1.00  0.00    -0.206 F 
ATOM     93  C   UNL     1     -10.202  12.477  16.192  1.00  0.00     0.059 A 
ATOM     94  C   UNL     1     -10.078  10.073  16.529  1.00  0.00     0.059 A 
ATOM     95  F   UNL     1      -8.792   8.760  15.070  1.00  0.00    -0.206 F 
ATOM     96  C   UNL     1     -10.547  11.331  16.911  1.00  0.00     0.060 A 
BRANCH  96  97
ATOM     97  S   UNL     1     -11.645  11.500  18.333  1.00  0.00     0.124 S 
ATOM     98  O   UNL     1     -10.746  12.068  19.331  1.00  0.00    -0.237 OA
ATOM     99  O   UNL     1     -12.679  12.398  17.826  1.00  0.00    -0.237 OA
ATOM    100  O   UNL     1     -12.084  10.131  18.587  1.00  0.00    -0.744 OA
ENDBRANCH  96  97
ENDBRANCH  64  89
ENDBRANCH  38  39
ENDBRANCH  30  33
ENDBRANCH  28  29
ENDBRANCH   1  28
TORSDOF 17
