REMARK SMILES [NH3+]C[C@@H]1CC[C@H](C(=O)N[C@@H](Cc2ccccc2)C(=O)NCCCCNC(=O)c2ccc(-c3c4nc(c(-c5c(F)cc(S(=O)(=O)[O-])cc5F)c5ccc([nH]5)c(-c5c(F)cc(S(=O)(=O)[O-])cc5F)c5nc(c(-c6c(F)cc(S(=O)(=O)[O-])cc6F)c6ccc3[nH]6)C=C5)C=C4)cc2)O1
REMARK SMILES IDX 22 1 21 2 20 3 18 4 19 5 10 7 9 8 7 9 8 10 6 12 3 13 4 14
REMARK SMILES IDX 94 15 5 16 2 17 1 18 11 22 12 23 13 24 17 25 14 26 16 27
REMARK SMILES IDX 15 28 23 29 24 30 25 31 26 32 27 34 28 35 29 36 93 37 30 38
REMARK SMILES IDX 92 39 31 40 32 41 33 42 86 43 34 44 91 45 85 46 87 47 35 48
REMARK SMILES IDX 90 49 84 50 83 51 36 53 70 54 49 55 69 56 50 57 53 58 68 59
REMARK SMILES IDX 88 60 51 61 52 62 67 64 89 65 54 66 37 67 38 68 47 69 39 70
REMARK SMILES IDX 40 71 46 72 48 73 41 74 42 75 43 76 44 77 45 78 71 79 72 80
REMARK SMILES IDX 81 81 73 82 74 83 80 84 82 85 75 86 76 87 77 88 78 89 79 90
REMARK SMILES IDX 55 91 56 92 65 93 57 94 58 95 64 96 66 97 59 98 60 99 61 100
REMARK SMILES IDX 62 101 63 102
REMARK H PARENT 20 6 9 11 1 19 1 20 1 21 25 33 87 52 53 63
REMARK Flexibility Score: inf
ROOT
ATOM      1  C   UNL     1      -5.072  -1.675  -0.723  1.00  0.00     0.023 C 
ENDROOT
BRANCH   1   2
ATOM      2  C   UNL     1      -4.554  -0.285  -1.052  1.00  0.00     0.116 C 
BRANCH   2   3
ATOM      3  N   UNL     1      -3.352   0.089  -0.348  1.00  0.00    -0.354 N 
ATOM      4  C   UNL     1      -2.345   0.904  -0.772  1.00  0.00     0.242 C 
ATOM      5  O   UNL     1      -1.717   1.514   0.103  1.00  0.00    -0.273 OA
ATOM      6  H   UNL     1      -3.246  -0.292   0.554  1.00  0.00     0.163 HD
BRANCH   4   7
ATOM      7  C   UNL     1      -2.047   1.190  -2.264  1.00  0.00     0.175 C 
BRANCH   7   8
ATOM      8  N   UNL     1      -2.130   0.068  -3.203  1.00  0.00    -0.342 N 
ATOM      9  C   UNL     1      -1.156  -0.522  -3.950  1.00  0.00     0.249 C 
ATOM     10  O   UNL     1      -1.505  -1.411  -4.734  1.00  0.00    -0.272 OA
ATOM     11  H   UNL     1      -3.029  -0.320  -3.311  1.00  0.00     0.164 HD
BRANCH   9  12
ATOM     12  C   UNL     1       0.314  -0.077  -3.875  1.00  0.00     0.207 C 
ATOM     13  C   UNL     1       1.770   1.035  -2.455  1.00  0.00     0.174 C 
ATOM     14  C   UNL     1       1.281   2.089  -3.434  1.00  0.00     0.041 C 
ATOM     15  O   UNL     1       0.818  -0.039  -2.540  1.00  0.00    -0.359 OA
ATOM     16  C   UNL     1       0.596   1.278  -4.515  1.00  0.00     0.045 C 
BRANCH  13  17
ATOM     17  C   UNL     1       1.866   1.535  -1.006  1.00  0.00     0.291 C 
BRANCH  17  18
ATOM     18  N   UNL     1       2.126   0.438  -0.067  1.00  0.00    -0.355 N 
ATOM     19  H   UNL     1       2.183   0.809   0.881  1.00  0.00     0.344 HD
ATOM     20  H   UNL     1       3.008  -0.014  -0.309  1.00  0.00     0.344 HD
ATOM     21  H   UNL     1       1.369  -0.242  -0.121  1.00  0.00     0.344 HD
ENDBRANCH  17  18
ENDBRANCH  13  17
ENDBRANCH   9  12
ENDBRANCH   7   8
BRANCH   7  22
ATOM     22  C   UNL     1      -2.714   2.471  -2.808  1.00  0.00     0.070 C 
BRANCH  22  23
ATOM     23  C   UNL     1      -4.221   2.539  -2.773  1.00  0.00    -0.045 A 
ATOM     24  C   UNL     1      -4.856   3.393  -1.860  1.00  0.00     0.004 A 
ATOM     25  C   UNL     1      -5.011   1.760  -3.630  1.00  0.00     0.004 A 
ATOM     26  C   UNL     1      -6.248   3.426  -1.767  1.00  0.00     0.000 A 
ATOM     27  C   UNL     1      -6.403   1.768  -3.511  1.00  0.00     0.000 A 
ATOM     28  C   UNL     1      -7.020   2.596  -2.575  1.00  0.00     0.000 A 
ENDBRANCH  22  23
ENDBRANCH   7  22
ENDBRANCH   4   7
ENDBRANCH   2   3
ENDBRANCH   1   2
BRANCH   1  29
ATOM     29  C   UNL     1      -5.678  -1.838   0.666  1.00  0.00     0.023 C 
BRANCH  29  30
ATOM     30  C   UNL     1      -6.647  -0.747   1.107  1.00  0.00     0.116 C 
BRANCH  30  31
ATOM     31  N   UNL     1      -7.706  -0.456   0.150  1.00  0.00    -0.352 N 
ATOM     32  C   UNL     1      -9.043  -0.221   0.390  1.00  0.00     0.251 C 
ATOM     33  H   UNL     1      -7.431  -0.424  -0.795  1.00  0.00     0.163 HD
ATOM     34  O   UNL     1      -9.815  -0.009  -0.533  1.00  0.00    -0.269 OA
BRANCH  32  35
ATOM     35  C   UNL     1      -9.530  -0.278   1.784  1.00  0.00     0.039 A 
ATOM     36  C   UNL     1     -10.575  -1.150   2.096  1.00  0.00     0.014 A 
ATOM     37  C   UNL     1      -8.887   0.450   2.788  1.00  0.00     0.014 A 
ATOM     38  C   UNL     1     -10.913  -1.362   3.434  1.00  0.00     0.010 A 
ATOM     39  C   UNL     1      -9.169   0.173   4.121  1.00  0.00     0.010 A 
ATOM     40  C   UNL     1     -10.179  -0.741   4.458  1.00  0.00    -0.014 A 
BRANCH  40  41
ATOM     41  C   UNL     1     -10.444  -1.046   5.887  1.00  0.00     0.031 A 
ATOM     42  C   UNL     1     -10.921   0.039   6.813  1.00  0.00     0.074 A 
ATOM     43  C   UNL     1     -10.190  -2.281   6.365  1.00  0.00     0.049 A 
ATOM     44  N   UNL     1     -11.159  -0.018   8.098  1.00  0.00    -0.248 NA
ATOM     45  C   UNL     1     -11.124   1.372   6.223  1.00  0.00     0.031 C 
ATOM     46  C   UNL     1      -9.657  -3.401   5.583  1.00  0.00     0.029 A 
ATOM     47  N   UNL     1     -10.339  -2.803   7.626  1.00  0.00    -0.354 N 
ATOM     48  C   UNL     1     -11.524   1.270   8.471  1.00  0.00     0.074 A 
ATOM     49  C   UNL     1     -11.418   2.099   7.290  1.00  0.00     0.031 C 
ATOM     50  C   UNL     1      -9.554  -4.482   6.374  1.00  0.00     0.029 A 
ATOM     51  C   UNL     1      -9.985  -4.128   7.723  1.00  0.00     0.049 A 
ATOM     52  H   UNL     1     -10.668  -2.277   8.390  1.00  0.00     0.167 HD
ATOM     53  C   UNL     1     -11.939   1.717   9.680  1.00  0.00     0.037 A 
ATOM     54  C   UNL     1     -10.010  -4.965   8.778  1.00  0.00     0.037 A 
ATOM     55  C   UNL     1     -12.076   0.881  10.843  1.00  0.00     0.049 A 
ATOM     56  C   UNL     1     -10.510  -4.456  10.103  1.00  0.00     0.074 A 
ATOM     57  C   UNL     1     -12.544   1.222  12.100  1.00  0.00     0.029 A 
ATOM     58  N   UNL     1     -11.749  -0.467  10.890  1.00  0.00    -0.354 N 
ATOM     59  N   UNL     1     -10.917  -3.250  10.422  1.00  0.00    -0.248 NA
ATOM     60  C   UNL     1     -10.565  -5.422  11.209  1.00  0.00     0.031 C 
ATOM     61  C   UNL     1     -12.474   0.087  12.915  1.00  0.00     0.029 A 
ATOM     62  C   UNL     1     -11.998  -0.970  12.156  1.00  0.00     0.049 A 
ATOM     63  H   UNL     1     -11.392  -0.988  10.135  1.00  0.00     0.167 HD
ATOM     64  C   UNL     1     -11.302  -3.319  11.756  1.00  0.00     0.074 A 
ATOM     65  C   UNL     1     -11.089  -4.688  12.181  1.00  0.00     0.031 C 
ATOM     66  C   UNL     1     -11.788  -2.339  12.557  1.00  0.00     0.037 A 
BRANCH  53  67
ATOM     67  C   UNL     1     -12.288   3.175   9.795  1.00  0.00     0.058 A 
ATOM     68  C   UNL     1     -13.435   3.704   9.182  1.00  0.00     0.135 A 
ATOM     69  C   UNL     1     -11.475   4.051  10.531  1.00  0.00     0.135 A 
ATOM     70  F   UNL     1     -14.237   2.913   8.451  1.00  0.00    -0.206 F 
ATOM     71  C   UNL     1     -13.746   5.057   9.264  1.00  0.00     0.059 A 
ATOM     72  C   UNL     1     -11.781   5.404  10.649  1.00  0.00     0.059 A 
ATOM     73  F   UNL     1     -10.366   3.599  11.136  1.00  0.00    -0.206 F 
ATOM     74  C   UNL     1     -12.909   5.900   9.996  1.00  0.00     0.060 A 
BRANCH  74  75
ATOM     75  S   UNL     1     -13.320   7.656  10.086  1.00  0.00     0.124 S 
ATOM     76  O   UNL     1     -12.919   8.116   8.760  1.00  0.00    -0.237 OA
ATOM     77  O   UNL     1     -14.757   7.630  10.339  1.00  0.00    -0.237 OA
ATOM     78  O   UNL     1     -12.501   8.139  11.193  1.00  0.00    -0.744 OA
ENDBRANCH  74  75
ENDBRANCH  53  67
BRANCH  54  79
ATOM     79  C   UNL     1      -9.594  -6.383   8.616  1.00  0.00     0.058 A 
ATOM     80  C   UNL     1     -10.543  -7.417   8.631  1.00  0.00     0.135 A 
ATOM     81  C   UNL     1      -8.248  -6.735   8.433  1.00  0.00     0.135 A 
ATOM     82  F   UNL     1     -11.842  -7.131   8.808  1.00  0.00    -0.206 F 
ATOM     83  C   UNL     1     -10.173  -8.750   8.488  1.00  0.00     0.059 A 
ATOM     84  C   UNL     1      -7.855  -8.059   8.265  1.00  0.00     0.059 A 
ATOM     85  F   UNL     1      -7.304  -5.782   8.394  1.00  0.00    -0.206 F 
ATOM     86  C   UNL     1      -8.825  -9.061   8.305  1.00  0.00     0.060 A 
BRANCH  86  87
ATOM     87  S   UNL     1      -8.358 -10.791   8.071  1.00  0.00     0.124 S 
ATOM     88  O   UNL     1      -8.469 -11.311   9.428  1.00  0.00    -0.237 OA
ATOM     89  O   UNL     1      -9.367 -11.257   7.124  1.00  0.00    -0.237 OA
ATOM     90  O   UNL     1      -7.003 -10.702   7.536  1.00  0.00    -0.744 OA
ENDBRANCH  86  87
ENDBRANCH  54  79
BRANCH  66  91
ATOM     91  C   UNL     1     -12.157  -2.719  13.963  1.00  0.00     0.058 A 
ATOM     92  C   UNL     1     -11.180  -2.966  14.939  1.00  0.00     0.135 A 
ATOM     93  C   UNL     1     -13.505  -2.796  14.346  1.00  0.00     0.135 A 
ATOM     94  F   UNL     1      -9.877  -2.909  14.621  1.00  0.00    -0.206 F 
ATOM     95  C   UNL     1     -11.528  -3.302  16.244  1.00  0.00     0.059 A 
ATOM     96  C   UNL     1     -13.876  -3.107  15.650  1.00  0.00     0.059 A 
ATOM     97  F   UNL     1     -14.478  -2.558  13.451  1.00  0.00    -0.206 F 
ATOM     98  C   UNL     1     -12.879  -3.371  16.589  1.00  0.00     0.060 A 
BRANCH  98  99
ATOM     99  S   UNL     1     -13.320  -3.784  18.290  1.00  0.00     0.124 S 
ATOM    100  O   UNL     1     -13.095  -5.225  18.310  1.00  0.00    -0.237 OA
ATOM    101  O   UNL     1     -12.375  -2.984  19.064  1.00  0.00    -0.237 OA
ATOM    102  O   UNL     1     -14.715  -3.363  18.390  1.00  0.00    -0.744 OA
ENDBRANCH  98  99
ENDBRANCH  66  91
ENDBRANCH  40  41
ENDBRANCH  32  35
ENDBRANCH  30  31
ENDBRANCH  29  30
ENDBRANCH   1  29
TORSDOF 20
