REMARK SMILES O=C(NCCCCNC(=O)[C@@H](c1cccc(F)c1Cl)[NH+]1CCN(c2ccccc2)CC1)c1ccc(-c2c3nc(c(-c4c(F)cc(S(=O)(=O)[O-])cc4F)c4ccc([nH]4)c(-c4c(F)cc(S(=O)(=O)[O-])cc4F)c4nc(c(-c5c(F)cc(S(=O)(=O)[O-])cc5F)c5ccc2[nH]5)C=C4)C=C3)cc1
REMARK SMILES IDX 5 1 4 2 3 3 1 4 2 5 32 7 33 8 97 9 34 10 96 11 35 12 36 13
REMARK SMILES IDX 37 14 90 15 38 16 95 17 89 18 91 19 39 20 94 21 88 22 87 23
REMARK SMILES IDX 40 25 74 26 53 27 73 28 54 29 57 30 72 31 92 32 55 33 56 34
REMARK SMILES IDX 71 36 93 37 58 38 41 39 42 40 51 41 43 42 44 43 50 44 52 45
REMARK SMILES IDX 45 46 46 47 47 48 48 49 49 50 75 51 76 52 85 53 77 54 78 55
REMARK SMILES IDX 84 56 86 57 79 58 80 59 81 60 82 61 83 62 59 63 60 64 69 65
REMARK SMILES IDX 61 66 62 67 68 68 70 69 63 70 64 71 65 72 66 73 67 74 6 75
REMARK SMILES IDX 7 76 8 77 9 78 10 80 11 81 12 82 13 83 18 84 14 85 16 86
REMARK SMILES IDX 19 87 15 88 17 89 20 90 21 91 31 92 22 94 30 95 23 96 24 97
REMARK SMILES IDX 25 98 29 99 26 100 28 101 27 102
REMARK H PARENT 3 6 91 24 57 35 8 79 20 93
REMARK Flexibility Score: inf
ROOT
ATOM      1  C   UNL     1       4.588   0.784  -2.617  1.00  0.00     0.023 C 
ENDROOT
BRANCH   1   2
ATOM      2  C   UNL     1       4.360   0.647  -1.120  1.00  0.00     0.116 C 
BRANCH   2   3
ATOM      3  N   UNL     1       2.950   0.674  -0.757  1.00  0.00    -0.352 N 
ATOM      4  O   UNL     1       1.046  -0.105   0.179  1.00  0.00    -0.269 OA
ATOM      5  C   UNL     1       2.268  -0.174   0.084  1.00  0.00     0.251 C 
ATOM      6  H   UNL     1       2.415   1.392  -1.167  1.00  0.00     0.163 HD
BRANCH   5   7
ATOM      7  C   UNL     1       3.026  -1.186   0.849  1.00  0.00     0.039 A 
ATOM      8  C   UNL     1       4.200  -0.823   1.511  1.00  0.00     0.014 A 
ATOM      9  C   UNL     1       2.584  -2.512   0.870  1.00  0.00     0.014 A 
ATOM     10  C   UNL     1       5.009  -1.806   2.060  1.00  0.00     0.010 A 
ATOM     11  C   UNL     1       3.355  -3.489   1.509  1.00  0.00     0.010 A 
ATOM     12  C   UNL     1       4.588  -3.147   2.084  1.00  0.00    -0.014 A 
BRANCH  12  13
ATOM     13  C   UNL     1       5.435  -4.137   2.795  1.00  0.00     0.031 A 
ATOM     14  C   UNL     1       6.114  -5.263   2.066  1.00  0.00     0.074 A 
ATOM     15  C   UNL     1       5.643  -3.953   4.114  1.00  0.00     0.049 A 
ATOM     16  N   UNL     1       6.942  -6.161   2.537  1.00  0.00    -0.248 NA
ATOM     17  C   UNL     1       5.826  -5.411   0.631  1.00  0.00     0.031 C 
ATOM     18  C   UNL     1       5.010  -2.906   4.924  1.00  0.00     0.029 A 
ATOM     19  N   UNL     1       6.466  -4.600   4.996  1.00  0.00    -0.354 N 
ATOM     20  C   UNL     1       7.262  -6.988   1.468  1.00  0.00     0.074 A 
ATOM     21  C   UNL     1       6.523  -6.498   0.323  1.00  0.00     0.031 C 
ATOM     22  C   UNL     1       5.520  -2.938   6.163  1.00  0.00     0.029 A 
ATOM     23  C   UNL     1       6.468  -4.042   6.252  1.00  0.00     0.049 A 
ATOM     24  H   UNL     1       7.005  -5.388   4.754  1.00  0.00     0.167 HD
ATOM     25  C   UNL     1       8.101  -8.053   1.446  1.00  0.00     0.037 A 
ATOM     26  C   UNL     1       7.150  -4.384   7.360  1.00  0.00     0.037 A 
ATOM     27  C   UNL     1       8.845  -8.520   2.590  1.00  0.00     0.049 A 
ATOM     28  C   UNL     1       8.096  -5.545   7.295  1.00  0.00     0.074 A 
ATOM     29  C   UNL     1       9.720  -9.590   2.671  1.00  0.00     0.029 A 
ATOM     30  N   UNL     1       8.810  -7.939   3.850  1.00  0.00    -0.354 N 
ATOM     31  N   UNL     1       8.380  -6.316   6.274  1.00  0.00    -0.248 NA
ATOM     32  C   UNL     1       8.809  -5.887   8.532  1.00  0.00     0.031 C 
ATOM     33  C   UNL     1      10.195  -9.671   3.986  1.00  0.00     0.029 A 
ATOM     34  C   UNL     1       9.643  -8.631   4.715  1.00  0.00     0.049 A 
ATOM     35  H   UNL     1       8.272  -7.152   4.093  1.00  0.00     0.167 HD
ATOM     36  C   UNL     1       9.296  -7.245   6.746  1.00  0.00     0.074 A 
ATOM     37  C   UNL     1       9.550  -6.912   8.135  1.00  0.00     0.031 C 
ATOM     38  C   UNL     1       9.865  -8.290   6.097  1.00  0.00     0.037 A 
BRANCH  25  39
ATOM     39  C   UNL     1       8.261  -8.796   0.148  1.00  0.00     0.058 A 
ATOM     40  C   UNL     1       9.023  -8.274  -0.908  1.00  0.00     0.135 A 
ATOM     41  C   UNL     1       7.704 -10.075  -0.016  1.00  0.00     0.135 A 
ATOM     42  F   UNL     1       9.564  -7.049  -0.810  1.00  0.00    -0.206 F 
ATOM     43  C   UNL     1       9.219  -8.988  -2.087  1.00  0.00     0.059 A 
ATOM     44  C   UNL     1       7.904 -10.816  -1.178  1.00  0.00     0.059 A 
ATOM     45  F   UNL     1       6.966 -10.621   0.963  1.00  0.00    -0.206 F 
ATOM     46  C   UNL     1       8.657 -10.260  -2.212  1.00  0.00     0.060 A 
BRANCH  46  47
ATOM     47  S   UNL     1       8.943 -11.188  -3.735  1.00  0.00     0.124 S 
ATOM     48  O   UNL     1       8.054 -10.500  -4.666  1.00  0.00    -0.237 OA
ATOM     49  O   UNL     1      10.371 -10.990  -3.960  1.00  0.00    -0.237 OA
ATOM     50  O   UNL     1       8.551 -12.549  -3.383  1.00  0.00    -0.744 OA
ENDBRANCH  46  47
ENDBRANCH  25  39
BRANCH  26  51
ATOM     51  C   UNL     1       6.944  -3.621   8.617  1.00  0.00     0.058 A 
ATOM     52  C   UNL     1       7.939  -2.776   9.127  1.00  0.00     0.135 A 
ATOM     53  C   UNL     1       5.728  -3.700   9.314  1.00  0.00     0.135 A 
ATOM     54  F   UNL     1       9.117  -2.668   8.495  1.00  0.00    -0.206 F 
ATOM     55  C   UNL     1       7.742  -2.046  10.295  1.00  0.00     0.059 A 
ATOM     56  C   UNL     1       5.498  -2.961  10.468  1.00  0.00     0.059 A 
ATOM     57  F   UNL     1       4.737  -4.479   8.852  1.00  0.00    -0.206 F 
ATOM     58  C   UNL     1       6.517  -2.145  10.958  1.00  0.00     0.060 A 
BRANCH  58  59
ATOM     59  S   UNL     1       6.241  -1.157  12.444  1.00  0.00     0.124 S 
ATOM     60  O   UNL     1       6.905  -1.966  13.459  1.00  0.00    -0.237 OA
ATOM     61  O   UNL     1       6.892   0.105  12.107  1.00  0.00    -0.237 OA
ATOM     62  O   UNL     1       4.785  -1.095  12.534  1.00  0.00    -0.744 OA
ENDBRANCH  58  59
ENDBRANCH  26  51
BRANCH  38  63
ATOM     63  C   UNL     1      10.806  -9.142   6.897  1.00  0.00     0.058 A 
ATOM     64  C   UNL     1      10.328 -10.046   7.859  1.00  0.00     0.135 A 
ATOM     65  C   UNL     1      12.193  -9.052   6.707  1.00  0.00     0.135 A 
ATOM     66  F   UNL     1       9.009 -10.161   8.082  1.00  0.00    -0.206 F 
ATOM     67  C   UNL     1      11.197 -10.805   8.635  1.00  0.00     0.059 A 
ATOM     68  C   UNL     1      13.079  -9.818   7.456  1.00  0.00     0.059 A 
ATOM     69  F   UNL     1      12.697  -8.208   5.792  1.00  0.00    -0.206 F 
ATOM     70  C   UNL     1      12.572 -10.677   8.431  1.00  0.00     0.060 A 
BRANCH  70  71
ATOM     71  S   UNL     1      13.696 -11.659   9.447  1.00  0.00     0.124 S 
ATOM     72  O   UNL     1      13.710 -10.893  10.689  1.00  0.00    -0.237 OA
ATOM     73  O   UNL     1      13.021 -12.952   9.507  1.00  0.00    -0.237 OA
ATOM     74  O   UNL     1      14.940 -11.644   8.683  1.00  0.00    -0.744 OA
ENDBRANCH  70  71
ENDBRANCH  38  63
ENDBRANCH  12  13
ENDBRANCH   5   7
ENDBRANCH   2   3
ENDBRANCH   1   2
BRANCH   1  75
ATOM     75  C   UNL     1       4.074   2.087  -3.221  1.00  0.00     0.023 C 
BRANCH  75  76
ATOM     76  C   UNL     1       4.613   3.357  -2.568  1.00  0.00     0.116 C 
BRANCH  76  77
ATOM     77  N   UNL     1       6.063   3.425  -2.574  1.00  0.00    -0.351 N 
ATOM     78  C   UNL     1       6.878   4.327  -3.208  1.00  0.00     0.283 C 
ATOM     79  H   UNL     1       6.524   2.730  -2.051  1.00  0.00     0.163 HD
ATOM     80  O   UNL     1       8.080   4.330  -2.922  1.00  0.00    -0.268 OA
BRANCH  78  81
ATOM     81  C   UNL     1       6.279   5.403  -4.189  1.00  0.00     0.307 C 
BRANCH  81  82
ATOM     82  C   UNL     1       5.610   4.701  -5.419  1.00  0.00     0.041 A 
ATOM     83  C   UNL     1       4.557   5.301  -6.137  1.00  0.00     0.012 A 
ATOM     84  C   UNL     1       6.049   3.458  -5.956  1.00  0.00     0.086 A 
ATOM     85  C   UNL     1       3.869   4.668  -7.183  1.00  0.00     0.004 A 
ATOM     86  C   UNL     1       5.323   2.805  -6.973  1.00  0.00     0.142 A 
ATOM     87  Cl  UNL     1       7.521   2.660  -5.508  1.00  0.00    -0.081 Cl
ATOM     88  C   UNL     1       4.223   3.392  -7.570  1.00  0.00     0.041 A 
ATOM     89  F   UNL     1       5.688   1.586  -7.399  1.00  0.00    -0.205 F 
ENDBRANCH  81  82
BRANCH  81  90
ATOM     90  N   UNL     1       5.452   6.339  -3.302  1.00  0.00    -0.318 N 
ATOM     91  C   UNL     1       6.243   6.755  -2.076  1.00  0.00     0.284 C 
ATOM     92  C   UNL     1       5.014   7.636  -3.871  1.00  0.00     0.284 C 
ATOM     93  H   UNL     1       4.629   5.760  -3.134  1.00  0.00     0.349 HD
ATOM     94  C   UNL     1       7.447   7.700  -2.353  1.00  0.00     0.178 C 
ATOM     95  C   UNL     1       6.143   8.599  -4.275  1.00  0.00     0.178 C 
ATOM     96  N   UNL     1       7.002   8.876  -3.123  1.00  0.00    -0.360 N 
BRANCH  96  97
ATOM     97  C   UNL     1       6.997  10.112  -2.499  1.00  0.00     0.037 A 
ATOM     98  C   UNL     1       8.188  10.636  -1.976  1.00  0.00     0.026 A 
ATOM     99  C   UNL     1       5.838  10.889  -2.365  1.00  0.00     0.026 A 
ATOM    100  C   UNL     1       8.227  11.890  -1.360  1.00  0.00     0.002 A 
ATOM    101  C   UNL     1       5.866  12.139  -1.737  1.00  0.00     0.002 A 
ATOM    102  C   UNL     1       7.064  12.642  -1.240  1.00  0.00     0.000 A 
ENDBRANCH  96  97
ENDBRANCH  81  90
ENDBRANCH  78  81
ENDBRANCH  76  77
ENDBRANCH  75  76
ENDBRANCH   1  75
TORSDOF 17
