REMARK SMILES O=C(NCCCCNC(=O)c1nn(-c2ccc(Br)cc2F)cc1CCCO)c1ccc(-c2c3nc(c(-c4c(F)cc(S(=O)(=O)[O-])cc4F)c4ccc([nH]4)c(-c4c(F)cc(S(=O)(=O)[O-])cc4F)c4nc(c(-c5c(F)cc(S(=O)(=O)[O-])cc5F)c5ccc2[nH]5)C=C4)C=C3)cc1
REMARK SMILES IDX 6 1 5 2 4 3 3 4 1 5 2 6 28 8 29 9 93 10 30 11 92 12 31 13
REMARK SMILES IDX 32 14 33 15 86 16 34 17 91 18 85 19 87 20 35 21 90 22 84 23
REMARK SMILES IDX 83 24 36 26 70 27 49 28 69 29 50 30 53 31 68 32 88 33 51 34
REMARK SMILES IDX 52 35 67 37 89 38 54 39 37 40 38 41 47 42 39 43 40 44 46 45
REMARK SMILES IDX 48 46 41 47 42 48 43 49 44 50 45 51 71 52 72 53 81 54 73 55
REMARK SMILES IDX 74 56 80 57 82 58 75 59 76 60 77 61 78 62 79 63 55 64 56 65
REMARK SMILES IDX 65 66 57 67 58 68 64 69 66 70 59 71 60 72 61 73 62 74 63 75
REMARK SMILES IDX 7 76 8 77 9 78 10 80 11 81 12 82 23 83 13 84 22 85 24 86
REMARK SMILES IDX 25 87 26 88 27 89 14 91 15 92 20 93 16 94 19 95 21 96 17 97
REMARK SMILES IDX 18 98
REMARK H PARENT 3 7 87 25 53 36 8 79 27 90
REMARK Flexibility Score: inf
ROOT
ATOM      1  C   UNL     1       4.211  -1.961   2.960  1.00  0.00     0.023 C 
ENDROOT
BRANCH   1   2
ATOM      2  C   UNL     1       4.752  -0.806   2.107  1.00  0.00     0.023 C 
BRANCH   2   3
ATOM      3  C   UNL     1       4.594  -0.962   0.596  1.00  0.00     0.116 C 
BRANCH   3   4
ATOM      4  N   UNL     1       3.235  -1.140   0.136  1.00  0.00    -0.352 N 
ATOM      5  O   UNL     1       1.171  -0.795  -0.573  1.00  0.00    -0.269 OA
ATOM      6  C   UNL     1       2.170  -0.300  -0.043  1.00  0.00     0.251 C 
ATOM      7  H   UNL     1       3.030  -2.073  -0.101  1.00  0.00     0.163 HD
BRANCH   6   8
ATOM      8  C   UNL     1       2.122   1.120   0.398  1.00  0.00     0.039 A 
ATOM      9  C   UNL     1       3.231   1.925   0.666  1.00  0.00     0.014 A 
ATOM     10  C   UNL     1       0.839   1.681   0.531  1.00  0.00     0.014 A 
ATOM     11  C   UNL     1       3.065   3.231   1.125  1.00  0.00     0.010 A 
ATOM     12  C   UNL     1       0.667   2.993   0.964  1.00  0.00     0.010 A 
ATOM     13  C   UNL     1       1.784   3.763   1.284  1.00  0.00    -0.014 A 
BRANCH  13  14
ATOM     14  C   UNL     1       1.664   5.170   1.667  1.00  0.00     0.031 A 
ATOM     15  C   UNL     1       2.136   6.170   0.661  1.00  0.00     0.074 A 
ATOM     16  C   UNL     1       1.001   5.592   2.762  1.00  0.00     0.049 A 
ATOM     17  N   UNL     1       3.022   7.105   0.797  1.00  0.00    -0.248 NA
ATOM     18  C   UNL     1       1.575   6.075  -0.696  1.00  0.00     0.031 C 
ATOM     19  C   UNL     1       0.186   4.789   3.676  1.00  0.00     0.029 A 
ATOM     20  N   UNL     1       0.818   6.867   3.216  1.00  0.00    -0.354 N 
ATOM     21  C   UNL     1       3.002   7.835  -0.392  1.00  0.00     0.074 A 
ATOM     22  C   UNL     1       2.183   7.089  -1.313  1.00  0.00     0.031 C 
ATOM     23  C   UNL     1      -0.573   5.615   4.429  1.00  0.00     0.029 A 
ATOM     24  C   UNL     1      -0.212   6.993   4.137  1.00  0.00     0.049 A 
ATOM     25  H   UNL     1       1.367   7.627   2.916  1.00  0.00     0.167 HD
ATOM     26  C   UNL     1       3.512   9.095  -0.494  1.00  0.00     0.037 A 
ATOM     27  C   UNL     1      -0.784   8.145   4.565  1.00  0.00     0.037 A 
ATOM     28  C   UNL     1       4.396   9.411   0.595  1.00  0.00     0.049 A 
ATOM     29  C   UNL     1       0.158   9.258   4.284  1.00  0.00     0.074 A 
ATOM     30  C   UNL     1       5.573   8.880   1.085  1.00  0.00     0.029 A 
ATOM     31  N   UNL     1       3.949  10.274   1.564  1.00  0.00    -0.354 N 
ATOM     32  N   UNL     1       1.300   9.433   4.888  1.00  0.00    -0.248 NA
ATOM     33  C   UNL     1      -0.011  10.008   3.048  1.00  0.00     0.031 C 
ATOM     34  C   UNL     1       5.514   9.079   2.495  1.00  0.00     0.029 A 
ATOM     35  C   UNL     1       4.314   9.736   2.771  1.00  0.00     0.049 A 
ATOM     36  H   UNL     1       3.460  11.116   1.421  1.00  0.00     0.167 HD
ATOM     37  C   UNL     1       2.135   9.975   3.923  1.00  0.00     0.074 A 
ATOM     38  C   UNL     1       1.244  10.416   2.856  1.00  0.00     0.031 C 
ATOM     39  C   UNL     1       3.484   9.768   3.954  1.00  0.00     0.037 A 
BRANCH  26  40
ATOM     40  C   UNL     1       2.976  10.165  -1.417  1.00  0.00     0.058 A 
ATOM     41  C   UNL     1       3.716  11.350  -1.622  1.00  0.00     0.135 A 
ATOM     42  C   UNL     1       1.639  10.195  -1.872  1.00  0.00     0.135 A 
ATOM     43  F   UNL     1       4.995  11.434  -1.222  1.00  0.00    -0.206 F 
ATOM     44  C   UNL     1       3.146  12.503  -2.163  1.00  0.00     0.059 A 
ATOM     45  C   UNL     1       1.068  11.317  -2.464  1.00  0.00     0.059 A 
ATOM     46  F   UNL     1       0.799   9.173  -1.668  1.00  0.00    -0.206 F 
ATOM     47  C   UNL     1       1.813  12.482  -2.560  1.00  0.00     0.060 A 
BRANCH  47  48
ATOM     48  S   UNL     1       1.031  14.005  -3.124  1.00  0.00     0.124 S 
ATOM     49  O   UNL     1       0.898  14.740  -1.871  1.00  0.00    -0.237 OA
ATOM     50  O   UNL     1       2.015  14.524  -4.069  1.00  0.00    -0.237 OA
ATOM     51  O   UNL     1      -0.217  13.539  -3.721  1.00  0.00    -0.744 OA
ENDBRANCH  47  48
ENDBRANCH  26  40
BRANCH  27  52
ATOM     52  C   UNL     1      -2.206   8.378   4.928  1.00  0.00     0.058 A 
ATOM     53  C   UNL     1      -2.603   9.540   5.614  1.00  0.00     0.135 A 
ATOM     54  C   UNL     1      -3.243   7.598   4.377  1.00  0.00     0.135 A 
ATOM     55  F   UNL     1      -1.682  10.358   6.146  1.00  0.00    -0.206 F 
ATOM     56  C   UNL     1      -3.943   9.927   5.711  1.00  0.00     0.059 A 
ATOM     57  C   UNL     1      -4.586   7.953   4.477  1.00  0.00     0.059 A 
ATOM     58  F   UNL     1      -2.978   6.510   3.639  1.00  0.00    -0.206 F 
ATOM     59  C   UNL     1      -4.928   9.134   5.123  1.00  0.00     0.060 A 
BRANCH  59  60
ATOM     60  S   UNL     1      -6.639   9.714   5.093  1.00  0.00     0.124 S 
ATOM     61  O   UNL     1      -7.025   9.588   6.494  1.00  0.00    -0.237 OA
ATOM     62  O   UNL     1      -6.494  11.076   4.590  1.00  0.00    -0.237 OA
ATOM     63  O   UNL     1      -7.297   8.784   4.178  1.00  0.00    -0.744 OA
ENDBRANCH  59  60
ENDBRANCH  27  52
BRANCH  39  64
ATOM     64  C   UNL     1       4.104   9.262   5.229  1.00  0.00     0.058 A 
ATOM     65  C   UNL     1       3.819   8.011   5.801  1.00  0.00     0.135 A 
ATOM     66  C   UNL     1       5.142  10.011   5.805  1.00  0.00     0.135 A 
ATOM     67  F   UNL     1       2.920   7.186   5.246  1.00  0.00    -0.206 F 
ATOM     68  C   UNL     1       4.507   7.545   6.922  1.00  0.00     0.059 A 
ATOM     69  C   UNL     1       5.864   9.551   6.903  1.00  0.00     0.059 A 
ATOM     70  F   UNL     1       5.505  11.187   5.264  1.00  0.00    -0.206 F 
ATOM     71  C   UNL     1       5.532   8.320   7.464  1.00  0.00     0.060 A 
BRANCH  71  72
ATOM     72  S   UNL     1       6.487   7.666   8.851  1.00  0.00     0.124 S 
ATOM     73  O   UNL     1       5.554   7.815   9.963  1.00  0.00    -0.237 OA
ATOM     74  O   UNL     1       6.760   6.294   8.431  1.00  0.00    -0.237 OA
ATOM     75  O   UNL     1       7.659   8.537   8.898  1.00  0.00    -0.744 OA
ENDBRANCH  71  72
ENDBRANCH  39  64
ENDBRANCH  13  14
ENDBRANCH   6   8
ENDBRANCH   3   4
ENDBRANCH   2   3
ENDBRANCH   1   2
BRANCH   1  76
ATOM     76  C   UNL     1       4.589  -3.372   2.507  1.00  0.00     0.116 C 
BRANCH  76  77
ATOM     77  N   UNL     1       6.018  -3.517   2.293  1.00  0.00    -0.351 N 
ATOM     78  C   UNL     1       6.857  -4.510   2.718  1.00  0.00     0.272 C 
ATOM     79  H   UNL     1       6.442  -2.800   1.768  1.00  0.00     0.163 HD
ATOM     80  O   UNL     1       8.062  -4.388   2.470  1.00  0.00    -0.267 OA
BRANCH  78  81
ATOM     81  C   UNL     1       6.309  -5.625   3.492  1.00  0.00     0.153 A 
ATOM     82  N   UNL     1       5.400  -6.465   2.958  1.00  0.00    -0.162 NA
ATOM     83  C   UNL     1       6.609  -5.978   4.840  1.00  0.00     0.004 A 
ATOM     84  N   UNL     1       4.952  -7.199   4.002  1.00  0.00    -0.237 N 
ATOM     85  C   UNL     1       5.673  -6.948   5.142  1.00  0.00     0.119 A 
BRANCH  83  86
ATOM     86  C   UNL     1       7.591  -5.366   5.788  1.00  0.00     0.042 C 
BRANCH  86  87
ATOM     87  C   UNL     1       9.033  -5.872   5.659  1.00  0.00     0.033 C 
BRANCH  87  88
ATOM     88  C   UNL     1       9.903  -5.176   4.619  1.00  0.00     0.156 C 
BRANCH  88  89
ATOM     89  O   UNL     1       9.696  -3.772   4.628  1.00  0.00    -0.396 OA
ATOM     90  H   UNL     1       8.770  -3.580   4.416  1.00  0.00     0.210 HD
ENDBRANCH  88  89
ENDBRANCH  87  88
ENDBRANCH  86  87
ENDBRANCH  83  86
BRANCH  84  91
ATOM     91  C   UNL     1       3.866  -8.087   3.836  1.00  0.00     0.100 A 
ATOM     92  C   UNL     1       3.669  -8.712   2.596  1.00  0.00     0.032 A 
ATOM     93  C   UNL     1       2.973  -8.331   4.881  1.00  0.00     0.149 A 
ATOM     94  C   UNL     1       2.603  -9.600   2.426  1.00  0.00     0.018 A 
ATOM     95  C   UNL     1       1.882  -9.178   4.699  1.00  0.00     0.057 A 
ATOM     96  F   UNL     1       3.090  -7.703   6.059  1.00  0.00    -0.205 F 
ATOM     97  C   UNL     1       1.709  -9.819   3.474  1.00  0.00     0.021 A 
ATOM     98  Br  UNL     1       0.246 -10.992   3.228  1.00  0.00    -0.051 Br
ENDBRANCH  84  91
ENDBRANCH  78  81
ENDBRANCH  76  77
ENDBRANCH   1  76
TORSDOF 19
