REMARK SMILES COC[C@@H](C)[C@@](O)(C(=O)NCCCCNC(=O)c1ccc(-c2c3nc(c(-c4c(F)cc(S(=O)(=O)[O-])cc4F)c4ccc([nH]4)c(-c4c(F)cc(S(=O)(=O)[O-])cc4F)c4nc(c(-c5c(F)cc(S(=O)(=O)[O-])cc5F)c5ccc2[nH]5)C=C4)C=C3)cc1)C(C)C
REMARK SMILES IDX 12 1 11 2 10 3 8 4 9 5 6 7 4 8 5 9 3 10 2 11 1 12 7 13 84 15
REMARK SMILES IDX 85 16 86 17 13 18 14 19 15 20 16 21 17 23 18 24 19 25 83 26
REMARK SMILES IDX 20 27 82 28 21 29 22 30 23 31 76 32 24 33 81 34 75 35 77 36
REMARK SMILES IDX 25 37 80 38 74 39 73 40 26 42 60 43 39 44 59 45 40 46 43 47
REMARK SMILES IDX 58 48 78 49 41 50 42 51 57 53 79 54 44 55 27 56 28 57 37 58
REMARK SMILES IDX 29 59 30 60 36 61 38 62 31 63 32 64 33 65 34 66 35 67 61 68
REMARK SMILES IDX 62 69 71 70 63 71 64 72 70 73 72 74 65 75 66 76 67 77 68 78
REMARK SMILES IDX 69 79 45 80 46 81 55 82 47 83 48 84 54 85 56 86 49 87 50 88
REMARK SMILES IDX 51 89 52 90 53 91
REMARK H PARENT 10 6 7 14 15 22 77 41 43 52
REMARK Flexibility Score: inf
ROOT
ATOM      1  C   UNL     1      -2.644  -1.644   3.266  1.00  0.00     0.023 C 
ENDROOT
BRANCH   1   2
ATOM      2  C   UNL     1      -1.883  -1.149   4.499  1.00  0.00     0.116 C 
BRANCH   2   3
ATOM      3  N   UNL     1      -0.795  -2.041   4.851  1.00  0.00    -0.354 N 
ATOM      4  C   UNL     1       0.557  -1.905   4.715  1.00  0.00     0.252 C 
ATOM      5  O   UNL     1       1.235  -2.835   5.167  1.00  0.00    -0.272 OA
ATOM      6  H   UNL     1      -1.081  -2.890   5.258  1.00  0.00     0.163 HD
BRANCH   4   7
ATOM      7  C   UNL     1       1.214  -0.658   4.003  1.00  0.00     0.150 C 
BRANCH   7   8
ATOM      8  C   UNL     1       0.706  -0.537   2.526  1.00  0.00     0.053 C 
ATOM      9  C   UNL     1       0.941  -1.794   1.678  1.00  0.00     0.014 C 
BRANCH   8  10
ATOM     10  C   UNL     1       1.138   0.745   1.796  1.00  0.00     0.166 C 
BRANCH  10  11
ATOM     11  O   UNL     1       0.374   0.993   0.612  1.00  0.00    -0.384 OA
ATOM     12  C   UNL     1       0.946   0.470  -0.579  1.00  0.00     0.194 C 
ENDBRANCH  10  11
ENDBRANCH   8  10
ENDBRANCH   7   8
BRANCH   7  13
ATOM     13  O   UNL     1       0.699   0.455   4.774  1.00  0.00    -0.379 OA
ATOM     14  H   UNL     1      -0.261   0.517   4.651  1.00  0.00     0.212 HD
ENDBRANCH   7  13
BRANCH   7  15
ATOM     15  C   UNL     1       2.773  -0.706   4.243  1.00  0.00     0.025 C 
ATOM     16  C   UNL     1       3.527  -1.791   3.463  1.00  0.00     0.011 C 
ATOM     17  C   UNL     1       3.533   0.618   4.063  1.00  0.00     0.011 C 
ENDBRANCH   7  15
ENDBRANCH   4   7
ENDBRANCH   2   3
ENDBRANCH   1   2
BRANCH   1  18
ATOM     18  C   UNL     1      -3.428  -2.938   3.473  1.00  0.00     0.023 C 
BRANCH  18  19
ATOM     19  C   UNL     1      -4.450  -2.890   4.597  1.00  0.00     0.116 C 
BRANCH  19  20
ATOM     20  N   UNL     1      -5.431  -1.831   4.425  1.00  0.00    -0.352 N 
ATOM     21  C   UNL     1      -6.788  -1.871   4.642  1.00  0.00     0.251 C 
ATOM     22  H   UNL     1      -5.075  -0.968   4.110  1.00  0.00     0.163 HD
ATOM     23  O   UNL     1      -7.492  -0.928   4.309  1.00  0.00    -0.269 OA
BRANCH  21  24
ATOM     24  C   UNL     1      -7.386  -3.078   5.254  1.00  0.00     0.039 A 
ATOM     25  C   UNL     1      -8.565  -3.597   4.713  1.00  0.00     0.014 A 
ATOM     26  C   UNL     1      -6.780  -3.699   6.349  1.00  0.00     0.014 A 
ATOM     27  C   UNL     1      -9.111  -4.764   5.248  1.00  0.00     0.010 A 
ATOM     28  C   UNL     1      -7.272  -4.911   6.817  1.00  0.00     0.010 A 
ATOM     29  C   UNL     1      -8.458  -5.443   6.291  1.00  0.00    -0.014 A 
BRANCH  29  30
ATOM     30  C   UNL     1      -9.028  -6.680   6.881  1.00  0.00     0.031 A 
ATOM     31  C   UNL     1      -9.449  -6.692   8.327  1.00  0.00     0.074 A 
ATOM     32  C   UNL     1      -9.123  -7.799   6.137  1.00  0.00     0.049 A 
ATOM     33  N   UNL     1      -9.940  -7.674   9.038  1.00  0.00    -0.248 NA
ATOM     34  C   UNL     1      -9.262  -5.442   9.084  1.00  0.00     0.031 C 
ATOM     35  C   UNL     1      -8.703  -7.925   4.740  1.00  0.00     0.029 A 
ATOM     36  N   UNL     1      -9.604  -9.044   6.452  1.00  0.00    -0.354 N 
ATOM     37  C   UNL     1     -10.098  -7.168  10.324  1.00  0.00     0.074 A 
ATOM     38  C   UNL     1      -9.591  -5.814  10.311  1.00  0.00     0.031 C 
ATOM     39  C   UNL     1      -8.981  -9.166   4.308  1.00  0.00     0.029 A 
ATOM     40  C   UNL     1      -9.563  -9.934   5.405  1.00  0.00     0.049 A 
ATOM     41  H   UNL     1      -9.945  -9.279   7.345  1.00  0.00     0.167 HD
ATOM     42  C   UNL     1     -10.641  -7.766  11.411  1.00  0.00     0.037 A 
ATOM     43  C   UNL     1      -9.959 -11.220   5.336  1.00  0.00     0.037 A 
ATOM     44  C   UNL     1     -11.171  -9.105  11.405  1.00  0.00     0.049 A 
ATOM     45  C   UNL     1     -10.571 -11.862   6.552  1.00  0.00     0.074 A 
ATOM     46  C   UNL     1     -11.802  -9.785  12.431  1.00  0.00     0.029 A 
ATOM     47  N   UNL     1     -11.128  -9.968  10.320  1.00  0.00    -0.354 N 
ATOM     48  N   UNL     1     -10.777 -11.348   7.742  1.00  0.00    -0.248 NA
ATOM     49  C   UNL     1     -11.016 -13.254   6.412  1.00  0.00     0.031 C 
ATOM     50  C   UNL     1     -12.094 -11.078  11.983  1.00  0.00     0.029 A 
ATOM     51  C   UNL     1     -11.702 -11.182  10.657  1.00  0.00     0.049 A 
ATOM     52  H   UNL     1     -10.745  -9.750   9.439  1.00  0.00     0.167 HD
ATOM     53  C   UNL     1     -11.416 -12.341   8.479  1.00  0.00     0.074 A 
ATOM     54  C   UNL     1     -11.561 -13.482   7.599  1.00  0.00     0.031 C 
ATOM     55  C   UNL     1     -11.850 -12.306   9.764  1.00  0.00     0.037 A 
BRANCH  42  56
ATOM     56  C   UNL     1     -10.678  -6.977  12.693  1.00  0.00     0.058 A 
ATOM     57  C   UNL     1     -11.485  -5.836  12.842  1.00  0.00     0.135 A 
ATOM     58  C   UNL     1      -9.895  -7.368  13.791  1.00  0.00     0.135 A 
ATOM     59  F   UNL     1     -12.244  -5.405  11.821  1.00  0.00    -0.206 F 
ATOM     60  C   UNL     1     -11.477  -5.085  14.013  1.00  0.00     0.059 A 
ATOM     61  C   UNL     1      -9.898  -6.652  14.985  1.00  0.00     0.059 A 
ATOM     62  F   UNL     1      -9.107  -8.451  13.709  1.00  0.00    -0.206 F 
ATOM     63  C   UNL     1     -10.676  -5.498  15.078  1.00  0.00     0.060 A 
BRANCH  63  64
ATOM     64  S   UNL     1     -10.661  -4.503  16.583  1.00  0.00     0.124 S 
ATOM     65  O   UNL     1      -9.893  -3.338  16.153  1.00  0.00    -0.237 OA
ATOM     66  O   UNL     1     -12.082  -4.272  16.819  1.00  0.00    -0.237 OA
ATOM     67  O   UNL     1      -9.999  -5.367  17.556  1.00  0.00    -0.744 OA
ENDBRANCH  63  64
ENDBRANCH  42  56
BRANCH  43  68
ATOM     68  C   UNL     1      -9.842 -11.964   4.053  1.00  0.00     0.058 A 
ATOM     69  C   UNL     1     -10.985 -12.299   3.311  1.00  0.00     0.135 A 
ATOM     70  C   UNL     1      -8.593 -12.335   3.531  1.00  0.00     0.135 A 
ATOM     71  F   UNL     1     -12.202 -11.972   3.771  1.00  0.00    -0.206 F 
ATOM     72  C   UNL     1     -10.896 -12.986   2.105  1.00  0.00     0.059 A 
ATOM     73  C   UNL     1      -8.477 -12.999   2.314  1.00  0.00     0.059 A 
ATOM     74  F   UNL     1      -7.468 -12.023   4.194  1.00  0.00    -0.206 F 
ATOM     75  C   UNL     1      -9.636 -13.327   1.611  1.00  0.00     0.060 A 
BRANCH  75  76
ATOM     76  S   UNL     1      -9.532 -14.166   0.016  1.00  0.00     0.124 S 
ATOM     77  O   UNL     1     -10.044 -15.491   0.345  1.00  0.00    -0.237 OA
ATOM     78  O   UNL     1     -10.395 -13.338  -0.821  1.00  0.00    -0.237 OA
ATOM     79  O   UNL     1      -8.110 -14.101  -0.306  1.00  0.00    -0.744 OA
ENDBRANCH  75  76
ENDBRANCH  43  68
BRANCH  55  80
ATOM     80  C   UNL     1     -12.582 -13.516  10.281  1.00  0.00     0.058 A 
ATOM     81  C   UNL     1     -11.929 -14.732  10.537  1.00  0.00     0.135 A 
ATOM     82  C   UNL     1     -13.957 -13.441  10.559  1.00  0.00     0.135 A 
ATOM     83  F   UNL     1     -10.616 -14.860  10.287  1.00  0.00    -0.206 F 
ATOM     84  C   UNL     1     -12.620 -15.840  11.016  1.00  0.00     0.059 A 
ATOM     85  C   UNL     1     -14.661 -14.526  11.069  1.00  0.00     0.059 A 
ATOM     86  F   UNL     1     -14.629 -12.298  10.346  1.00  0.00    -0.206 F 
ATOM     87  C   UNL     1     -13.987 -15.728  11.278  1.00  0.00     0.060 A 
BRANCH  87  88
ATOM     88  S   UNL     1     -14.870 -17.169  11.911  1.00  0.00     0.124 S 
ATOM     89  O   UNL     1     -14.953 -18.009  10.721  1.00  0.00    -0.237 OA
ATOM     90  O   UNL     1     -13.978 -17.645  12.963  1.00  0.00    -0.237 OA
ATOM     91  O   UNL     1     -16.138 -16.613  12.377  1.00  0.00    -0.744 OA
ENDBRANCH  87  88
ENDBRANCH  55  80
ENDBRANCH  29  30
ENDBRANCH  21  24
ENDBRANCH  19  20
ENDBRANCH  18  19
ENDBRANCH   1  18
TORSDOF 19
