REMARK SMILES Cc1nc(CSCC(=O)N2CCCC[C@@H]2C(=O)NCCCCNC(=O)c2ccc(-c3c4nc(c(-c5c(F)cc(S(=O)(=O)[O-])cc5F)c5ccc([nH]5)c(-c5c(F)cc(S(=O)(=O)[O-])cc5F)c5nc(c(-c6c(F)cc(S(=O)(=O)[O-])cc6F)c6ccc3[nH]6)C=C5)C=C4)cc2)cs1
REMARK SMILES IDX 19 1 18 2 16 3 17 4 15 6 10 7 11 8 12 9 14 10 13 11 8 12
REMARK SMILES IDX 9 13 7 14 6 15 5 16 4 17 1 18 2 19 3 20 93 21 92 22 20 23
REMARK SMILES IDX 21 24 22 25 23 26 24 27 25 29 26 30 27 31 91 32 28 33 90 34
REMARK SMILES IDX 29 35 30 36 31 37 84 38 32 39 89 40 83 41 85 42 33 43 88 44
REMARK SMILES IDX 82 45 81 46 34 48 68 49 47 50 67 51 48 52 51 53 66 54 86 55
REMARK SMILES IDX 49 56 50 57 65 59 87 60 52 61 35 62 36 63 45 64 37 65 38 66
REMARK SMILES IDX 44 67 46 68 39 69 40 70 41 71 42 72 43 73 69 74 70 75 79 76
REMARK SMILES IDX 71 77 72 78 78 79 80 80 73 81 74 82 75 83 76 84 77 85 53 86
REMARK SMILES IDX 54 87 63 88 55 89 56 90 62 91 64 92 57 93 58 94 59 95 60 96
REMARK SMILES IDX 61 97
REMARK H PARENT 18 5 23 28 85 47 51 58
REMARK Flexibility Score: inf
ROOT
ATOM      1  C   UNL     1       0.928  -5.239   0.060  1.00  0.00     0.116 C 
ENDROOT
BRANCH   1   2
ATOM      2  N   UNL     1       2.263  -4.700   0.276  1.00  0.00    -0.354 N 
ATOM      3  C   UNL     1       3.324  -4.617  -0.579  1.00  0.00     0.242 C 
ATOM      4  O   UNL     1       4.386  -4.188  -0.117  1.00  0.00    -0.273 OA
ATOM      5  H   UNL     1       2.425  -4.339   1.178  1.00  0.00     0.163 HD
BRANCH   3   6
ATOM      6  C   UNL     1       3.279  -5.246  -1.988  1.00  0.00     0.174 C 
ATOM      7  N   UNL     1       2.033  -5.025  -2.755  1.00  0.00    -0.330 N 
ATOM      8  C   UNL     1       1.738  -5.993  -3.810  1.00  0.00     0.120 C 
ATOM      9  C   UNL     1       1.779  -7.428  -3.323  1.00  0.00     0.022 C 
ATOM     10  C   UNL     1       3.530  -6.753  -1.672  1.00  0.00     0.035 C 
ATOM     11  C   UNL     1       3.155  -7.739  -2.764  1.00  0.00     0.004 C 
BRANCH   7  12
ATOM     12  C   UNL     1       1.362  -3.812  -2.901  1.00  0.00     0.233 C 
ATOM     13  O   UNL     1       0.126  -3.835  -2.985  1.00  0.00    -0.274 OA
BRANCH  12  14
ATOM     14  C   UNL     1       2.091  -2.521  -3.254  1.00  0.00     0.170 C 
BRANCH  14  15
ATOM     15  S   UNL     1       3.087  -1.681  -2.008  1.00  0.00    -0.146 SA
BRANCH  15  16
ATOM     16  C   UNL     1       1.967  -1.646  -0.586  1.00  0.00     0.127 C 
BRANCH  16  17
ATOM     17  C   UNL     1       1.063  -0.471  -0.477  1.00  0.00     0.061 A 
ATOM     18  C   UNL     1      -2.454   0.495  -0.254  1.00  0.00     0.079 C 
ATOM     19  C   UNL     1      -0.970   0.402  -0.289  1.00  0.00     0.090 A 
ATOM     20  N   UNL     1      -0.305  -0.703  -0.545  1.00  0.00    -0.246 NA
ATOM     21  S   UNL     1      -0.004   1.782   0.040  1.00  0.00    -0.127 S 
ATOM     22  C   UNL     1       1.407   0.830  -0.161  1.00  0.00     0.091 A 
ENDBRANCH  16  17
ENDBRANCH  15  16
ENDBRANCH  14  15
ENDBRANCH  12  14
ENDBRANCH   7  12
ENDBRANCH   3   6
ENDBRANCH   1   2
BRANCH   1  23
ATOM     23  C   UNL     1       0.304  -5.714   1.367  1.00  0.00     0.023 C 
BRANCH  23  24
ATOM     24  C   UNL     1      -0.052  -4.580   2.333  1.00  0.00     0.023 C 
BRANCH  24  25
ATOM     25  C   UNL     1      -1.164  -3.656   1.843  1.00  0.00     0.116 C 
BRANCH  25  26
ATOM     26  N   UNL     1      -2.440  -4.349   1.743  1.00  0.00    -0.352 N 
ATOM     27  C   UNL     1      -3.603  -4.159   2.449  1.00  0.00     0.251 C 
ATOM     28  H   UNL     1      -2.474  -5.063   1.065  1.00  0.00     0.163 HD
ATOM     29  O   UNL     1      -4.499  -4.995   2.382  1.00  0.00    -0.269 OA
BRANCH  27  30
ATOM     30  C   UNL     1      -3.773  -2.956   3.295  1.00  0.00     0.039 A 
ATOM     31  C   UNL     1      -4.383  -3.081   4.545  1.00  0.00     0.014 A 
ATOM     32  C   UNL     1      -3.354  -1.700   2.847  1.00  0.00     0.014 A 
ATOM     33  C   UNL     1      -4.514  -1.959   5.367  1.00  0.00     0.010 A 
ATOM     34  C   UNL     1      -3.409  -0.601   3.699  1.00  0.00     0.010 A 
ATOM     35  C   UNL     1      -3.997  -0.715   4.965  1.00  0.00    -0.014 A 
BRANCH  35  36
ATOM     36  C   UNL     1      -4.061   0.471   5.859  1.00  0.00     0.031 A 
ATOM     37  C   UNL     1      -4.852   1.687   5.453  1.00  0.00     0.074 A 
ATOM     38  C   UNL     1      -3.364   0.470   7.013  1.00  0.00     0.049 A 
ATOM     39  N   UNL     1      -4.994   2.826   6.081  1.00  0.00    -0.248 NA
ATOM     40  C   UNL     1      -5.558   1.624   4.162  1.00  0.00     0.031 C 
ATOM     41  C   UNL     1      -2.516  -0.626   7.489  1.00  0.00     0.029 A 
ATOM     42  N   UNL     1      -3.251   1.423   7.995  1.00  0.00    -0.354 N 
ATOM     43  C   UNL     1      -5.802   3.611   5.267  1.00  0.00     0.074 A 
ATOM     44  C   UNL     1      -6.066   2.845   4.069  1.00  0.00     0.031 C 
ATOM     45  C   UNL     1      -1.998  -0.297   8.683  1.00  0.00     0.029 A 
ATOM     46  C   UNL     1      -2.442   1.046   9.042  1.00  0.00     0.049 A 
ATOM     47  H   UNL     1      -3.707   2.294   7.954  1.00  0.00     0.167 HD
ATOM     48  C   UNL     1      -6.305   4.846   5.509  1.00  0.00     0.037 A 
ATOM     49  C   UNL     1      -2.097   1.708  10.163  1.00  0.00     0.037 A 
ATOM     50  C   UNL     1      -6.052   5.597   6.711  1.00  0.00     0.049 A 
ATOM     51  C   UNL     1      -2.661   3.084  10.401  1.00  0.00     0.074 A 
ATOM     52  C   UNL     1      -6.539   6.843   7.066  1.00  0.00     0.029 A 
ATOM     53  N   UNL     1      -5.245   5.173   7.757  1.00  0.00    -0.354 N 
ATOM     54  N   UNL     1      -3.469   3.788   9.644  1.00  0.00    -0.248 NA
ATOM     55  C   UNL     1      -2.276   3.752  11.652  1.00  0.00     0.031 C 
ATOM     56  C   UNL     1      -5.996   7.190   8.307  1.00  0.00     0.029 A 
ATOM     57  C   UNL     1      -5.215   6.136   8.752  1.00  0.00     0.049 A 
ATOM     58  H   UNL     1      -4.765   4.314   7.787  1.00  0.00     0.167 HD
ATOM     59  C   UNL     1      -3.724   4.960  10.348  1.00  0.00     0.074 A 
ATOM     60  C   UNL     1      -2.991   4.867  11.593  1.00  0.00     0.031 C 
ATOM     61  C   UNL     1      -4.499   6.017   9.998  1.00  0.00     0.037 A 
BRANCH  48  62
ATOM     62  C   UNL     1      -7.201   5.457   4.465  1.00  0.00     0.058 A 
ATOM     63  C   UNL     1      -8.490   4.955   4.220  1.00  0.00     0.135 A 
ATOM     64  C   UNL     1      -6.795   6.592   3.744  1.00  0.00     0.135 A 
ATOM     65  F   UNL     1      -8.924   3.863   4.868  1.00  0.00    -0.206 F 
ATOM     66  C   UNL     1      -9.336   5.544   3.287  1.00  0.00     0.059 A 
ATOM     67  C   UNL     1      -7.636   7.215   2.825  1.00  0.00     0.059 A 
ATOM     68  F   UNL     1      -5.573   7.113   3.935  1.00  0.00    -0.206 F 
ATOM     69  C   UNL     1      -8.902   6.677   2.597  1.00  0.00     0.060 A 
BRANCH  69  70
ATOM     70  S   UNL     1     -10.025   7.443   1.410  1.00  0.00     0.124 S 
ATOM     71  O   UNL     1     -10.023   6.460   0.331  1.00  0.00    -0.237 OA
ATOM     72  O   UNL     1     -11.265   7.543   2.174  1.00  0.00    -0.237 OA
ATOM     73  O   UNL     1      -9.379   8.714   1.100  1.00  0.00    -0.744 OA
ENDBRANCH  69  70
ENDBRANCH  48  62
BRANCH  49  74
ATOM     74  C   UNL     1      -1.195   1.075  11.164  1.00  0.00     0.058 A 
ATOM     75  C   UNL     1      -1.668   0.710  12.433  1.00  0.00     0.135 A 
ATOM     76  C   UNL     1       0.161   0.845  10.882  1.00  0.00     0.135 A 
ATOM     77  F   UNL     1      -2.956   0.910  12.752  1.00  0.00    -0.206 F 
ATOM     78  C   UNL     1      -0.824   0.176  13.401  1.00  0.00     0.059 A 
ATOM     79  C   UNL     1       1.018   0.284  11.823  1.00  0.00     0.059 A 
ATOM     80  F   UNL     1       0.660   1.156   9.676  1.00  0.00    -0.206 F 
ATOM     81  C   UNL     1       0.520  -0.029  13.087  1.00  0.00     0.060 A 
BRANCH  81  82
ATOM     82  S   UNL     1       1.607  -0.729  14.348  1.00  0.00     0.124 S 
ATOM     83  O   UNL     1       1.762   0.398  15.259  1.00  0.00    -0.237 OA
ATOM     84  O   UNL     1       0.817  -1.851  14.847  1.00  0.00    -0.237 OA
ATOM     85  O   UNL     1       2.800  -1.100  13.593  1.00  0.00    -0.744 OA
ENDBRANCH  81  82
ENDBRANCH  49  74
BRANCH  61  86
ATOM     86  C   UNL     1      -4.650   7.128  11.002  1.00  0.00     0.058 A 
ATOM     87  C   UNL     1      -3.600   8.007  11.305  1.00  0.00     0.135 A 
ATOM     88  C   UNL     1      -5.883   7.334  11.643  1.00  0.00     0.135 A 
ATOM     89  F   UNL     1      -2.399   7.853  10.724  1.00  0.00    -0.206 F 
ATOM     90  C   UNL     1      -3.755   9.030  12.235  1.00  0.00     0.059 A 
ATOM     91  C   UNL     1      -6.070   8.370  12.552  1.00  0.00     0.059 A 
ATOM     92  F   UNL     1      -6.926   6.530  11.380  1.00  0.00    -0.206 F 
ATOM     93  C   UNL     1      -4.995   9.204  12.854  1.00  0.00     0.060 A 
BRANCH  93  94
ATOM     94  S   UNL     1      -5.188  10.546  14.044  1.00  0.00     0.124 S 
ATOM     95  O   UNL     1      -4.450  10.030  15.192  1.00  0.00    -0.237 OA
ATOM     96  O   UNL     1      -4.572  11.672  13.349  1.00  0.00    -0.237 OA
ATOM     97  O   UNL     1      -6.635  10.641  14.219  1.00  0.00    -0.744 OA
ENDBRANCH  93  94
ENDBRANCH  61  86
ENDBRANCH  35  36
ENDBRANCH  27  30
ENDBRANCH  25  26
ENDBRANCH  24  25
ENDBRANCH  23  24
ENDBRANCH   1  23
TORSDOF 19
