REMARK SMILES C[C@H](CC[NH+](C)C)[NH2+][C@H](C)[C@@H](C)C(=O)NCCCCNC(=O)c1ccc(-c2c3nc(c(-c4c(F)cc(S(=O)(=O)[O-])cc4F)c4ccc([nH]4)c(-c4c(F)cc(S(=O)(=O)[O-])cc4F)c4nc(c(-c5c(F)cc(S(=O)(=O)[O-])cc5F)c5ccc2[nH]5)C=C4)C=C3)cc1
REMARK SMILES IDX 16 1 15 2 13 3 14 4 11 6 12 7 9 8 10 9 8 10 2 13 1 14 3 15
REMARK SMILES IDX 4 16 5 17 6 18 7 19 17 21 18 22 19 23 20 24 21 25 22 27
REMARK SMILES IDX 23 28 24 29 88 30 25 31 87 32 26 33 27 34 28 35 81 36 29 37
REMARK SMILES IDX 86 38 80 39 82 40 30 41 85 42 79 43 78 44 31 46 65 47 44 48
REMARK SMILES IDX 64 49 45 50 48 51 63 52 83 53 46 54 47 55 62 57 84 58 49 59
REMARK SMILES IDX 32 60 33 61 42 62 34 63 35 64 41 65 43 66 36 67 37 68 38 69
REMARK SMILES IDX 39 70 40 71 66 72 67 73 76 74 68 75 69 76 75 77 77 78 70 79
REMARK SMILES IDX 71 80 72 81 73 82 74 83 50 84 51 85 60 86 52 87 53 88 59 89
REMARK SMILES IDX 61 90 54 91 55 92 56 93 57 94 58 95
REMARK H PARENT 15 5 8 11 8 12 5 20 20 26 82 45 48 56
REMARK Flexibility Score: inf
ROOT
ATOM      1  C   UNL     1      -2.423   5.005   0.465  1.00  0.00     0.116 C 
ENDROOT
BRANCH   1   2
ATOM      2  N   UNL     1      -3.423   4.772  -0.559  1.00  0.00    -0.356 N 
ATOM      3  C   UNL     1      -3.836   3.642  -1.188  1.00  0.00     0.228 C 
ATOM      4  O   UNL     1      -4.889   3.720  -1.831  1.00  0.00    -0.275 OA
ATOM      5  H   UNL     1      -3.891   5.587  -0.854  1.00  0.00     0.163 HD
BRANCH   3   6
ATOM      6  C   UNL     1      -3.115   2.301  -1.081  1.00  0.00     0.133 C 
ATOM      7  C   UNL     1      -3.473   1.704   0.288  1.00  0.00     0.024 C 
BRANCH   6   8
ATOM      8  C   UNL     1      -1.603   2.326  -1.449  1.00  0.00     0.191 C 
ATOM      9  C   UNL     1      -0.866   1.091  -0.908  1.00  0.00     0.076 C 
BRANCH   8  10
ATOM     10  N   UNL     1      -1.296   2.370  -2.902  1.00  0.00    -0.341 N 
ATOM     11  H   UNL     1      -0.361   1.986  -3.037  1.00  0.00     0.346 HD
ATOM     12  H   UNL     1      -2.033   1.833  -3.360  1.00  0.00     0.346 HD
BRANCH  10  13
ATOM     13  C   UNL     1      -1.330   3.712  -3.519  1.00  0.00     0.185 C 
ATOM     14  C   UNL     1      -2.727   4.075  -4.033  1.00  0.00     0.075 C 
BRANCH  13  15
ATOM     15  C   UNL     1      -0.282   3.814  -4.659  1.00  0.00     0.126 C 
BRANCH  15  16
ATOM     16  C   UNL     1      -0.144   5.223  -5.300  1.00  0.00     0.268 C 
BRANCH  16  17
ATOM     17  N   UNL     1       0.618   6.290  -4.627  1.00  0.00    -0.340 N 
ATOM     18  C   UNL     1       0.019   7.604  -4.903  1.00  0.00     0.332 C 
ATOM     19  C   UNL     1       0.837   6.142  -3.203  1.00  0.00     0.332 C 
ATOM     20  H   UNL     1       1.549   6.209  -5.035  1.00  0.00     0.347 HD
ENDBRANCH  16  17
ENDBRANCH  15  16
ENDBRANCH  13  15
ENDBRANCH  10  13
ENDBRANCH   8  10
ENDBRANCH   6   8
ENDBRANCH   3   6
ENDBRANCH   1   2
BRANCH   1  21
ATOM     21  C   UNL     1      -1.217   5.809  -0.015  1.00  0.00     0.023 C 
BRANCH  21  22
ATOM     22  C   UNL     1      -1.537   7.153  -0.668  1.00  0.00     0.023 C 
BRANCH  22  23
ATOM     23  C   UNL     1      -2.299   8.131   0.210  1.00  0.00     0.116 C 
BRANCH  23  24
ATOM     24  N   UNL     1      -1.578   8.440   1.435  1.00  0.00    -0.352 N 
ATOM     25  C   UNL     1      -1.097   9.641   1.899  1.00  0.00     0.251 C 
ATOM     26  H   UNL     1      -1.409   7.669   2.024  1.00  0.00     0.163 HD
ATOM     27  O   UNL     1      -0.332   9.655   2.857  1.00  0.00    -0.269 OA
BRANCH  25  28
ATOM     28  C   UNL     1      -1.481  10.904   1.232  1.00  0.00     0.039 A 
ATOM     29  C   UNL     1      -0.508  11.887   1.031  1.00  0.00     0.014 A 
ATOM     30  C   UNL     1      -2.792  11.119   0.801  1.00  0.00     0.014 A 
ATOM     31  C   UNL     1      -0.832  13.046   0.321  1.00  0.00     0.010 A 
ATOM     32  C   UNL     1      -3.090  12.230   0.019  1.00  0.00     0.010 A 
ATOM     33  C   UNL     1      -2.111  13.201  -0.235  1.00  0.00    -0.014 A 
BRANCH  33  34
ATOM     34  C   UNL     1      -2.444  14.350  -1.116  1.00  0.00     0.031 A 
ATOM     35  C   UNL     1      -3.526  15.318  -0.723  1.00  0.00     0.074 A 
ATOM     36  C   UNL     1      -1.831  14.465  -2.311  1.00  0.00     0.049 A 
ATOM     37  N   UNL     1      -4.030  16.313  -1.405  1.00  0.00    -0.248 NA
ATOM     38  C   UNL     1      -4.140  15.124   0.601  1.00  0.00     0.031 C 
ATOM     39  C   UNL     1      -0.794  13.563  -2.820  1.00  0.00     0.029 A 
ATOM     40  N   UNL     1      -2.001  15.375  -3.324  1.00  0.00    -0.354 N 
ATOM     41  C   UNL     1      -5.026  16.856  -0.602  1.00  0.00     0.074 A 
ATOM     42  C   UNL     1      -5.092  16.045   0.595  1.00  0.00     0.031 C 
ATOM     43  C   UNL     1      -0.407  13.977  -4.036  1.00  0.00     0.029 A 
ATOM     44  C   UNL     1      -1.202  15.140  -4.418  1.00  0.00     0.049 A 
ATOM     45  H   UNL     1      -2.635  16.127  -3.272  1.00  0.00     0.167 HD
ATOM     46  C   UNL     1      -5.799  17.944  -0.832  1.00  0.00     0.037 A 
ATOM     47  C   UNL     1      -1.131  15.774  -5.604  1.00  0.00     0.037 A 
ATOM     48  C   UNL     1      -5.716  18.749  -2.024  1.00  0.00     0.049 A 
ATOM     49  C   UNL     1      -2.031  16.952  -5.857  1.00  0.00     0.074 A 
ATOM     50  C   UNL     1      -6.410  19.907  -2.329  1.00  0.00     0.029 A 
ATOM     51  N   UNL     1      -4.901  18.473  -3.113  1.00  0.00    -0.354 N 
ATOM     52  N   UNL     1      -2.914  17.500  -5.056  1.00  0.00    -0.248 NA
ATOM     53  C   UNL     1      -1.933  17.594  -7.175  1.00  0.00     0.031 C 
ATOM     54  C   UNL     1      -6.059  20.297  -3.626  1.00  0.00     0.029 A 
ATOM     55  C   UNL     1      -5.105  19.414  -4.109  1.00  0.00     0.049 A 
ATOM     56  H   UNL     1      -4.271  17.719  -3.170  1.00  0.00     0.167 HD
ATOM     57  C   UNL     1      -3.468  18.558  -5.768  1.00  0.00     0.074 A 
ATOM     58  C   UNL     1      -2.804  18.587  -7.055  1.00  0.00     0.031 C 
ATOM     59  C   UNL     1      -4.441  19.424  -5.390  1.00  0.00     0.037 A 
BRANCH  46  60
ATOM     60  C   UNL     1      -6.804  18.323   0.223  1.00  0.00     0.058 A 
ATOM     61  C   UNL     1      -6.409  18.815   1.477  1.00  0.00     0.135 A 
ATOM     62  C   UNL     1      -8.182  18.216  -0.031  1.00  0.00     0.135 A 
ATOM     63  F   UNL     1      -5.106  18.927   1.780  1.00  0.00    -0.206 F 
ATOM     64  C   UNL     1      -7.340  19.150   2.455  1.00  0.00     0.059 A 
ATOM     65  C   UNL     1      -9.132  18.576   0.921  1.00  0.00     0.059 A 
ATOM     66  F   UNL     1      -8.618  17.754  -1.213  1.00  0.00    -0.206 F 
ATOM     67  C   UNL     1      -8.700  19.025   2.168  1.00  0.00     0.060 A 
BRANCH  67  68
ATOM     68  S   UNL     1      -9.893  19.453   3.453  1.00  0.00     0.124 S 
ATOM     69  O   UNL     1      -9.716  18.350   4.393  1.00  0.00    -0.237 OA
ATOM     70  O   UNL     1      -9.410  20.754   3.905  1.00  0.00    -0.237 OA
ATOM     71  O   UNL     1     -11.168  19.472   2.743  1.00  0.00    -0.744 OA
ENDBRANCH  67  68
ENDBRANCH  46  60
BRANCH  47  72
ATOM     72  C   UNL     1      -0.167  15.308  -6.637  1.00  0.00     0.058 A 
ATOM     73  C   UNL     1       0.953  16.081  -6.976  1.00  0.00     0.135 A 
ATOM     74  C   UNL     1      -0.326  14.071  -7.283  1.00  0.00     0.135 A 
ATOM     75  F   UNL     1       1.145  17.274  -6.394  1.00  0.00    -0.206 F 
ATOM     76  C   UNL     1       1.877  15.650  -7.923  1.00  0.00     0.059 A 
ATOM     77  C   UNL     1       0.598  13.606  -8.213  1.00  0.00     0.059 A 
ATOM     78  F   UNL     1      -1.373  13.286  -6.984  1.00  0.00    -0.206 F 
ATOM     79  C   UNL     1       1.694  14.406  -8.531  1.00  0.00     0.060 A 
BRANCH  79  80
ATOM     80  S   UNL     1       2.934  13.833  -9.712  1.00  0.00     0.124 S 
ATOM     81  O   UNL     1       2.695  14.721 -10.844  1.00  0.00    -0.237 OA
ATOM     82  O   UNL     1       4.177  14.052  -8.979  1.00  0.00    -0.237 OA
ATOM     83  O   UNL     1       2.576  12.433  -9.921  1.00  0.00    -0.744 OA
ENDBRANCH  79  80
ENDBRANCH  47  72
BRANCH  59  84
ATOM     84  C   UNL     1      -4.853  20.479  -6.380  1.00  0.00     0.058 A 
ATOM     85  C   UNL     1      -5.614  20.160  -7.515  1.00  0.00     0.135 A 
ATOM     86  C   UNL     1      -4.553  21.832  -6.151  1.00  0.00     0.135 A 
ATOM     87  F   UNL     1      -5.918  18.881  -7.787  1.00  0.00    -0.206 F 
ATOM     88  C   UNL     1      -6.055  21.143  -8.394  1.00  0.00     0.059 A 
ATOM     89  C   UNL     1      -5.008  22.835  -7.001  1.00  0.00     0.059 A 
ATOM     90  F   UNL     1      -3.834  22.193  -5.076  1.00  0.00    -0.206 F 
ATOM     91  C   UNL     1      -5.755  22.480  -8.123  1.00  0.00     0.060 A 
BRANCH  91  92
ATOM     92  S   UNL     1      -6.392  23.748  -9.239  1.00  0.00     0.124 S 
ATOM     93  O   UNL     1      -5.576  23.531 -10.429  1.00  0.00    -0.237 OA
ATOM     94  O   UNL     1      -7.799  23.378  -9.358  1.00  0.00    -0.237 OA
ATOM     95  O   UNL     1      -6.135  24.993  -8.521  1.00  0.00    -0.744 OA
ENDBRANCH  91  92
ENDBRANCH  59  84
ENDBRANCH  33  34
ENDBRANCH  25  28
ENDBRANCH  23  24
ENDBRANCH  22  23
ENDBRANCH  21  22
ENDBRANCH   1  21
TORSDOF 20
