REMARK SMILES CCC[NH2+]CC(=O)N1CCC(CC(=O)NCCCCNC(=O)c2ccc(-c3c4nc(c(-c5c(F)cc(S(=O)(=O)[O-])cc5F)c5ccc([nH]5)c(-c5c(F)cc(S(=O)(=O)[O-])cc5F)c5nc(c(-c6c(F)cc(S(=O)(=O)[O-])cc6F)c6ccc3[nH]6)C=C5)C=C4)cc2)CC1
REMARK SMILES IDX 16 1 15 2 13 3 14 4 12 6 11 7 6 8 7 9 8 10 9 11 90 12 10 13
REMARK SMILES IDX 89 14 5 15 4 16 3 19 2 20 1 21 17 22 18 23 19 24 20 25 21 26
REMARK SMILES IDX 22 28 23 29 24 30 88 31 25 32 87 33 26 34 27 35 28 36 81 37
REMARK SMILES IDX 29 38 86 39 80 40 82 41 30 42 85 43 79 44 78 45 31 47 65 48
REMARK SMILES IDX 44 49 64 50 45 51 48 52 63 53 83 54 46 55 47 56 62 58 84 59
REMARK SMILES IDX 49 60 32 61 33 62 42 63 34 64 35 65 41 66 43 67 36 68 37 69
REMARK SMILES IDX 38 70 39 71 40 72 66 73 67 74 76 75 68 76 69 77 75 78 77 79
REMARK SMILES IDX 70 80 71 81 72 82 73 83 74 84 50 85 51 86 60 87 52 88 53 89
REMARK SMILES IDX 59 90 61 91 54 92 55 93 56 94 57 95 58 96
REMARK H PARENT 15 5 4 17 4 18 20 27 82 46 48 57
REMARK Flexibility Score: inf
ROOT
ATOM      1  C   UNL     1       8.359   3.723  -0.449  1.00  0.00     0.116 C 
ENDROOT
BRANCH   1   2
ATOM      2  N   UNL     1       8.554   3.302   0.930  1.00  0.00    -0.356 N 
ATOM      3  C   UNL     1       7.838   2.427   1.694  1.00  0.00     0.220 C 
ATOM      4  O   UNL     1       8.159   2.268   2.873  1.00  0.00    -0.275 OA
ATOM      5  H   UNL     1       9.325   3.713   1.383  1.00  0.00     0.163 HD
BRANCH   3   6
ATOM      6  C   UNL     1       6.660   1.668   1.108  1.00  0.00     0.103 C 
BRANCH   6   7
ATOM      7  C   UNL     1       5.295   2.330   1.379  1.00  0.00     0.002 C 
ATOM      8  C   UNL     1       2.499   3.589  -1.154  1.00  0.00     0.277 C 
ATOM      9  O   UNL     1       3.321   3.939  -2.005  1.00  0.00    -0.268 OA
ATOM     10  N   UNL     1       2.860   3.445   0.182  1.00  0.00    -0.338 N 
ATOM     11  C   UNL     1       3.838   4.361   0.728  1.00  0.00     0.120 C 
ATOM     12  C   UNL     1       2.820   2.163   0.866  1.00  0.00     0.120 C 
ATOM     13  C   UNL     1       5.218   3.731   0.772  1.00  0.00     0.026 C 
ATOM     14  C   UNL     1       4.171   1.454   0.817  1.00  0.00     0.026 C 
BRANCH   8  15
ATOM     15  C   UNL     1       0.993   3.543  -1.494  1.00  0.00     0.362 C 
BRANCH  15  16
ATOM     16  N   UNL     1       0.340   2.244  -1.263  1.00  0.00    -0.338 N 
ATOM     17  H   UNL     1      -0.355   2.091  -1.995  1.00  0.00     0.346 HD
ATOM     18  H   UNL     1       1.062   1.524  -1.280  1.00  0.00     0.346 HD
BRANCH  16  19
ATOM     19  C   UNL     1      -0.324   2.182   0.034  1.00  0.00     0.260 C 
BRANCH  19  20
ATOM     20  C   UNL     1      -0.567   0.771   0.606  1.00  0.00     0.058 C 
ATOM     21  C   UNL     1       0.114  -0.404  -0.087  1.00  0.00     0.010 C 
ENDBRANCH  19  20
ENDBRANCH  16  19
ENDBRANCH  15  16
ENDBRANCH   8  15
ENDBRANCH   6   7
ENDBRANCH   3   6
ENDBRANCH   1   2
BRANCH   1  22
ATOM     22  C   UNL     1       7.768   5.133  -0.534  1.00  0.00     0.023 C 
BRANCH  22  23
ATOM     23  C   UNL     1       8.770   6.268  -0.466  1.00  0.00     0.023 C 
BRANCH  23  24
ATOM     24  C   UNL     1       9.638   6.382  -1.697  1.00  0.00     0.116 C 
BRANCH  24  25
ATOM     25  N   UNL     1       8.885   6.624  -2.923  1.00  0.00    -0.352 N 
ATOM     26  C   UNL     1       9.195   7.495  -3.943  1.00  0.00     0.251 C 
ATOM     27  H   UNL     1       8.057   6.103  -3.034  1.00  0.00     0.163 HD
ATOM     28  O   UNL     1       8.428   7.670  -4.883  1.00  0.00    -0.269 OA
BRANCH  26  29
ATOM     29  C   UNL     1      10.457   8.250  -3.841  1.00  0.00     0.039 A 
ATOM     30  C   UNL     1      10.426   9.642  -3.925  1.00  0.00     0.014 A 
ATOM     31  C   UNL     1      11.635   7.576  -3.511  1.00  0.00     0.014 A 
ATOM     32  C   UNL     1      11.570  10.367  -3.592  1.00  0.00     0.010 A 
ATOM     33  C   UNL     1      12.728   8.301  -3.065  1.00  0.00     0.010 A 
ATOM     34  C   UNL     1      12.712   9.703  -3.115  1.00  0.00    -0.014 A 
BRANCH  34  35
ATOM     35  C   UNL     1      13.932  10.442  -2.709  1.00  0.00     0.031 A 
ATOM     36  C   UNL     1      15.223  10.168  -3.435  1.00  0.00     0.074 A 
ATOM     37  C   UNL     1      13.899  11.288  -1.660  1.00  0.00     0.049 A 
ATOM     38  N   UNL     1      16.428  10.593  -3.167  1.00  0.00    -0.248 NA
ATOM     39  C   UNL     1      15.154   9.254  -4.590  1.00  0.00     0.031 C 
ATOM     40  C   UNL     1      12.720  11.588  -0.841  1.00  0.00     0.029 A 
ATOM     41  N   UNL     1      14.891  12.048  -1.096  1.00  0.00    -0.354 N 
ATOM     42  C   UNL     1      17.257   9.980  -4.099  1.00  0.00     0.074 A 
ATOM     43  C   UNL     1      16.433   9.098  -4.892  1.00  0.00     0.031 C 
ATOM     44  C   UNL     1      13.052  12.493   0.095  1.00  0.00     0.029 A 
ATOM     45  C   UNL     1      14.470  12.811  -0.032  1.00  0.00     0.049 A 
ATOM     46  H   UNL     1      15.820  12.049  -1.423  1.00  0.00     0.167 HD
ATOM     47  C   UNL     1      18.581  10.168  -4.307  1.00  0.00     0.037 A 
ATOM     48  C   UNL     1      15.155  13.669   0.748  1.00  0.00     0.037 A 
ATOM     49  C   UNL     1      19.381  11.096  -3.557  1.00  0.00     0.049 A 
ATOM     50  C   UNL     1      16.620  13.888   0.472  1.00  0.00     0.074 A 
ATOM     51  C   UNL     1      20.721  11.399  -3.712  1.00  0.00     0.029 A 
ATOM     52  N   UNL     1      18.903  11.891  -2.526  1.00  0.00    -0.354 N 
ATOM     53  N   UNL     1      17.380  13.326  -0.438  1.00  0.00    -0.248 NA
ATOM     54  C   UNL     1      17.319  14.862   1.322  1.00  0.00     0.031 C 
ATOM     55  C   UNL     1      21.058  12.369  -2.762  1.00  0.00     0.029 A 
ATOM     56  C   UNL     1      19.920  12.691  -2.039  1.00  0.00     0.049 A 
ATOM     57  H   UNL     1      17.977  11.887  -2.191  1.00  0.00     0.167 HD
ATOM     58  C   UNL     1      18.637  13.902  -0.291  1.00  0.00     0.074 A 
ATOM     59  C   UNL     1      18.532  14.863   0.788  1.00  0.00     0.031 C 
ATOM     60  C   UNL     1      19.777  13.659  -0.983  1.00  0.00     0.037 A 
BRANCH  47  61
ATOM     61  C   UNL     1      19.227   9.385  -5.413  1.00  0.00     0.058 A 
ATOM     62  C   UNL     1      18.959   9.671  -6.762  1.00  0.00     0.135 A 
ATOM     63  C   UNL     1      20.142   8.359  -5.129  1.00  0.00     0.135 A 
ATOM     64  F   UNL     1      18.073  10.625  -7.088  1.00  0.00    -0.206 F 
ATOM     65  C   UNL     1      19.556   8.951  -7.790  1.00  0.00     0.059 A 
ATOM     66  C   UNL     1      20.773   7.644  -6.143  1.00  0.00     0.059 A 
ATOM     67  F   UNL     1      20.428   8.041  -3.857  1.00  0.00    -0.206 F 
ATOM     68  C   UNL     1      20.464   7.941  -7.471  1.00  0.00     0.060 A 
BRANCH  68  69
ATOM     69  S   UNL     1      21.248   7.032  -8.819  1.00  0.00     0.124 S 
ATOM     70  O   UNL     1      20.154   6.175  -9.267  1.00  0.00    -0.237 OA
ATOM     71  O   UNL     1      21.631   8.101  -9.735  1.00  0.00    -0.237 OA
ATOM     72  O   UNL     1      22.357   6.344  -8.164  1.00  0.00    -0.744 OA
ENDBRANCH  68  69
ENDBRANCH  47  61
BRANCH  48  73
ATOM     73  C   UNL     1      14.472  14.415   1.839  1.00  0.00     0.058 A 
ATOM     74  C   UNL     1      14.258  15.798   1.739  1.00  0.00     0.135 A 
ATOM     75  C   UNL     1      14.047  13.772   3.012  1.00  0.00     0.135 A 
ATOM     76  F   UNL     1      14.649  16.458   0.637  1.00  0.00    -0.206 F 
ATOM     77  C   UNL     1      13.683  16.526   2.775  1.00  0.00     0.059 A 
ATOM     78  C   UNL     1      13.446  14.475   4.053  1.00  0.00     0.059 A 
ATOM     79  F   UNL     1      14.208  12.447   3.149  1.00  0.00    -0.206 F 
ATOM     80  C   UNL     1      13.287  15.855   3.933  1.00  0.00     0.060 A 
BRANCH  80  81
ATOM     81  S   UNL     1      12.535  16.804   5.274  1.00  0.00     0.124 S 
ATOM     82  O   UNL     1      13.703  17.442   5.870  1.00  0.00    -0.237 OA
ATOM     83  O   UNL     1      11.622  17.688   4.554  1.00  0.00    -0.237 OA
ATOM     84  O   UNL     1      11.890  15.778   6.087  1.00  0.00    -0.744 OA
ENDBRANCH  80  81
ENDBRANCH  48  73
BRANCH  60  85
ATOM     85  C   UNL     1      20.984  14.478  -0.631  1.00  0.00     0.058 A 
ATOM     86  C   UNL     1      21.725  14.232   0.533  1.00  0.00     0.135 A 
ATOM     87  C   UNL     1      21.436  15.481  -1.504  1.00  0.00     0.135 A 
ATOM     88  F   UNL     1      21.328  13.286   1.400  1.00  0.00    -0.206 F 
ATOM     89  C   UNL     1      22.866  14.966   0.833  1.00  0.00     0.059 A 
ATOM     90  C   UNL     1      22.588  16.211  -1.236  1.00  0.00     0.059 A 
ATOM     91  F   UNL     1      20.766  15.745  -2.637  1.00  0.00    -0.206 F 
ATOM     92  C   UNL     1      23.291  15.953  -0.060  1.00  0.00     0.060 A 
BRANCH  92  93
ATOM     93  S   UNL     1      24.797  16.873   0.318  1.00  0.00     0.124 S 
ATOM     94  O   UNL     1      24.326  17.797   1.344  1.00  0.00    -0.237 OA
ATOM     95  O   UNL     1      25.700  15.822   0.778  1.00  0.00    -0.237 OA
ATOM     96  O   UNL     1      25.153  17.480  -0.961  1.00  0.00    -0.744 OA
ENDBRANCH  92  93
ENDBRANCH  60  85
ENDBRANCH  34  35
ENDBRANCH  26  29
ENDBRANCH  24  25
ENDBRANCH  23  24
ENDBRANCH  22  23
ENDBRANCH   1  22
TORSDOF 19
