REMARK SMILES C[C@](NC(=O)[C@](C)([NH3+])C(F)(F)F)(C(=O)NCCCCNC(=O)c1ccc(-c2c3nc(c(-c4c(F)cc(S(=O)(=O)[O-])cc4F)c4ccc([nH]4)c(-c4c(F)cc(S(=O)(=O)[O-])cc4F)c4nc(c(-c5c(F)cc(S(=O)(=O)[O-])cc5F)c5ccc2[nH]5)C=C4)C=C3)cc1)c1ccccc1
REMARK SMILES IDX 17 1 16 2 15 3 13 4 14 5 2 7 1 8 89 9 90 10 94 11 91 12
REMARK SMILES IDX 93 13 92 14 3 15 4 16 5 18 6 19 7 20 8 21 9 25 10 26 11 27
REMARK SMILES IDX 12 28 18 29 19 30 20 31 21 32 22 34 23 35 24 36 88 37 25 38
REMARK SMILES IDX 87 39 26 40 27 41 28 42 81 43 29 44 86 45 80 46 82 47 30 48
REMARK SMILES IDX 85 49 79 50 78 51 31 53 65 54 44 55 64 56 45 57 48 58 63 59
REMARK SMILES IDX 83 60 46 61 47 62 62 64 84 65 49 66 32 67 33 68 42 69 34 70
REMARK SMILES IDX 35 71 41 72 43 73 36 74 37 75 38 76 39 77 40 78 66 79 67 80
REMARK SMILES IDX 76 81 68 82 69 83 75 84 77 85 70 86 71 87 72 88 73 89 74 90
REMARK SMILES IDX 50 91 51 92 60 93 52 94 53 95 59 96 61 97 54 98 55 99 56 100
REMARK SMILES IDX 57 101 58 102
REMARK H PARENT 15 6 3 17 8 22 8 23 8 24 20 33 82 52 48 63
REMARK Flexibility Score: inf
ROOT
ATOM      1  C   UNL     1       2.002   2.736   0.675  1.00  0.00     0.023 C 
ENDROOT
BRANCH   1   2
ATOM      2  C   UNL     1       0.651   2.030   0.761  1.00  0.00     0.116 C 
BRANCH   2   3
ATOM      3  N   UNL     1      -0.404   2.704   1.496  1.00  0.00    -0.354 N 
ATOM      4  C   UNL     1      -1.467   3.485   1.126  1.00  0.00     0.250 C 
ATOM      5  O   UNL     1      -2.418   3.462   1.917  1.00  0.00    -0.272 OA
ATOM      6  H   UNL     1      -0.342   2.572   2.470  1.00  0.00     0.163 HD
BRANCH   4   7
ATOM      7  C   UNL     1      -1.539   4.255  -0.242  1.00  0.00     0.142 C 
ATOM      8  C   UNL     1      -1.750   3.174  -1.347  1.00  0.00     0.051 C 
BRANCH   7   9
ATOM      9  C   UNL     1      -2.769   5.190  -0.407  1.00  0.00    -0.013 A 
ATOM     10  C   UNL     1      -2.661   6.511  -0.879  1.00  0.00     0.007 A 
ATOM     11  C   UNL     1      -4.077   4.684  -0.236  1.00  0.00     0.007 A 
ATOM     12  C   UNL     1      -3.792   7.299  -1.121  1.00  0.00     0.000 A 
ATOM     13  C   UNL     1      -5.208   5.458  -0.513  1.00  0.00     0.000 A 
ATOM     14  C   UNL     1      -5.065   6.771  -0.947  1.00  0.00     0.000 A 
ENDBRANCH   7   9
BRANCH   7  15
ATOM     15  N   UNL     1      -0.260   4.941  -0.560  1.00  0.00    -0.332 N 
ATOM     16  C   UNL     1       0.529   5.924  -0.095  1.00  0.00     0.291 C 
ATOM     17  H   UNL     1       0.137   4.549  -1.371  1.00  0.00     0.165 HD
ATOM     18  O   UNL     1       1.409   6.220  -0.934  1.00  0.00    -0.267 OA
BRANCH  16  19
ATOM     19  C   UNL     1       0.537   6.737   1.238  1.00  0.00     0.267 C 
ATOM     20  C   UNL     1      -0.058   8.131   0.982  1.00  0.00     0.100 C 
BRANCH  19  21
ATOM     21  N   UNL     1       2.013   7.003   1.514  1.00  0.00    -0.337 N 
ATOM     22  H   UNL     1       2.108   7.536   2.378  1.00  0.00     0.345 HD
ATOM     23  H   UNL     1       2.413   7.535   0.741  1.00  0.00     0.345 HD
ATOM     24  H   UNL     1       2.507   6.115   1.606  1.00  0.00     0.345 HD
ENDBRANCH  19  21
BRANCH  19  25
ATOM     25  C   UNL     1      -0.186   6.130   2.446  1.00  0.00     0.453 C 
ATOM     26  F   UNL     1      -1.511   6.024   2.233  1.00  0.00    -0.164 F 
ATOM     27  F   UNL     1       0.295   4.914   2.768  1.00  0.00    -0.164 F 
ATOM     28  F   UNL     1      -0.033   6.904   3.550  1.00  0.00    -0.164 F 
ENDBRANCH  19  25
ENDBRANCH  16  19
ENDBRANCH   7  15
ENDBRANCH   4   7
ENDBRANCH   2   3
ENDBRANCH   1   2
BRANCH   1  29
ATOM     29  C   UNL     1       2.698   3.103   1.986  1.00  0.00     0.023 C 
BRANCH  29  30
ATOM     30  C   UNL     1       2.748   2.023   3.056  1.00  0.00     0.116 C 
BRANCH  30  31
ATOM     31  N   UNL     1       3.546   0.881   2.647  1.00  0.00    -0.352 N 
ATOM     32  C   UNL     1       4.517   0.217   3.352  1.00  0.00     0.251 C 
ATOM     33  H   UNL     1       3.366   0.538   1.742  1.00  0.00     0.163 HD
ATOM     34  O   UNL     1       5.221  -0.615   2.774  1.00  0.00    -0.269 OA
BRANCH  32  35
ATOM     35  C   UNL     1       4.737   0.502   4.789  1.00  0.00     0.039 A 
ATOM     36  C   UNL     1       6.048   0.605   5.265  1.00  0.00     0.014 A 
ATOM     37  C   UNL     1       3.662   0.631   5.675  1.00  0.00     0.014 A 
ATOM     38  C   UNL     1       6.281   0.870   6.617  1.00  0.00     0.010 A 
ATOM     39  C   UNL     1       3.895   0.953   7.011  1.00  0.00     0.010 A 
ATOM     40  C   UNL     1       5.206   1.061   7.500  1.00  0.00    -0.014 A 
BRANCH  40  41
ATOM     41  C   UNL     1       5.432   1.334   8.943  1.00  0.00     0.031 A 
ATOM     42  C   UNL     1       5.017   0.317   9.973  1.00  0.00     0.074 A 
ATOM     43  C   UNL     1       5.958   2.512   9.331  1.00  0.00     0.049 A 
ATOM     44  N   UNL     1       5.065   0.395  11.278  1.00  0.00    -0.248 NA
ATOM     45  C   UNL     1       4.448  -0.943   9.469  1.00  0.00     0.031 C 
ATOM     46  C   UNL     1       6.363   3.595   8.432  1.00  0.00     0.029 A 
ATOM     47  N   UNL     1       6.232   3.001  10.583  1.00  0.00    -0.354 N 
ATOM     48  C   UNL     1       4.514  -0.791  11.750  1.00  0.00     0.074 A 
ATOM     49  C   UNL     1       4.101  -1.554  10.592  1.00  0.00     0.031 C 
ATOM     50  C   UNL     1       6.848   4.613   9.162  1.00  0.00     0.029 A 
ATOM     51  C   UNL     1       6.763   4.269  10.578  1.00  0.00     0.049 A 
ATOM     52  H   UNL     1       6.064   2.491  11.409  1.00  0.00     0.167 HD
ATOM     53  C   UNL     1       4.381  -1.215  13.030  1.00  0.00     0.037 A 
ATOM     54  C   UNL     1       7.135   5.066  11.599  1.00  0.00     0.037 A 
ATOM     55  C   UNL     1       4.829  -0.470  14.177  1.00  0.00     0.049 A 
ATOM     56  C   UNL     1       6.997   4.565  13.011  1.00  0.00     0.074 A 
ATOM     57  C   UNL     1       4.802  -0.843  15.510  1.00  0.00     0.029 A 
ATOM     58  N   UNL     1       5.388   0.798  14.128  1.00  0.00    -0.354 N 
ATOM     59  N   UNL     1       6.528   3.416  13.436  1.00  0.00    -0.248 NA
ATOM     60  C   UNL     1       7.446   5.465  14.083  1.00  0.00     0.031 C 
ATOM     61  C   UNL     1       5.317   0.214  16.270  1.00  0.00     0.029 A 
ATOM     62  C   UNL     1       5.698   1.229  15.407  1.00  0.00     0.049 A 
ATOM     63  H   UNL     1       5.542   1.316  13.305  1.00  0.00     0.167 HD
ATOM     64  C   UNL     1       6.647   3.445  14.821  1.00  0.00     0.074 A 
ATOM     65  C   UNL     1       7.241   4.722  15.162  1.00  0.00     0.031 C 
ATOM     66  C   UNL     1       6.298   2.500  15.728  1.00  0.00     0.037 A 
BRANCH  53  67
ATOM     67  C   UNL     1       3.727  -2.550  13.256  1.00  0.00     0.058 A 
ATOM     68  C   UNL     1       4.379  -3.752  12.937  1.00  0.00     0.135 A 
ATOM     69  C   UNL     1       2.443  -2.631  13.820  1.00  0.00     0.135 A 
ATOM     70  F   UNL     1       5.601  -3.731  12.382  1.00  0.00    -0.206 F 
ATOM     71  C   UNL     1       3.769  -4.986  13.140  1.00  0.00     0.059 A 
ATOM     72  C   UNL     1       1.824  -3.855  14.054  1.00  0.00     0.059 A 
ATOM     73  F   UNL     1       1.776  -1.512  14.144  1.00  0.00    -0.206 F 
ATOM     74  C   UNL     1       2.489  -5.027  13.695  1.00  0.00     0.060 A 
BRANCH  74  75
ATOM     75  S   UNL     1       1.708  -6.635  13.948  1.00  0.00     0.124 S 
ATOM     76  O   UNL     1       1.309  -6.980  12.587  1.00  0.00    -0.237 OA
ATOM     77  O   UNL     1       2.796  -7.429  14.509  1.00  0.00    -0.237 OA
ATOM     78  O   UNL     1       0.613  -6.340  14.867  1.00  0.00    -0.744 OA
ENDBRANCH  74  75
ENDBRANCH  53  67
BRANCH  54  79
ATOM     79  C   UNL     1       7.704   6.410  11.321  1.00  0.00     0.058 A 
ATOM     80  C   UNL     1       9.073   6.660  11.501  1.00  0.00     0.135 A 
ATOM     81  C   UNL     1       6.901   7.463  10.858  1.00  0.00     0.135 A 
ATOM     82  F   UNL     1       9.879   5.685  11.949  1.00  0.00    -0.206 F 
ATOM     83  C   UNL     1       9.625   7.910  11.243  1.00  0.00     0.059 A 
ATOM     84  C   UNL     1       7.434   8.717  10.573  1.00  0.00     0.059 A 
ATOM     85  F   UNL     1       5.589   7.269  10.656  1.00  0.00    -0.206 F 
ATOM     86  C   UNL     1       8.797   8.933  10.778  1.00  0.00     0.060 A 
BRANCH  86  87
ATOM     87  S   UNL     1       9.533  10.537  10.395  1.00  0.00     0.124 S 
ATOM     88  O   UNL     1       9.736  11.093  11.728  1.00  0.00    -0.237 OA
ATOM     89  O   UNL     1      10.743  10.157   9.671  1.00  0.00    -0.237 OA
ATOM     90  O   UNL     1       8.508  11.190   9.586  1.00  0.00    -0.744 OA
ENDBRANCH  86  87
ENDBRANCH  54  79
BRANCH  66  91
ATOM     91  C   UNL     1       6.577   2.794  17.174  1.00  0.00     0.058 A 
ATOM     92  C   UNL     1       5.785   3.688  17.909  1.00  0.00     0.135 A 
ATOM     93  C   UNL     1       7.618   2.133  17.845  1.00  0.00     0.135 A 
ATOM     94  F   UNL     1       4.782   4.350  17.311  1.00  0.00    -0.206 F 
ATOM     95  C   UNL     1       6.026   3.932  19.257  1.00  0.00     0.059 A 
ATOM     96  C   UNL     1       7.863   2.344  19.198  1.00  0.00     0.059 A 
ATOM     97  F   UNL     1       8.399   1.260  17.189  1.00  0.00    -0.206 F 
ATOM     98  C   UNL     1       7.068   3.254  19.893  1.00  0.00     0.060 A 
BRANCH  98  99
ATOM     99  S   UNL     1       7.349   3.548  21.652  1.00  0.00     0.124 S 
ATOM    100  O   UNL     1       8.024   4.842  21.629  1.00  0.00    -0.237 OA
ATOM    101  O   UNL     1       5.993   3.551  22.193  1.00  0.00    -0.237 OA
ATOM    102  O   UNL     1       8.175   2.415  22.057  1.00  0.00    -0.744 OA
ENDBRANCH  98  99
ENDBRANCH  66  91
ENDBRANCH  40  41
ENDBRANCH  32  35
ENDBRANCH  30  31
ENDBRANCH  29  30
ENDBRANCH   1  29
TORSDOF 19
