REMARK SMILES O=C(N/N=C/c1ccc(C(=O)NCCCCNC(=O)c2ccc(-c3c4nc(c(-c5c(F)cc(S(=O)(=O)[O-])cc5F)c5ccc([nH]5)c(-c5c(F)cc(S(=O)(=O)[O-])cc5F)c5nc(c(-c6c(F)cc(S(=O)(=O)[O-])cc6F)c6ccc3[nH]6)C=C5)C=C4)cc2)cc1)C(=O)Nc1ccc2c(c1)OCO2
REMARK SMILES IDX 14 1 13 2 12 3 10 4 11 5 9 7 6 8 7 9 87 10 8 11 86 12 5 13
REMARK SMILES IDX 4 14 3 15 1 16 2 17 88 19 89 20 90 21 91 23 92 24 96 25
REMARK SMILES IDX 93 26 95 27 94 28 97 29 99 30 98 31 15 32 16 33 17 34 18 35
REMARK SMILES IDX 19 37 20 38 21 39 85 40 22 41 84 42 23 43 24 44 25 45 78 46
REMARK SMILES IDX 26 47 83 48 77 49 79 50 27 51 82 52 76 53 75 54 28 56 62 57
REMARK SMILES IDX 41 58 61 59 42 60 45 61 60 62 80 63 43 64 44 65 59 67 81 68
REMARK SMILES IDX 46 69 29 70 30 71 39 72 31 73 32 74 38 75 40 76 33 77 34 78
REMARK SMILES IDX 35 79 36 80 37 81 63 82 64 83 73 84 65 85 66 86 72 87 74 88
REMARK SMILES IDX 67 89 68 90 69 91 70 92 71 93 47 94 48 95 57 96 49 97 50 98
REMARK SMILES IDX 56 99 58 100 51 101 52 102 53 103 54 104 55 105
REMARK H PARENT 12 6 3 18 90 22 17 36 79 55 45 66
REMARK Flexibility Score: inf
ROOT
ATOM      1  C   UNL     1      11.127  -1.194   3.651  1.00  0.00     0.023 C 
ENDROOT
BRANCH   1   2
ATOM      2  C   UNL     1      10.988   0.125   2.889  1.00  0.00     0.116 C 
BRANCH   2   3
ATOM      3  N   UNL     1      11.575   0.013   1.565  1.00  0.00    -0.352 N 
ATOM      4  C   UNL     1      10.982  -0.282   0.361  1.00  0.00     0.251 C 
ATOM      5  O   UNL     1      11.655  -0.296  -0.665  1.00  0.00    -0.269 OA
ATOM      6  H   UNL     1      12.545   0.173   1.524  1.00  0.00     0.163 HD
BRANCH   4   7
ATOM      7  C   UNL     1       9.513  -0.452   0.275  1.00  0.00     0.039 A 
ATOM      8  C   UNL     1       6.457  -0.076   0.381  1.00  0.00    -0.005 A 
ATOM      9  C   UNL     1       7.426   0.234  -0.741  1.00  0.00     0.010 A 
ATOM     10  C   UNL     1       7.330  -0.995   1.198  1.00  0.00     0.010 A 
ATOM     11  C   UNL     1       8.842   0.106  -0.780  1.00  0.00     0.014 A 
ATOM     12  C   UNL     1       8.744  -1.150   1.170  1.00  0.00     0.014 A 
BRANCH   8  13
ATOM     13  C   UNL     1       4.450   0.609   0.686  1.00  0.00     0.141 C 
ATOM     14  N   UNL     1       3.267   0.091   1.175  1.00  0.00    -0.180 NA
BRANCH  14  15
ATOM     15  N   UNL     1       2.170   0.631   0.596  1.00  0.00    -0.239 N 
ATOM     16  O   UNL     1       0.743   0.815  -1.162  1.00  0.00    -0.262 OA
ATOM     17  C   UNL     1       1.737   0.276  -0.676  1.00  0.00     0.329 C 
ATOM     18  H   UNL     1       1.656   1.305   1.098  1.00  0.00     0.194 HD
BRANCH  17  19
ATOM     19  C   UNL     1       2.420  -0.872  -1.475  1.00  0.00     0.315 C 
ATOM     20  O   UNL     1       1.718  -1.792  -1.895  1.00  0.00    -0.263 OA
ATOM     21  N   UNL     1       3.761  -0.819  -1.861  1.00  0.00    -0.318 N 
ATOM     22  H   UNL     1       4.001  -1.022  -2.794  1.00  0.00     0.170 HD
BRANCH  21  23
ATOM     23  C   UNL     1       4.775  -0.483  -0.951  1.00  0.00     0.045 A 
ATOM     24  C   UNL     1       5.329   1.269  -0.986  1.00  0.00     0.030 A 
ATOM     25  C   UNL     1       4.786  -1.431   0.621  1.00  0.00     0.076 A 
ATOM     26  C   UNL     1       5.940   2.049   0.567  1.00  0.00     0.053 A 
ATOM     27  C   UNL     1       5.229  -0.544   2.156  1.00  0.00     0.167 A 
ATOM     28  C   UNL     1       5.825   1.128   2.103  1.00  0.00     0.165 A 
ATOM     29  O   UNL     1       5.047  -0.857   3.463  1.00  0.00    -0.454 OA
ATOM     30  O   UNL     1       5.902   1.545   3.391  1.00  0.00    -0.454 OA
ATOM     31  C   UNL     1       5.171   0.470   4.096  1.00  0.00     0.468 C 
ENDBRANCH  21  23
ENDBRANCH  17  19
ENDBRANCH  14  15
ENDBRANCH   8  13
ENDBRANCH   4   7
ENDBRANCH   2   3
ENDBRANCH   1   2
BRANCH   1  32
ATOM     32  C   UNL     1      12.537  -1.471   4.159  1.00  0.00     0.023 C 
BRANCH  32  33
ATOM     33  C   UNL     1      13.031  -0.475   5.191  1.00  0.00     0.116 C 
BRANCH  33  34
ATOM     34  N   UNL     1      12.199  -0.428   6.386  1.00  0.00    -0.352 N 
ATOM     35  C   UNL     1      12.622  -0.261   7.685  1.00  0.00     0.251 C 
ATOM     36  H   UNL     1      11.229  -0.526   6.250  1.00  0.00     0.163 HD
ATOM     37  O   UNL     1      11.841  -0.349   8.624  1.00  0.00    -0.269 OA
BRANCH  35  38
ATOM     38  C   UNL     1      14.058  -0.012   7.904  1.00  0.00     0.039 A 
ATOM     39  C   UNL     1      14.791  -0.896   8.697  1.00  0.00     0.014 A 
ATOM     40  C   UNL     1      14.688   1.012   7.193  1.00  0.00     0.014 A 
ATOM     41  C   UNL     1      16.183  -0.792   8.722  1.00  0.00     0.010 A 
ATOM     42  C   UNL     1      16.073   1.053   7.149  1.00  0.00     0.010 A 
ATOM     43  C   UNL     1      16.834   0.157   7.918  1.00  0.00    -0.014 A 
BRANCH  43  44
ATOM     44  C   UNL     1      18.312   0.276   7.880  1.00  0.00     0.031 A 
ATOM     45  C   UNL     1      18.948   1.565   8.324  1.00  0.00     0.074 A 
ATOM     46  C   UNL     1      19.064  -0.717   7.364  1.00  0.00     0.049 A 
ATOM     47  N   UNL     1      20.191   1.952   8.222  1.00  0.00    -0.248 NA
ATOM     48  C   UNL     1      18.052   2.568   8.927  1.00  0.00     0.031 C 
ATOM     49  C   UNL     1      18.557  -1.998   6.869  1.00  0.00     0.029 A 
ATOM     50  N   UNL     1      20.418  -0.792   7.150  1.00  0.00    -0.354 N 
ATOM     51  C   UNL     1      20.220   3.250   8.718  1.00  0.00     0.074 A 
ATOM     52  C   UNL     1      18.863   3.605   9.067  1.00  0.00     0.031 C 
ATOM     53  C   UNL     1      19.587  -2.736   6.422  1.00  0.00     0.029 A 
ATOM     54  C   UNL     1      20.820  -1.966   6.555  1.00  0.00     0.049 A 
ATOM     55  H   UNL     1      21.043  -0.074   7.400  1.00  0.00     0.167 HD
ATOM     56  C   UNL     1      21.287   4.064   8.890  1.00  0.00     0.037 A 
ATOM     57  C   UNL     1      22.041  -2.364   6.147  1.00  0.00     0.037 A 
ATOM     58  C   UNL     1      22.638   3.685   8.576  1.00  0.00     0.049 A 
ATOM     59  C   UNL     1      23.215  -1.442   6.349  1.00  0.00     0.074 A 
ATOM     60  C   UNL     1      23.799   4.412   8.762  1.00  0.00     0.029 A 
ATOM     61  N   UNL     1      23.008   2.471   8.015  1.00  0.00    -0.354 N 
ATOM     62  N   UNL     1      23.235  -0.235   6.863  1.00  0.00    -0.248 NA
ATOM     63  C   UNL     1      24.533  -1.933   5.920  1.00  0.00     0.031 C 
ATOM     64  C   UNL     1      24.868   3.656   8.274  1.00  0.00     0.029 A 
ATOM     65  C   UNL     1      24.380   2.434   7.836  1.00  0.00     0.049 A 
ATOM     66  H   UNL     1      22.387   1.745   7.779  1.00  0.00     0.167 HD
ATOM     67  C   UNL     1      24.569   0.160   6.859  1.00  0.00     0.074 A 
ATOM     68  C   UNL     1      25.326  -0.935   6.287  1.00  0.00     0.031 C 
ATOM     69  C   UNL     1      25.117   1.320   7.294  1.00  0.00     0.037 A 
BRANCH  56  70
ATOM     70  C   UNL     1      21.034   5.437   9.447  1.00  0.00     0.058 A 
ATOM     71  C   UNL     1      20.625   5.632  10.776  1.00  0.00     0.135 A 
ATOM     72  C   UNL     1      21.225   6.576   8.648  1.00  0.00     0.135 A 
ATOM     73  F   UNL     1      20.408   4.577  11.579  1.00  0.00    -0.206 F 
ATOM     74  C   UNL     1      20.381   6.903  11.283  1.00  0.00     0.059 A 
ATOM     75  C   UNL     1      21.019   7.859   9.144  1.00  0.00     0.059 A 
ATOM     76  F   UNL     1      21.613   6.448   7.369  1.00  0.00    -0.206 F 
ATOM     77  C   UNL     1      20.581   8.011  10.459  1.00  0.00     0.060 A 
BRANCH  77  78
ATOM     78  S   UNL     1      20.263   9.654  11.135  1.00  0.00     0.124 S 
ATOM     79  O   UNL     1      18.805   9.665  11.195  1.00  0.00    -0.237 OA
ATOM     80  O   UNL     1      20.950   9.600  12.421  1.00  0.00    -0.237 OA
ATOM     81  O   UNL     1      20.857  10.549  10.147  1.00  0.00    -0.744 OA
ENDBRANCH  77  78
ENDBRANCH  56  70
BRANCH  57  82
ATOM     82  C   UNL     1      22.221  -3.706   5.528  1.00  0.00     0.058 A 
ATOM     83  C   UNL     1      22.902  -4.727   6.207  1.00  0.00     0.135 A 
ATOM     84  C   UNL     1      21.709  -3.999   4.254  1.00  0.00     0.135 A 
ATOM     85  F   UNL     1      23.416  -4.495   7.424  1.00  0.00    -0.206 F 
ATOM     86  C   UNL     1      23.086  -5.984   5.640  1.00  0.00     0.059 A 
ATOM     87  C   UNL     1      21.857  -5.257   3.677  1.00  0.00     0.059 A 
ATOM     88  F   UNL     1      21.034  -3.063   3.569  1.00  0.00    -0.206 F 
ATOM     89  C   UNL     1      22.558  -6.240   4.374  1.00  0.00     0.060 A 
BRANCH  89  90
ATOM     90  S   UNL     1      22.765  -7.890   3.667  1.00  0.00     0.124 S 
ATOM     91  O   UNL     1      24.185  -7.891   3.335  1.00  0.00    -0.237 OA
ATOM     92  O   UNL     1      22.367  -8.750   4.777  1.00  0.00    -0.237 OA
ATOM     93  O   UNL     1      21.850  -7.884   2.530  1.00  0.00    -0.744 OA
ENDBRANCH  89  90
ENDBRANCH  57  82
BRANCH  69  94
ATOM     94  C   UNL     1      26.613   1.456   7.241  1.00  0.00     0.058 A 
ATOM     95  C   UNL     1      27.295   1.683   6.036  1.00  0.00     0.135 A 
ATOM     96  C   UNL     1      27.358   1.467   8.432  1.00  0.00     0.135 A 
ATOM     97  F   UNL     1      26.629   1.675   4.871  1.00  0.00    -0.206 F 
ATOM     98  C   UNL     1      28.666   1.914   6.014  1.00  0.00     0.059 A 
ATOM     99  C   UNL     1      28.725   1.722   8.435  1.00  0.00     0.059 A 
ATOM    100  F   UNL     1      26.750   1.264   9.611  1.00  0.00    -0.206 F 
ATOM    101  C   UNL     1      29.371   1.942   7.220  1.00  0.00     0.060 A 
BRANCH 101 102
ATOM    102  S   UNL     1      31.136   2.322   7.182  1.00  0.00     0.124 S 
ATOM    103  O   UNL     1      31.690   1.090   6.633  1.00  0.00    -0.237 OA
ATOM    104  O   UNL     1      31.185   3.487   6.304  1.00  0.00    -0.237 OA
ATOM    105  O   UNL     1      31.457   2.586   8.582  1.00  0.00    -0.744 OA
ENDBRANCH 101 102
ENDBRANCH  69  94
ENDBRANCH  43  44
ENDBRANCH  35  38
ENDBRANCH  33  34
ENDBRANCH  32  33
ENDBRANCH   1  32
TORSDOF 18
