REMARK SMILES COC(=O)c1ccc(C)c(NC(=O)[C@H]2CC=CC[C@H]2C(=O)NCCCCNC(=O)c2ccc(-c3c4nc(c(-c5c(F)cc(S(=O)(=O)[O-])cc5F)c5ccc([nH]5)c(-c5c(F)cc(S(=O)(=O)[O-])cc5F)c5nc(c(-c6c(F)cc(S(=O)(=O)[O-])cc6F)c6ccc3[nH]6)C=C5)C=C4)cc2)c1
REMARK SMILES IDX 24 1 23 2 22 3 20 4 21 5 19 7 14 8 15 9 16 10 18 11 17 12
REMARK SMILES IDX 12 13 11 14 13 16 10 17 5 18 6 19 96 20 7 21 8 22 9 23 3 24
REMARK SMILES IDX 4 25 2 26 1 27 25 28 26 29 27 30 28 31 29 33 30 34 31 35
REMARK SMILES IDX 95 36 32 37 94 38 33 39 34 40 35 41 88 42 36 43 93 44 87 45
REMARK SMILES IDX 89 46 37 47 92 48 86 49 85 50 38 52 72 53 51 54 71 55 52 56
REMARK SMILES IDX 55 57 70 58 90 59 53 60 54 61 69 63 91 64 56 65 39 66 40 67
REMARK SMILES IDX 49 68 41 69 42 70 48 71 50 72 43 73 44 74 45 75 46 76 47 77
REMARK SMILES IDX 73 78 74 79 83 80 75 81 76 82 82 83 84 84 77 85 78 86 79 87
REMARK SMILES IDX 80 88 81 89 57 90 58 91 67 92 59 93 60 94 66 95 68 96 61 97
REMARK SMILES IDX 62 98 63 99 64 100 65 101
REMARK H PARENT 22 6 11 15 27 32 89 51 55 62
REMARK Flexibility Score: inf
ROOT
ATOM      1  C   UNL     1       5.915  -0.065   0.485  1.00  0.00     0.023 C 
ENDROOT
BRANCH   1   2
ATOM      2  C   UNL     1       6.054  -0.489  -0.981  1.00  0.00     0.116 C 
BRANCH   2   3
ATOM      3  N   UNL     1       5.330   0.267  -1.988  1.00  0.00    -0.356 N 
ATOM      4  C   UNL     1       5.766   0.991  -3.055  1.00  0.00     0.224 C 
ATOM      5  O   UNL     1       4.964   1.179  -3.978  1.00  0.00    -0.275 OA
ATOM      6  H   UNL     1       4.352   0.253  -1.879  1.00  0.00     0.163 HD
BRANCH   4   7
ATOM      7  C   UNL     1       7.176   1.547  -3.185  1.00  0.00     0.095 C 
ATOM      8  C   UNL     1       7.653   2.625  -2.172  1.00  0.00     0.095 C 
ATOM      9  C   UNL     1       9.165   2.541  -1.789  1.00  0.00     0.041 C 
ATOM     10  C   UNL     1       9.986   1.423  -2.338  1.00  0.00    -0.030 C 
ATOM     11  C   UNL     1       8.105   0.384  -3.583  1.00  0.00     0.041 C 
ATOM     12  C   UNL     1       9.517   0.462  -3.131  1.00  0.00    -0.030 C 
BRANCH   8  13
ATOM     13  C   UNL     1       6.805   2.955  -0.929  1.00  0.00     0.228 C 
ATOM     14  N   UNL     1       5.465   3.184  -0.905  1.00  0.00    -0.326 N 
ATOM     15  H   UNL     1       5.117   3.214   0.016  1.00  0.00     0.169 HD
ATOM     16  O   UNL     1       7.346   3.042   0.184  1.00  0.00    -0.274 OA
BRANCH  14  17
ATOM     17  C   UNL     1       4.450   3.388  -1.852  1.00  0.00     0.044 A 
ATOM     18  C   UNL     1       2.168   2.719  -2.478  1.00  0.00     0.062 A 
ATOM     19  C   UNL     1       2.223   3.567  -3.575  1.00  0.00     0.016 A 
ATOM     20  C   UNL     1       3.263   2.674  -1.612  1.00  0.00     0.042 A 
ATOM     21  C   UNL     1       3.365   4.349  -3.784  1.00  0.00     0.006 A 
ATOM     22  C   UNL     1       4.484   4.284  -2.922  1.00  0.00    -0.027 A 
ATOM     23  C   UNL     1       5.604   5.247  -3.157  1.00  0.00     0.046 C 
BRANCH  18  24
ATOM     24  C   UNL     1       0.919   1.955  -2.195  1.00  0.00     0.337 C 
ATOM     25  O   UNL     1      -0.126   2.110  -2.789  1.00  0.00    -0.246 OA
BRANCH  24  26
ATOM     26  O   UNL     1       1.109   1.189  -1.089  1.00  0.00    -0.465 OA
ATOM     27  C   UNL     1      -0.049   0.982  -0.279  1.00  0.00     0.282 C 
ENDBRANCH  24  26
ENDBRANCH  18  24
ENDBRANCH  14  17
ENDBRANCH   8  13
ENDBRANCH   4   7
ENDBRANCH   2   3
ENDBRANCH   1   2
BRANCH   1  28
ATOM     28  C   UNL     1       4.559   0.280   1.091  1.00  0.00     0.023 C 
BRANCH  28  29
ATOM     29  C   UNL     1       3.454  -0.739   0.917  1.00  0.00     0.116 C 
BRANCH  29  30
ATOM     30  N   UNL     1       3.220  -1.458   2.158  1.00  0.00    -0.352 N 
ATOM     31  C   UNL     1       2.031  -2.045   2.545  1.00  0.00     0.251 C 
ATOM     32  H   UNL     1       3.979  -1.535   2.780  1.00  0.00     0.163 HD
ATOM     33  O   UNL     1       1.460  -1.842   3.605  1.00  0.00    -0.269 OA
BRANCH  31  34
ATOM     34  C   UNL     1       1.511  -3.029   1.586  1.00  0.00     0.039 A 
ATOM     35  C   UNL     1       1.761  -4.385   1.833  1.00  0.00     0.014 A 
ATOM     36  C   UNL     1       1.220  -2.545   0.319  1.00  0.00     0.014 A 
ATOM     37  C   UNL     1       1.916  -5.234   0.750  1.00  0.00     0.010 A 
ATOM     38  C   UNL     1       1.526  -3.335  -0.746  1.00  0.00     0.010 A 
ATOM     39  C   UNL     1       1.896  -4.662  -0.519  1.00  0.00    -0.014 A 
BRANCH  39  40
ATOM     40  C   UNL     1       2.131  -5.377  -1.746  1.00  0.00     0.031 A 
ATOM     41  C   UNL     1       0.925  -5.859  -2.432  1.00  0.00     0.074 A 
ATOM     42  C   UNL     1       3.374  -5.332  -2.265  1.00  0.00     0.049 A 
ATOM     43  N   UNL     1       0.911  -6.801  -3.295  1.00  0.00    -0.248 NA
ATOM     44  C   UNL     1      -0.409  -5.321  -2.154  1.00  0.00     0.031 C 
ATOM     45  C   UNL     1       3.820  -5.681  -3.605  1.00  0.00     0.029 A 
ATOM     46  N   UNL     1       4.561  -5.120  -1.552  1.00  0.00    -0.354 N 
ATOM     47  C   UNL     1      -0.319  -6.761  -3.920  1.00  0.00     0.074 A 
ATOM     48  C   UNL     1      -1.139  -5.907  -3.104  1.00  0.00     0.031 C 
ATOM     49  C   UNL     1       5.133  -5.979  -3.555  1.00  0.00     0.029 A 
ATOM     50  C   UNL     1       5.529  -5.948  -2.153  1.00  0.00     0.049 A 
ATOM     51  H   UNL     1       4.692  -4.514  -0.787  1.00  0.00     0.167 HD
ATOM     52  C   UNL     1      -0.421  -7.320  -5.157  1.00  0.00     0.037 A 
ATOM     53  C   UNL     1       5.991  -7.026  -1.451  1.00  0.00     0.037 A 
ATOM     54  C   UNL     1       0.863  -7.926  -5.513  1.00  0.00     0.049 A 
ATOM     55  C   UNL     1       5.532  -8.335  -2.064  1.00  0.00     0.074 A 
ATOM     56  C   UNL     1       1.945  -7.442  -6.231  1.00  0.00     0.029 A 
ATOM     57  N   UNL     1       1.340  -8.986  -4.750  1.00  0.00    -0.354 N 
ATOM     58  N   UNL     1       4.465  -8.466  -2.809  1.00  0.00    -0.248 NA
ATOM     59  C   UNL     1       6.295  -9.575  -1.966  1.00  0.00     0.031 C 
ATOM     60  C   UNL     1       3.096  -8.170  -5.832  1.00  0.00     0.029 A 
ATOM     61  C   UNL     1       2.712  -9.101  -4.880  1.00  0.00     0.049 A 
ATOM     62  H   UNL     1       0.779  -9.574  -4.194  1.00  0.00     0.167 HD
ATOM     63  C   UNL     1       4.407  -9.741  -3.317  1.00  0.00     0.074 A 
ATOM     64  C   UNL     1       5.577 -10.393  -2.755  1.00  0.00     0.031 C 
ATOM     65  C   UNL     1       3.431 -10.157  -4.183  1.00  0.00     0.037 A 
BRANCH  52  66
ATOM     66  C   UNL     1      -1.535  -7.049  -6.142  1.00  0.00     0.058 A 
ATOM     67  C   UNL     1      -1.281  -7.121  -7.529  1.00  0.00     0.135 A 
ATOM     68  C   UNL     1      -2.859  -6.694  -5.806  1.00  0.00     0.135 A 
ATOM     69  F   UNL     1      -0.086  -7.493  -8.007  1.00  0.00    -0.206 F 
ATOM     70  C   UNL     1      -2.235  -6.814  -8.498  1.00  0.00     0.059 A 
ATOM     71  C   UNL     1      -3.822  -6.338  -6.758  1.00  0.00     0.059 A 
ATOM     72  F   UNL     1      -3.294  -6.729  -4.540  1.00  0.00    -0.206 F 
ATOM     73  C   UNL     1      -3.501  -6.408  -8.106  1.00  0.00     0.060 A 
BRANCH  73  74
ATOM     74  S   UNL     1      -4.714  -6.030  -9.382  1.00  0.00     0.124 S 
ATOM     75  O   UNL     1      -4.040  -4.983 -10.146  1.00  0.00    -0.237 OA
ATOM     76  O   UNL     1      -4.854  -7.316 -10.056  1.00  0.00    -0.237 OA
ATOM     77  O   UNL     1      -5.882  -5.591  -8.624  1.00  0.00    -0.744 OA
ENDBRANCH  73  74
ENDBRANCH  52  66
BRANCH  53  78
ATOM     78  C   UNL     1       6.176  -6.708   0.002  1.00  0.00     0.058 A 
ATOM     79  C   UNL     1       7.151  -5.737   0.327  1.00  0.00     0.135 A 
ATOM     80  C   UNL     1       5.177  -6.944   0.956  1.00  0.00     0.135 A 
ATOM     81  F   UNL     1       8.143  -5.470  -0.540  1.00  0.00    -0.206 F 
ATOM     82  C   UNL     1       7.051  -4.930   1.460  1.00  0.00     0.059 A 
ATOM     83  C   UNL     1       5.065  -6.153   2.108  1.00  0.00     0.059 A 
ATOM     84  F   UNL     1       4.219  -7.852   0.722  1.00  0.00    -0.206 F 
ATOM     85  C   UNL     1       5.972  -5.112   2.318  1.00  0.00     0.060 A 
BRANCH  85  86
ATOM     86  S   UNL     1       5.696  -3.883   3.616  1.00  0.00     0.124 S 
ATOM     87  O   UNL     1       6.872  -4.056   4.458  1.00  0.00    -0.237 OA
ATOM     88  O   UNL     1       5.639  -2.639   2.848  1.00  0.00    -0.237 OA
ATOM     89  O   UNL     1       4.424  -4.287   4.201  1.00  0.00    -0.744 OA
ENDBRANCH  85  86
ENDBRANCH  53  78
BRANCH  65  90
ATOM     90  C   UNL     1       3.098 -11.591  -4.555  1.00  0.00     0.058 A 
ATOM     91  C   UNL     1       3.436 -12.709  -3.777  1.00  0.00     0.135 A 
ATOM     92  C   UNL     1       2.256 -11.868  -5.668  1.00  0.00     0.135 A 
ATOM     93  F   UNL     1       4.121 -12.589  -2.632  1.00  0.00    -0.206 F 
ATOM     94  C   UNL     1       3.041 -14.004  -4.116  1.00  0.00     0.059 A 
ATOM     95  C   UNL     1       1.780 -13.138  -5.972  1.00  0.00     0.059 A 
ATOM     96  F   UNL     1       1.843 -10.907  -6.507  1.00  0.00    -0.206 F 
ATOM     97  C   UNL     1       2.210 -14.208  -5.211  1.00  0.00     0.060 A 
BRANCH  97  98
ATOM     98  S   UNL     1       1.668 -15.873  -5.619  1.00  0.00     0.124 S 
ATOM     99  O   UNL     1       2.810 -16.366  -6.382  1.00  0.00    -0.237 OA
ATOM    100  O   UNL     1       1.479 -16.476  -4.303  1.00  0.00    -0.237 OA
ATOM    101  O   UNL     1       0.444 -15.655  -6.382  1.00  0.00    -0.744 OA
ENDBRANCH  97  98
ENDBRANCH  65  90
ENDBRANCH  39  40
ENDBRANCH  31  34
ENDBRANCH  29  30
ENDBRANCH  28  29
ENDBRANCH   1  28
TORSDOF 18
