REMARK SMILES NC(=O)C[C@H](NC(=O)[C@@H]1CCC[NH2+]1)C(=O)NCCCCNC(=O)c1ccc(-c2c3nc(c(-c4c(F)cc(S(=O)(=O)[O-])cc4F)c4ccc([nH]4)c(-c4c(F)cc(S(=O)(=O)[O-])cc4F)c4nc(c(-c5c(F)cc(S(=O)(=O)[O-])cc5F)c5ccc2[nH]5)C=C4)C=C3)cc1
REMARK SMILES IDX 19 1 18 2 17 3 16 4 14 5 15 6 5 8 4 9 2 10 1 11 3 14 6 15
REMARK SMILES IDX 7 16 8 18 9 19 10 20 13 21 11 22 12 23 20 26 21 27 22 28
REMARK SMILES IDX 23 30 24 31 25 32 89 33 26 34 88 35 27 36 28 37 29 38 82 39
REMARK SMILES IDX 30 40 87 41 81 42 83 43 31 44 86 45 80 46 79 47 32 49 66 50
REMARK SMILES IDX 45 51 65 52 46 53 49 54 64 55 84 56 47 57 48 58 63 60 85 61
REMARK SMILES IDX 50 62 33 63 34 64 43 65 35 66 36 67 42 68 44 69 37 70 38 71
REMARK SMILES IDX 39 72 40 73 41 74 67 75 68 76 77 77 69 78 70 79 76 80 78 81
REMARK SMILES IDX 71 82 72 83 73 84 74 85 75 86 51 87 52 88 61 89 53 90 54 91
REMARK SMILES IDX 60 92 62 93 55 94 56 95 57 96 58 97 59 98
REMARK H PARENT 16 7 1 12 1 13 6 17 13 24 13 25 21 29 83 48 49 59
REMARK Flexibility Score: inf
ROOT
ATOM      1  C   UNL     1       4.082   5.075  -3.494  1.00  0.00     0.023 C 
ENDROOT
BRANCH   1   2
ATOM      2  C   UNL     1       3.290   3.893  -2.940  1.00  0.00     0.023 C 
BRANCH   2   3
ATOM      3  C   UNL     1       3.703   3.472  -1.537  1.00  0.00     0.116 C 
BRANCH   3   4
ATOM      4  N   UNL     1       3.258   4.412  -0.513  1.00  0.00    -0.354 N 
ATOM      5  C   UNL     1       2.707   4.129   0.713  1.00  0.00     0.243 C 
ATOM      6  O   UNL     1       2.682   5.003   1.582  1.00  0.00    -0.273 OA
ATOM      7  H   UNL     1       3.366   5.367  -0.728  1.00  0.00     0.163 HD
BRANCH   5   8
ATOM      8  C   UNL     1       2.287   2.682   1.037  1.00  0.00     0.180 C 
BRANCH   8   9
ATOM      9  C   UNL     1       3.599   1.921   1.282  1.00  0.00     0.134 C 
BRANCH   9  10
ATOM     10  C   UNL     1       3.842   1.681   2.760  1.00  0.00     0.220 C 
ATOM     11  N   UNL     1       3.667   2.748   3.592  1.00  0.00    -0.370 N 
ATOM     12  H   UNL     1       3.811   2.646   4.560  1.00  0.00     0.159 HD
ATOM     13  H   UNL     1       3.396   3.620   3.223  1.00  0.00     0.159 HD
ATOM     14  O   UNL     1       4.276   0.622   3.204  1.00  0.00    -0.275 OA
ENDBRANCH   9  10
ENDBRANCH   8   9
BRANCH   8  15
ATOM     15  N   UNL     1       1.382   2.279  -0.058  1.00  0.00    -0.339 N 
ATOM     16  C   UNL     1       0.751   1.108  -0.343  1.00  0.00     0.278 C 
ATOM     17  H   UNL     1       1.201   2.996  -0.707  1.00  0.00     0.164 HD
ATOM     18  O   UNL     1      -0.168   1.146  -1.165  1.00  0.00    -0.268 OA
BRANCH  16  19
ATOM     19  C   UNL     1       1.273  -0.209   0.212  1.00  0.00     0.272 C 
ATOM     20  C   UNL     1       0.310  -1.377   0.076  1.00  0.00     0.081 C 
ATOM     21  N   UNL     1       1.489  -0.181   1.673  1.00  0.00    -0.336 N 
ATOM     22  C   UNL     1       0.830  -2.381   1.100  1.00  0.00     0.068 C 
ATOM     23  C   UNL     1       1.785  -1.584   1.983  1.00  0.00     0.261 C 
ATOM     24  H   UNL     1       0.652   0.136   2.162  1.00  0.00     0.346 HD
ATOM     25  H   UNL     1       2.228   0.461   1.960  1.00  0.00     0.346 HD
ENDBRANCH  16  19
ENDBRANCH   8  15
ENDBRANCH   5   8
ENDBRANCH   3   4
ENDBRANCH   2   3
ENDBRANCH   1   2
BRANCH   1  26
ATOM     26  C   UNL     1       5.595   4.880  -3.526  1.00  0.00     0.116 C 
BRANCH  26  27
ATOM     27  N   UNL     1       6.007   3.727  -4.313  1.00  0.00    -0.352 N 
ATOM     28  C   UNL     1       7.010   3.647  -5.253  1.00  0.00     0.251 C 
ATOM     29  H   UNL     1       5.504   2.896  -4.152  1.00  0.00     0.163 HD
ATOM     30  O   UNL     1       7.148   2.639  -5.930  1.00  0.00    -0.269 OA
BRANCH  28  31
ATOM     31  C   UNL     1       7.893   4.816  -5.453  1.00  0.00     0.039 A 
ATOM     32  C   UNL     1       8.075   5.315  -6.744  1.00  0.00     0.014 A 
ATOM     33  C   UNL     1       8.487   5.447  -4.356  1.00  0.00     0.014 A 
ATOM     34  C   UNL     1       8.799   6.495  -6.927  1.00  0.00     0.010 A 
ATOM     35  C   UNL     1       9.142   6.660  -4.533  1.00  0.00     0.010 A 
ATOM     36  C   UNL     1       9.304   7.197  -5.820  1.00  0.00    -0.014 A 
BRANCH  36  37
ATOM     37  C   UNL     1      10.006   8.496  -5.984  1.00  0.00     0.031 A 
ATOM     38  C   UNL     1      11.451   8.623  -5.590  1.00  0.00     0.074 A 
ATOM     39  C   UNL     1       9.324   9.573  -6.423  1.00  0.00     0.049 A 
ATOM     40  N   UNL     1      12.216   9.684  -5.587  1.00  0.00    -0.248 NA
ATOM     41  C   UNL     1      12.117   7.402  -5.107  1.00  0.00     0.031 C 
ATOM     42  C   UNL     1       7.906   9.588  -6.789  1.00  0.00     0.029 A 
ATOM     43  N   UNL     1       9.731  10.868  -6.625  1.00  0.00    -0.354 N 
ATOM     44  C   UNL     1      13.445   9.264  -5.092  1.00  0.00     0.074 A 
ATOM     45  C   UNL     1      13.306   7.864  -4.751  1.00  0.00     0.031 C 
ATOM     46  C   UNL     1       7.569  10.823  -7.195  1.00  0.00     0.029 A 
ATOM     47  C   UNL     1       8.732  11.697  -7.082  1.00  0.00     0.049 A 
ATOM     48  H   UNL     1      10.651  11.176  -6.458  1.00  0.00     0.167 HD
ATOM     49  C   UNL     1      14.592   9.971  -4.958  1.00  0.00     0.037 A 
ATOM     50  C   UNL     1       8.752  13.012  -7.372  1.00  0.00     0.037 A 
ATOM     51  C   UNL     1      14.730  11.357  -5.323  1.00  0.00     0.049 A 
ATOM     52  C   UNL     1      10.037  13.778  -7.215  1.00  0.00     0.074 A 
ATOM     53  C   UNL     1      15.863  12.150  -5.278  1.00  0.00     0.029 A 
ATOM     54  N   UNL     1      13.701  12.156  -5.801  1.00  0.00    -0.354 N 
ATOM     55  N   UNL     1      11.206  13.350  -6.801  1.00  0.00    -0.248 NA
ATOM     56  C   UNL     1      10.009  15.204  -7.567  1.00  0.00     0.031 C 
ATOM     57  C   UNL     1      15.510  13.439  -5.690  1.00  0.00     0.029 A 
ATOM     58  C   UNL     1      14.168  13.438  -6.038  1.00  0.00     0.049 A 
ATOM     59  H   UNL     1      12.775  11.856  -5.951  1.00  0.00     0.167 HD
ATOM     60  C   UNL     1      12.059  14.446  -6.871  1.00  0.00     0.074 A 
ATOM     61  C   UNL     1      11.273  15.554  -7.375  1.00  0.00     0.031 C 
ATOM     62  C   UNL     1      13.374  14.528  -6.548  1.00  0.00     0.037 A 
BRANCH  49  63
ATOM     63  C   UNL     1      15.789   9.252  -4.399  1.00  0.00     0.058 A 
ATOM     64  C   UNL     1      16.456   8.255  -5.130  1.00  0.00     0.135 A 
ATOM     65  C   UNL     1      16.289   9.575  -3.128  1.00  0.00     0.135 A 
ATOM     66  F   UNL     1      16.011   7.894  -6.345  1.00  0.00    -0.206 F 
ATOM     67  C   UNL     1      17.553   7.580  -4.606  1.00  0.00     0.059 A 
ATOM     68  C   UNL     1      17.404   8.933  -2.596  1.00  0.00     0.059 A 
ATOM     69  F   UNL     1      15.691  10.521  -2.386  1.00  0.00    -0.206 F 
ATOM     70  C   UNL     1      18.018   7.924  -3.337  1.00  0.00     0.060 A 
BRANCH  70  71
ATOM     71  S   UNL     1      19.439   7.034  -2.669  1.00  0.00     0.124 S 
ATOM     72  O   UNL     1      18.844   5.744  -2.338  1.00  0.00    -0.237 OA
ATOM     73  O   UNL     1      20.366   7.033  -3.797  1.00  0.00    -0.237 OA
ATOM     74  O   UNL     1      19.846   7.849  -1.529  1.00  0.00    -0.744 OA
ENDBRANCH  70  71
ENDBRANCH  49  63
BRANCH  50  75
ATOM     75  C   UNL     1       7.520  13.681  -7.870  1.00  0.00     0.058 A 
ATOM     76  C   UNL     1       7.419  14.100  -9.205  1.00  0.00     0.135 A 
ATOM     77  C   UNL     1       6.417  13.902  -7.031  1.00  0.00     0.135 A 
ATOM     78  F   UNL     1       8.450  13.918 -10.045  1.00  0.00    -0.206 F 
ATOM     79  C   UNL     1       6.276  14.727  -9.688  1.00  0.00     0.059 A 
ATOM     80  C   UNL     1       5.253  14.505  -7.497  1.00  0.00     0.059 A 
ATOM     81  F   UNL     1       6.457  13.504  -5.750  1.00  0.00    -0.206 F 
ATOM     82  C   UNL     1       5.196  14.923  -8.826  1.00  0.00     0.060 A 
BRANCH  82  83
ATOM     83  S   UNL     1       3.696  15.691  -9.477  1.00  0.00     0.124 S 
ATOM     84  O   UNL     1       4.112  17.082  -9.608  1.00  0.00    -0.237 OA
ATOM     85  O   UNL     1       3.495  14.962 -10.725  1.00  0.00    -0.237 OA
ATOM     86  O   UNL     1       2.705  15.423  -8.438  1.00  0.00    -0.744 OA
ENDBRANCH  82  83
ENDBRANCH  50  75
BRANCH  62  87
ATOM     87  C   UNL     1      14.058  15.850  -6.761  1.00  0.00     0.058 A 
ATOM     88  C   UNL     1      13.822  16.948  -5.920  1.00  0.00     0.135 A 
ATOM     89  C   UNL     1      15.003  16.001  -7.790  1.00  0.00     0.135 A 
ATOM     90  F   UNL     1      12.923  16.857  -4.927  1.00  0.00    -0.206 F 
ATOM     91  C   UNL     1      14.483  18.158  -6.104  1.00  0.00     0.059 A 
ATOM     92  C   UNL     1      15.695  17.193  -7.975  1.00  0.00     0.059 A 
ATOM     93  F   UNL     1      15.273  14.978  -8.616  1.00  0.00    -0.206 F 
ATOM     94  C   UNL     1      15.420  18.270  -7.133  1.00  0.00     0.060 A 
BRANCH  94  95
ATOM     95  S   UNL     1      16.298  19.834  -7.338  1.00  0.00     0.124 S 
ATOM     96  O   UNL     1      15.263  20.676  -7.929  1.00  0.00    -0.237 OA
ATOM     97  O   UNL     1      16.677  20.162  -5.967  1.00  0.00    -0.237 OA
ATOM     98  O   UNL     1      17.407  19.488  -8.222  1.00  0.00    -0.744 OA
ENDBRANCH  94  95
ENDBRANCH  62  87
ENDBRANCH  36  37
ENDBRANCH  28  31
ENDBRANCH  26  27
ENDBRANCH   1  26
TORSDOF 18
