REMARK SMILES Cc1ccccc1CSCC(=O)Nc1ccc(C)c(C(=O)NCCCCNC(=O)c2ccc(-c3c4nc(c(-c5c(F)cc(S(=O)(=O)[O-])cc5F)c5ccc([nH]5)c(-c5c(F)cc(S(=O)(=O)[O-])cc5F)c5nc(c(-c6c(F)cc(S(=O)(=O)[O-])cc6F)c6ccc3[nH]6)C=C5)C=C4)cc2)c1
REMARK SMILES IDX 23 1 22 2 20 3 21 4 19 6 14 7 15 8 96 9 16 10 17 11 18 12
REMARK SMILES IDX 13 13 11 14 12 15 10 17 9 18 8 19 7 20 1 21 2 22 3 23 4 24
REMARK SMILES IDX 6 25 5 26 24 27 25 28 26 29 27 30 28 31 29 33 30 34 31 35
REMARK SMILES IDX 95 36 32 37 94 38 33 39 34 40 35 41 88 42 36 43 93 44 87 45
REMARK SMILES IDX 89 46 37 47 92 48 86 49 85 50 38 52 72 53 51 54 71 55 52 56
REMARK SMILES IDX 55 57 70 58 90 59 53 60 54 61 69 63 91 64 56 65 39 66 40 67
REMARK SMILES IDX 49 68 41 69 42 70 48 71 50 72 43 73 44 74 45 75 46 76 47 77
REMARK SMILES IDX 73 78 74 79 83 80 75 81 76 82 82 83 84 84 77 85 78 86 79 87
REMARK SMILES IDX 80 88 81 89 57 90 58 91 67 92 59 93 60 94 66 95 68 96 61 97
REMARK SMILES IDX 62 98 63 99 64 100 65 101
REMARK H PARENT 22 5 13 16 27 32 89 51 55 62
REMARK Flexibility Score: inf
ROOT
ATOM      1  C   UNL     1       3.455  10.149  -3.788  1.00  0.00     0.116 C 
ENDROOT
BRANCH   1   2
ATOM      2  N   UNL     1       4.189   8.919  -4.104  1.00  0.00    -0.352 N 
ATOM      3  C   UNL     1       3.575   7.757  -4.563  1.00  0.00     0.251 C 
ATOM      4  O   UNL     1       3.806   7.333  -5.696  1.00  0.00    -0.269 OA
ATOM      5  H   UNL     1       5.166   8.915  -3.987  1.00  0.00     0.163 HD
BRANCH   3   6
ATOM      6  C   UNL     1       2.986   6.831  -3.570  1.00  0.00     0.044 A 
ATOM      7  C   UNL     1       3.139   4.615  -2.637  1.00  0.00     0.042 A 
ATOM      8  C   UNL     1       2.432   5.055  -1.529  1.00  0.00     0.026 A 
ATOM      9  C   UNL     1       3.530   5.535  -3.592  1.00  0.00     0.040 A 
ATOM     10  C   UNL     1       1.802   6.288  -1.554  1.00  0.00     0.006 A 
ATOM     11  C   UNL     1       1.969   7.127  -2.654  1.00  0.00    -0.038 A 
ATOM     12  C   UNL     1       0.951   8.201  -2.833  1.00  0.00     0.045 C 
BRANCH   7  13
ATOM     13  N   UNL     1       3.491   3.273  -2.774  1.00  0.00    -0.325 N 
ATOM     14  C   UNL     1       2.658   2.183  -2.709  1.00  0.00     0.234 C 
ATOM     15  O   UNL     1       3.183   1.067  -2.625  1.00  0.00    -0.274 OA
ATOM     16  H   UNL     1       4.444   3.086  -2.936  1.00  0.00     0.169 HD
BRANCH  14  17
ATOM     17  C   UNL     1       1.159   2.309  -2.990  1.00  0.00     0.170 C 
BRANCH  17  18
ATOM     18  S   UNL     1       0.073   3.035  -1.739  1.00  0.00    -0.147 SA
BRANCH  18  19
ATOM     19  C   UNL     1       0.684   2.257  -0.210  1.00  0.00     0.105 C 
BRANCH  19  20
ATOM     20  C   UNL     1       0.107   0.884  -0.003  1.00  0.00    -0.035 A 
ATOM     21  C   UNL     1       2.385  -0.326   0.031  1.00  0.00     0.044 C 
ATOM     22  C   UNL     1       0.881  -0.290   0.061  1.00  0.00    -0.047 A 
ATOM     23  C   UNL     1       0.220  -1.528   0.143  1.00  0.00     0.004 A 
ATOM     24  C   UNL     1      -1.171  -1.607   0.210  1.00  0.00     0.000 A 
ATOM     25  C   UNL     1      -1.296   0.786   0.118  1.00  0.00     0.005 A 
ATOM     26  C   UNL     1      -1.931  -0.447   0.217  1.00  0.00     0.000 A 
ENDBRANCH  19  20
ENDBRANCH  18  19
ENDBRANCH  17  18
ENDBRANCH  14  17
ENDBRANCH   7  13
ENDBRANCH   3   6
ENDBRANCH   1   2
BRANCH   1  27
ATOM     27  C   UNL     1       3.512  10.946  -2.416  1.00  0.00     0.023 C 
BRANCH  27  28
ATOM     28  C   UNL     1       3.172  12.611  -2.283  1.00  0.00     0.023 C 
BRANCH  28  29
ATOM     29  C   UNL     1       1.683  13.301  -2.148  1.00  0.00     0.116 C 
BRANCH  29  30
ATOM     30  N   UNL     1       1.301  14.881  -2.395  1.00  0.00    -0.352 N 
ATOM     31  C   UNL     1       0.590  15.867  -3.215  1.00  0.00     0.251 C 
ATOM     32  H   UNL     1       1.744  15.387  -1.677  1.00  0.00     0.163 HD
ATOM     33  O   UNL     1       0.147  16.814  -2.532  1.00  0.00    -0.269 OA
BRANCH  31  34
ATOM     34  C   UNL     1       0.185  16.005  -4.745  1.00  0.00     0.039 A 
ATOM     35  C   UNL     1      -1.160  16.139  -5.167  1.00  0.00     0.014 A 
ATOM     36  C   UNL     1       1.067  16.014  -5.819  1.00  0.00     0.014 A 
ATOM     37  C   UNL     1      -1.584  15.565  -6.414  1.00  0.00     0.010 A 
ATOM     38  C   UNL     1       0.665  15.461  -7.070  1.00  0.00     0.010 A 
ATOM     39  C   UNL     1      -0.646  15.024  -7.297  1.00  0.00    -0.014 A 
BRANCH  39  40
ATOM     40  C   UNL     1      -0.956  13.941  -8.301  1.00  0.00     0.031 A 
ATOM     41  C   UNL     1      -0.968  14.182  -9.742  1.00  0.00     0.074 A 
ATOM     42  C   UNL     1      -1.162  12.615  -8.051  1.00  0.00     0.049 A 
ATOM     43  N   UNL     1      -1.980  13.918 -10.505  1.00  0.00    -0.248 NA
ATOM     44  C   UNL     1       0.240  14.587 -10.443  1.00  0.00     0.031 C 
ATOM     45  C   UNL     1      -1.343  11.449  -8.933  1.00  0.00     0.029 A 
ATOM     46  N   UNL     1      -1.187  11.990  -6.822  1.00  0.00    -0.354 N 
ATOM     47  C   UNL     1      -1.462  13.819 -11.777  1.00  0.00     0.074 A 
ATOM     48  C   UNL     1      -0.139  14.415 -11.713  1.00  0.00     0.031 C 
ATOM     49  C   UNL     1      -1.819  10.406  -8.217  1.00  0.00     0.029 A 
ATOM     50  C   UNL     1      -1.981  10.848  -6.849  1.00  0.00     0.049 A 
ATOM     51  H   UNL     1      -0.704  12.311  -6.026  1.00  0.00     0.167 HD
ATOM     52  C   UNL     1      -2.001  12.988 -12.719  1.00  0.00     0.037 A 
ATOM     53  C   UNL     1      -3.067  10.787  -6.020  1.00  0.00     0.037 A 
ATOM     54  C   UNL     1      -2.925  12.011 -12.129  1.00  0.00     0.049 A 
ATOM     55  C   UNL     1      -4.329  10.916  -6.809  1.00  0.00     0.074 A 
ATOM     56  C   UNL     1      -2.805  10.645 -11.912  1.00  0.00     0.029 A 
ATOM     57  N   UNL     1      -4.031  12.415 -11.385  1.00  0.00    -0.354 N 
ATOM     58  N   UNL     1      -4.325  11.135  -8.089  1.00  0.00    -0.248 NA
ATOM     59  C   UNL     1      -5.677  10.825  -6.272  1.00  0.00     0.031 C 
ATOM     60  C   UNL     1      -3.838  10.229 -11.040  1.00  0.00     0.029 A 
ATOM     61  C   UNL     1      -4.595  11.340 -10.716  1.00  0.00     0.049 A 
ATOM     62  H   UNL     1      -4.367  13.339 -11.339  1.00  0.00     0.167 HD
ATOM     63  C   UNL     1      -5.595  11.234  -8.566  1.00  0.00     0.074 A 
ATOM     64  C   UNL     1      -6.412  11.002  -7.388  1.00  0.00     0.031 C 
ATOM     65  C   UNL     1      -5.796  11.491  -9.894  1.00  0.00     0.037 A 
BRANCH  52  66
ATOM     66  C   UNL     1      -1.400  12.856 -14.108  1.00  0.00     0.058 A 
ATOM     67  C   UNL     1      -1.474  11.670 -14.867  1.00  0.00     0.135 A 
ATOM     68  C   UNL     1      -0.766  13.935 -14.765  1.00  0.00     0.135 A 
ATOM     69  F   UNL     1      -2.149  10.595 -14.442  1.00  0.00    -0.206 F 
ATOM     70  C   UNL     1      -0.875  11.530 -16.121  1.00  0.00     0.059 A 
ATOM     71  C   UNL     1      -0.121  13.809 -16.000  1.00  0.00     0.059 A 
ATOM     72  F   UNL     1      -0.775  15.168 -14.233  1.00  0.00    -0.206 F 
ATOM     73  C   UNL     1      -0.180  12.597 -16.672  1.00  0.00     0.060 A 
BRANCH  73  74
ATOM     74  S   UNL     1       0.590  12.384 -18.287  1.00  0.00     0.124 S 
ATOM     75  O   UNL     1       1.434  11.212 -18.076  1.00  0.00    -0.237 OA
ATOM     76  O   UNL     1      -0.568  12.184 -19.151  1.00  0.00    -0.237 OA
ATOM     77  O   UNL     1       1.311  13.638 -18.489  1.00  0.00    -0.744 OA
ENDBRANCH  73  74
ENDBRANCH  52  66
BRANCH  53  78
ATOM     78  C   UNL     1      -2.813  11.314  -4.615  1.00  0.00     0.058 A 
ATOM     79  C   UNL     1      -1.797  10.601  -3.975  1.00  0.00     0.135 A 
ATOM     80  C   UNL     1      -2.688  12.692  -4.469  1.00  0.00     0.135 A 
ATOM     81  F   UNL     1      -1.946   9.298  -3.701  1.00  0.00    -0.206 F 
ATOM     82  C   UNL     1      -0.516  11.136  -3.945  1.00  0.00     0.059 A 
ATOM     83  C   UNL     1      -1.421  13.253  -4.269  1.00  0.00     0.059 A 
ATOM     84  F   UNL     1      -3.726  13.506  -4.714  1.00  0.00    -0.206 F 
ATOM     85  C   UNL     1      -0.307  12.452  -4.343  1.00  0.00     0.060 A 
BRANCH  85  86
ATOM     86  S   UNL     1       1.348  12.795  -5.181  1.00  0.00     0.124 S 
ATOM     87  O   UNL     1       2.025  11.663  -4.657  1.00  0.00    -0.237 OA
ATOM     88  O   UNL     1       1.185  12.657  -6.611  1.00  0.00    -0.237 OA
ATOM     89  O   UNL     1       1.974  14.007  -4.707  1.00  0.00    -0.744 OA
ENDBRANCH  85  86
ENDBRANCH  53  78
BRANCH  65  90
ATOM     90  C   UNL     1      -7.105  11.771 -10.595  1.00  0.00     0.058 A 
ATOM     91  C   UNL     1      -8.298  12.144  -9.959  1.00  0.00     0.135 A 
ATOM     92  C   UNL     1      -7.166  11.748 -12.015  1.00  0.00     0.135 A 
ATOM     93  F   UNL     1      -8.368  12.325  -8.635  1.00  0.00    -0.206 F 
ATOM     94  C   UNL     1      -9.475  12.398 -10.666  1.00  0.00     0.059 A 
ATOM     95  C   UNL     1      -8.307  12.062 -12.740  1.00  0.00     0.059 A 
ATOM     96  F   UNL     1      -6.107  11.422 -12.771  1.00  0.00    -0.206 F 
ATOM     97  C   UNL     1      -9.470  12.355 -12.055  1.00  0.00     0.060 A 
BRANCH  97  98
ATOM     98  S   UNL     1     -10.979  12.727 -12.958  1.00  0.00     0.124 S 
ATOM     99  O   UNL     1     -11.715  11.475 -12.822  1.00  0.00    -0.237 OA
ATOM    100  O   UNL     1     -11.518  13.861 -12.213  1.00  0.00    -0.237 OA
ATOM    101  O   UNL     1     -10.506  13.039 -14.303  1.00  0.00    -0.744 OA
ENDBRANCH  97  98
ENDBRANCH  65  90
ENDBRANCH  39  40
ENDBRANCH  31  34
ENDBRANCH  29  30
ENDBRANCH  28  29
ENDBRANCH  27  28
ENDBRANCH   1  27
TORSDOF 19
