REMARK SMILES CC(C)(C)OC(=O)N[C@@H](Cc1c[nH]c2cccc(Cl)c12)C(=O)NCCCCNC(=O)c1ccc(-c2c3nc(c(-c4c(F)cc(S(=O)(=O)[O-])cc4F)c4ccc([nH]4)c(-c4c(F)cc(S(=O)(=O)[O-])cc4F)c4nc(c(-c5c(F)cc(S(=O)(=O)[O-])cc5F)c5ccc2[nH]5)C=C4)C=C3)cc1
REMARK SMILES IDX 25 1 24 2 23 3 21 4 22 5 9 7 8 8 6 9 7 10 5 12 2 13 1 14
REMARK SMILES IDX 3 15 4 16 10 17 11 18 12 19 20 20 13 21 14 22 18 23 15 25
REMARK SMILES IDX 17 26 19 27 16 28 26 29 27 30 28 31 29 32 30 34 31 35 32 36
REMARK SMILES IDX 96 37 33 38 95 39 34 40 35 41 36 42 89 43 37 44 94 45 88 46
REMARK SMILES IDX 90 47 38 48 93 49 87 50 86 51 39 53 73 54 52 55 72 56 53 57
REMARK SMILES IDX 56 58 71 59 91 60 54 61 55 62 70 64 92 65 57 66 40 67 41 68
REMARK SMILES IDX 50 69 42 70 43 71 49 72 51 73 44 74 45 75 46 76 47 77 48 78
REMARK SMILES IDX 74 79 75 80 84 81 76 82 77 83 83 84 85 85 78 86 79 87 80 88
REMARK SMILES IDX 81 89 82 90 58 91 59 92 68 93 60 94 61 95 67 96 69 97 62 98
REMARK SMILES IDX 63 99 64 100 65 101 66 102
REMARK H PARENT 23 6 8 11 13 24 28 33 90 52 56 63
REMARK Flexibility Score: inf
ROOT
ATOM      1  C   UNL     1      -0.897  -3.842  -7.091  1.00  0.00     0.023 C 
ENDROOT
BRANCH   1   2
ATOM      2  C   UNL     1       0.391  -3.033  -6.917  1.00  0.00     0.116 C 
BRANCH   2   3
ATOM      3  N   UNL     1       0.203  -1.643  -6.548  1.00  0.00    -0.354 N 
ATOM      4  C   UNL     1       0.882  -0.859  -5.654  1.00  0.00     0.243 C 
ATOM      5  O   UNL     1       0.710   0.362  -5.755  1.00  0.00    -0.273 OA
ATOM      6  H   UNL     1      -0.534  -1.189  -7.018  1.00  0.00     0.163 HD
BRANCH   4   7
ATOM      7  C   UNL     1       1.854  -1.415  -4.581  1.00  0.00     0.179 C 
BRANCH   7   8
ATOM      8  N   UNL     1       1.264  -2.553  -3.880  1.00  0.00    -0.309 N 
ATOM      9  C   UNL     1       0.618  -2.530  -2.684  1.00  0.00     0.408 C 
ATOM     10  O   UNL     1      -0.030  -3.488  -2.314  1.00  0.00    -0.225 OA
ATOM     11  H   UNL     1       1.343  -3.430  -4.320  1.00  0.00     0.167 HD
BRANCH   9  12
ATOM     12  O   UNL     1       0.843  -1.389  -1.988  1.00  0.00    -0.444 OA
BRANCH  12  13
ATOM     13  C   UNL     1       0.361  -1.265  -0.628  1.00  0.00     0.106 C 
ATOM     14  C   UNL     1       0.936   0.065  -0.116  1.00  0.00     0.056 C 
ATOM     15  C   UNL     1       0.901  -2.392   0.264  1.00  0.00     0.056 C 
ATOM     16  C   UNL     1      -1.167  -1.185  -0.602  1.00  0.00     0.056 C 
ENDBRANCH  12  13
ENDBRANCH   9  12
ENDBRANCH   7   8
BRANCH   7  17
ATOM     17  C   UNL     1       3.311  -1.662  -5.005  1.00  0.00     0.073 C 
BRANCH  17  18
ATOM     18  C   UNL     1       3.529  -2.666  -6.092  1.00  0.00    -0.019 A 
ATOM     19  C   UNL     1       3.660  -4.031  -5.897  1.00  0.00     0.087 A 
ATOM     20  C   UNL     1       3.652  -2.424  -7.506  1.00  0.00     0.021 A 
ATOM     21  N   UNL     1       3.783  -4.633  -7.114  1.00  0.00    -0.361 N 
ATOM     22  C   UNL     1       3.769  -3.687  -8.105  1.00  0.00     0.047 A 
ATOM     23  C   UNL     1       3.640  -1.304  -8.374  1.00  0.00     0.050 A 
ATOM     24  H   UNL     1       3.868  -5.604  -7.260  1.00  0.00     0.166 HD
ATOM     25  C   UNL     1       3.849  -3.876  -9.481  1.00  0.00     0.027 A 
ATOM     26  C   UNL     1       3.740  -1.457  -9.749  1.00  0.00     0.021 A 
ATOM     27  Cl  UNL     1       3.487   0.262  -7.714  1.00  0.00    -0.084 Cl
ATOM     28  C   UNL     1       3.847  -2.736 -10.273  1.00  0.00     0.004 A 
ENDBRANCH  17  18
ENDBRANCH   7  17
ENDBRANCH   4   7
ENDBRANCH   2   3
ENDBRANCH   1   2
BRANCH   1  29
ATOM     29  C   UNL     1      -1.703  -3.578  -8.367  1.00  0.00     0.023 C 
BRANCH  29  30
ATOM     30  C   UNL     1      -0.908  -3.710  -9.658  1.00  0.00     0.116 C 
BRANCH  30  31
ATOM     31  N   UNL     1      -0.552  -5.052 -10.068  1.00  0.00    -0.352 N 
ATOM     32  C   UNL     1       0.088  -5.483 -11.218  1.00  0.00     0.251 C 
ATOM     33  H   UNL     1      -0.803  -5.764  -9.436  1.00  0.00     0.163 HD
ATOM     34  O   UNL     1       0.127  -6.699 -11.416  1.00  0.00    -0.269 OA
BRANCH  32  35
ATOM     35  C   UNL     1       0.789  -4.565 -12.176  1.00  0.00     0.039 A 
ATOM     36  C   UNL     1       1.391  -5.104 -13.330  1.00  0.00     0.014 A 
ATOM     37  C   UNL     1       0.977  -3.209 -11.935  1.00  0.00     0.014 A 
ATOM     38  C   UNL     1       2.245  -4.326 -14.131  1.00  0.00     0.010 A 
ATOM     39  C   UNL     1       1.845  -2.453 -12.692  1.00  0.00     0.010 A 
ATOM     40  C   UNL     1       2.529  -3.013 -13.757  1.00  0.00    -0.014 A 
BRANCH  40  41
ATOM     41  C   UNL     1       3.290  -2.066 -14.566  1.00  0.00     0.031 A 
ATOM     42  C   UNL     1       2.402  -1.349 -15.515  1.00  0.00     0.074 A 
ATOM     43  C   UNL     1       4.544  -1.617 -14.332  1.00  0.00     0.049 A 
ATOM     44  N   UNL     1       2.182  -1.682 -16.744  1.00  0.00    -0.248 NA
ATOM     45  C   UNL     1       1.480  -0.314 -15.011  1.00  0.00     0.031 C 
ATOM     46  C   UNL     1       5.471  -1.966 -13.256  1.00  0.00     0.029 A 
ATOM     47  N   UNL     1       5.239  -0.655 -15.011  1.00  0.00    -0.354 N 
ATOM     48  C   UNL     1       1.323  -0.706 -17.229  1.00  0.00     0.074 A 
ATOM     49  C   UNL     1       0.702  -0.116 -16.077  1.00  0.00     0.031 C 
ATOM     50  C   UNL     1       6.500  -1.083 -13.217  1.00  0.00     0.029 A 
ATOM     51  C   UNL     1       6.423  -0.245 -14.399  1.00  0.00     0.049 A 
ATOM     52  H   UNL     1       4.929  -0.281 -15.867  1.00  0.00     0.167 HD
ATOM     53  C   UNL     1       1.474  -0.218 -18.491  1.00  0.00     0.037 A 
ATOM     54  C   UNL     1       7.321   0.653 -14.879  1.00  0.00     0.037 A 
ATOM     55  C   UNL     1       2.470  -0.981 -19.205  1.00  0.00     0.049 A 
ATOM     56  C   UNL     1       7.162   0.650 -16.352  1.00  0.00     0.074 A 
ATOM     57  C   UNL     1       2.556  -2.228 -19.783  1.00  0.00     0.029 A 
ATOM     58  N   UNL     1       3.752  -0.533 -19.006  1.00  0.00    -0.354 N 
ATOM     59  N   UNL     1       7.441  -0.381 -17.100  1.00  0.00    -0.248 NA
ATOM     60  C   UNL     1       6.380   1.700 -16.993  1.00  0.00     0.031 C 
ATOM     61  C   UNL     1       3.939  -2.582 -19.768  1.00  0.00     0.029 A 
ATOM     62  C   UNL     1       4.666  -1.532 -19.213  1.00  0.00     0.049 A 
ATOM     63  H   UNL     1       3.985   0.389 -18.749  1.00  0.00     0.167 HD
ATOM     64  C   UNL     1       6.524  -0.310 -18.127  1.00  0.00     0.074 A 
ATOM     65  C   UNL     1       6.031   1.060 -18.113  1.00  0.00     0.031 C 
ATOM     66  C   UNL     1       6.006  -1.443 -18.676  1.00  0.00     0.037 A 
BRANCH  53  67
ATOM     67  C   UNL     1       1.117   1.181 -18.943  1.00  0.00     0.058 A 
ATOM     68  C   UNL     1       1.149   1.471 -20.323  1.00  0.00     0.135 A 
ATOM     69  C   UNL     1       1.004   2.303 -18.092  1.00  0.00     0.135 A 
ATOM     70  F   UNL     1       1.267   0.483 -21.226  1.00  0.00    -0.206 F 
ATOM     71  C   UNL     1       1.126   2.776 -20.816  1.00  0.00     0.059 A 
ATOM     72  C   UNL     1       0.919   3.608 -18.565  1.00  0.00     0.059 A 
ATOM     73  F   UNL     1       1.071   2.208 -16.760  1.00  0.00    -0.206 F 
ATOM     74  C   UNL     1       1.018   3.839 -19.926  1.00  0.00     0.060 A 
BRANCH  74  75
ATOM     75  S   UNL     1       1.060   5.526 -20.551  1.00  0.00     0.124 S 
ATOM     76  O   UNL     1       2.435   5.627 -21.027  1.00  0.00    -0.237 OA
ATOM     77  O   UNL     1       0.026   5.492 -21.579  1.00  0.00    -0.237 OA
ATOM     78  O   UNL     1       0.738   6.328 -19.374  1.00  0.00    -0.744 OA
ENDBRANCH  74  75
ENDBRANCH  53  67
BRANCH  54  79
ATOM     79  C   UNL     1       8.226   1.627 -14.219  1.00  0.00     0.058 A 
ATOM     80  C   UNL     1       9.268   2.236 -14.947  1.00  0.00     0.135 A 
ATOM     81  C   UNL     1       7.858   2.249 -13.014  1.00  0.00     0.135 A 
ATOM     82  F   UNL     1       9.691   1.701 -16.102  1.00  0.00    -0.206 F 
ATOM     83  C   UNL     1       9.830   3.456 -14.566  1.00  0.00     0.059 A 
ATOM     84  C   UNL     1       8.412   3.468 -12.608  1.00  0.00     0.059 A 
ATOM     85  F   UNL     1       6.869   1.743 -12.260  1.00  0.00    -0.206 F 
ATOM     86  C   UNL     1       9.364   4.087 -13.415  1.00  0.00     0.060 A 
BRANCH  86  87
ATOM     87  S   UNL     1       9.906   5.781 -13.074  1.00  0.00     0.124 S 
ATOM     88  O   UNL     1      11.320   5.592 -12.771  1.00  0.00    -0.237 OA
ATOM     89  O   UNL     1       9.609   6.455 -14.334  1.00  0.00    -0.237 OA
ATOM     90  O   UNL     1       9.072   6.181 -11.944  1.00  0.00    -0.744 OA
ENDBRANCH  86  87
ENDBRANCH  54  79
BRANCH  66  91
ATOM     91  C   UNL     1       6.838  -2.688 -18.601  1.00  0.00     0.058 A 
ATOM     92  C   UNL     1       7.110  -3.418 -17.432  1.00  0.00     0.135 A 
ATOM     93  C   UNL     1       7.333  -3.199 -19.810  1.00  0.00     0.135 A 
ATOM     94  F   UNL     1       6.619  -3.032 -16.246  1.00  0.00    -0.206 F 
ATOM     95  C   UNL     1       7.864  -4.594 -17.465  1.00  0.00     0.059 A 
ATOM     96  C   UNL     1       8.061  -4.381 -19.870  1.00  0.00     0.059 A 
ATOM     97  F   UNL     1       7.075  -2.561 -20.964  1.00  0.00    -0.206 F 
ATOM     98  C   UNL     1       8.332  -5.069 -18.691  1.00  0.00     0.060 A 
BRANCH  98  99
ATOM     99  S   UNL     1       9.241  -6.628 -18.746  1.00  0.00     0.124 S 
ATOM    100  O   UNL     1      10.504  -6.271 -18.110  1.00  0.00    -0.237 OA
ATOM    101  O   UNL     1       8.377  -7.524 -17.981  1.00  0.00    -0.237 OA
ATOM    102  O   UNL     1       9.322  -6.927 -20.174  1.00  0.00    -0.744 OA
ENDBRANCH  98  99
ENDBRANCH  66  91
ENDBRANCH  40  41
ENDBRANCH  32  35
ENDBRANCH  30  31
ENDBRANCH  29  30
ENDBRANCH   1  29
TORSDOF 19
