REMARK SMILES Cc1cc(F)cc(N[C@@](C)(C(=O)NCCCCNC(=O)c2ccc(-c3c4nc(c(-c5c(F)cc(S(=O)(=O)[O-])cc5F)c5ccc([nH]5)c(-c5c(F)cc(S(=O)(=O)[O-])cc5F)c5nc(c(-c6c(F)cc(S(=O)(=O)[O-])cc6F)c6ccc3[nH]6)C=C5)C=C4)cc2)c2cccc(F)c2)c1
REMARK SMILES IDX 16 1 15 2 14 3 13 4 11 5 12 6 9 8 10 9 8 10 7 12 1 13 2 14
REMARK SMILES IDX 3 15 94 16 4 17 5 18 6 19 87 20 88 21 93 22 89 23 91 24
REMARK SMILES IDX 90 25 92 26 17 27 18 28 19 29 20 31 21 32 22 33 86 34 23 35
REMARK SMILES IDX 85 36 24 37 25 38 26 39 79 40 27 41 84 42 78 43 80 44 28 45
REMARK SMILES IDX 83 46 77 47 76 48 29 50 63 51 42 52 62 53 43 54 46 55 61 56
REMARK SMILES IDX 81 57 44 58 45 59 60 61 82 62 47 63 30 64 31 65 40 66 32 67
REMARK SMILES IDX 33 68 39 69 41 70 34 71 35 72 36 73 37 74 38 75 64 76 65 77
REMARK SMILES IDX 74 78 66 79 67 80 73 81 75 82 68 83 69 84 70 85 71 86 72 87
REMARK SMILES IDX 48 88 49 89 58 90 50 91 51 92 57 93 59 94 52 95 53 96 54 97
REMARK SMILES IDX 55 98 56 99
REMARK H PARENT 13 7 8 11 18 30 80 49 46 60
REMARK Flexibility Score: inf
ROOT
ATOM      1  C   UNL     1      -4.596  -6.654   2.980  1.00  0.00     0.023 C 
ENDROOT
BRANCH   1   2
ATOM      2  C   UNL     1      -3.664  -6.593   1.782  1.00  0.00     0.023 C 
BRANCH   2   3
ATOM      3  C   UNL     1      -3.602  -5.249   1.051  1.00  0.00     0.116 C 
BRANCH   3   4
ATOM      4  N   UNL     1      -2.597  -4.379   1.629  1.00  0.00    -0.354 N 
ATOM      5  C   UNL     1      -1.330  -4.043   1.242  1.00  0.00     0.250 C 
ATOM      6  O   UNL     1      -0.713  -3.352   2.068  1.00  0.00    -0.272 OA
ATOM      7  H   UNL     1      -2.883  -3.945   2.465  1.00  0.00     0.163 HD
BRANCH   5   8
ATOM      8  C   UNL     1      -0.653  -4.459  -0.146  1.00  0.00     0.139 C 
ATOM      9  C   UNL     1       0.411  -3.336  -0.387  1.00  0.00     0.051 C 
BRANCH   8  10
ATOM     10  N   UNL     1      -1.613  -4.246  -1.266  1.00  0.00    -0.368 N 
ATOM     11  H   UNL     1      -1.877  -3.300  -1.337  1.00  0.00     0.161 HD
BRANCH  10  12
ATOM     12  C   UNL     1      -2.228  -5.011  -2.226  1.00  0.00     0.038 A 
ATOM     13  C   UNL     1      -5.379  -4.592  -4.387  1.00  0.00     0.044 C 
ATOM     14  C   UNL     1      -4.175  -5.208  -3.741  1.00  0.00    -0.046 A 
ATOM     15  C   UNL     1      -3.868  -6.548  -3.962  1.00  0.00     0.042 A 
ATOM     16  C   UNL     1      -3.366  -4.467  -2.861  1.00  0.00     0.029 A 
ATOM     17  C   UNL     1      -2.719  -7.078  -3.396  1.00  0.00     0.125 A 
ATOM     18  F   UNL     1      -2.406  -8.360  -3.630  1.00  0.00    -0.207 F 
ATOM     19  C   UNL     1      -1.887  -6.311  -2.580  1.00  0.00     0.065 A 
ENDBRANCH  10  12
ENDBRANCH   8  10
BRANCH   8  20
ATOM     20  C   UNL     1       0.030  -5.840  -0.034  1.00  0.00    -0.011 A 
ATOM     21  C   UNL     1       1.424  -6.027  -0.146  1.00  0.00     0.007 A 
ATOM     22  C   UNL     1      -0.714  -7.000   0.226  1.00  0.00     0.046 A 
ATOM     23  C   UNL     1       2.022  -7.289   0.002  1.00  0.00     0.003 A 
ATOM     24  C   UNL     1      -0.123  -8.252   0.381  1.00  0.00     0.123 A 
ATOM     25  C   UNL     1       1.245  -8.407   0.274  1.00  0.00     0.039 A 
ATOM     26  F   UNL     1      -0.899  -9.319   0.610  1.00  0.00    -0.207 F 
ENDBRANCH   8  20
ENDBRANCH   5   8
ENDBRANCH   3   4
ENDBRANCH   2   3
ENDBRANCH   1   2
BRANCH   1  27
ATOM     27  C   UNL     1      -6.060  -6.387   2.675  1.00  0.00     0.116 C 
BRANCH  27  28
ATOM     28  N   UNL     1      -6.617  -7.222   1.619  1.00  0.00    -0.352 N 
ATOM     29  C   UNL     1      -7.856  -7.824   1.572  1.00  0.00     0.251 C 
ATOM     30  H   UNL     1      -6.035  -7.376   0.840  1.00  0.00     0.163 HD
ATOM     31  O   UNL     1      -8.165  -8.547   0.631  1.00  0.00    -0.269 OA
BRANCH  29  32
ATOM     32  C   UNL     1      -8.784  -7.620   2.702  1.00  0.00     0.039 A 
ATOM     33  C   UNL     1      -9.341  -8.734   3.332  1.00  0.00     0.014 A 
ATOM     34  C   UNL     1      -9.008  -6.334   3.201  1.00  0.00     0.014 A 
ATOM     35  C   UNL     1     -10.049  -8.563   4.523  1.00  0.00     0.010 A 
ATOM     36  C   UNL     1      -9.623  -6.179   4.435  1.00  0.00     0.010 A 
ATOM     37  C   UNL     1     -10.150  -7.291   5.110  1.00  0.00    -0.014 A 
BRANCH  37  38
ATOM     38  C   UNL     1     -10.817  -7.089   6.421  1.00  0.00     0.031 A 
ATOM     39  C   UNL     1     -12.026  -6.197   6.509  1.00  0.00     0.074 A 
ATOM     40  C   UNL     1     -10.294  -7.641   7.535  1.00  0.00     0.049 A 
ATOM     41  N   UNL     1     -12.688  -5.803   7.565  1.00  0.00    -0.248 NA
ATOM     42  C   UNL     1     -12.533  -5.641   5.242  1.00  0.00     0.031 C 
ATOM     43  C   UNL     1      -9.089  -8.473   7.590  1.00  0.00     0.029 A 
ATOM     44  N   UNL     1     -10.709  -7.578   8.842  1.00  0.00    -0.354 N 
ATOM     45  C   UNL     1     -13.669  -4.940   7.093  1.00  0.00     0.074 A 
ATOM     46  C   UNL     1     -13.477  -4.816   5.666  1.00  0.00     0.031 C 
ATOM     47  C   UNL     1      -8.884  -8.871   8.857  1.00  0.00     0.029 A 
ATOM     48  C   UNL     1      -9.919  -8.297   9.709  1.00  0.00     0.049 A 
ATOM     49  H   UNL     1     -11.498  -7.066   9.132  1.00  0.00     0.167 HD
ATOM     50  C   UNL     1     -14.665  -4.332   7.781  1.00  0.00     0.037 A 
ATOM     51  C   UNL     1     -10.024  -8.474  11.041  1.00  0.00     0.037 A 
ATOM     52  C   UNL     1     -14.884  -4.500   9.192  1.00  0.00     0.049 A 
ATOM     53  C   UNL     1     -11.162  -7.818  11.776  1.00  0.00     0.074 A 
ATOM     54  C   UNL     1     -15.890  -3.968   9.977  1.00  0.00     0.029 A 
ATOM     55  N   UNL     1     -14.092  -5.276  10.025  1.00  0.00    -0.354 N 
ATOM     56  N   UNL     1     -12.106  -7.037  11.307  1.00  0.00    -0.248 NA
ATOM     57  C   UNL     1     -11.254  -8.073  13.221  1.00  0.00     0.031 C 
ATOM     58  C   UNL     1     -15.697  -4.410  11.291  1.00  0.00     0.029 A 
ATOM     59  C   UNL     1     -14.588  -5.240  11.316  1.00  0.00     0.049 A 
ATOM     60  H   UNL     1     -13.294  -5.778   9.740  1.00  0.00     0.167 HD
ATOM     61  C   UNL     1     -12.919  -6.731  12.391  1.00  0.00     0.074 A 
ATOM     62  C   UNL     1     -12.363  -7.418  13.539  1.00  0.00     0.031 C 
ATOM     63  C   UNL     1     -14.027  -5.950  12.436  1.00  0.00     0.037 A 
BRANCH  50  64
ATOM     64  C   UNL     1     -15.605  -3.455   7.003  1.00  0.00     0.058 A 
ATOM     65  C   UNL     1     -16.537  -4.001   6.105  1.00  0.00     0.135 A 
ATOM     66  C   UNL     1     -15.585  -2.061   7.161  1.00  0.00     0.135 A 
ATOM     67  F   UNL     1     -16.583  -5.327   5.901  1.00  0.00    -0.206 F 
ATOM     68  C   UNL     1     -17.394  -3.193   5.367  1.00  0.00     0.059 A 
ATOM     69  C   UNL     1     -16.452  -1.235   6.452  1.00  0.00     0.059 A 
ATOM     70  F   UNL     1     -14.711  -1.488   8.003  1.00  0.00    -0.206 F 
ATOM     71  C   UNL     1     -17.342  -1.810   5.545  1.00  0.00     0.060 A 
BRANCH  71  72
ATOM     72  S   UNL     1     -18.461  -0.774   4.579  1.00  0.00     0.124 S 
ATOM     73  O   UNL     1     -17.817  -0.796   3.269  1.00  0.00    -0.237 OA
ATOM     74  O   UNL     1     -19.724  -1.498   4.677  1.00  0.00    -0.237 OA
ATOM     75  O   UNL     1     -18.422   0.508   5.276  1.00  0.00    -0.744 OA
ENDBRANCH  71  72
ENDBRANCH  50  64
BRANCH  51  76
ATOM     76  C   UNL     1      -9.056  -9.341  11.763  1.00  0.00     0.058 A 
ATOM     77  C   UNL     1      -9.447 -10.595  12.254  1.00  0.00     0.135 A 
ATOM     78  C   UNL     1      -7.732  -8.934  11.987  1.00  0.00     0.135 A 
ATOM     79  F   UNL     1     -10.704 -11.026  12.067  1.00  0.00    -0.206 F 
ATOM     80  C   UNL     1      -8.569 -11.406  12.967  1.00  0.00     0.059 A 
ATOM     81  C   UNL     1      -6.829  -9.737  12.678  1.00  0.00     0.059 A 
ATOM     82  F   UNL     1      -7.304  -7.751  11.521  1.00  0.00    -0.206 F 
ATOM     83  C   UNL     1      -7.262 -10.966  13.177  1.00  0.00     0.060 A 
BRANCH  83  84
ATOM     84  S   UNL     1      -6.121 -12.034  14.082  1.00  0.00     0.124 S 
ATOM     85  O   UNL     1      -6.560 -11.833  15.458  1.00  0.00    -0.237 OA
ATOM     86  O   UNL     1      -6.403 -13.346  13.507  1.00  0.00    -0.237 OA
ATOM     87  O   UNL     1      -4.812 -11.481  13.748  1.00  0.00    -0.744 OA
ENDBRANCH  83  84
ENDBRANCH  51  76
BRANCH  63  88
ATOM     88  C   UNL     1     -14.732  -5.833  13.756  1.00  0.00     0.058 A 
ATOM     89  C   UNL     1     -14.221  -5.040  14.794  1.00  0.00     0.135 A 
ATOM     90  C   UNL     1     -15.959  -6.483  13.964  1.00  0.00     0.135 A 
ATOM     91  F   UNL     1     -13.048  -4.404  14.644  1.00  0.00    -0.206 F 
ATOM     92  C   UNL     1     -14.893  -4.911  16.004  1.00  0.00     0.059 A 
ATOM     93  C   UNL     1     -16.659  -6.350  15.158  1.00  0.00     0.059 A 
ATOM     94  F   UNL     1     -16.493  -7.245  12.996  1.00  0.00    -0.206 F 
ATOM     95  C   UNL     1     -16.112  -5.570  16.177  1.00  0.00     0.060 A 
BRANCH  95  96
ATOM     96  S   UNL     1     -16.995  -5.368  17.738  1.00  0.00     0.124 S 
ATOM     97  O   UNL     1     -16.244  -6.258  18.617  1.00  0.00    -0.237 OA
ATOM     98  O   UNL     1     -16.844  -3.940  18.003  1.00  0.00    -0.237 OA
ATOM     99  O   UNL     1     -18.352  -5.799  17.417  1.00  0.00    -0.744 OA
ENDBRANCH  95  96
ENDBRANCH  63  88
ENDBRANCH  37  38
ENDBRANCH  29  32
ENDBRANCH  27  28
ENDBRANCH   1  27
TORSDOF 17
