REMARK SMILES O=C(NCCCCNC(=O)c1cccnc1C[N@@H+]1CCC[C@H]1c1ccccn1)c1ccc(-c2c3nc(c(-c4c(F)cc(S(=O)(=O)[O-])cc4F)c4ccc([nH]4)c(-c4c(F)cc(S(=O)(=O)[O-])cc4F)c4nc(c(-c5c(F)cc(S(=O)(=O)[O-])cc5F)c5ccc2[nH]5)C=C4)C=C3)cc1
REMARK SMILES IDX 5 1 4 2 3 3 1 4 2 5 29 7 30 8 94 9 31 10 93 11 32 12 33 13
REMARK SMILES IDX 34 14 87 15 35 16 92 17 86 18 88 19 36 20 91 21 85 22 84 23
REMARK SMILES IDX 37 25 71 26 50 27 70 28 51 29 54 30 69 31 89 32 52 33 53 34
REMARK SMILES IDX 68 36 90 37 55 38 38 39 39 40 48 41 40 42 41 43 47 44 49 45
REMARK SMILES IDX 42 46 43 47 44 48 45 49 46 50 72 51 73 52 82 53 74 54 75 55
REMARK SMILES IDX 81 56 83 57 76 58 77 59 78 60 79 61 80 62 56 63 57 64 66 65
REMARK SMILES IDX 58 66 59 67 65 68 67 69 60 70 61 71 62 72 63 73 64 74 6 75
REMARK SMILES IDX 7 76 8 77 9 78 10 80 11 81 12 82 16 83 13 84 15 85 14 86
REMARK SMILES IDX 17 87 18 88 19 89 22 90 20 92 21 93 23 94 24 95 28 96 25 97
REMARK SMILES IDX 27 98 26 99
REMARK H PARENT 3 6 88 24 54 35 8 79 18 91
REMARK Flexibility Score: inf
ROOT
ATOM      1  C   UNL     1       4.982  -2.495  -0.572  1.00  0.00     0.023 C 
ENDROOT
BRANCH   1   2
ATOM      2  C   UNL     1       4.659  -1.026  -0.808  1.00  0.00     0.116 C 
BRANCH   2   3
ATOM      3  N   UNL     1       3.229  -0.749  -0.864  1.00  0.00    -0.352 N 
ATOM      4  O   UNL     1       1.248   0.113  -0.212  1.00  0.00    -0.269 OA
ATOM      5  C   UNL     1       2.469   0.099  -0.089  1.00  0.00     0.251 C 
ATOM      6  H   UNL     1       2.733  -1.240  -1.559  1.00  0.00     0.163 HD
BRANCH   5   7
ATOM      7  C   UNL     1       3.128   0.959   0.919  1.00  0.00     0.039 A 
ATOM      8  C   UNL     1       4.292   1.658   0.599  1.00  0.00     0.014 A 
ATOM      9  C   UNL     1       2.603   1.029   2.212  1.00  0.00     0.014 A 
ATOM     10  C   UNL     1       5.039   2.246   1.612  1.00  0.00     0.010 A 
ATOM     11  C   UNL     1       3.302   1.720   3.209  1.00  0.00     0.010 A 
ATOM     12  C   UNL     1       4.556   2.286   2.931  1.00  0.00    -0.014 A 
BRANCH  12  13
ATOM     13  C   UNL     1       5.379   2.943   3.982  1.00  0.00     0.031 A 
ATOM     14  C   UNL     1       5.904   2.168   5.165  1.00  0.00     0.074 A 
ATOM     15  C   UNL     1       5.702   4.244   3.833  1.00  0.00     0.049 A 
ATOM     16  N   UNL     1       6.679   2.578   6.138  1.00  0.00    -0.248 NA
ATOM     17  C   UNL     1       5.502   0.758   5.279  1.00  0.00     0.031 C 
ATOM     18  C   UNL     1       5.245   5.103   2.737  1.00  0.00     0.029 A 
ATOM     19  N   UNL     1       6.507   5.064   4.581  1.00  0.00    -0.354 N 
ATOM     20  C   UNL     1       6.836   1.490   6.991  1.00  0.00     0.074 A 
ATOM     21  C   UNL     1       6.054   0.407   6.433  1.00  0.00     0.031 C 
ATOM     22  C   UNL     1       5.826   6.306   2.847  1.00  0.00     0.029 A 
ATOM     23  C   UNL     1       6.641   6.328   4.056  1.00  0.00     0.049 A 
ATOM     24  H   UNL     1       6.948   4.776   5.412  1.00  0.00     0.167 HD
ATOM     25  C   UNL     1       7.570   1.400   8.127  1.00  0.00     0.037 A 
ATOM     26  C   UNL     1       7.332   7.394   4.501  1.00  0.00     0.037 A 
ATOM     27  C   UNL     1       8.368   2.476   8.661  1.00  0.00     0.049 A 
ATOM     28  C   UNL     1       8.132   7.268   5.765  1.00  0.00     0.074 A 
ATOM     29  C   UNL     1       9.181   2.470   9.782  1.00  0.00     0.029 A 
ATOM     30  N   UNL     1       8.454   3.749   8.117  1.00  0.00    -0.354 N 
ATOM     31  N   UNL     1       8.292   6.221   6.538  1.00  0.00    -0.248 NA
ATOM     32  C   UNL     1       8.847   8.469   6.217  1.00  0.00     0.031 C 
ATOM     33  C   UNL     1       9.718   3.752   9.943  1.00  0.00     0.029 A 
ATOM     34  C   UNL     1       9.287   4.543   8.890  1.00  0.00     0.049 A 
ATOM     35  H   UNL     1       7.991   4.046   7.300  1.00  0.00     0.167 HD
ATOM     36  C   UNL     1       9.147   6.629   7.555  1.00  0.00     0.074 A 
ATOM     37  C   UNL     1       9.480   8.014   7.289  1.00  0.00     0.031 C 
ATOM     38  C   UNL     1       9.615   5.919   8.612  1.00  0.00     0.037 A 
BRANCH  25  39
ATOM     39  C   UNL     1       7.530   0.102   8.892  1.00  0.00     0.058 A 
ATOM     40  C   UNL     1       8.148  -1.065   8.413  1.00  0.00     0.135 A 
ATOM     41  C   UNL     1       6.902   0.037  10.147  1.00  0.00     0.135 A 
ATOM     42  F   UNL     1       8.754  -1.067   7.215  1.00  0.00    -0.206 F 
ATOM     43  C   UNL     1       8.118  -2.255   9.136  1.00  0.00     0.059 A 
ATOM     44  C   UNL     1       6.883  -1.135  10.900  1.00  0.00     0.059 A 
ATOM     45  F   UNL     1       6.298   1.122  10.657  1.00  0.00    -0.206 F 
ATOM     46  C   UNL     1       7.481  -2.280  10.378  1.00  0.00     0.060 A 
BRANCH  46  47
ATOM     47  S   UNL     1       7.448  -3.832  11.301  1.00  0.00     0.124 S 
ATOM     48  O   UNL     1       6.487  -4.611  10.525  1.00  0.00    -0.237 OA
ATOM     49  O   UNL     1       8.836  -4.276  11.217  1.00  0.00    -0.237 OA
ATOM     50  O   UNL     1       7.001  -3.429  12.630  1.00  0.00    -0.744 OA
ENDBRANCH  46  47
ENDBRANCH  25  39
BRANCH  26  51
ATOM     51  C   UNL     1       7.298   8.668   3.735  1.00  0.00     0.058 A 
ATOM     52  C   UNL     1       8.435   9.139   3.063  1.00  0.00     0.135 A 
ATOM     53  C   UNL     1       6.120   9.427   3.640  1.00  0.00     0.135 A 
ATOM     54  F   UNL     1       9.585   8.450   3.126  1.00  0.00    -0.206 F 
ATOM     55  C   UNL     1       8.412  10.325   2.336  1.00  0.00     0.059 A 
ATOM     56  C   UNL     1       6.064  10.599   2.895  1.00  0.00     0.059 A 
ATOM     57  F   UNL     1       4.999   9.009   4.249  1.00  0.00    -0.206 F 
ATOM     58  C   UNL     1       7.219  11.046   2.256  1.00  0.00     0.060 A 
BRANCH  58  59
ATOM     59  S   UNL     1       7.186  12.560   1.272  1.00  0.00     0.124 S 
ATOM     60  O   UNL     1       7.929  13.480   2.125  1.00  0.00    -0.237 OA
ATOM     61  O   UNL     1       7.856  12.142   0.045  1.00  0.00    -0.237 OA
ATOM     62  O   UNL     1       5.760  12.838   1.134  1.00  0.00    -0.744 OA
ENDBRANCH  58  59
ENDBRANCH  26  51
BRANCH  38  63
ATOM     63  C   UNL     1      10.575   6.618   9.535  1.00  0.00     0.058 A 
ATOM     64  C   UNL     1      10.159   7.636  10.408  1.00  0.00     0.135 A 
ATOM     65  C   UNL     1      11.929   6.247   9.560  1.00  0.00     0.135 A 
ATOM     66  F   UNL     1       8.876   8.034  10.419  1.00  0.00    -0.206 F 
ATOM     67  C   UNL     1      11.058   8.287  11.246  1.00  0.00     0.059 A 
ATOM     68  C   UNL     1      12.840   6.864  10.411  1.00  0.00     0.059 A 
ATOM     69  F   UNL     1      12.378   5.272   8.754  1.00  0.00    -0.206 F 
ATOM     70  C   UNL     1      12.398   7.895  11.238  1.00  0.00     0.060 A 
BRANCH  70  71
ATOM     71  S   UNL     1      13.555   8.739  12.338  1.00  0.00     0.124 S 
ATOM     72  O   UNL     1      13.729  10.017  11.655  1.00  0.00    -0.237 OA
ATOM     73  O   UNL     1      12.814   8.788  13.594  1.00  0.00    -0.237 OA
ATOM     74  O   UNL     1      14.722   7.863  12.339  1.00  0.00    -0.744 OA
ENDBRANCH  70  71
ENDBRANCH  38  63
ENDBRANCH  12  13
ENDBRANCH   5   7
ENDBRANCH   2   3
ENDBRANCH   1   2
BRANCH   1  75
ATOM     75  C   UNL     1       4.504  -3.452  -1.658  1.00  0.00     0.023 C 
BRANCH  75  76
ATOM     76  C   UNL     1       4.914  -3.085  -3.080  1.00  0.00     0.116 C 
BRANCH  76  77
ATOM     77  N   UNL     1       6.355  -3.003  -3.261  1.00  0.00    -0.352 N 
ATOM     78  C   UNL     1       7.133  -3.589  -4.227  1.00  0.00     0.253 C 
ATOM     79  H   UNL     1       6.837  -2.454  -2.602  1.00  0.00     0.163 HD
ATOM     80  O   UNL     1       8.346  -3.410  -4.263  1.00  0.00    -0.269 OA
BRANCH  78  81
ATOM     81  C   UNL     1       6.493  -4.420  -5.257  1.00  0.00     0.067 A 
ATOM     82  C   UNL     1       5.575  -3.812  -6.125  1.00  0.00     0.017 A 
ATOM     83  C   UNL     1       6.791  -5.775  -5.414  1.00  0.00     0.107 A 
ATOM     84  C   UNL     1       4.932  -4.574  -7.090  1.00  0.00     0.021 A 
ATOM     85  N   UNL     1       6.183  -6.514  -6.392  1.00  0.00    -0.254 NA
ATOM     86  C   UNL     1       5.267  -5.910  -7.183  1.00  0.00     0.111 A 
BRANCH  83  87
ATOM     87  C   UNL     1       7.798  -6.516  -4.538  1.00  0.00     0.321 C 
BRANCH  87  88
ATOM     88  N   UNL     1       7.290  -7.551  -3.611  1.00  0.00    -0.322 N 
ATOM     89  C   UNL     1       6.566  -8.647  -4.246  1.00  0.00     0.263 C 
ATOM     90  C   UNL     1       6.459  -7.016  -2.516  1.00  0.00     0.234 C 
ATOM     91  H   UNL     1       8.156  -7.927  -3.225  1.00  0.00     0.349 HD
ATOM     92  C   UNL     1       5.092  -8.398  -3.996  1.00  0.00     0.068 C 
ATOM     93  C   UNL     1       5.029  -7.509  -2.766  1.00  0.00     0.078 C 
BRANCH  90  94
ATOM     94  C   UNL     1       6.962  -7.412  -1.128  1.00  0.00     0.098 A 
ATOM     95  C   UNL     1       7.115  -8.750  -0.756  1.00  0.00     0.030 A 
ATOM     96  N   UNL     1       7.209  -6.397  -0.258  1.00  0.00    -0.255 NA
ATOM     97  C   UNL     1       7.537  -9.056   0.535  1.00  0.00     0.004 A 
ATOM     98  C   UNL     1       7.633  -6.724   0.984  1.00  0.00     0.111 A 
ATOM     99  C   UNL     1       7.806  -8.025   1.424  1.00  0.00     0.020 A 
ENDBRANCH  90  94
ENDBRANCH  87  88
ENDBRANCH  83  87
ENDBRANCH  78  81
ENDBRANCH  76  77
ENDBRANCH  75  76
ENDBRANCH   1  75
TORSDOF 17
