REMARK SMILES CS(=O)(=O)c1ccc(/C=C(/C(=O)NCCCCNC(=O)c2ccc(-c3c4nc(c(-c5c(F)cc(S(=O)(=O)[O-])cc5F)c5ccc([nH]5)c(-c5c(F)cc(S(=O)(=O)[O-])cc5F)c5nc(c(-c6c(F)cc(S(=O)(=O)[O-])cc6F)c6ccc3[nH]6)C=C5)C=C4)cc2)c2ccc(F)cc2)cc1
REMARK SMILES IDX 16 1 15 2 14 3 13 4 11 5 12 6 10 8 9 9 8 10 5 11 6 12 95 13
REMARK SMILES IDX 7 14 94 15 2 16 1 17 3 18 4 19 87 20 88 21 93 22 89 23 92 24
REMARK SMILES IDX 90 25 91 26 17 27 18 28 19 29 20 31 21 32 22 33 86 34 23 35
REMARK SMILES IDX 85 36 24 37 25 38 26 39 79 40 27 41 84 42 78 43 80 44 28 45
REMARK SMILES IDX 83 46 77 47 76 48 29 50 63 51 42 52 62 53 43 54 46 55 61 56
REMARK SMILES IDX 81 57 44 58 45 59 60 61 82 62 47 63 30 64 31 65 40 66 32 67
REMARK SMILES IDX 33 68 39 69 41 70 34 71 35 72 36 73 37 74 38 75 64 76 65 77
REMARK SMILES IDX 74 78 66 79 67 80 73 81 75 82 68 83 69 84 70 85 71 86 72 87
REMARK SMILES IDX 48 88 49 89 58 90 50 91 51 92 57 93 59 94 52 95 53 96 54 97
REMARK SMILES IDX 55 98 56 99
REMARK H PARENT 13 7 18 30 80 49 46 60
REMARK Flexibility Score: inf
ROOT
ATOM      1  C   UNL     1       2.800   6.843  -8.052  1.00  0.00     0.023 C 
ENDROOT
BRANCH   1   2
ATOM      2  C   UNL     1       2.358   5.719  -7.108  1.00  0.00     0.023 C 
BRANCH   2   3
ATOM      3  C   UNL     1       1.580   4.597  -7.801  1.00  0.00     0.116 C 
BRANCH   3   4
ATOM      4  N   UNL     1       2.480   3.789  -8.599  1.00  0.00    -0.352 N 
ATOM      5  C   UNL     1       3.098   2.594  -8.407  1.00  0.00     0.251 C 
ATOM      6  O   UNL     1       3.854   2.227  -9.310  1.00  0.00    -0.269 OA
ATOM      7  H   UNL     1       2.690   4.194  -9.471  1.00  0.00     0.163 HD
BRANCH   5   8
ATOM      8  C   UNL     1       2.835   1.688  -7.221  1.00  0.00     0.047 C 
ATOM      9  C   UNL     1       2.514   2.168  -5.997  1.00  0.00     0.022 C 
BRANCH   9  10
ATOM     10  C   UNL     1       2.066   1.449  -4.782  1.00  0.00    -0.025 A 
ATOM     11  C   UNL     1       0.948   0.107  -2.585  1.00  0.00     0.067 A 
ATOM     12  C   UNL     1       2.051  -0.437  -3.243  1.00  0.00     0.021 A 
ATOM     13  C   UNL     1       0.416   1.332  -2.986  1.00  0.00     0.021 A 
ATOM     14  C   UNL     1       2.627   0.256  -4.313  1.00  0.00     0.009 A 
ATOM     15  C   UNL     1       0.978   1.997  -4.079  1.00  0.00     0.009 A 
BRANCH  11  16
ATOM     16  S   UNL     1       0.186  -0.784  -1.252  1.00  0.00     0.175 S 
ATOM     17  C   UNL     1       0.867  -0.006   0.188  1.00  0.00     0.163 C 
ATOM     18  O   UNL     1       0.669  -2.149  -1.294  1.00  0.00    -0.224 OA
ATOM     19  O   UNL     1      -1.237  -0.496  -1.293  1.00  0.00    -0.224 OA
ENDBRANCH  11  16
ENDBRANCH   9  10
BRANCH   8  20
ATOM     20  C   UNL     1       3.133   0.245  -7.412  1.00  0.00    -0.013 A 
ATOM     21  C   UNL     1       4.477  -0.133  -7.601  1.00  0.00     0.012 A 
ATOM     22  C   UNL     1       2.155  -0.754  -7.306  1.00  0.00     0.012 A 
ATOM     23  C   UNL     1       4.845  -1.476  -7.636  1.00  0.00     0.040 A 
ATOM     24  C   UNL     1       2.529  -2.102  -7.319  1.00  0.00     0.040 A 
ATOM     25  C   UNL     1       3.869  -2.448  -7.474  1.00  0.00     0.123 A 
ATOM     26  F   UNL     1       4.226  -3.739  -7.449  1.00  0.00    -0.207 F 
ENDBRANCH   8  20
ENDBRANCH   5   8
ENDBRANCH   3   4
ENDBRANCH   2   3
ENDBRANCH   1   2
BRANCH   1  27
ATOM     27  C   UNL     1       1.661   7.569  -8.758  1.00  0.00     0.116 C 
BRANCH  27  28
ATOM     28  N   UNL     1       0.705   8.165  -7.834  1.00  0.00    -0.352 N 
ATOM     29  C   UNL     1       0.050   9.368  -7.958  1.00  0.00     0.251 C 
ATOM     30  H   UNL     1       0.503   7.643  -7.024  1.00  0.00     0.163 HD
ATOM     31  O   UNL     1      -0.637   9.806  -7.043  1.00  0.00    -0.269 OA
BRANCH  29  32
ATOM     32  C   UNL     1       0.229  10.132  -9.207  1.00  0.00     0.039 A 
ATOM     33  C   UNL     1       0.707  11.442  -9.144  1.00  0.00     0.014 A 
ATOM     34  C   UNL     1       0.023   9.503 -10.437  1.00  0.00     0.014 A 
ATOM     35  C   UNL     1       1.057  12.099 -10.325  1.00  0.00     0.010 A 
ATOM     36  C   UNL     1       0.445  10.130 -11.602  1.00  0.00     0.010 A 
ATOM     37  C   UNL     1       0.972  11.431 -11.558  1.00  0.00    -0.014 A 
BRANCH  37  38
ATOM     38  C   UNL     1       1.426  12.057 -12.826  1.00  0.00     0.031 A 
ATOM     39  C   UNL     1       0.436  12.279 -13.935  1.00  0.00     0.074 A 
ATOM     40  C   UNL     1       2.734  12.324 -13.016  1.00  0.00     0.049 A 
ATOM     41  N   UNL     1       0.648  12.652 -15.169  1.00  0.00    -0.248 NA
ATOM     42  C   UNL     1      -0.977  12.012 -13.621  1.00  0.00     0.031 C 
ATOM     43  C   UNL     1       3.795  12.122 -12.027  1.00  0.00     0.029 A 
ATOM     44  N   UNL     1       3.400  12.799 -14.119  1.00  0.00    -0.354 N 
ATOM     45  C   UNL     1      -0.598  12.643 -15.784  1.00  0.00     0.074 A 
ATOM     46  C   UNL     1      -1.552  12.176 -14.802  1.00  0.00     0.031 C 
ATOM     47  C   UNL     1       4.973  12.480 -12.563  1.00  0.00     0.029 A 
ATOM     48  C   UNL     1       4.762  12.886 -13.950  1.00  0.00     0.049 A 
ATOM     49  H   UNL     1       2.944  13.055 -14.954  1.00  0.00     0.167 HD
ATOM     50  C   UNL     1      -0.920  13.009 -17.047  1.00  0.00     0.037 A 
ATOM     51  C   UNL     1       5.734  13.229 -14.819  1.00  0.00     0.037 A 
ATOM     52  C   UNL     1       0.035  13.493 -18.008  1.00  0.00     0.049 A 
ATOM     53  C   UNL     1       5.356  13.607 -16.227  1.00  0.00     0.074 A 
ATOM     54  C   UNL     1      -0.196  13.941 -19.296  1.00  0.00     0.029 A 
ATOM     55  N   UNL     1       1.402  13.590 -17.789  1.00  0.00    -0.354 N 
ATOM     56  N   UNL     1       4.166  13.645 -16.778  1.00  0.00    -0.248 NA
ATOM     57  C   UNL     1       6.449  13.988 -17.134  1.00  0.00     0.031 C 
ATOM     58  C   UNL     1       1.037  14.256 -19.875  1.00  0.00     0.029 A 
ATOM     59  C   UNL     1       2.030  14.067 -18.927  1.00  0.00     0.049 A 
ATOM     60  H   UNL     1       1.858  13.354 -16.948  1.00  0.00     0.167 HD
ATOM     61  C   UNL     1       4.363  14.091 -18.081  1.00  0.00     0.074 A 
ATOM     62  C   UNL     1       5.785  14.309 -18.237  1.00  0.00     0.031 C 
ATOM     63  C   UNL     1       3.447  14.303 -19.058  1.00  0.00     0.037 A 
BRANCH  50  64
ATOM     64  C   UNL     1      -2.361  12.898 -17.463  1.00  0.00     0.058 A 
ATOM     65  C   UNL     1      -3.352  13.736 -16.927  1.00  0.00     0.135 A 
ATOM     66  C   UNL     1      -2.752  11.964 -18.437  1.00  0.00     0.135 A 
ATOM     67  F   UNL     1      -3.039  14.636 -15.981  1.00  0.00    -0.206 F 
ATOM     68  C   UNL     1      -4.682  13.632 -17.318  1.00  0.00     0.059 A 
ATOM     69  C   UNL     1      -4.071  11.865 -18.867  1.00  0.00     0.059 A 
ATOM     70  F   UNL     1      -1.846  11.136 -18.981  1.00  0.00    -0.206 F 
ATOM     71  C   UNL     1      -5.032  12.694 -18.291  1.00  0.00     0.060 A 
BRANCH  71  72
ATOM     72  S   UNL     1      -6.762  12.578 -18.790  1.00  0.00     0.124 S 
ATOM     73  O   UNL     1      -7.367  11.975 -17.606  1.00  0.00    -0.237 OA
ATOM     74  O   UNL     1      -7.108  13.974 -19.036  1.00  0.00    -0.237 OA
ATOM     75  O   UNL     1      -6.719  11.726 -19.974  1.00  0.00    -0.744 OA
ENDBRANCH  71  72
ENDBRANCH  50  64
BRANCH  51  76
ATOM     76  C   UNL     1       7.157  13.240 -14.382  1.00  0.00     0.058 A 
ATOM     77  C   UNL     1       7.865  14.445 -14.258  1.00  0.00     0.135 A 
ATOM     78  C   UNL     1       7.837  12.051 -14.073  1.00  0.00     0.135 A 
ATOM     79  F   UNL     1       7.263  15.608 -14.549  1.00  0.00    -0.206 F 
ATOM     80  C   UNL     1       9.198  14.472 -13.860  1.00  0.00     0.059 A 
ATOM     81  C   UNL     1       9.162  12.054 -13.646  1.00  0.00     0.059 A 
ATOM     82  F   UNL     1       7.203  10.871 -14.159  1.00  0.00    -0.206 F 
ATOM     83  C   UNL     1       9.837  13.270 -13.553  1.00  0.00     0.060 A 
BRANCH  83  84
ATOM     84  S   UNL     1      11.554  13.322 -12.993  1.00  0.00     0.124 S 
ATOM     85  O   UNL     1      12.252  13.681 -14.222  1.00  0.00    -0.237 OA
ATOM     86  O   UNL     1      11.506  14.352 -11.960  1.00  0.00    -0.237 OA
ATOM     87  O   UNL     1      11.790  11.966 -12.506  1.00  0.00    -0.744 OA
ENDBRANCH  83  84
ENDBRANCH  51  76
BRANCH  63  88
ATOM     88  C   UNL     1       3.931  14.852 -20.372  1.00  0.00     0.058 A 
ATOM     89  C   UNL     1       4.637  14.063 -21.291  1.00  0.00     0.135 A 
ATOM     90  C   UNL     1       3.588  16.160 -20.756  1.00  0.00     0.135 A 
ATOM     91  F   UNL     1       4.998  12.810 -20.970  1.00  0.00    -0.206 F 
ATOM     92  C   UNL     1       4.988  14.551 -22.546  1.00  0.00     0.059 A 
ATOM     93  C   UNL     1       3.903  16.658 -22.016  1.00  0.00     0.059 A 
ATOM     94  F   UNL     1       2.905  16.954 -19.916  1.00  0.00    -0.206 F 
ATOM     95  C   UNL     1       4.606  15.845 -22.904  1.00  0.00     0.060 A 
BRANCH  95  96
ATOM     96  S   UNL     1       4.998  16.435 -24.564  1.00  0.00     0.124 S 
ATOM     97  O   UNL     1       6.444  16.614 -24.480  1.00  0.00    -0.237 OA
ATOM     98  O   UNL     1       4.544  15.330 -25.402  1.00  0.00    -0.237 OA
ATOM     99  O   UNL     1       4.220  17.665 -24.682  1.00  0.00    -0.744 OA
ENDBRANCH  95  96
ENDBRANCH  63  88
ENDBRANCH  37  38
ENDBRANCH  29  32
ENDBRANCH  27  28
ENDBRANCH   1  27
TORSDOF 17
