REMARK SMILES O=C(NCCCCNC(=O)[C@H]1C[C@](O)(c2ccc(Cl)cc2)[C@@H](c2ccc(Cl)cc2)O1)c1ccc(-c2c3nc(c(-c4c(F)cc(S(=O)(=O)[O-])cc4F)c4ccc([nH]4)c(-c4c(F)cc(S(=O)(=O)[O-])cc4F)c4nc(c(-c5c(F)cc(S(=O)(=O)[O-])cc5F)c5ccc2[nH]5)C=C4)C=C3)cc1
REMARK SMILES IDX 4 1 3 2 1 3 2 4 31 6 32 7 96 8 33 9 95 10 34 11 35 12 36 13
REMARK SMILES IDX 89 14 37 15 94 16 88 17 90 18 38 19 93 20 87 21 86 22 39 24
REMARK SMILES IDX 73 25 52 26 72 27 53 28 56 29 71 30 91 31 54 32 55 33 70 35
REMARK SMILES IDX 92 36 57 37 40 38 41 39 50 40 42 41 43 42 49 43 51 44 44 45
REMARK SMILES IDX 45 46 46 47 47 48 48 49 74 50 75 51 84 52 76 53 77 54 83 55
REMARK SMILES IDX 85 56 78 57 79 58 80 59 81 60 82 61 58 62 59 63 68 64 60 65
REMARK SMILES IDX 61 66 67 67 69 68 62 69 63 70 64 71 65 72 66 73 5 74 6 75
REMARK SMILES IDX 7 76 8 77 9 78 10 80 11 81 12 82 30 83 13 84 22 85 15 86
REMARK SMILES IDX 16 87 21 88 17 89 20 90 18 91 19 92 14 93 23 95 24 96 29 97
REMARK SMILES IDX 25 98 28 99 26 100 27 101
REMARK H PARENT 3 5 90 23 56 34 8 79 14 94
REMARK Flexibility Score: inf
ROOT
ATOM      1  C   UNL     1       7.922   9.670  -7.455  1.00  0.00     0.116 C 
ENDROOT
BRANCH   1   2
ATOM      2  N   UNL     1       7.892  11.028  -6.934  1.00  0.00    -0.352 N 
ATOM      3  O   UNL     1       7.810  13.286  -7.120  1.00  0.00    -0.269 OA
ATOM      4  C   UNL     1       7.743  12.198  -7.656  1.00  0.00     0.251 C 
ATOM      5  H   UNL     1       7.990  11.125  -5.959  1.00  0.00     0.163 HD
BRANCH   4   6
ATOM      6  C   UNL     1       7.538  12.075  -9.117  1.00  0.00     0.039 A 
ATOM      7  C   UNL     1       6.520  11.253  -9.602  1.00  0.00     0.014 A 
ATOM      8  C   UNL     1       8.440  12.688  -9.990  1.00  0.00     0.014 A 
ATOM      9  C   UNL     1       6.498  10.922 -10.950  1.00  0.00     0.010 A 
ATOM     10  C   UNL     1       8.359  12.421 -11.360  1.00  0.00     0.010 A 
ATOM     11  C   UNL     1       7.411  11.507 -11.846  1.00  0.00    -0.014 A 
BRANCH  11  12
ATOM     12  C   UNL     1       7.297  11.188 -13.292  1.00  0.00     0.031 A 
ATOM     13  C   UNL     1       8.381  10.448 -14.027  1.00  0.00     0.074 A 
ATOM     14  C   UNL     1       6.157  11.531 -13.924  1.00  0.00     0.049 A 
ATOM     15  N   UNL     1       8.410  10.069 -15.280  1.00  0.00    -0.248 NA
ATOM     16  C   UNL     1       9.591  10.092 -13.268  1.00  0.00     0.031 C 
ATOM     17  C   UNL     1       5.046  12.268 -13.312  1.00  0.00     0.029 A 
ATOM     18  N   UNL     1       5.726  11.287 -15.201  1.00  0.00    -0.354 N 
ATOM     19  C   UNL     1       9.640   9.448 -15.467  1.00  0.00     0.074 A 
ATOM     20  C   UNL     1      10.339   9.515 -14.201  1.00  0.00     0.031 C 
ATOM     21  C   UNL     1       4.041  12.363 -14.192  1.00  0.00     0.029 A 
ATOM     22  C   UNL     1       4.458  11.754 -15.449  1.00  0.00     0.049 A 
ATOM     23  H   UNL     1       6.272  10.822 -15.876  1.00  0.00     0.167 HD
ATOM     24  C   UNL     1      10.133   8.873 -16.591  1.00  0.00     0.037 A 
ATOM     25  C   UNL     1       3.714  11.713 -16.569  1.00  0.00     0.037 A 
ATOM     26  C   UNL     1       9.418   8.796 -17.842  1.00  0.00     0.049 A 
ATOM     27  C   UNL     1       4.282  11.059 -17.792  1.00  0.00     0.074 A 
ATOM     28  C   UNL     1       9.828   8.224 -19.035  1.00  0.00     0.029 A 
ATOM     29  N   UNL     1       8.144   9.299 -18.061  1.00  0.00    -0.354 N 
ATOM     30  N   UNL     1       5.449  10.480 -17.947  1.00  0.00    -0.248 NA
ATOM     31  C   UNL     1       3.439  11.059 -18.994  1.00  0.00     0.031 C 
ATOM     32  C   UNL     1       8.813   8.405 -19.982  1.00  0.00     0.029 A 
ATOM     33  C   UNL     1       7.756   9.059 -19.369  1.00  0.00     0.049 A 
ATOM     34  H   UNL     1       7.595   9.758 -17.385  1.00  0.00     0.167 HD
ATOM     35  C   UNL     1       5.484  10.052 -19.267  1.00  0.00     0.074 A 
ATOM     36  C   UNL     1       4.207  10.406 -19.855  1.00  0.00     0.031 C 
ATOM     37  C   UNL     1       6.486   9.433 -19.937  1.00  0.00     0.037 A 
BRANCH  24  38
ATOM     38  C   UNL     1      11.516   8.282 -16.537  1.00  0.00     0.058 A 
ATOM     39  C   UNL     1      11.767   7.057 -15.901  1.00  0.00     0.135 A 
ATOM     40  C   UNL     1      12.586   8.908 -17.197  1.00  0.00     0.135 A 
ATOM     41  F   UNL     1      10.784   6.423 -15.242  1.00  0.00    -0.206 F 
ATOM     42  C   UNL     1      13.032   6.476 -15.916  1.00  0.00     0.059 A 
ATOM     43  C   UNL     1      13.855   8.336 -17.241  1.00  0.00     0.059 A 
ATOM     44  F   UNL     1      12.401  10.082 -17.821  1.00  0.00    -0.206 F 
ATOM     45  C   UNL     1      14.070   7.122 -16.591  1.00  0.00     0.060 A 
BRANCH  45  46
ATOM     46  S   UNL     1      15.698   6.340 -16.628  1.00  0.00     0.124 S 
ATOM     47  O   UNL     1      16.166   6.579 -15.266  1.00  0.00    -0.237 OA
ATOM     48  O   UNL     1      15.373   4.954 -16.951  1.00  0.00    -0.237 OA
ATOM     49  O   UNL     1      16.405   7.074 -17.672  1.00  0.00    -0.744 OA
ENDBRANCH  45  46
ENDBRANCH  24  38
BRANCH  25  50
ATOM     50  C   UNL     1       2.365  12.332 -16.580  1.00  0.00     0.058 A 
ATOM     51  C   UNL     1       1.206  11.547 -16.642  1.00  0.00     0.135 A 
ATOM     52  C   UNL     1       2.211  13.725 -16.500  1.00  0.00     0.135 A 
ATOM     53  F   UNL     1       1.304  10.211 -16.720  1.00  0.00    -0.206 F 
ATOM     54  C   UNL     1      -0.061  12.121 -16.642  1.00  0.00     0.059 A 
ATOM     55  C   UNL     1       0.956  14.321 -16.470  1.00  0.00     0.059 A 
ATOM     56  F   UNL     1       3.292  14.518 -16.416  1.00  0.00    -0.206 F 
ATOM     57  C   UNL     1      -0.175  13.510 -16.556  1.00  0.00     0.060 A 
BRANCH  57  58
ATOM     58  S   UNL     1      -1.819  14.254 -16.509  1.00  0.00     0.124 S 
ATOM     59  O   UNL     1      -2.180  14.251 -17.922  1.00  0.00    -0.237 OA
ATOM     60  O   UNL     1      -2.558  13.325 -15.659  1.00  0.00    -0.237 OA
ATOM     61  O   UNL     1      -1.572  15.567 -15.921  1.00  0.00    -0.744 OA
ENDBRANCH  57  58
ENDBRANCH  25  50
BRANCH  37  62
ATOM     62  C   UNL     1       6.228   9.108 -21.379  1.00  0.00     0.058 A 
ATOM     63  C   UNL     1       6.236  10.108 -22.364  1.00  0.00     0.135 A 
ATOM     64  C   UNL     1       5.968   7.789 -21.780  1.00  0.00     0.135 A 
ATOM     65  F   UNL     1       6.471  11.386 -22.028  1.00  0.00    -0.206 F 
ATOM     66  C   UNL     1       5.957   9.816 -23.695  1.00  0.00     0.059 A 
ATOM     67  C   UNL     1       5.708   7.471 -23.108  1.00  0.00     0.059 A 
ATOM     68  F   UNL     1       5.958   6.797 -20.875  1.00  0.00    -0.206 F 
ATOM     69  C   UNL     1       5.687   8.495 -24.056  1.00  0.00     0.060 A 
BRANCH  69  70
ATOM     70  S   UNL     1       5.321   8.124 -25.784  1.00  0.00     0.124 S 
ATOM     71  O   UNL     1       3.930   8.552 -25.887  1.00  0.00    -0.237 OA
ATOM     72  O   UNL     1       6.292   8.949 -26.497  1.00  0.00    -0.237 OA
ATOM     73  O   UNL     1       5.546   6.685 -25.875  1.00  0.00    -0.744 OA
ENDBRANCH  69  70
ENDBRANCH  37  62
ENDBRANCH  11  12
ENDBRANCH   4   6
ENDBRANCH   1   2
BRANCH   1  74
ATOM     74  C   UNL     1       8.894   8.749  -6.725  1.00  0.00     0.023 C 
BRANCH  74  75
ATOM     75  C   UNL     1       8.525   8.470  -5.269  1.00  0.00     0.023 C 
BRANCH  75  76
ATOM     76  C   UNL     1       7.207   7.710  -5.126  1.00  0.00     0.116 C 
BRANCH  76  77
ATOM     77  N   UNL     1       7.408   6.303  -4.867  1.00  0.00    -0.354 N 
ATOM     78  C   UNL     1       7.107   5.532  -3.790  1.00  0.00     0.249 C 
ATOM     79  H   UNL     1       7.843   5.815  -5.603  1.00  0.00     0.163 HD
ATOM     80  O   UNL     1       7.306   4.317  -3.923  1.00  0.00    -0.272 OA
BRANCH  78  81
ATOM     81  C   UNL     1       6.500   6.061  -2.463  1.00  0.00     0.211 C 
ATOM     82  C   UNL     1       6.998   7.375  -1.905  1.00  0.00     0.085 C 
ATOM     83  O   UNL     1       5.080   6.051  -2.417  1.00  0.00    -0.357 OA
ATOM     84  C   UNL     1       5.773   8.300  -1.780  1.00  0.00     0.123 C 
ATOM     85  C   UNL     1       4.567   7.370  -2.156  1.00  0.00     0.186 C 
BRANCH  84  86
ATOM     86  C   UNL     1       5.851   8.977  -0.407  1.00  0.00    -0.013 A 
ATOM     87  C   UNL     1       6.946   9.846  -0.168  1.00  0.00     0.008 A 
ATOM     88  C   UNL     1       4.962   8.752   0.650  1.00  0.00     0.008 A 
ATOM     89  C   UNL     1       7.162  10.439   1.076  1.00  0.00     0.021 A 
ATOM     90  C   UNL     1       5.173   9.354   1.900  1.00  0.00     0.021 A 
ATOM     91  C   UNL     1       6.274  10.184   2.110  1.00  0.00     0.041 A 
ATOM     92  Cl  UNL     1       6.543  10.884   3.658  1.00  0.00    -0.084 Cl
ENDBRANCH  84  86
BRANCH  84  93
ATOM     93  O   UNL     1       5.917   9.387  -2.710  1.00  0.00    -0.382 OA
ATOM     94  H   UNL     1       5.878   9.045  -3.617  1.00  0.00     0.212 HD
ENDBRANCH  84  93
BRANCH  85  95
ATOM     95  C   UNL     1       3.701   7.778  -3.348  1.00  0.00    -0.016 A 
ATOM     96  C   UNL     1       3.839   7.161  -4.607  1.00  0.00     0.008 A 
ATOM     97  C   UNL     1       2.713   8.765  -3.208  1.00  0.00     0.008 A 
ATOM     98  C   UNL     1       3.057   7.541  -5.699  1.00  0.00     0.021 A 
ATOM     99  C   UNL     1       1.917   9.139  -4.299  1.00  0.00     0.021 A 
ATOM    100  C   UNL     1       2.098   8.532  -5.541  1.00  0.00     0.041 A 
ATOM    101  Cl  UNL     1       1.125   8.998  -6.879  1.00  0.00    -0.084 Cl
ENDBRANCH  85  95
ENDBRANCH  78  81
ENDBRANCH  76  77
ENDBRANCH  75  76
ENDBRANCH  74  75
ENDBRANCH   1  74
TORSDOF 17
