REMARK SMILES CCc1c(C)nn(CC(=O)N2CCC[C@@H](Cn3cc(C(=O)NCCCCNC(=O)c4ccc(-c5c6nc(c(-c7c(F)cc(S(=O)(=O)[O-])cc7F)c7ccc([nH]7)c(-c7c(F)cc(S(=O)(=O)[O-])cc7F)c7nc(c(-c8c(F)cc(S(=O)(=O)[O-])cc8F)c8ccc5[nH]8)C=C7)C=C6)cc4)nn3)C2)c1C
REMARK SMILES IDX 23 1 22 2 20 3 21 4 19 6 17 7 18 8 97 9 96 10 16 11 15 12
REMARK SMILES IDX 11 13 12 14 98 15 13 16 14 17 9 18 10 19 8 20 7 21 3 22 4 23
REMARK SMILES IDX 99 24 5 25 6 26 100 27 2 28 1 29 24 30 25 31 26 32 27 33
REMARK SMILES IDX 28 34 29 36 30 37 31 38 95 39 32 40 94 41 33 42 34 43 35 44
REMARK SMILES IDX 88 45 36 46 93 47 87 48 89 49 37 50 92 51 86 52 85 53 38 55
REMARK SMILES IDX 72 56 51 57 71 58 52 59 55 60 70 61 90 62 53 63 54 64 69 66
REMARK SMILES IDX 91 67 56 68 39 69 40 70 49 71 41 72 42 73 48 74 50 75 43 76
REMARK SMILES IDX 44 77 45 78 46 79 47 80 73 81 74 82 83 83 75 84 76 85 82 86
REMARK SMILES IDX 84 87 77 88 78 89 79 90 80 91 81 92 57 93 58 94 67 95 59 96
REMARK SMILES IDX 60 97 66 98 68 99 61 100 62 101 63 102 64 103 65 104
REMARK H PARENT 22 5 27 35 89 54 55 65
REMARK Flexibility Score: inf
ROOT
ATOM      1  C   UNL     1      -0.956  -2.771  -2.649  1.00  0.00     0.116 C 
ENDROOT
BRANCH   1   2
ATOM      2  N   UNL     1      -2.247  -3.367  -2.381  1.00  0.00    -0.351 N 
ATOM      3  C   UNL     1      -3.529  -2.874  -2.506  1.00  0.00     0.273 C 
ATOM      4  O   UNL     1      -4.447  -3.644  -2.224  1.00  0.00    -0.267 OA
ATOM      5  H   UNL     1      -2.202  -4.293  -2.049  1.00  0.00     0.163 HD
BRANCH   3   6
ATOM      6  C   UNL     1      -3.787  -1.518  -2.984  1.00  0.00     0.170 A 
ATOM      7  N   UNL     1      -3.710   0.532  -3.681  1.00  0.00    -0.251 N 
ATOM      8  C   UNL     1      -3.038  -0.358  -2.894  1.00  0.00     0.145 A 
ATOM      9  N   UNL     1      -4.900   0.051  -4.056  1.00  0.00    -0.067 NA
ATOM     10  N   UNL     1      -4.960  -1.207  -3.643  1.00  0.00    -0.125 NA
BRANCH   7  11
ATOM     11  C   UNL     1      -3.242   1.801  -4.195  1.00  0.00     0.151 C 
BRANCH  11  12
ATOM     12  C   UNL     1      -2.294   1.690  -5.406  1.00  0.00     0.030 C 
ATOM     13  N   UNL     1      -0.085   0.926  -6.197  1.00  0.00    -0.341 N 
ATOM     14  C   UNL     1      -0.663   0.266  -7.370  1.00  0.00     0.119 C 
ATOM     15  C   UNL     1      -0.978   0.974  -5.048  1.00  0.00     0.125 C 
ATOM     16  C   UNL     1      -1.965   0.934  -7.798  1.00  0.00     0.022 C 
ATOM     17  C   UNL     1      -2.950   1.024  -6.629  1.00  0.00     0.009 C 
BRANCH  13  18
ATOM     18  C   UNL     1       1.095   1.647  -6.342  1.00  0.00     0.244 C 
ATOM     19  O   UNL     1       1.439   2.043  -7.465  1.00  0.00    -0.273 OA
BRANCH  18  20
ATOM     20  C   UNL     1       2.123   1.697  -5.223  1.00  0.00     0.244 C 
BRANCH  20  21
ATOM     21  N   UNL     1       1.693   2.121  -3.901  1.00  0.00    -0.260 N 
ATOM     22  C   UNL     1       1.135   2.187  -1.758  1.00  0.00    -0.004 A 
ATOM     23  C   UNL     1       0.951   3.441  -2.422  1.00  0.00     0.063 A 
ATOM     24  C   UNL     1       1.727   1.388  -2.730  1.00  0.00     0.039 A 
ATOM     25  C   UNL     1       0.482   4.731  -1.857  1.00  0.00     0.069 C 
ATOM     26  N   UNL     1       1.269   3.382  -3.717  1.00  0.00    -0.177 NA
ATOM     27  C   UNL     1       2.315   0.025  -2.707  1.00  0.00     0.066 C 
BRANCH  22  28
ATOM     28  C   UNL     1       0.741   1.938  -0.328  1.00  0.00     0.036 C 
ATOM     29  C   UNL     1       1.337   0.750   0.398  1.00  0.00     0.009 C 
ENDBRANCH  22  28
ENDBRANCH  20  21
ENDBRANCH  18  20
ENDBRANCH  13  18
ENDBRANCH  11  12
ENDBRANCH   7  11
ENDBRANCH   3   6
ENDBRANCH   1   2
BRANCH   1  30
ATOM     30  C   UNL     1      -0.328  -2.209  -1.373  1.00  0.00     0.023 C 
BRANCH  30  31
ATOM     31  C   UNL     1       0.346  -3.224  -0.435  1.00  0.00     0.023 C 
BRANCH  31  32
ATOM     32  C   UNL     1       1.634  -3.858  -0.960  1.00  0.00     0.116 C 
BRANCH  32  33
ATOM     33  N   UNL     1       2.752  -2.913  -1.063  1.00  0.00    -0.352 N 
ATOM     34  C   UNL     1       3.961  -3.058  -1.733  1.00  0.00     0.251 C 
ATOM     35  H   UNL     1       2.628  -2.058  -0.592  1.00  0.00     0.163 HD
ATOM     36  O   UNL     1       4.915  -2.354  -1.466  1.00  0.00    -0.269 OA
BRANCH  34  37
ATOM     37  C   UNL     1       4.050  -4.080  -2.791  1.00  0.00     0.039 A 
ATOM     38  C   UNL     1       5.127  -4.968  -2.873  1.00  0.00     0.014 A 
ATOM     39  C   UNL     1       2.960  -4.190  -3.645  1.00  0.00     0.014 A 
ATOM     40  C   UNL     1       5.031  -6.054  -3.742  1.00  0.00     0.010 A 
ATOM     41  C   UNL     1       2.793  -5.346  -4.359  1.00  0.00     0.010 A 
ATOM     42  C   UNL     1       3.838  -6.260  -4.451  1.00  0.00    -0.014 A 
BRANCH  42  43
ATOM     43  C   UNL     1       3.592  -7.505  -5.175  1.00  0.00     0.031 A 
ATOM     44  C   UNL     1       3.774  -8.741  -4.360  1.00  0.00     0.074 A 
ATOM     45  C   UNL     1       2.988  -7.532  -6.384  1.00  0.00     0.049 A 
ATOM     46  N   UNL     1       4.705  -9.630  -4.470  1.00  0.00    -0.248 NA
ATOM     47  C   UNL     1       2.918  -8.933  -3.175  1.00  0.00     0.031 C 
ATOM     48  C   UNL     1       2.442  -6.409  -7.157  1.00  0.00     0.029 A 
ATOM     49  N   UNL     1       2.614  -8.604  -7.130  1.00  0.00    -0.354 N 
ATOM     50  C   UNL     1       4.399 -10.622  -3.540  1.00  0.00     0.074 A 
ATOM     51  C   UNL     1       3.446 -10.035  -2.636  1.00  0.00     0.031 C 
ATOM     52  C   UNL     1       1.597  -6.875  -8.102  1.00  0.00     0.029 A 
ATOM     53  C   UNL     1       1.685  -8.322  -8.126  1.00  0.00     0.049 A 
ATOM     54  H   UNL     1       2.972  -9.508  -6.977  1.00  0.00     0.167 HD
ATOM     55  C   UNL     1       4.752 -11.923  -3.749  1.00  0.00     0.037 A 
ATOM     56  C   UNL     1       1.015  -9.223  -8.890  1.00  0.00     0.037 A 
ATOM     57  C   UNL     1       5.708 -12.029  -4.825  1.00  0.00     0.049 A 
ATOM     58  C   UNL     1       1.790 -10.492  -8.829  1.00  0.00     0.074 A 
ATOM     59  C   UNL     1       6.956 -11.490  -5.071  1.00  0.00     0.029 A 
ATOM     60  N   UNL     1       5.242 -12.461  -6.046  1.00  0.00    -0.354 N 
ATOM     61  N   UNL     1       2.993 -10.628  -9.319  1.00  0.00    -0.248 NA
ATOM     62  C   UNL     1       1.427 -11.454  -7.800  1.00  0.00     0.031 C 
ATOM     63  C   UNL     1       6.945 -11.162  -6.459  1.00  0.00     0.029 A 
ATOM     64  C   UNL     1       5.734 -11.604  -6.997  1.00  0.00     0.049 A 
ATOM     65  H   UNL     1       4.664 -13.241  -6.207  1.00  0.00     0.167 HD
ATOM     66  C   UNL     1       3.678 -11.383  -8.378  1.00  0.00     0.074 A 
ATOM     67  C   UNL     1       2.639 -11.933  -7.506  1.00  0.00     0.031 C 
ATOM     68  C   UNL     1       5.029 -11.256  -8.211  1.00  0.00     0.037 A 
BRANCH  55  69
ATOM     69  C   UNL     1       3.969 -13.124  -3.265  1.00  0.00     0.058 A 
ATOM     70  C   UNL     1       4.526 -14.413  -3.416  1.00  0.00     0.135 A 
ATOM     71  C   UNL     1       2.598 -13.094  -2.928  1.00  0.00     0.135 A 
ATOM     72  F   UNL     1       5.820 -14.566  -3.739  1.00  0.00    -0.206 F 
ATOM     73  C   UNL     1       3.761 -15.576  -3.321  1.00  0.00     0.059 A 
ATOM     74  C   UNL     1       1.830 -14.243  -2.772  1.00  0.00     0.059 A 
ATOM     75  F   UNL     1       1.908 -11.953  -2.830  1.00  0.00    -0.206 F 
ATOM     76  C   UNL     1       2.408 -15.478  -3.014  1.00  0.00     0.060 A 
BRANCH  76  77
ATOM     77  S   UNL     1       1.394 -16.966  -2.990  1.00  0.00     0.124 S 
ATOM     78  O   UNL     1       1.364 -17.318  -4.405  1.00  0.00    -0.237 OA
ATOM     79  O   UNL     1       2.173 -17.847  -2.126  1.00  0.00    -0.237 OA
ATOM     80  O   UNL     1       0.131 -16.500  -2.426  1.00  0.00    -0.744 OA
ENDBRANCH  76  77
ENDBRANCH  55  69
BRANCH  56  81
ATOM     81  C   UNL     1      -0.399  -9.159  -9.354  1.00  0.00     0.058 A 
ATOM     82  C   UNL     1      -0.895 -10.082 -10.293  1.00  0.00     0.135 A 
ATOM     83  C   UNL     1      -1.366  -8.387  -8.677  1.00  0.00     0.135 A 
ATOM     84  F   UNL     1      -0.049 -10.867 -10.978  1.00  0.00    -0.206 F 
ATOM     85  C   UNL     1      -2.266 -10.278 -10.498  1.00  0.00     0.059 A 
ATOM     86  C   UNL     1      -2.737  -8.556  -8.872  1.00  0.00     0.059 A 
ATOM     87  F   UNL     1      -1.012  -7.507  -7.729  1.00  0.00    -0.206 F 
ATOM     88  C   UNL     1      -3.181  -9.527  -9.761  1.00  0.00     0.060 A 
BRANCH  88  89
ATOM     89  S   UNL     1      -4.945  -9.918  -9.867  1.00  0.00     0.124 S 
ATOM     90  O   UNL     1      -5.280  -9.443 -11.205  1.00  0.00    -0.237 OA
ATOM     91  O   UNL     1      -4.951 -11.365  -9.683  1.00  0.00    -0.237 OA
ATOM     92  O   UNL     1      -5.526  -9.152  -8.767  1.00  0.00    -0.744 OA
ENDBRANCH  88  89
ENDBRANCH  56  81
BRANCH  68  93
ATOM     93  C   UNL     1       5.821 -10.517  -9.261  1.00  0.00     0.058 A 
ATOM     94  C   UNL     1       5.665  -9.156  -9.581  1.00  0.00     0.135 A 
ATOM     95  C   UNL     1       6.896 -11.191  -9.858  1.00  0.00     0.135 A 
ATOM     96  F   UNL     1       4.734  -8.405  -8.977  1.00  0.00    -0.206 F 
ATOM     97  C   UNL     1       6.511  -8.510 -10.486  1.00  0.00     0.059 A 
ATOM     98  C   UNL     1       7.771 -10.561 -10.737  1.00  0.00     0.059 A 
ATOM     99  F   UNL     1       7.140 -12.475  -9.547  1.00  0.00    -0.206 F 
ATOM    100  C   UNL     1       7.563  -9.223 -11.060  1.00  0.00     0.060 A 
BRANCH 100 101
ATOM    101  S   UNL     1       8.693  -8.377 -12.186  1.00  0.00     0.124 S 
ATOM    102  O   UNL     1       7.853  -8.166 -13.361  1.00  0.00    -0.237 OA
ATOM    103  O   UNL     1       9.049  -7.176 -11.436  1.00  0.00    -0.237 OA
ATOM    104  O   UNL     1       9.781  -9.336 -12.362  1.00  0.00    -0.744 OA
ENDBRANCH 100 101
ENDBRANCH  68  93
ENDBRANCH  42  43
ENDBRANCH  34  37
ENDBRANCH  32  33
ENDBRANCH  31  32
ENDBRANCH  30  31
ENDBRANCH   1  30
TORSDOF 20
