REMARK SMILES C[C@@H](O)CN(C)C(=O)N[C@H]1C=C[C@@H](C(=O)NCCCCNC(=O)c2ccc(-c3c4nc(c(-c5c(F)cc(S(=O)(=O)[O-])cc5F)c5ccc([nH]5)c(-c5c(F)cc(S(=O)(=O)[O-])cc5F)c5nc(c(-c6c(F)cc(S(=O)(=O)[O-])cc6F)c6ccc3[nH]6)C=C5)C=C4)cc2)C1
REMARK SMILES IDX 17 1 16 2 14 3 15 4 13 6 10 7 11 8 90 9 12 10 9 11 7 12 8 13
REMARK SMILES IDX 5 15 6 16 4 17 2 18 1 19 3 20 18 22 19 23 20 24 21 25 22 26
REMARK SMILES IDX 23 28 24 29 25 30 89 31 26 32 88 33 27 34 28 35 29 36 82 37
REMARK SMILES IDX 30 38 87 39 81 40 83 41 31 42 86 43 80 44 79 45 32 47 66 48
REMARK SMILES IDX 45 49 65 50 46 51 49 52 64 53 84 54 47 55 48 56 63 58 85 59
REMARK SMILES IDX 50 60 33 61 34 62 43 63 35 64 36 65 42 66 44 67 37 68 38 69
REMARK SMILES IDX 39 70 40 71 41 72 67 73 68 74 77 75 69 76 70 77 76 78 78 79
REMARK SMILES IDX 71 80 72 81 73 82 74 83 75 84 51 85 52 86 61 87 53 88 54 89
REMARK SMILES IDX 60 90 62 91 55 92 56 93 57 94 58 95 59 96
REMARK H PARENT 16 5 9 14 3 21 21 27 83 46 49 57
REMARK Flexibility Score: inf
ROOT
ATOM      1  C   UNL     1      -3.098  -1.688   0.574  1.00  0.00     0.116 C 
ENDROOT
BRANCH   1   2
ATOM      2  N   UNL     1      -4.433  -2.235   0.507  1.00  0.00    -0.356 N 
ATOM      3  C   UNL     1      -5.188  -2.618  -0.553  1.00  0.00     0.227 C 
ATOM      4  O   UNL     1      -6.233  -3.227  -0.285  1.00  0.00    -0.274 OA
ATOM      5  H   UNL     1      -4.870  -2.351   1.382  1.00  0.00     0.163 HD
BRANCH   3   6
ATOM      6  C   UNL     1      -4.807  -2.418  -2.029  1.00  0.00     0.103 C 
ATOM      7  C   UNL     1      -2.979  -1.634  -3.472  1.00  0.00     0.107 C 
ATOM      8  C   UNL     1      -3.003  -3.111  -3.374  1.00  0.00    -0.006 C 
ATOM      9  C   UNL     1      -4.085  -1.151  -2.512  1.00  0.00     0.047 C 
ATOM     10  C   UNL     1      -3.978  -3.546  -2.569  1.00  0.00    -0.016 C 
BRANCH   7  11
ATOM     11  N   UNL     1      -1.667  -1.019  -3.311  1.00  0.00    -0.332 N 
ATOM     12  C   UNL     1      -0.839  -0.827  -2.264  1.00  0.00     0.317 C 
ATOM     13  O   UNL     1      -0.441   0.332  -2.112  1.00  0.00    -0.249 OA
ATOM     14  H   UNL     1      -1.305  -0.664  -4.155  1.00  0.00     0.165 HD
BRANCH  12  15
ATOM     15  N   UNL     1      -0.426  -1.839  -1.448  1.00  0.00    -0.325 N 
ATOM     16  C   UNL     1      -0.493  -3.258  -1.740  1.00  0.00     0.148 C 
BRANCH  15  17
ATOM     17  C   UNL     1       0.294  -1.489  -0.218  1.00  0.00     0.152 C 
BRANCH  17  18
ATOM     18  C   UNL     1       1.829  -1.479  -0.351  1.00  0.00     0.130 C 
ATOM     19  C   UNL     1       2.396  -0.086  -0.588  1.00  0.00     0.040 C 
BRANCH  18  20
ATOM     20  O   UNL     1       2.408  -2.014   0.844  1.00  0.00    -0.392 OA
ATOM     21  H   UNL     1       2.170  -1.453   1.599  1.00  0.00     0.211 HD
ENDBRANCH  18  20
ENDBRANCH  17  18
ENDBRANCH  15  17
ENDBRANCH  12  15
ENDBRANCH   7  11
ENDBRANCH   3   6
ENDBRANCH   1   2
BRANCH   1  22
ATOM     22  C   UNL     1      -3.066  -0.298   1.210  1.00  0.00     0.023 C 
BRANCH  22  23
ATOM     23  C   UNL     1      -2.999  -0.288   2.744  1.00  0.00     0.023 C 
BRANCH  23  24
ATOM     24  C   UNL     1      -1.775  -0.952   3.377  1.00  0.00     0.116 C 
BRANCH  24  25
ATOM     25  N   UNL     1      -0.500  -0.433   2.907  1.00  0.00    -0.352 N 
ATOM     26  C   UNL     1       0.750  -0.545   3.470  1.00  0.00     0.251 C 
ATOM     27  H   UNL     1      -0.537   0.072   2.063  1.00  0.00     0.163 HD
ATOM     28  O   UNL     1       1.738  -0.190   2.826  1.00  0.00    -0.269 OA
BRANCH  26  29
ATOM     29  C   UNL     1       0.899  -0.996   4.869  1.00  0.00     0.039 A 
ATOM     30  C   UNL     1       1.627  -0.177   5.739  1.00  0.00     0.014 A 
ATOM     31  C   UNL     1       0.258  -2.137   5.352  1.00  0.00     0.014 A 
ATOM     32  C   UNL     1       1.597  -0.425   7.112  1.00  0.00     0.010 A 
ATOM     33  C   UNL     1       0.175  -2.348   6.727  1.00  0.00     0.010 A 
ATOM     34  C   UNL     1       0.805  -1.467   7.619  1.00  0.00    -0.014 A 
BRANCH  34  35
ATOM     35  C   UNL     1       0.529  -1.569   9.075  1.00  0.00     0.031 A 
ATOM     36  C   UNL     1       0.999  -2.752   9.868  1.00  0.00     0.074 A 
ATOM     37  C   UNL     1      -0.235  -0.621   9.655  1.00  0.00     0.049 A 
ATOM     38  N   UNL     1       0.790  -3.032  11.128  1.00  0.00    -0.248 NA
ATOM     39  C   UNL     1       1.786  -3.763   9.147  1.00  0.00     0.031 C 
ATOM     40  C   UNL     1      -0.810   0.540   8.966  1.00  0.00     0.029 A 
ATOM     41  N   UNL     1      -0.673  -0.484  10.948  1.00  0.00    -0.354 N 
ATOM     42  C   UNL     1       1.405  -4.257  11.351  1.00  0.00     0.074 A 
ATOM     43  C   UNL     1       1.964  -4.683  10.085  1.00  0.00     0.031 C 
ATOM     44  C   UNL     1      -1.504   1.278   9.847  1.00  0.00     0.029 A 
ATOM     45  C   UNL     1      -1.451   0.631  11.153  1.00  0.00     0.049 A 
ATOM     46  H   UNL     1      -0.451  -1.124  11.662  1.00  0.00     0.167 HD
ATOM     47  C   UNL     1       1.506  -4.952  12.509  1.00  0.00     0.037 A 
ATOM     48  C   UNL     1      -2.057   1.083  12.268  1.00  0.00     0.037 A 
ATOM     49  C   UNL     1       0.962  -4.512  13.768  1.00  0.00     0.049 A 
ATOM     50  C   UNL     1      -1.897   0.314  13.547  1.00  0.00     0.074 A 
ATOM     51  C   UNL     1       1.053  -5.120  15.008  1.00  0.00     0.029 A 
ATOM     52  N   UNL     1       0.223  -3.350  13.947  1.00  0.00    -0.354 N 
ATOM     53  N   UNL     1      -1.255  -0.812  13.754  1.00  0.00    -0.248 NA
ATOM     54  C   UNL     1      -2.532   0.876  14.746  1.00  0.00     0.031 C 
ATOM     55  C   UNL     1       0.349  -4.339  15.932  1.00  0.00     0.029 A 
ATOM     56  C   UNL     1      -0.155  -3.228  15.274  1.00  0.00     0.049 A 
ATOM     57  H   UNL     1      -0.000  -2.708  13.236  1.00  0.00     0.167 HD
ATOM     58  C   UNL     1      -1.393  -1.083  15.109  1.00  0.00     0.074 A 
ATOM     59  C   UNL     1      -2.168   0.002  15.676  1.00  0.00     0.031 C 
ATOM     60  C   UNL     1      -0.922  -2.137  15.820  1.00  0.00     0.037 A 
BRANCH  47  61
ATOM     61  C   UNL     1       2.238  -6.263  12.464  1.00  0.00     0.058 A 
ATOM     62  C   UNL     1       3.635  -6.318  12.325  1.00  0.00     0.135 A 
ATOM     63  C   UNL     1       1.543  -7.478  12.573  1.00  0.00     0.135 A 
ATOM     64  F   UNL     1       4.346  -5.186  12.201  1.00  0.00    -0.206 F 
ATOM     65  C   UNL     1       4.312  -7.531  12.262  1.00  0.00     0.059 A 
ATOM     66  C   UNL     1       2.203  -8.703  12.536  1.00  0.00     0.059 A 
ATOM     67  F   UNL     1       0.207  -7.482  12.708  1.00  0.00    -0.206 F 
ATOM     68  C   UNL     1       3.587  -8.719  12.361  1.00  0.00     0.060 A 
BRANCH  68  69
ATOM     69  S   UNL     1       4.476 -10.287  12.262  1.00  0.00     0.124 S 
ATOM     70  O   UNL     1       4.728 -10.386  10.828  1.00  0.00    -0.237 OA
ATOM     71  O   UNL     1       5.648 -10.039  13.095  1.00  0.00    -0.237 OA
ATOM     72  O   UNL     1       3.522 -11.251  12.801  1.00  0.00    -0.744 OA
ENDBRANCH  68  69
ENDBRANCH  47  61
BRANCH  48  73
ATOM     73  C   UNL     1      -2.841   2.345  12.225  1.00  0.00     0.058 A 
ATOM     74  C   UNL     1      -2.340   3.521  12.801  1.00  0.00     0.135 A 
ATOM     75  C   UNL     1      -4.088   2.408  11.585  1.00  0.00     0.135 A 
ATOM     76  F   UNL     1      -1.153   3.508  13.425  1.00  0.00    -0.206 F 
ATOM     77  C   UNL     1      -3.053   4.715  12.757  1.00  0.00     0.059 A 
ATOM     78  C   UNL     1      -4.811   3.595  11.511  1.00  0.00     0.059 A 
ATOM     79  F   UNL     1      -4.601   1.314  11.001  1.00  0.00    -0.206 F 
ATOM     80  C   UNL     1      -4.288   4.742  12.108  1.00  0.00     0.060 A 
BRANCH  80  81
ATOM     81  S   UNL     1      -5.181   6.309  12.003  1.00  0.00     0.124 S 
ATOM     82  O   UNL     1      -5.739   6.418  13.346  1.00  0.00    -0.237 OA
ATOM     83  O   UNL     1      -4.116   7.251  11.676  1.00  0.00    -0.237 OA
ATOM     84  O   UNL     1      -6.146   6.071  10.934  1.00  0.00    -0.744 OA
ENDBRANCH  80  81
ENDBRANCH  48  73
BRANCH  60  85
ATOM     85  C   UNL     1      -1.211  -2.152  17.293  1.00  0.00     0.058 A 
ATOM     86  C   UNL     1      -2.481  -2.486  17.787  1.00  0.00     0.135 A 
ATOM     87  C   UNL     1      -0.196  -1.870  18.220  1.00  0.00     0.135 A 
ATOM     88  F   UNL     1      -3.487  -2.755  16.939  1.00  0.00    -0.206 F 
ATOM     89  C   UNL     1      -2.740  -2.522  19.152  1.00  0.00     0.059 A 
ATOM     90  C   UNL     1      -0.427  -1.921  19.590  1.00  0.00     0.059 A 
ATOM     91  F   UNL     1       1.038  -1.552  17.796  1.00  0.00    -0.206 F 
ATOM     92  C   UNL     1      -1.707  -2.237  20.047  1.00  0.00     0.060 A 
BRANCH  92  93
ATOM     93  S   UNL     1      -2.042  -2.320  21.819  1.00  0.00     0.124 S 
ATOM     94  O   UNL     1      -2.732  -1.055  22.046  1.00  0.00    -0.237 OA
ATOM     95  O   UNL     1      -2.866  -3.520  21.929  1.00  0.00    -0.237 OA
ATOM     96  O   UNL     1      -0.711  -2.426  22.410  1.00  0.00    -0.744 OA
ENDBRANCH  92  93
ENDBRANCH  60  85
ENDBRANCH  34  35
ENDBRANCH  26  29
ENDBRANCH  24  25
ENDBRANCH  23  24
ENDBRANCH  22  23
ENDBRANCH   1  22
TORSDOF 19
