REMARK SMILES CC1(C)[C@H](C(=O)N(Cc2ccccc2)Cc2ccccc2)CC[C@@]1(C)C(=O)NCCCCNC(=O)c1ccc(-c2c3nc(c(-c4c(F)cc(S(=O)(=O)[O-])cc4F)c4ccc([nH]4)c(-c4c(F)cc(S(=O)(=O)[O-])cc4F)c4nc(c(-c5c(F)cc(S(=O)(=O)[O-])cc5F)c5ccc2[nH]5)C=C4)C=C3)cc1
REMARK SMILES IDX 30 1 29 2 28 3 26 4 27 5 24 7 1 8 2 9 3 10 4 11 22 12 23 13
REMARK SMILES IDX 25 14 5 15 6 16 7 17 8 18 9 19 10 20 14 21 11 22 13 23 12 24
REMARK SMILES IDX 15 25 16 26 17 27 21 28 18 29 20 30 19 31 31 32 32 33 33 34
REMARK SMILES IDX 34 35 35 37 36 38 37 39 101 40 38 41 100 42 39 43 40 44
REMARK SMILES IDX 41 45 94 46 42 47 99 48 93 49 95 50 43 51 98 52 92 53 91 54
REMARK SMILES IDX 44 56 78 57 57 58 77 59 58 60 61 61 76 62 96 63 59 64 60 65
REMARK SMILES IDX 75 67 97 68 62 69 45 70 46 71 55 72 47 73 48 74 54 75 56 76
REMARK SMILES IDX 49 77 50 78 51 79 52 80 53 81 79 82 80 83 89 84 81 85 82 86
REMARK SMILES IDX 88 87 90 88 83 89 84 90 85 91 86 92 87 93 63 94 64 95 73 96
REMARK SMILES IDX 65 97 66 98 72 99 74 100 67 101 68 102 69 103 70 104 71 105
REMARK H PARENT 28 6 33 36 95 55 61 66
REMARK Flexibility Score: inf
ROOT
ATOM      1  C   UNL     1      -2.609   2.472   1.014  1.00  0.00     0.023 C 
ENDROOT
BRANCH   1   2
ATOM      2  C   UNL     1      -1.679   3.350   0.181  1.00  0.00     0.116 C 
BRANCH   2   3
ATOM      3  N   UNL     1      -0.315   3.327   0.660  1.00  0.00    -0.356 N 
ATOM      4  C   UNL     1       0.869   2.947   0.126  1.00  0.00     0.226 C 
ATOM      5  O   UNL     1       1.845   3.149   0.862  1.00  0.00    -0.274 OA
ATOM      6  H   UNL     1      -0.228   3.662   1.581  1.00  0.00     0.163 HD
BRANCH   4   7
ATOM      7  C   UNL     1       1.060   2.231  -1.244  1.00  0.00     0.052 C 
ATOM      8  C   UNL     1       0.581   0.105   0.220  1.00  0.00     0.013 C 
ATOM      9  C   UNL     1       0.672   0.687  -1.209  1.00  0.00    -0.010 C 
ATOM     10  C   UNL     1       1.710  -0.184  -1.911  1.00  0.00     0.013 C 
ATOM     11  C   UNL     1      -0.715   0.656  -1.907  1.00  0.00     0.085 C 
ATOM     12  C   UNL     1      -0.771   1.815  -2.892  1.00  0.00     0.015 C 
ATOM     13  C   UNL     1       0.249   2.847  -2.413  1.00  0.00     0.018 C 
ATOM     14  C   UNL     1       2.559   2.480  -1.598  1.00  0.00     0.022 C 
BRANCH  11  15
ATOM     15  C   UNL     1      -1.413  -0.648  -2.345  1.00  0.00     0.226 C 
ATOM     16  O   UNL     1      -2.478  -0.890  -1.750  1.00  0.00    -0.275 OA
ATOM     17  N   UNL     1      -0.966  -1.535  -3.320  1.00  0.00    -0.334 N 
BRANCH  17  18
ATOM     18  C   UNL     1      -0.086  -1.205  -4.459  1.00  0.00     0.155 C 
BRANCH  18  19
ATOM     19  C   UNL     1       1.246  -1.922  -4.593  1.00  0.00    -0.029 A 
ATOM     20  C   UNL     1       1.419  -3.292  -4.382  1.00  0.00     0.005 A 
ATOM     21  C   UNL     1       2.383  -1.179  -4.974  1.00  0.00     0.005 A 
ATOM     22  C   UNL     1       2.688  -3.878  -4.428  1.00  0.00     0.000 A 
ATOM     23  C   UNL     1       3.655  -1.755  -4.999  1.00  0.00     0.000 A 
ATOM     24  C   UNL     1       3.809  -3.105  -4.710  1.00  0.00     0.000 A 
ENDBRANCH  18  19
ENDBRANCH  17  18
BRANCH  17  25
ATOM     25  C   UNL     1      -1.769  -2.768  -3.460  1.00  0.00     0.155 C 
BRANCH  25  26
ATOM     26  C   UNL     1      -1.442  -3.898  -2.496  1.00  0.00    -0.029 A 
ATOM     27  C   UNL     1      -1.490  -5.227  -2.956  1.00  0.00     0.005 A 
ATOM     28  C   UNL     1      -1.177  -3.688  -1.136  1.00  0.00     0.005 A 
ATOM     29  C   UNL     1      -1.238  -6.299  -2.095  1.00  0.00     0.000 A 
ATOM     30  C   UNL     1      -0.934  -4.758  -0.272  1.00  0.00     0.000 A 
ATOM     31  C   UNL     1      -0.959  -6.063  -0.752  1.00  0.00     0.000 A 
ENDBRANCH  25  26
ENDBRANCH  17  25
ENDBRANCH  11  15
ENDBRANCH   4   7
ENDBRANCH   2   3
ENDBRANCH   1   2
BRANCH   1  32
ATOM     32  C   UNL     1      -2.860   2.972   2.435  1.00  0.00     0.023 C 
BRANCH  32  33
ATOM     33  C   UNL     1      -3.298   4.427   2.540  1.00  0.00     0.116 C 
BRANCH  33  34
ATOM     34  N   UNL     1      -4.428   4.755   1.683  1.00  0.00    -0.352 N 
ATOM     35  C   UNL     1      -5.508   5.568   1.956  1.00  0.00     0.251 C 
ATOM     36  H   UNL     1      -4.421   4.342   0.790  1.00  0.00     0.163 HD
ATOM     37  O   UNL     1      -6.418   5.683   1.156  1.00  0.00    -0.269 OA
BRANCH  35  38
ATOM     38  C   UNL     1      -5.552   6.258   3.261  1.00  0.00     0.039 A 
ATOM     39  C   UNL     1      -6.679   6.093   4.068  1.00  0.00     0.014 A 
ATOM     40  C   UNL     1      -4.450   6.988   3.711  1.00  0.00     0.014 A 
ATOM     41  C   UNL     1      -6.669   6.600   5.368  1.00  0.00     0.010 A 
ATOM     42  C   UNL     1      -4.412   7.423   5.029  1.00  0.00     0.010 A 
ATOM     43  C   UNL     1      -5.519   7.230   5.871  1.00  0.00    -0.014 A 
BRANCH  43  44
ATOM     44  C   UNL     1      -5.444   7.688   7.280  1.00  0.00     0.031 A 
ATOM     45  C   UNL     1      -5.269   9.148   7.585  1.00  0.00     0.074 A 
ATOM     46  C   UNL     1      -5.433   6.780   8.275  1.00  0.00     0.049 A 
ATOM     47  N   UNL     1      -5.093   9.736   8.739  1.00  0.00    -0.248 NA
ATOM     48  C   UNL     1      -5.252  10.064   6.434  1.00  0.00     0.031 C 
ATOM     49  C   UNL     1      -5.516   5.329   8.098  1.00  0.00     0.029 A 
ATOM     50  N   UNL     1      -5.325   6.944   9.633  1.00  0.00    -0.354 N 
ATOM     51  C   UNL     1      -4.914  11.083   8.452  1.00  0.00     0.074 A 
ATOM     52  C   UNL     1      -4.951  11.217   7.012  1.00  0.00     0.031 C 
ATOM     53  C   UNL     1      -5.465   4.736   9.302  1.00  0.00     0.029 A 
ATOM     54  C   UNL     1      -5.318   5.760  10.332  1.00  0.00     0.049 A 
ATOM     55  H   UNL     1      -5.258   7.825  10.066  1.00  0.00     0.167 HD
ATOM     56  C   UNL     1      -4.756  12.118   9.311  1.00  0.00     0.037 A 
ATOM     57  C   UNL     1      -5.199   5.526  11.653  1.00  0.00     0.037 A 
ATOM     58  C   UNL     1      -4.753  11.980  10.743  1.00  0.00     0.049 A 
ATOM     59  C   UNL     1      -5.079   6.689  12.595  1.00  0.00     0.074 A 
ATOM     60  C   UNL     1      -4.690  12.971  11.705  1.00  0.00     0.029 A 
ATOM     61  N   UNL     1      -4.814  10.769  11.419  1.00  0.00    -0.354 N 
ATOM     62  N   UNL     1      -5.003   7.969  12.315  1.00  0.00    -0.248 NA
ATOM     63  C   UNL     1      -5.043   6.383  14.031  1.00  0.00     0.031 C 
ATOM     64  C   UNL     1      -4.677  12.358  12.963  1.00  0.00     0.029 A 
ATOM     65  C   UNL     1      -4.771  10.986  12.786  1.00  0.00     0.049 A 
ATOM     66  H   UNL     1      -4.878   9.885  10.989  1.00  0.00     0.167 HD
ATOM     67  C   UNL     1      -4.923   8.623  13.539  1.00  0.00     0.074 A 
ATOM     68  C   UNL     1      -4.975   7.597  14.562  1.00  0.00     0.031 C 
ATOM     69  C   UNL     1      -4.819   9.951  13.791  1.00  0.00     0.037 A 
BRANCH  56  70
ATOM     70  C   UNL     1      -4.570  13.483   8.708  1.00  0.00     0.058 A 
ATOM     71  C   UNL     1      -5.613  14.140   8.035  1.00  0.00     0.135 A 
ATOM     72  C   UNL     1      -3.325  14.130   8.775  1.00  0.00     0.135 A 
ATOM     73  F   UNL     1      -6.820  13.561   7.928  1.00  0.00    -0.206 F 
ATOM     74  C   UNL     1      -5.414  15.361   7.399  1.00  0.00     0.059 A 
ATOM     75  C   UNL     1      -3.112  15.366   8.172  1.00  0.00     0.059 A 
ATOM     76  F   UNL     1      -2.295  13.550   9.410  1.00  0.00    -0.206 F 
ATOM     77  C   UNL     1      -4.155  15.960   7.462  1.00  0.00     0.060 A 
BRANCH  77  78
ATOM     78  S   UNL     1      -3.892  17.518   6.590  1.00  0.00     0.124 S 
ATOM     79  O   UNL     1      -3.757  17.059   5.212  1.00  0.00    -0.237 OA
ATOM     80  O   UNL     1      -5.113  18.259   6.893  1.00  0.00    -0.237 OA
ATOM     81  O   UNL     1      -2.676  18.046   7.200  1.00  0.00    -0.744 OA
ENDBRANCH  77  78
ENDBRANCH  56  70
BRANCH  57  82
ATOM     82  C   UNL     1      -5.225   4.125  12.146  1.00  0.00     0.058 A 
ATOM     83  C   UNL     1      -6.368   3.600  12.765  1.00  0.00     0.135 A 
ATOM     84  C   UNL     1      -4.137   3.262  11.938  1.00  0.00     0.135 A 
ATOM     85  F   UNL     1      -7.430   4.389  12.989  1.00  0.00    -0.206 F 
ATOM     86  C   UNL     1      -6.438   2.267  13.154  1.00  0.00     0.059 A 
ATOM     87  C   UNL     1      -4.190   1.920  12.301  1.00  0.00     0.059 A 
ATOM     88  F   UNL     1      -3.027   3.714  11.334  1.00  0.00    -0.206 F 
ATOM     89  C   UNL     1      -5.347   1.431  12.908  1.00  0.00     0.060 A 
BRANCH  89  90
ATOM     90  S   UNL     1      -5.488  -0.322  13.323  1.00  0.00     0.124 S 
ATOM     91  O   UNL     1      -5.362  -0.292  14.775  1.00  0.00    -0.237 OA
ATOM     92  O   UNL     1      -6.811  -0.655  12.803  1.00  0.00    -0.237 OA
ATOM     93  O   UNL     1      -4.371  -0.927  12.603  1.00  0.00    -0.744 OA
ENDBRANCH  89  90
ENDBRANCH  57  82
BRANCH  69  94
ATOM     94  C   UNL     1      -4.766  10.378  15.231  1.00  0.00     0.058 A 
ATOM     95  C   UNL     1      -3.609  10.204  16.006  1.00  0.00     0.135 A 
ATOM     96  C   UNL     1      -5.863  11.024  15.822  1.00  0.00     0.135 A 
ATOM     97  F   UNL     1      -2.535   9.586  15.488  1.00  0.00    -0.206 F 
ATOM     98  C   UNL     1      -3.547  10.642  17.325  1.00  0.00     0.059 A 
ATOM     99  C   UNL     1      -5.816  11.490  17.132  1.00  0.00     0.059 A 
ATOM    100  F   UNL     1      -6.990  11.223  15.119  1.00  0.00    -0.206 F 
ATOM    101  C   UNL     1      -4.656  11.286  17.878  1.00  0.00     0.060 A 
BRANCH 101 102
ATOM    102  S   UNL     1      -4.550  11.888  19.577  1.00  0.00     0.124 S 
ATOM    103  O   UNL     1      -4.694  10.651  20.337  1.00  0.00    -0.237 OA
ATOM    104  O   UNL     1      -3.227  12.502  19.611  1.00  0.00    -0.237 OA
ATOM    105  O   UNL     1      -5.669  12.821  19.676  1.00  0.00    -0.744 OA
ENDBRANCH 101 102
ENDBRANCH  69  94
ENDBRANCH  43  44
ENDBRANCH  35  38
ENDBRANCH  33  34
ENDBRANCH  32  33
ENDBRANCH   1  32
TORSDOF 19
