REMARK SMILES O=C(CSc1ccc(NC(=O)c2cccc3ccccc23)cc1)NCCCCNC(=O)c1ccc(-c2c3nc(c(-c4c(F)cc(S(=O)(=O)[O-])cc4F)c4ccc([nH]4)c(-c4c(F)cc(S(=O)(=O)[O-])cc4F)c4nc(c(-c5c(F)cc(S(=O)(=O)[O-])cc5F)c5ccc2[nH]5)C=C4)C=C3)cc1
REMARK SMILES IDX 26 1 25 2 24 3 1 4 2 5 3 7 4 8 5 9 6 10 23 11 7 12 22 13
REMARK SMILES IDX 8 14 9 15 10 16 11 18 12 19 13 20 21 21 14 22 16 23 20 24
REMARK SMILES IDX 15 25 17 26 19 27 18 28 27 29 28 30 29 31 30 32 31 34 32 35
REMARK SMILES IDX 33 36 97 37 34 38 96 39 35 40 36 41 37 42 90 43 38 44 95 45
REMARK SMILES IDX 89 46 91 47 39 48 94 49 88 50 87 51 40 53 74 54 53 55 73 56
REMARK SMILES IDX 54 57 57 58 72 59 92 60 55 61 56 62 71 64 93 65 58 66 41 67
REMARK SMILES IDX 42 68 51 69 43 70 44 71 50 72 52 73 45 74 46 75 47 76 48 77
REMARK SMILES IDX 49 78 75 79 76 80 85 81 77 82 78 83 84 84 86 85 79 86 80 87
REMARK SMILES IDX 81 88 82 89 83 90 59 91 60 92 69 93 61 94 62 95 68 96 70 97
REMARK SMILES IDX 63 98 64 99 65 100 66 101 67 102
REMARK H PARENT 24 6 9 17 29 33 91 52 57 63
REMARK Flexibility Score: inf
ROOT
ATOM      1  C   UNL     1       2.427  -0.791  -3.297  1.00  0.00     0.023 C 
ENDROOT
BRANCH   1   2
ATOM      2  C   UNL     1       2.059  -1.334  -1.916  1.00  0.00     0.116 C 
BRANCH   2   3
ATOM      3  N   UNL     1       2.783  -0.667  -0.851  1.00  0.00    -0.355 N 
ATOM      4  O   UNL     1       0.939   0.118   0.264  1.00  0.00    -0.274 OA
ATOM      5  C   UNL     1       2.160   0.001   0.181  1.00  0.00     0.230 C 
ATOM      6  H   UNL     1       3.767  -0.692  -0.867  1.00  0.00     0.163 HD
BRANCH   5   7
ATOM      7  C   UNL     1       3.095   0.700   1.159  1.00  0.00     0.174 C 
BRANCH   7   8
ATOM      8  S   UNL     1       4.491  -0.357   1.690  1.00  0.00    -0.116 SA
BRANCH   8   9
ATOM      9  C   UNL     1       3.627  -1.487   2.760  1.00  0.00     0.008 A 
ATOM     10  C   UNL     1       3.046  -1.055   3.955  1.00  0.00     0.017 A 
ATOM     11  C   UNL     1       3.522  -2.829   2.400  1.00  0.00     0.017 A 
ATOM     12  C   UNL     1       2.271  -1.929   4.725  1.00  0.00     0.027 A 
ATOM     13  C   UNL     1       2.734  -3.695   3.160  1.00  0.00     0.027 A 
ATOM     14  C   UNL     1       2.035  -3.225   4.279  1.00  0.00     0.041 A 
BRANCH  14  15
ATOM     15  N   UNL     1       1.081  -4.096   4.818  1.00  0.00    -0.322 N 
ATOM     16  C   UNL     1      -0.020  -3.936   5.621  1.00  0.00     0.256 C 
ATOM     17  H   UNL     1       1.234  -5.035   4.563  1.00  0.00     0.170 HD
ATOM     18  O   UNL     1      -0.634  -4.957   5.951  1.00  0.00    -0.269 OA
BRANCH  16  19
ATOM     19  C   UNL     1      -0.546  -2.647   6.133  1.00  0.00     0.048 A 
ATOM     20  C   UNL     1      -0.785  -2.653   7.521  1.00  0.00     0.014 A 
ATOM     21  C   UNL     1      -0.934  -1.526   5.339  1.00  0.00    -0.006 A 
ATOM     22  C   UNL     1      -1.415  -1.583   8.141  1.00  0.00     0.001 A 
ATOM     23  C   UNL     1      -1.572  -0.440   6.001  1.00  0.00    -0.018 A 
ATOM     24  C   UNL     1      -0.729  -1.386   3.943  1.00  0.00     0.009 A 
ATOM     25  C   UNL     1      -1.821  -0.494   7.380  1.00  0.00     0.009 A 
ATOM     26  C   UNL     1      -1.949   0.709   5.287  1.00  0.00     0.009 A 
ATOM     27  C   UNL     1      -1.022  -0.197   3.267  1.00  0.00     0.001 A 
ATOM     28  C   UNL     1      -1.642   0.847   3.937  1.00  0.00     0.001 A 
ENDBRANCH  16  19
ENDBRANCH  14  15
ENDBRANCH   8   9
ENDBRANCH   7   8
ENDBRANCH   5   7
ENDBRANCH   2   3
ENDBRANCH   1   2
BRANCH   1  29
ATOM     29  C   UNL     1       3.907  -0.908  -3.670  1.00  0.00     0.023 C 
BRANCH  29  30
ATOM     30  C   UNL     1       4.491  -2.317  -3.613  1.00  0.00     0.116 C 
BRANCH  30  31
ATOM     31  N   UNL     1       3.880  -3.223  -4.571  1.00  0.00    -0.352 N 
ATOM     32  C   UNL     1       4.474  -4.044  -5.503  1.00  0.00     0.251 C 
ATOM     33  H   UNL     1       2.896  -3.256  -4.550  1.00  0.00     0.163 HD
ATOM     34  O   UNL     1       3.778  -4.630  -6.324  1.00  0.00    -0.269 OA
BRANCH  32  35
ATOM     35  C   UNL     1       5.949  -4.194  -5.537  1.00  0.00     0.039 A 
ATOM     36  C   UNL     1       6.600  -4.164  -6.774  1.00  0.00     0.014 A 
ATOM     37  C   UNL     1       6.690  -4.366  -4.365  1.00  0.00     0.014 A 
ATOM     38  C   UNL     1       7.995  -4.232  -6.828  1.00  0.00     0.010 A 
ATOM     39  C   UNL     1       8.083  -4.355  -4.415  1.00  0.00     0.010 A 
ATOM     40  C   UNL     1       8.753  -4.286  -5.646  1.00  0.00    -0.014 A 
BRANCH  40  41
ATOM     41  C   UNL     1      10.241  -4.253  -5.679  1.00  0.00     0.031 A 
ATOM     42  C   UNL     1      11.042  -5.414  -5.151  1.00  0.00     0.074 A 
ATOM     43  C   UNL     1      10.874  -3.149  -6.127  1.00  0.00     0.049 A 
ATOM     44  N   UNL     1      12.339  -5.539  -5.039  1.00  0.00    -0.248 NA
ATOM     45  C   UNL     1      10.284  -6.577  -4.661  1.00  0.00     0.031 C 
ATOM     46  C   UNL     1      10.215  -1.940  -6.626  1.00  0.00     0.029 A 
ATOM     47  N   UNL     1      12.213  -2.859  -6.228  1.00  0.00    -0.354 N 
ATOM     48  C   UNL     1      12.553  -6.783  -4.456  1.00  0.00     0.074 A 
ATOM     49  C   UNL     1      11.250  -7.352  -4.189  1.00  0.00     0.031 C 
ATOM     50  C   UNL     1      11.148  -1.051  -7.002  1.00  0.00     0.029 A 
ATOM     51  C   UNL     1      12.471  -1.605  -6.731  1.00  0.00     0.049 A 
ATOM     52  H   UNL     1      12.921  -3.489  -5.964  1.00  0.00     0.167 HD
ATOM     53  C   UNL     1      13.728  -7.404  -4.186  1.00  0.00     0.037 A 
ATOM     54  C   UNL     1      13.639  -0.966  -6.942  1.00  0.00     0.037 A 
ATOM     55  C   UNL     1      15.023  -6.840  -4.472  1.00  0.00     0.049 A 
ATOM     56  C   UNL     1      14.930  -1.669  -6.617  1.00  0.00     0.074 A 
ATOM     57  C   UNL     1      16.268  -7.417  -4.293  1.00  0.00     0.029 A 
ATOM     58  N   UNL     1      15.242  -5.572  -4.988  1.00  0.00    -0.354 N 
ATOM     59  N   UNL     1      15.113  -2.874  -6.130  1.00  0.00    -0.248 NA
ATOM     60  C   UNL     1      16.174  -0.930  -6.875  1.00  0.00     0.031 C 
ATOM     61  C   UNL     1      17.241  -6.476  -4.645  1.00  0.00     0.029 A 
ATOM     62  C   UNL     1      16.603  -5.336  -5.105  1.00  0.00     0.049 A 
ATOM     63  H   UNL     1      14.535  -4.932  -5.235  1.00  0.00     0.167 HD
ATOM     64  C   UNL     1      16.491  -3.048  -6.055  1.00  0.00     0.074 A 
ATOM     65  C   UNL     1      17.094  -1.831  -6.556  1.00  0.00     0.031 C 
ATOM     66  C   UNL     1      17.193  -4.122  -5.613  1.00  0.00     0.037 A 
BRANCH  53  67
ATOM     67  C   UNL     1      13.671  -8.765  -3.543  1.00  0.00     0.058 A 
ATOM     68  C   UNL     1      13.200  -9.892  -4.235  1.00  0.00     0.135 A 
ATOM     69  C   UNL     1      14.137  -8.953  -2.232  1.00  0.00     0.135 A 
ATOM     70  F   UNL     1      12.729  -9.771  -5.487  1.00  0.00    -0.206 F 
ATOM     71  C   UNL     1      13.163 -11.150  -3.641  1.00  0.00     0.059 A 
ATOM     72  C   UNL     1      14.141 -10.207  -1.628  1.00  0.00     0.059 A 
ATOM     73  F   UNL     1      14.601  -7.912  -1.522  1.00  0.00    -0.206 F 
ATOM     74  C   UNL     1      13.637 -11.297  -2.336  1.00  0.00     0.060 A 
BRANCH  74  75
ATOM     75  S   UNL     1      13.588 -12.937  -1.583  1.00  0.00     0.124 S 
ATOM     76  O   UNL     1      12.155 -13.115  -1.369  1.00  0.00    -0.237 OA
ATOM     77  O   UNL     1      14.183 -13.774  -2.620  1.00  0.00    -0.237 OA
ATOM     78  O   UNL     1      14.387 -12.780  -0.372  1.00  0.00    -0.744 OA
ENDBRANCH  74  75
ENDBRANCH  53  67
BRANCH  54  79
ATOM     79  C   UNL     1      13.645   0.412  -7.506  1.00  0.00     0.058 A 
ATOM     80  C   UNL     1      14.128   0.660  -8.800  1.00  0.00     0.135 A 
ATOM     81  C   UNL     1      13.165   1.506  -6.769  1.00  0.00     0.135 A 
ATOM     82  F   UNL     1      14.606  -0.350  -9.542  1.00  0.00    -0.206 F 
ATOM     83  C   UNL     1      14.153   1.944  -9.337  1.00  0.00     0.059 A 
ATOM     84  C   UNL     1      13.152   2.794  -7.295  1.00  0.00     0.059 A 
ATOM     85  F   UNL     1      12.677   1.322  -5.532  1.00  0.00    -0.206 F 
ATOM     86  C   UNL     1      13.659   3.005  -8.576  1.00  0.00     0.060 A 
BRANCH  86  87
ATOM     87  S   UNL     1      13.654   4.659  -9.300  1.00  0.00     0.124 S 
ATOM     88  O   UNL     1      15.075   4.985  -9.298  1.00  0.00    -0.237 OA
ATOM     89  O   UNL     1      13.056   4.417 -10.610  1.00  0.00    -0.237 OA
ATOM     90  O   UNL     1      12.828   5.428  -8.374  1.00  0.00    -0.744 OA
ENDBRANCH  86  87
ENDBRANCH  54  79
BRANCH  66  91
ATOM     91  C   UNL     1      18.695  -4.051  -5.688  1.00  0.00     0.058 A 
ATOM     92  C   UNL     1      19.443  -3.220  -4.838  1.00  0.00     0.135 A 
ATOM     93  C   UNL     1      19.399  -4.868  -6.588  1.00  0.00     0.135 A 
ATOM     94  F   UNL     1      18.822  -2.414  -3.963  1.00  0.00    -0.206 F 
ATOM     95  C   UNL     1      20.833  -3.184  -4.896  1.00  0.00     0.059 A 
ATOM     96  C   UNL     1      20.789  -4.872  -6.641  1.00  0.00     0.059 A 
ATOM     97  F   UNL     1      18.735  -5.690  -7.417  1.00  0.00    -0.206 F 
ATOM     98  C   UNL     1      21.497  -4.016  -5.799  1.00  0.00     0.060 A 
BRANCH  98  99
ATOM     99  S   UNL     1      23.302  -3.984  -5.838  1.00  0.00     0.124 S 
ATOM    100  O   UNL     1      23.560  -2.693  -6.466  1.00  0.00    -0.237 OA
ATOM    101  O   UNL     1      23.646  -4.081  -4.423  1.00  0.00    -0.237 OA
ATOM    102  O   UNL     1      23.646  -5.153  -6.642  1.00  0.00    -0.744 OA
ENDBRANCH  98  99
ENDBRANCH  66  91
ENDBRANCH  40  41
ENDBRANCH  32  35
ENDBRANCH  30  31
ENDBRANCH  29  30
ENDBRANCH   1  29
TORSDOF 18
