REMARK SMILES COc1ccc(NCc2ccc(C(=O)NCCCCNC(=O)c3ccc(-c4c5nc(c(-c6c(F)cc(S(=O)(=O)[O-])cc6F)c6ccc([nH]6)c(-c6c(F)cc(S(=O)(=O)[O-])cc6F)c6nc(c(-c7c(F)cc(S(=O)(=O)[O-])cc7F)c7ccc4[nH]7)C=C6)C=C5)cc3)o2)cc1
REMARK SMILES IDX 17 1 16 2 15 3 13 4 14 5 12 7 9 8 10 9 89 10 11 11 8 12 7 13
REMARK SMILES IDX 6 15 3 16 4 17 91 18 5 19 90 20 2 21 1 22 18 23 19 24 20 25
REMARK SMILES IDX 21 26 22 28 23 29 24 30 88 31 25 32 87 33 26 34 27 35 28 36
REMARK SMILES IDX 81 37 29 38 86 39 80 40 82 41 30 42 85 43 79 44 78 45 31 47
REMARK SMILES IDX 65 48 44 49 64 50 45 51 48 52 63 53 83 54 46 55 47 56 62 58
REMARK SMILES IDX 84 59 49 60 32 61 33 62 42 63 34 64 35 65 41 66 43 67 36 68
REMARK SMILES IDX 37 69 38 70 39 71 40 72 66 73 67 74 76 75 68 76 69 77 75 78
REMARK SMILES IDX 77 79 70 80 71 81 72 82 73 83 74 84 50 85 51 86 60 87 52 88
REMARK SMILES IDX 53 89 59 90 61 91 54 92 55 93 56 94 57 95 58 96
REMARK H PARENT 15 6 7 14 20 27 82 46 48 57
REMARK Flexibility Score: inf
ROOT
ATOM      1  C   UNL     1      -0.495   2.312 -12.516  1.00  0.00     0.023 C 
ENDROOT
BRANCH   1   2
ATOM      2  C   UNL     1       0.888   2.150 -11.888  1.00  0.00     0.116 C 
BRANCH   2   3
ATOM      3  N   UNL     1       0.897   2.601 -10.514  1.00  0.00    -0.349 N 
ATOM      4  C   UNL     1       0.870   1.898  -9.330  1.00  0.00     0.286 C 
ATOM      5  O   UNL     1       0.995   2.573  -8.307  1.00  0.00    -0.266 OA
ATOM      6  H   UNL     1       0.927   3.579 -10.406  1.00  0.00     0.163 HD
BRANCH   4   7
ATOM      7  C   UNL     1       0.720   0.451  -9.308  1.00  0.00     0.191 A 
ATOM      8  C   UNL     1       0.834  -1.520  -8.291  1.00  0.00     0.124 A 
ATOM      9  C   UNL     1       0.388  -1.769  -9.569  1.00  0.00     0.048 A 
ATOM     10  O   UNL     1       1.048  -0.184  -8.132  1.00  0.00    -0.454 OA
ATOM     11  C   UNL     1       0.275  -0.508 -10.203  1.00  0.00     0.056 A 
BRANCH   8  12
ATOM     12  C   UNL     1       1.065  -2.413  -7.117  1.00  0.00     0.188 C 
BRANCH  12  13
ATOM     13  N   UNL     1       1.889  -1.869  -6.053  1.00  0.00    -0.378 N 
ATOM     14  H   UNL     1       2.814  -1.626  -6.290  1.00  0.00     0.161 HD
BRANCH  13  15
ATOM     15  C   UNL     1       1.509  -1.657  -4.744  1.00  0.00     0.035 A 
ATOM     16  C   UNL     1       0.905  -1.266  -2.002  1.00  0.00     0.119 A 
ATOM     17  C   UNL     1      -0.062  -1.744  -2.879  1.00  0.00     0.048 A 
ATOM     18  C   UNL     1       2.189  -1.019  -2.476  1.00  0.00     0.048 A 
ATOM     19  C   UNL     1       0.239  -1.936  -4.234  1.00  0.00     0.029 A 
ATOM     20  C   UNL     1       2.481  -1.216  -3.832  1.00  0.00     0.029 A 
BRANCH  16  21
ATOM     21  O   UNL     1       0.520  -1.129  -0.697  1.00  0.00    -0.497 OA
ATOM     22  C   UNL     1       1.052   0.023  -0.051  1.00  0.00     0.278 C 
ENDBRANCH  16  21
ENDBRANCH  13  15
ENDBRANCH  12  13
ENDBRANCH   8  12
ENDBRANCH   4   7
ENDBRANCH   2   3
ENDBRANCH   1   2
BRANCH   1  23
ATOM     23  C   UNL     1      -0.787   3.732 -13.014  1.00  0.00     0.023 C 
BRANCH  23  24
ATOM     24  C   UNL     1       0.171   4.251 -14.083  1.00  0.00     0.116 C 
BRANCH  24  25
ATOM     25  N   UNL     1       0.244   3.393 -15.257  1.00  0.00    -0.352 N 
ATOM     26  C   UNL     1       0.384   3.761 -16.574  1.00  0.00     0.251 C 
ATOM     27  H   UNL     1       0.187   2.425 -15.085  1.00  0.00     0.163 HD
ATOM     28  O   UNL     1       0.310   2.921 -17.464  1.00  0.00    -0.269 OA
BRANCH  26  29
ATOM     29  C   UNL     1       0.586   5.188 -16.901  1.00  0.00     0.039 A 
ATOM     30  C   UNL     1      -0.232   5.786 -17.861  1.00  0.00     0.014 A 
ATOM     31  C   UNL     1       1.545   5.939 -16.217  1.00  0.00     0.014 A 
ATOM     32  C   UNL     1      -0.133   7.160 -18.086  1.00  0.00     0.010 A 
ATOM     33  C   UNL     1       1.586   7.318 -16.387  1.00  0.00     0.010 A 
ATOM     34  C   UNL     1       0.749   7.944 -17.323  1.00  0.00    -0.014 A 
BRANCH  34  35
ATOM     35  C   UNL     1       0.816   9.418 -17.488  1.00  0.00     0.031 A 
ATOM     36  C   UNL     1       2.093  10.063 -17.952  1.00  0.00     0.074 A 
ATOM     37  C   UNL     1      -0.245  10.179 -17.151  1.00  0.00     0.049 A 
ATOM     38  N   UNL     1       2.382  11.333 -18.072  1.00  0.00    -0.248 NA
ATOM     39  C   UNL     1       3.204   9.161 -18.300  1.00  0.00     0.031 C 
ATOM     40  C   UNL     1      -1.524   9.673 -16.645  1.00  0.00     0.029 A 
ATOM     41  N   UNL     1      -0.414  11.541 -17.169  1.00  0.00    -0.354 N 
ATOM     42  C   UNL     1       3.705  11.383 -18.494  1.00  0.00     0.074 A 
ATOM     43  C   UNL     1       4.181  10.018 -18.552  1.00  0.00     0.031 C 
ATOM     44  C   UNL     1      -2.350  10.708 -16.422  1.00  0.00     0.029 A 
ATOM     45  C   UNL     1      -1.649  11.952 -16.724  1.00  0.00     0.049 A 
ATOM     46  H   UNL     1       0.284  12.166 -17.472  1.00  0.00     0.167 HD
ATOM     47  C   UNL     1       4.448  12.465 -18.825  1.00  0.00     0.037 A 
ATOM     48  C   UNL     1      -2.155  13.191 -16.565  1.00  0.00     0.037 A 
ATOM     49  C   UNL     1       3.959  13.819 -18.784  1.00  0.00     0.049 A 
ATOM     50  C   UNL     1      -1.304  14.380 -16.927  1.00  0.00     0.074 A 
ATOM     51  C   UNL     1       4.613  14.981 -19.153  1.00  0.00     0.029 A 
ATOM     52  N   UNL     1       2.697  14.193 -18.345  1.00  0.00    -0.354 N 
ATOM     53  N   UNL     1      -0.075  14.405 -17.385  1.00  0.00    -0.248 NA
ATOM     54  C   UNL     1      -1.910  15.707 -16.756  1.00  0.00     0.031 C 
ATOM     55  C   UNL     1       3.767  16.062 -18.887  1.00  0.00     0.029 A 
ATOM     56  C   UNL     1       2.562  15.570 -18.410  1.00  0.00     0.049 A 
ATOM     57  H   UNL     1       2.000  13.572 -18.034  1.00  0.00     0.167 HD
ATOM     58  C   UNL     1       0.228  15.748 -17.586  1.00  0.00     0.074 A 
ATOM     59  C   UNL     1      -0.951  16.502 -17.212  1.00  0.00     0.031 C 
ATOM     60  C   UNL     1       1.377  16.306 -18.042  1.00  0.00     0.037 A 
BRANCH  47  61
ATOM     61  C   UNL     1       5.869  12.230 -19.263  1.00  0.00     0.058 A 
ATOM     62  C   UNL     1       6.172  11.601 -20.482  1.00  0.00     0.135 A 
ATOM     63  C   UNL     1       6.942  12.670 -18.471  1.00  0.00     0.135 A 
ATOM     64  F   UNL     1       5.187  11.145 -21.272  1.00  0.00    -0.206 F 
ATOM     65  C   UNL     1       7.487  11.389 -20.885  1.00  0.00     0.059 A 
ATOM     66  C   UNL     1       8.265  12.498 -18.870  1.00  0.00     0.059 A 
ATOM     67  F   UNL     1       6.712  13.277 -17.296  1.00  0.00    -0.206 F 
ATOM     68  C   UNL     1       8.527  11.842 -20.072  1.00  0.00     0.060 A 
BRANCH  68  69
ATOM     69  S   UNL     1      10.225  11.564 -20.615  1.00  0.00     0.124 S 
ATOM     70  O   UNL     1      10.357  10.122 -20.430  1.00  0.00    -0.237 OA
ATOM     71  O   UNL     1      10.189  12.025 -21.999  1.00  0.00    -0.237 OA
ATOM     72  O   UNL     1      11.014  12.387 -19.703  1.00  0.00    -0.744 OA
ENDBRANCH  68  69
ENDBRANCH  47  61
BRANCH  48  73
ATOM     73  C   UNL     1      -3.541  13.371 -16.054  1.00  0.00     0.058 A 
ATOM     74  C   UNL     1      -4.560  13.861 -16.885  1.00  0.00     0.135 A 
ATOM     75  C   UNL     1      -3.878  13.053 -14.729  1.00  0.00     0.135 A 
ATOM     76  F   UNL     1      -4.288  14.186 -18.158  1.00  0.00    -0.206 F 
ATOM     77  C   UNL     1      -5.857  14.046 -16.418  1.00  0.00     0.059 A 
ATOM     78  C   UNL     1      -5.174  13.202 -14.246  1.00  0.00     0.059 A 
ATOM     79  F   UNL     1      -2.945  12.565 -13.896  1.00  0.00    -0.206 F 
ATOM     80  C   UNL     1      -6.155  13.711 -15.096  1.00  0.00     0.060 A 
BRANCH  80  81
ATOM     81  S   UNL     1      -7.853  13.914 -14.514  1.00  0.00     0.124 S 
ATOM     82  O   UNL     1      -7.965  15.366 -14.435  1.00  0.00    -0.237 OA
ATOM     83  O   UNL     1      -8.618  13.271 -15.578  1.00  0.00    -0.237 OA
ATOM     84  O   UNL     1      -7.856  13.209 -13.236  1.00  0.00    -0.744 OA
ENDBRANCH  80  81
ENDBRANCH  48  73
BRANCH  60  85
ATOM     85  C   UNL     1       1.408  17.802 -18.202  1.00  0.00     0.058 A 
ATOM     86  C   UNL     1       1.441  18.666 -17.097  1.00  0.00     0.135 A 
ATOM     87  C   UNL     1       1.462  18.376 -19.483  1.00  0.00     0.135 A 
ATOM     88  F   UNL     1       1.385  18.172 -15.850  1.00  0.00    -0.206 F 
ATOM     89  C   UNL     1       1.502  20.047 -17.256  1.00  0.00     0.059 A 
ATOM     90  C   UNL     1       1.556  19.752 -19.666  1.00  0.00     0.059 A 
ATOM     91  F   UNL     1       1.445  17.595 -20.576  1.00  0.00    -0.206 F 
ATOM     92  C   UNL     1       1.563  20.580 -18.545  1.00  0.00     0.060 A 
BRANCH  92  93
ATOM     93  S   UNL     1       1.679  22.372 -18.735  1.00  0.00     0.124 S 
ATOM     94  O   UNL     1       0.331  22.794 -18.369  1.00  0.00    -0.237 OA
ATOM     95  O   UNL     1       2.732  22.718 -17.786  1.00  0.00    -0.237 OA
ATOM     96  O   UNL     1       2.029  22.543 -20.142  1.00  0.00    -0.744 OA
ENDBRANCH  92  93
ENDBRANCH  60  85
ENDBRANCH  34  35
ENDBRANCH  26  29
ENDBRANCH  24  25
ENDBRANCH  23  24
ENDBRANCH   1  23
TORSDOF 18
