REMARK SMILES O=C(NCCCCNC(=O)[C@@H](Cc1ccc(O)cc1)Nc1c2ccccc2nc2ccccc12)c1ccc(-c2c3nc(c(-c4c(F)cc(S(=O)(=O)[O-])cc4F)c4ccc([nH]4)c(-c4c(F)cc(S(=O)(=O)[O-])cc4F)c4nc(c(-c5c(F)cc(S(=O)(=O)[O-])cc5F)c5ccc2[nH]5)C=C4)C=C3)cc1
REMARK SMILES IDX 5 1 4 2 3 3 1 4 2 5 35 7 36 8 100 9 37 10 99 11 38 12 39 13
REMARK SMILES IDX 40 14 93 15 41 16 98 17 92 18 94 19 42 20 97 21 91 22 90 23
REMARK SMILES IDX 43 25 77 26 56 27 76 28 57 29 60 30 75 31 95 32 58 33 59 34
REMARK SMILES IDX 74 36 96 37 61 38 44 39 45 40 54 41 46 42 47 43 53 44 55 45
REMARK SMILES IDX 48 46 49 47 50 48 51 49 52 50 78 51 79 52 88 53 80 54 81 55
REMARK SMILES IDX 87 56 89 57 82 58 83 59 84 60 85 61 86 62 62 63 63 64 72 65
REMARK SMILES IDX 64 66 65 67 71 68 73 69 66 70 67 71 68 72 69 73 70 74 6 75
REMARK SMILES IDX 7 76 8 77 9 78 10 80 11 81 12 82 13 83 14 84 19 85 15 86
REMARK SMILES IDX 18 87 16 88 17 89 20 91 21 93 22 94 34 95 23 96 27 97 29 98
REMARK SMILES IDX 33 99 24 100 26 101 28 102 30 103 32 104 25 105 31 106
REMARK H PARENT 3 6 94 24 60 35 8 79 17 90 20 92
REMARK Flexibility Score: inf
ROOT
ATOM      1  C   UNL     1       5.721   1.941  -1.045  1.00  0.00     0.023 C 
ENDROOT
BRANCH   1   2
ATOM      2  C   UNL     1       4.962   1.015  -0.105  1.00  0.00     0.116 C 
BRANCH   2   3
ATOM      3  N   UNL     1       3.512   1.125  -0.168  1.00  0.00    -0.352 N 
ATOM      4  O   UNL     1       1.386   0.344  -0.328  1.00  0.00    -0.269 OA
ATOM      5  C   UNL     1       2.586   0.100  -0.242  1.00  0.00     0.251 C 
ATOM      6  H   UNL     1       3.147   2.039  -0.157  1.00  0.00     0.163 HD
BRANCH   5   7
ATOM      7  C   UNL     1       3.064  -1.303  -0.289  1.00  0.00     0.039 A 
ATOM      8  C   UNL     1       4.029  -1.750   0.613  1.00  0.00     0.014 A 
ATOM      9  C   UNL     1       2.633  -2.139  -1.324  1.00  0.00     0.014 A 
ATOM     10  C   UNL     1       4.725  -2.922   0.340  1.00  0.00     0.010 A 
ATOM     11  C   UNL     1       3.258  -3.375  -1.526  1.00  0.00     0.010 A 
ATOM     12  C   UNL     1       4.355  -3.750  -0.735  1.00  0.00    -0.014 A 
BRANCH  12  13
ATOM     13  C   UNL     1       5.125  -5.000  -0.991  1.00  0.00     0.031 A 
ATOM     14  C   UNL     1       5.856  -5.223  -2.293  1.00  0.00     0.074 A 
ATOM     15  C   UNL     1       5.208  -5.920  -0.008  1.00  0.00     0.049 A 
ATOM     16  N   UNL     1       6.557  -6.261  -2.674  1.00  0.00    -0.248 NA
ATOM     17  C   UNL     1       5.787  -4.152  -3.302  1.00  0.00     0.031 C 
ATOM     18  C   UNL     1       4.539  -5.822   1.293  1.00  0.00     0.029 A 
ATOM     19  N   UNL     1       5.902  -7.099   0.068  1.00  0.00    -0.354 N 
ATOM     20  C   UNL     1       6.976  -5.991  -3.974  1.00  0.00     0.074 A 
ATOM     21  C   UNL     1       6.450  -4.689  -4.320  1.00  0.00     0.031 C 
ATOM     22  C   UNL     1       4.904  -6.859   2.057  1.00  0.00     0.029 A 
ATOM     23  C   UNL     1       5.764  -7.740   1.277  1.00  0.00     0.049 A 
ATOM     24  H   UNL     1       6.447  -7.454  -0.671  1.00  0.00     0.167 HD
ATOM     25  C   UNL     1       7.729  -6.760  -4.798  1.00  0.00     0.037 A 
ATOM     26  C   UNL     1       6.249  -8.919   1.708  1.00  0.00     0.037 A 
ATOM     27  C   UNL     1       8.289  -8.037  -4.428  1.00  0.00     0.049 A 
ATOM     28  C   UNL     1       7.093  -9.741   0.780  1.00  0.00     0.074 A 
ATOM     29  C   UNL     1       9.097  -8.873  -5.180  1.00  0.00     0.029 A 
ATOM     30  N   UNL     1       8.108  -8.658  -3.201  1.00  0.00    -0.354 N 
ATOM     31  N   UNL     1       7.469  -9.466  -0.446  1.00  0.00    -0.248 NA
ATOM     32  C   UNL     1       7.564 -11.036   1.284  1.00  0.00     0.031 C 
ATOM     33  C   UNL     1       9.376 -10.015  -4.421  1.00  0.00     0.029 A 
ATOM     34  C   UNL     1       8.775  -9.872  -3.181  1.00  0.00     0.049 A 
ATOM     35  H   UNL     1       7.583  -8.290  -2.454  1.00  0.00     0.167 HD
ATOM     36  C   UNL     1       8.220 -10.558  -0.862  1.00  0.00     0.074 A 
ATOM     37  C   UNL     1       8.269 -11.482   0.253  1.00  0.00     0.031 C 
ATOM     38  C   UNL     1       8.806 -10.780  -2.063  1.00  0.00     0.037 A 
BRANCH  25  39
ATOM     39  C   UNL     1       7.990  -6.266  -6.196  1.00  0.00     0.058 A 
ATOM     40  C   UNL     1       8.919  -5.249  -6.463  1.00  0.00     0.135 A 
ATOM     41  C   UNL     1       7.367  -6.885  -7.293  1.00  0.00     0.135 A 
ATOM     42  F   UNL     1       9.534  -4.614  -5.453  1.00  0.00    -0.206 F 
ATOM     43  C   UNL     1       9.216  -4.858  -7.766  1.00  0.00     0.059 A 
ATOM     44  C   UNL     1       7.662  -6.524  -8.605  1.00  0.00     0.059 A 
ATOM     45  F   UNL     1       6.471  -7.865  -7.095  1.00  0.00    -0.206 F 
ATOM     46  C   UNL     1       8.584  -5.503  -8.832  1.00  0.00     0.060 A 
BRANCH  46  47
ATOM     47  S   UNL     1       9.004  -5.008 -10.518  1.00  0.00     0.124 S 
ATOM     48  O   UNL     1       8.312  -3.727 -10.624  1.00  0.00    -0.237 OA
ATOM     49  O   UNL     1      10.461  -4.938 -10.470  1.00  0.00    -0.237 OA
ATOM     50  O   UNL     1       8.458  -6.087 -11.335  1.00  0.00    -0.744 OA
ENDBRANCH  46  47
ENDBRANCH  25  39
BRANCH  26  51
ATOM     51  C   UNL     1       5.910  -9.399   3.072  1.00  0.00     0.058 A 
ATOM     52  C   UNL     1       6.877  -9.451   4.085  1.00  0.00     0.135 A 
ATOM     53  C   UNL     1       4.597  -9.777   3.397  1.00  0.00     0.135 A 
ATOM     54  F   UNL     1       8.146  -9.103   3.820  1.00  0.00    -0.206 F 
ATOM     55  C   UNL     1       6.558  -9.869   5.373  1.00  0.00     0.059 A 
ATOM     56  C   UNL     1       4.248 -10.170   4.683  1.00  0.00     0.059 A 
ATOM     57  F   UNL     1       3.632  -9.725   2.466  1.00  0.00    -0.206 F 
ATOM     58  C   UNL     1       5.238 -10.223   5.663  1.00  0.00     0.060 A 
BRANCH  58  59
ATOM     59  S   UNL     1       4.811 -10.702   7.350  1.00  0.00     0.124 S 
ATOM     60  O   UNL     1       5.266 -12.086   7.384  1.00  0.00    -0.237 OA
ATOM     61  O   UNL     1       5.585  -9.755   8.148  1.00  0.00    -0.237 OA
ATOM     62  O   UNL     1       3.365 -10.508   7.394  1.00  0.00    -0.744 OA
ENDBRANCH  58  59
ENDBRANCH  26  51
BRANCH  38  63
ATOM     63  C   UNL     1       9.557 -12.069  -2.222  1.00  0.00     0.058 A 
ATOM     64  C   UNL     1       8.885 -13.289  -2.391  1.00  0.00     0.135 A 
ATOM     65  C   UNL     1      10.960 -12.082  -2.223  1.00  0.00     0.135 A 
ATOM     66  F   UNL     1       7.543 -13.328  -2.387  1.00  0.00    -0.206 F 
ATOM     67  C   UNL     1       9.579 -14.486  -2.528  1.00  0.00     0.059 A 
ATOM     68  C   UNL     1      11.675 -13.265  -2.380  1.00  0.00     0.059 A 
ATOM     69  F   UNL     1      11.647 -10.939  -2.071  1.00  0.00    -0.206 F 
ATOM     70  C   UNL     1      10.975 -14.463  -2.518  1.00  0.00     0.060 A 
BRANCH  70  71
ATOM     71  S   UNL     1      11.870 -16.019  -2.710  1.00  0.00     0.124 S 
ATOM     72  O   UNL     1      11.742 -16.597  -1.377  1.00  0.00    -0.237 OA
ATOM     73  O   UNL     1      11.116 -16.688  -3.766  1.00  0.00    -0.237 OA
ATOM     74  O   UNL     1      13.214 -15.592  -3.084  1.00  0.00    -0.744 OA
ENDBRANCH  70  71
ENDBRANCH  38  63
ENDBRANCH  12  13
ENDBRANCH   5   7
ENDBRANCH   2   3
ENDBRANCH   1   2
BRANCH   1  75
ATOM     75  C   UNL     1       5.884   3.388  -0.584  1.00  0.00     0.023 C 
BRANCH  75  76
ATOM     76  C   UNL     1       6.456   3.545   0.827  1.00  0.00     0.116 C 
BRANCH  76  77
ATOM     77  N   UNL     1       7.472   4.572   0.911  1.00  0.00    -0.354 N 
ATOM     78  C   UNL     1       7.476   5.907   1.132  1.00  0.00     0.242 C 
ATOM     79  H   UNL     1       8.378   4.213   0.773  1.00  0.00     0.163 HD
ATOM     80  O   UNL     1       8.605   6.420   1.153  1.00  0.00    -0.273 OA
BRANCH  78  81
ATOM     81  C   UNL     1       6.233   6.809   1.330  1.00  0.00     0.173 C 
BRANCH  81  82
ATOM     82  C   UNL     1       5.229   6.832   0.153  1.00  0.00     0.070 C 
BRANCH  82  83
ATOM     83  C   UNL     1       3.831   6.229   0.154  1.00  0.00    -0.045 A 
ATOM     84  C   UNL     1       2.951   6.657  -0.862  1.00  0.00     0.007 A 
ATOM     85  C   UNL     1       3.374   5.216   1.006  1.00  0.00     0.007 A 
ATOM     86  C   UNL     1       1.700   6.061  -1.050  1.00  0.00     0.046 A 
ATOM     87  C   UNL     1       2.129   4.609   0.818  1.00  0.00     0.046 A 
ATOM     88  C   UNL     1       1.313   5.020  -0.221  1.00  0.00     0.115 A 
BRANCH  88  89
ATOM     89  O   UNL     1       0.136   4.362  -0.401  1.00  0.00    -0.508 OA
ATOM     90  H   UNL     1      -0.441   4.614  -1.095  1.00  0.00     0.293 HD
ENDBRANCH  88  89
ENDBRANCH  82  83
ENDBRANCH  81  82
BRANCH  81  91
ATOM     91  N   UNL     1       5.612   6.685   2.651  1.00  0.00    -0.372 N 
ATOM     92  H   UNL     1       4.924   5.988   2.753  1.00  0.00     0.161 HD
BRANCH  91  93
ATOM     93  C   UNL     1       5.898   7.460   3.787  1.00  0.00     0.054 A 
ATOM     94  C   UNL     1       6.018   8.888   3.767  1.00  0.00     0.024 A 
ATOM     95  C   UNL     1       6.071   6.775   5.037  1.00  0.00     0.024 A 
ATOM     96  C   UNL     1       5.780   9.737   2.651  1.00  0.00     0.012 A 
ATOM     97  C   UNL     1       6.349   9.525   4.983  1.00  0.00     0.073 A 
ATOM     98  C   UNL     1       6.336   7.554   6.179  1.00  0.00     0.073 A 
ATOM     99  C   UNL     1       5.993   5.364   5.212  1.00  0.00     0.012 A 
ATOM    100  C   UNL     1       5.969  11.120   2.706  1.00  0.00     0.001 A 
ATOM    101  C   UNL     1       6.521  10.903   5.024  1.00  0.00     0.029 A 
ATOM    102  N   UNL     1       6.490   8.879   6.143  1.00  0.00    -0.248 NA
ATOM    103  C   UNL     1       6.448   6.939   7.420  1.00  0.00     0.029 A 
ATOM    104  C   UNL     1       6.114   4.766   6.466  1.00  0.00     0.001 A 
ATOM    105  C   UNL     1       6.354  11.706   3.898  1.00  0.00     0.002 A 
ATOM    106  C   UNL     1       6.330   5.559   7.579  1.00  0.00     0.002 A 
ENDBRANCH  91  93
ENDBRANCH  81  91
ENDBRANCH  78  81
ENDBRANCH  76  77
ENDBRANCH  75  76
ENDBRANCH   1  75
TORSDOF 19
