REMARK SMILES CC(C)(O)CCOc1ccc(C(=O)NCCCCNC(=O)c2ccc(-c3c4nc(c(-c5c(F)cc(S(=O)(=O)[O-])cc5F)c5ccc([nH]5)c(-c5c(F)cc(S(=O)(=O)[O-])cc5F)c5nc(c(-c6c(F)cc(S(=O)(=O)[O-])cc6F)c6ccc3[nH]6)C=C5)C=C4)cc2)cc1
REMARK SMILES IDX 15 1 14 2 12 3 13 4 11 6 8 7 9 8 89 9 10 10 88 11 7 12 6 13
REMARK SMILES IDX 5 14 2 15 1 16 3 17 4 18 16 20 17 21 18 22 19 23 20 24 21 26
REMARK SMILES IDX 22 27 23 28 87 29 24 30 86 31 25 32 26 33 27 34 80 35 28 36
REMARK SMILES IDX 85 37 79 38 81 39 29 40 84 41 78 42 77 43 30 45 64 46 43 47
REMARK SMILES IDX 63 48 44 49 47 50 62 51 82 52 45 53 46 54 61 56 83 57 48 58
REMARK SMILES IDX 31 59 32 60 41 61 33 62 34 63 40 64 42 65 35 66 36 67 37 68
REMARK SMILES IDX 38 69 39 70 65 71 66 72 75 73 67 74 68 75 74 76 76 77 69 78
REMARK SMILES IDX 70 79 71 80 72 81 73 82 49 83 50 84 59 85 51 86 52 87 58 88
REMARK SMILES IDX 60 89 53 90 54 91 55 92 56 93 57 94
REMARK H PARENT 14 5 4 19 19 25 81 44 47 55
REMARK Flexibility Score: inf
ROOT
ATOM      1  C   UNL     1      -0.560   3.893  -1.346  1.00  0.00     0.116 C 
ENDROOT
BRANCH   1   2
ATOM      2  N   UNL     1      -0.616   3.600  -2.772  1.00  0.00    -0.352 N 
ATOM      3  C   UNL     1      -0.575   2.418  -3.477  1.00  0.00     0.251 C 
ATOM      4  O   UNL     1      -0.553   2.463  -4.706  1.00  0.00    -0.269 OA
ATOM      5  H   UNL     1      -0.699   4.399  -3.340  1.00  0.00     0.163 HD
BRANCH   3   6
ATOM      6  C   UNL     1      -0.494   1.091  -2.814  1.00  0.00     0.040 A 
ATOM      7  C   UNL     1      -0.051  -1.353  -1.496  1.00  0.00     0.119 A 
ATOM      8  C   UNL     1       0.548  -1.099  -2.732  1.00  0.00     0.047 A 
ATOM      9  C   UNL     1      -0.997  -0.453  -1.014  1.00  0.00     0.047 A 
ATOM     10  C   UNL     1       0.331   0.117  -3.389  1.00  0.00     0.017 A 
ATOM     11  C   UNL     1      -1.228   0.760  -1.676  1.00  0.00     0.017 A 
BRANCH   7  12
ATOM     12  O   UNL     1       0.420  -2.461  -0.853  1.00  0.00    -0.493 OA
BRANCH  12  13
ATOM     13  C   UNL     1       0.075  -2.684   0.515  1.00  0.00     0.232 C 
BRANCH  13  14
ATOM     14  C   UNL     1       1.123  -2.183   1.527  1.00  0.00     0.076 C 
BRANCH  14  15
ATOM     15  C   UNL     1       1.105  -0.682   1.901  1.00  0.00     0.062 C 
ATOM     16  C   UNL     1       1.916   0.180   0.928  1.00  0.00     0.042 C 
ATOM     17  C   UNL     1       1.685  -0.482   3.310  1.00  0.00     0.042 C 
BRANCH  15  18
ATOM     18  O   UNL     1      -0.246  -0.224   1.956  1.00  0.00    -0.390 OA
ATOM     19  H   UNL     1      -0.259   0.717   2.191  1.00  0.00     0.211 HD
ENDBRANCH  15  18
ENDBRANCH  14  15
ENDBRANCH  13  14
ENDBRANCH  12  13
ENDBRANCH   7  12
ENDBRANCH   3   6
ENDBRANCH   1   2
BRANCH   1  20
ATOM     20  C   UNL     1       0.766   4.514  -0.905  1.00  0.00     0.023 C 
BRANCH  20  21
ATOM     21  C   UNL     1       0.885   6.027  -1.113  1.00  0.00     0.023 C 
BRANCH  21  22
ATOM     22  C   UNL     1      -0.097   6.891  -0.318  1.00  0.00     0.116 C 
BRANCH  22  23
ATOM     23  N   UNL     1       0.035   6.765   1.128  1.00  0.00    -0.352 N 
ATOM     24  C   UNL     1      -0.196   7.723   2.092  1.00  0.00     0.251 C 
ATOM     25  H   UNL     1       0.327   5.885   1.458  1.00  0.00     0.163 HD
ATOM     26  O   UNL     1       0.032   7.481   3.273  1.00  0.00    -0.269 OA
BRANCH  24  27
ATOM     27  C   UNL     1      -0.670   9.064   1.683  1.00  0.00     0.039 A 
ATOM     28  C   UNL     1       0.053  10.190   2.088  1.00  0.00     0.014 A 
ATOM     29  C   UNL     1      -1.782   9.203   0.848  1.00  0.00     0.014 A 
ATOM     30  C   UNL     1      -0.277  11.446   1.570  1.00  0.00     0.010 A 
ATOM     31  C   UNL     1      -2.076  10.447   0.293  1.00  0.00     0.010 A 
ATOM     32  C   UNL     1      -1.308  11.574   0.626  1.00  0.00    -0.014 A 
BRANCH  32  33
ATOM     33  C   UNL     1      -1.554  12.856  -0.083  1.00  0.00     0.031 A 
ATOM     34  C   UNL     1      -2.847  13.598   0.104  1.00  0.00     0.074 A 
ATOM     35  C   UNL     1      -0.646  13.299  -0.976  1.00  0.00     0.049 A 
ATOM     36  N   UNL     1      -3.280  14.667  -0.512  1.00  0.00    -0.248 NA
ATOM     37  C   UNL     1      -3.784  13.054   1.099  1.00  0.00     0.031 C 
ATOM     38  C   UNL     1       0.627  12.642  -1.284  1.00  0.00     0.029 A 
ATOM     39  N   UNL     1      -0.661  14.393  -1.806  1.00  0.00    -0.354 N 
ATOM     40  C   UNL     1      -4.543  14.919   0.008  1.00  0.00     0.074 A 
ATOM     41  C   UNL     1      -4.822  13.868   0.964  1.00  0.00     0.031 C 
ATOM     42  C   UNL     1       1.272  13.349  -2.226  1.00  0.00     0.029 A 
ATOM     43  C   UNL     1       0.445  14.486  -2.619  1.00  0.00     0.049 A 
ATOM     44  H   UNL     1      -1.395  15.049  -1.818  1.00  0.00     0.167 HD
ATOM     45  C   UNL     1      -5.385  15.942  -0.273  1.00  0.00     0.037 A 
ATOM     46  C   UNL     1       0.752  15.373  -3.585  1.00  0.00     0.037 A 
ATOM     47  C   UNL     1      -5.095  16.997  -1.209  1.00  0.00     0.049 A 
ATOM     48  C   UNL     1      -0.209  16.487  -3.895  1.00  0.00     0.074 A 
ATOM     49  C   UNL     1      -5.850  18.120  -1.502  1.00  0.00     0.029 A 
ATOM     50  N   UNL     1      -3.964  17.057  -2.010  1.00  0.00    -0.354 N 
ATOM     51  N   UNL     1      -1.368  16.750  -3.341  1.00  0.00    -0.248 NA
ATOM     52  C   UNL     1       0.175  17.421  -4.963  1.00  0.00     0.031 C 
ATOM     53  C   UNL     1      -5.196  18.837  -2.510  1.00  0.00     0.029 A 
ATOM     54  C   UNL     1      -4.016  18.181  -2.820  1.00  0.00     0.049 A 
ATOM     55  H   UNL     1      -3.233  16.398  -2.005  1.00  0.00     0.167 HD
ATOM     56  C   UNL     1      -1.848  17.883  -3.987  1.00  0.00     0.074 A 
ATOM     57  C   UNL     1      -0.846  18.267  -4.960  1.00  0.00     0.031 C 
ATOM     58  C   UNL     1      -3.016  18.544  -3.792  1.00  0.00     0.037 A 
BRANCH  45  59
ATOM     59  C   UNL     1      -6.704  15.973   0.446  1.00  0.00     0.058 A 
ATOM     60  C   UNL     1      -6.789  16.304   1.807  1.00  0.00     0.135 A 
ATOM     61  C   UNL     1      -7.900  15.704  -0.240  1.00  0.00     0.135 A 
ATOM     62  F   UNL     1      -5.675  16.558   2.512  1.00  0.00    -0.206 F 
ATOM     63  C   UNL     1      -8.010  16.338   2.472  1.00  0.00     0.059 A 
ATOM     64  C   UNL     1      -9.135  15.755   0.400  1.00  0.00     0.059 A 
ATOM     65  F   UNL     1      -7.874  15.382  -1.543  1.00  0.00    -0.206 F 
ATOM     66  C   UNL     1      -9.178  16.058   1.760  1.00  0.00     0.060 A 
BRANCH  66  67
ATOM     67  S   UNL     1     -10.755  16.104   2.638  1.00  0.00     0.124 S 
ATOM     68  O   UNL     1     -10.698  14.860   3.399  1.00  0.00    -0.237 OA
ATOM     69  O   UNL     1     -10.644  17.330   3.420  1.00  0.00    -0.237 OA
ATOM     70  O   UNL     1     -11.741  16.137   1.562  1.00  0.00    -0.744 OA
ENDBRANCH  66  67
ENDBRANCH  45  59
BRANCH  46  71
ATOM     71  C   UNL     1       2.031  15.242  -4.331  1.00  0.00     0.058 A 
ATOM     72  C   UNL     1       3.087  16.137  -4.109  1.00  0.00     0.135 A 
ATOM     73  C   UNL     1       2.230  14.211  -5.262  1.00  0.00     0.135 A 
ATOM     74  F   UNL     1       2.939  17.144  -3.235  1.00  0.00    -0.206 F 
ATOM     75  C   UNL     1       4.294  16.021  -4.789  1.00  0.00     0.059 A 
ATOM     76  C   UNL     1       3.436  14.061  -5.939  1.00  0.00     0.059 A 
ATOM     77  F   UNL     1       1.254  13.320  -5.498  1.00  0.00    -0.206 F 
ATOM     78  C   UNL     1       4.460  14.977  -5.701  1.00  0.00     0.060 A 
BRANCH  78  79
ATOM     79  S   UNL     1       6.053  14.797  -6.533  1.00  0.00     0.124 S 
ATOM     80  O   UNL     1       5.988  15.863  -7.526  1.00  0.00    -0.237 OA
ATOM     81  O   UNL     1       6.998  15.001  -5.439  1.00  0.00    -0.237 OA
ATOM     82  O   UNL     1       6.003  13.436  -7.060  1.00  0.00    -0.744 OA
ENDBRANCH  78  79
ENDBRANCH  46  71
BRANCH  58  83
ATOM     83  C   UNL     1      -3.277  19.750  -4.648  1.00  0.00     0.058 A 
ATOM     84  C   UNL     1      -3.658  19.621  -5.993  1.00  0.00     0.135 A 
ATOM     85  C   UNL     1      -3.206  21.043  -4.106  1.00  0.00     0.135 A 
ATOM     86  F   UNL     1      -3.730  18.406  -6.560  1.00  0.00    -0.206 F 
ATOM     87  C   UNL     1      -3.949  20.733  -6.775  1.00  0.00     0.059 A 
ATOM     88  C   UNL     1      -3.514  22.169  -4.864  1.00  0.00     0.059 A 
ATOM     89  F   UNL     1      -2.852  21.220  -2.823  1.00  0.00    -0.206 F 
ATOM     90  C   UNL     1      -3.878  22.004  -6.200  1.00  0.00     0.060 A 
BRANCH  90  91
ATOM     91  S   UNL     1      -4.307  23.437  -7.211  1.00  0.00     0.124 S 
ATOM     92  O   UNL     1      -3.122  23.568  -8.053  1.00  0.00    -0.237 OA
ATOM     93  O   UNL     1      -5.520  22.991  -7.889  1.00  0.00    -0.237 OA
ATOM     94  O   UNL     1      -4.500  24.500  -6.228  1.00  0.00    -0.744 OA
ENDBRANCH  90  91
ENDBRANCH  58  83
ENDBRANCH  32  33
ENDBRANCH  24  27
ENDBRANCH  22  23
ENDBRANCH  21  22
ENDBRANCH  20  21
ENDBRANCH   1  20
TORSDOF 19
