REMARK SMILES CCc1ccccc1NC(=O)c1cc(S(=O)(=O)N2CCC[C@H](C(=O)NCCCCNC(=O)c3ccc(-c4c5nc(c(-c6c(F)cc(S(=O)(=O)[O-])cc6F)c6ccc([nH]6)c(-c6c(F)cc(S(=O)(=O)[O-])cc6F)c6nc(c(-c7c(F)cc(S(=O)(=O)[O-])cc7F)c7ccc4[nH]7)C=C6)C=C5)cc3)C2)ccc1F
REMARK SMILES IDX 26 1 25 2 23 3 24 4 22 6 18 7 19 8 99 9 20 10 21 11 15 12
REMARK SMILES IDX 16 13 17 14 14 15 12 16 13 17 102 18 101 19 103 20 100 21
REMARK SMILES IDX 10 22 9 23 11 25 8 26 3 27 4 28 5 29 7 30 6 31 2 32 1 33
REMARK SMILES IDX 27 34 28 35 29 36 30 37 31 38 32 40 33 41 34 42 98 43 35 44
REMARK SMILES IDX 97 45 36 46 37 47 38 48 91 49 39 50 96 51 90 52 92 53 40 54
REMARK SMILES IDX 95 55 89 56 88 57 41 59 75 60 54 61 74 62 55 63 58 64 73 65
REMARK SMILES IDX 93 66 56 67 57 68 72 70 94 71 59 72 42 73 43 74 52 75 44 76
REMARK SMILES IDX 45 77 51 78 53 79 46 80 47 81 48 82 49 83 50 84 76 85 77 86
REMARK SMILES IDX 86 87 78 88 79 89 85 90 87 91 80 92 81 93 82 94 83 95 84 96
REMARK SMILES IDX 60 97 61 98 70 99 62 100 63 101 69 102 71 103 64 104 65 105
REMARK SMILES IDX 66 106 67 107 68 108
REMARK H PARENT 25 5 9 24 30 39 92 58 58 69
REMARK Flexibility Score: inf
ROOT
ATOM      1  C   UNL     1       9.681  -3.198  -9.551  1.00  0.00     0.116 C 
ENDROOT
BRANCH   1   2
ATOM      2  N   UNL     1       9.223  -3.144 -10.922  1.00  0.00    -0.356 N 
ATOM      3  C   UNL     1       7.985  -3.053 -11.463  1.00  0.00     0.224 C 
ATOM      4  O   UNL     1       7.923  -3.006 -12.698  1.00  0.00    -0.275 OA
ATOM      5  H   UNL     1       9.947  -3.181 -11.588  1.00  0.00     0.163 HD
BRANCH   3   6
ATOM      6  C   UNL     1       6.685  -3.027 -10.659  1.00  0.00     0.093 C 
ATOM      7  N   UNL     1       6.802  -2.314  -8.229  1.00  0.00    -0.197 NA
ATOM      8  C   UNL     1       6.445  -3.666  -7.755  1.00  0.00     0.102 C 
ATOM      9  C   UNL     1       6.576  -1.909  -9.639  1.00  0.00     0.116 C 
ATOM     10  C   UNL     1       6.649  -4.757  -8.790  1.00  0.00     0.018 C 
ATOM     11  C   UNL     1       6.188  -4.385 -10.182  1.00  0.00     0.016 C 
BRANCH   7  12
ATOM     12  S   UNL     1       6.745  -1.060  -7.079  1.00  0.00     0.243 S 
ATOM     13  O   UNL     1       7.305   0.125  -7.678  1.00  0.00    -0.207 OA
ATOM     14  O   UNL     1       7.241  -1.597  -5.825  1.00  0.00    -0.207 OA
BRANCH  12  15
ATOM     15  C   UNL     1       5.017  -0.712  -6.806  1.00  0.00     0.083 A 
ATOM     16  C   UNL     1       3.383   0.460  -5.481  1.00  0.00     0.077 A 
ATOM     17  C   UNL     1       4.720   0.206  -5.794  1.00  0.00     0.038 A 
ATOM     18  C   UNL     1       2.356  -0.107  -6.234  1.00  0.00     0.136 A 
ATOM     19  C   UNL     1       2.652  -1.025  -7.235  1.00  0.00     0.041 A 
ATOM     20  F   UNL     1       1.070   0.164  -5.972  1.00  0.00    -0.206 F 
ATOM     21  C   UNL     1       3.983  -1.345  -7.507  1.00  0.00     0.025 A 
BRANCH  16  22
ATOM     22  C   UNL     1       3.092   1.256  -4.286  1.00  0.00     0.258 C 
ATOM     23  N   UNL     1       2.372   0.733  -3.233  1.00  0.00    -0.322 N 
ATOM     24  H   UNL     1       2.163   1.386  -2.526  1.00  0.00     0.170 HD
ATOM     25  O   UNL     1       3.494   2.417  -4.251  1.00  0.00    -0.269 OA
BRANCH  23  26
ATOM     26  C   UNL     1       1.878  -0.568  -2.980  1.00  0.00     0.044 A 
ATOM     27  C   UNL     1       0.781  -0.735  -2.111  1.00  0.00    -0.025 A 
ATOM     28  C   UNL     1       0.196  -2.012  -1.979  1.00  0.00     0.006 A 
ATOM     29  C   UNL     1       0.713  -3.116  -2.649  1.00  0.00     0.000 A 
ATOM     30  C   UNL     1       2.444  -1.713  -3.559  1.00  0.00     0.026 A 
ATOM     31  C   UNL     1       1.858  -2.972  -3.416  1.00  0.00     0.002 A 
BRANCH  27  32
ATOM     32  C   UNL     1       0.213   0.373  -1.251  1.00  0.00     0.034 C 
ATOM     33  C   UNL     1       0.833   0.329   0.141  1.00  0.00     0.009 C 
ENDBRANCH  27  32
ENDBRANCH  23  26
ENDBRANCH  16  22
ENDBRANCH  12  15
ENDBRANCH   7  12
ENDBRANCH   3   6
ENDBRANCH   1   2
BRANCH   1  34
ATOM     34  C   UNL     1      10.164  -4.594  -9.168  1.00  0.00     0.023 C 
BRANCH  34  35
ATOM     35  C   UNL     1      11.668  -4.790  -9.287  1.00  0.00     0.023 C 
BRANCH  35  36
ATOM     36  C   UNL     1      12.496  -3.866  -8.406  1.00  0.00     0.116 C 
BRANCH  36  37
ATOM     37  N   UNL     1      12.200  -3.971  -6.982  1.00  0.00    -0.352 N 
ATOM     38  C   UNL     1      13.097  -3.893  -5.938  1.00  0.00     0.251 C 
ATOM     39  H   UNL     1      11.257  -4.114  -6.739  1.00  0.00     0.163 HD
ATOM     40  O   UNL     1      12.745  -4.084  -4.780  1.00  0.00    -0.269 OA
BRANCH  38  41
ATOM     41  C   UNL     1      14.510  -3.623  -6.268  1.00  0.00     0.039 A 
ATOM     42  C   UNL     1      15.484  -4.546  -5.885  1.00  0.00     0.014 A 
ATOM     43  C   UNL     1      14.829  -2.544  -7.096  1.00  0.00     0.014 A 
ATOM     44  C   UNL     1      16.771  -4.433  -6.412  1.00  0.00     0.010 A 
ATOM     45  C   UNL     1      16.079  -2.496  -7.696  1.00  0.00     0.010 A 
ATOM     46  C   UNL     1      17.064  -3.439  -7.361  1.00  0.00    -0.014 A 
BRANCH  46  47
ATOM     47  C   UNL     1      18.393  -3.363  -8.018  1.00  0.00     0.031 A 
ATOM     48  C   UNL     1      19.232  -2.125  -7.858  1.00  0.00     0.074 A 
ATOM     49  C   UNL     1      18.806  -4.364  -8.821  1.00  0.00     0.049 A 
ATOM     50  N   UNL     1      20.377  -1.825  -8.413  1.00  0.00    -0.248 NA
ATOM     51  C   UNL     1      18.690  -1.066  -6.991  1.00  0.00     0.031 C 
ATOM     52  C   UNL     1      18.048  -5.581  -9.120  1.00  0.00     0.029 A 
ATOM     53  N   UNL     1      19.962  -4.510  -9.548  1.00  0.00    -0.354 N 
ATOM     54  C   UNL     1      20.682  -0.542  -7.976  1.00  0.00     0.074 A 
ATOM     55  C   UNL     1      19.567  -0.092  -7.173  1.00  0.00     0.031 C 
ATOM     56  C   UNL     1      18.766  -6.356  -9.949  1.00  0.00     0.029 A 
ATOM     57  C   UNL     1      20.019  -5.679 -10.269  1.00  0.00     0.049 A 
ATOM     58  H   UNL     1      20.682  -3.839  -9.553  1.00  0.00     0.167 HD
ATOM     59  C   UNL     1      21.804   0.184  -8.193  1.00  0.00     0.037 A 
ATOM     60  C   UNL     1      20.972  -6.151 -11.097  1.00  0.00     0.037 A 
ATOM     61  C   UNL     1      22.921  -0.281  -8.970  1.00  0.00     0.049 A 
ATOM     62  C   UNL     1      22.224  -5.344 -11.303  1.00  0.00     0.074 A 
ATOM     63  C   UNL     1      24.130   0.347  -9.203  1.00  0.00     0.029 A 
ATOM     64  N   UNL     1      22.964  -1.496  -9.641  1.00  0.00    -0.354 N 
ATOM     65  N   UNL     1      22.531  -4.163 -10.820  1.00  0.00    -0.248 NA
ATOM     66  C   UNL     1      23.265  -5.935 -12.155  1.00  0.00     0.031 C 
ATOM     67  C   UNL     1      24.891  -0.470 -10.047  1.00  0.00     0.029 A 
ATOM     68  C   UNL     1      24.174  -1.629 -10.301  1.00  0.00     0.049 A 
ATOM     69  H   UNL     1      22.241  -2.163  -9.648  1.00  0.00     0.167 HD
ATOM     70  C   UNL     1      23.807  -3.877 -11.293  1.00  0.00     0.074 A 
ATOM     71  C   UNL     1      24.221  -5.017 -12.087  1.00  0.00     0.031 C 
ATOM     72  C   UNL     1      24.568  -2.773 -11.087  1.00  0.00     0.037 A 
BRANCH  59  73
ATOM     73  C   UNL     1      21.868   1.550  -7.566  1.00  0.00     0.058 A 
ATOM     74  C   UNL     1      21.951   1.717  -6.173  1.00  0.00     0.135 A 
ATOM     75  C   UNL     1      21.832   2.707  -8.361  1.00  0.00     0.135 A 
ATOM     76  F   UNL     1      21.972   0.645  -5.364  1.00  0.00    -0.206 F 
ATOM     77  C   UNL     1      21.943   2.978  -5.588  1.00  0.00     0.059 A 
ATOM     78  C   UNL     1      21.857   3.980  -7.798  1.00  0.00     0.059 A 
ATOM     79  F   UNL     1      21.756   2.608  -9.697  1.00  0.00    -0.206 F 
ATOM     80  C   UNL     1      21.889   4.104  -6.410  1.00  0.00     0.060 A 
BRANCH  80  81
ATOM     81  S   UNL     1      21.854   5.734  -5.635  1.00  0.00     0.124 S 
ATOM     82  O   UNL     1      20.483   5.789  -5.137  1.00  0.00    -0.237 OA
ATOM     83  O   UNL     1      22.893   5.620  -4.617  1.00  0.00    -0.237 OA
ATOM     84  O   UNL     1      22.159   6.641  -6.738  1.00  0.00    -0.744 OA
ENDBRANCH  80  81
ENDBRANCH  59  73
BRANCH  60  85
ATOM     85  C   UNL     1      20.781  -7.466 -11.767  1.00  0.00     0.058 A 
ATOM     86  C   UNL     1      21.514  -8.594 -11.369  1.00  0.00     0.135 A 
ATOM     87  C   UNL     1      19.833  -7.630 -12.789  1.00  0.00     0.135 A 
ATOM     88  F   UNL     1      22.436  -8.488 -10.401  1.00  0.00    -0.206 F 
ATOM     89  C   UNL     1      21.319  -9.837 -11.964  1.00  0.00     0.059 A 
ATOM     90  C   UNL     1      19.604  -8.867 -13.383  1.00  0.00     0.059 A 
ATOM     91  F   UNL     1      19.094  -6.585 -13.194  1.00  0.00    -0.206 F 
ATOM     92  C   UNL     1      20.355  -9.965 -12.966  1.00  0.00     0.060 A 
BRANCH  92  93
ATOM     93  S   UNL     1      20.057 -11.598 -13.678  1.00  0.00     0.124 S 
ATOM     94  O   UNL     1      21.241 -11.779 -14.509  1.00  0.00    -0.237 OA
ATOM     95  O   UNL     1      19.975 -12.441 -12.489  1.00  0.00    -0.237 OA
ATOM     96  O   UNL     1      18.799 -11.424 -14.399  1.00  0.00    -0.744 OA
ENDBRANCH  92  93
ENDBRANCH  60  85
BRANCH  72  97
ATOM     97  C   UNL     1      25.936  -2.749 -11.710  1.00  0.00     0.058 A 
ATOM     98  C   UNL     1      26.113  -2.566 -13.090  1.00  0.00     0.135 A 
ATOM     99  C   UNL     1      27.083  -2.849 -10.907  1.00  0.00     0.135 A 
ATOM    100  F   UNL     1      25.049  -2.471 -13.902  1.00  0.00    -0.206 F 
ATOM    101  C   UNL     1      27.383  -2.503 -13.656  1.00  0.00     0.059 A 
ATOM    102  C   UNL     1      28.362  -2.761 -11.448  1.00  0.00     0.059 A 
ATOM    103  F   UNL     1      26.968  -3.014  -9.580  1.00  0.00    -0.206 F 
ATOM    104  C   UNL     1      28.501  -2.599 -12.825  1.00  0.00     0.060 A 
BRANCH 104 105
ATOM    105  S   UNL     1      30.143  -2.477 -13.567  1.00  0.00     0.124 S 
ATOM    106  O   UNL     1      30.270  -3.778 -14.215  1.00  0.00    -0.237 OA
ATOM    107  O   UNL     1      29.997  -1.333 -14.463  1.00  0.00    -0.237 OA
ATOM    108  O   UNL     1      31.018  -2.258 -12.419  1.00  0.00    -0.744 OA
ENDBRANCH 104 105
ENDBRANCH  72  97
ENDBRANCH  46  47
ENDBRANCH  38  41
ENDBRANCH  36  37
ENDBRANCH  35  36
ENDBRANCH  34  35
ENDBRANCH   1  34
TORSDOF 19
