REMARK SMILES CCC(=O)N1CCC[C@](C[C@H]2CC(c3ccc(C)cc3)=NO2)(C(=O)NCCCCNC(=O)c2ccc(-c3c4nc(c(-c5c(F)cc(S(=O)(=O)[O-])cc5F)c5ccc([nH]5)c(-c5c(F)cc(S(=O)(=O)[O-])cc5F)c5nc(c(-c6c(F)cc(S(=O)(=O)[O-])cc6F)c6ccc3[nH]6)C=C5)C=C4)cc2)C1
REMARK SMILES IDX 27 1 26 2 25 3 23 4 24 5 9 7 5 8 6 9 99 10 7 11 8 12 3 13
REMARK SMILES IDX 4 14 2 15 1 16 10 17 11 18 12 19 22 20 13 21 21 22 14 23
REMARK SMILES IDX 15 24 20 25 16 26 19 27 17 28 18 29 28 30 29 31 30 32 31 33
REMARK SMILES IDX 32 35 33 36 34 37 98 38 35 39 97 40 36 41 37 42 38 43 91 44
REMARK SMILES IDX 39 45 96 46 90 47 92 48 40 49 95 50 89 51 88 52 41 54 75 55
REMARK SMILES IDX 54 56 74 57 55 58 58 59 73 60 93 61 56 62 57 63 72 65 94 66
REMARK SMILES IDX 59 67 42 68 43 69 52 70 44 71 45 72 51 73 53 74 46 75 47 76
REMARK SMILES IDX 48 77 49 78 50 79 76 80 77 81 86 82 78 83 79 84 85 85 87 86
REMARK SMILES IDX 80 87 81 88 82 89 83 90 84 91 60 92 61 93 70 94 62 95 63 96
REMARK SMILES IDX 69 97 71 98 64 99 65 100 66 101 67 102 68 103
REMARK H PARENT 25 6 30 34 92 53 58 64
REMARK Flexibility Score: inf
ROOT
ATOM      1  C   UNL     1       0.196  -2.702  -2.187  1.00  0.00     0.023 C 
ENDROOT
BRANCH   1   2
ATOM      2  C   UNL     1       0.793  -2.711  -0.772  1.00  0.00     0.116 C 
BRANCH   2   3
ATOM      3  N   UNL     1       1.860  -3.671  -0.575  1.00  0.00    -0.356 N 
ATOM      4  C   UNL     1       3.207  -3.598  -0.509  1.00  0.00     0.228 C 
ATOM      5  O   UNL     1       3.729  -4.634  -0.061  1.00  0.00    -0.274 OA
ATOM      6  H   UNL     1       1.526  -4.591  -0.462  1.00  0.00     0.163 HD
BRANCH   4   7
ATOM      7  C   UNL     1       4.146  -2.464  -1.051  1.00  0.00     0.070 C 
ATOM      8  N   UNL     1       2.749  -0.974  -2.612  1.00  0.00    -0.342 N 
ATOM      9  C   UNL     1       3.186  -1.774  -3.764  1.00  0.00     0.119 C 
ATOM     10  C   UNL     1       3.524  -1.087  -1.371  1.00  0.00     0.136 C 
ATOM     11  C   UNL     1       3.734  -3.152  -3.437  1.00  0.00     0.023 C 
ATOM     12  C   UNL     1       4.770  -3.049  -2.334  1.00  0.00     0.021 C 
BRANCH   8  13
ATOM     13  C   UNL     1       1.919   0.102  -2.945  1.00  0.00     0.222 C 
ATOM     14  O   UNL     1       1.494   0.189  -4.110  1.00  0.00    -0.275 OA
BRANCH  13  15
ATOM     15  C   UNL     1       1.554   1.254  -2.005  1.00  0.00     0.097 C 
ATOM     16  C   UNL     1       1.350   1.114  -0.513  1.00  0.00     0.014 C 
ENDBRANCH  13  15
ENDBRANCH   8  13
BRANCH   7  17
ATOM     17  C   UNL     1       5.239  -2.331   0.087  1.00  0.00     0.067 C 
BRANCH  17  18
ATOM     18  C   UNL     1       6.471  -1.413   0.003  1.00  0.00     0.211 C 
ATOM     19  C   UNL     1       7.532  -1.754  -1.020  1.00  0.00     0.108 C 
ATOM     20  O   UNL     1       6.120  -0.042  -0.188  1.00  0.00    -0.392 OA
ATOM     21  C   UNL     1       7.545  -0.482  -1.786  1.00  0.00     0.091 C 
ATOM     22  N   UNL     1       6.807   0.466  -1.313  1.00  0.00    -0.090 NA
BRANCH  21  23
ATOM     23  C   UNL     1       8.427  -0.306  -2.948  1.00  0.00    -0.001 A 
ATOM     24  C   UNL     1       8.457  -1.249  -3.976  1.00  0.00     0.010 A 
ATOM     25  C   UNL     1       9.255   0.818  -2.995  1.00  0.00     0.010 A 
ATOM     26  C   UNL     1       9.335  -1.073  -5.050  1.00  0.00     0.004 A 
ATOM     27  C   UNL     1      10.144   0.980  -4.059  1.00  0.00     0.004 A 
ATOM     28  C   UNL     1      10.192   0.036  -5.093  1.00  0.00    -0.051 A 
ATOM     29  C   UNL     1      11.174   0.209  -6.214  1.00  0.00     0.044 C 
ENDBRANCH  21  23
ENDBRANCH  17  18
ENDBRANCH   7  17
ENDBRANCH   4   7
ENDBRANCH   2   3
ENDBRANCH   1   2
BRANCH   1  30
ATOM     30  C   UNL     1      -1.268  -3.126  -2.290  1.00  0.00     0.023 C 
BRANCH  30  31
ATOM     31  C   UNL     1      -2.188  -2.298  -1.405  1.00  0.00     0.116 C 
BRANCH  31  32
ATOM     32  N   UNL     1      -3.077  -1.363  -2.056  1.00  0.00    -0.352 N 
ATOM     33  C   UNL     1      -4.134  -0.659  -1.481  1.00  0.00     0.251 C 
ATOM     34  H   UNL     1      -2.919  -1.206  -3.014  1.00  0.00     0.163 HD
ATOM     35  O   UNL     1      -5.032  -0.231  -2.184  1.00  0.00    -0.269 OA
BRANCH  33  36
ATOM     36  C   UNL     1      -4.094  -0.340  -0.020  1.00  0.00     0.039 A 
ATOM     37  C   UNL     1      -4.467   0.946   0.401  1.00  0.00     0.014 A 
ATOM     38  C   UNL     1      -3.531  -1.212   0.901  1.00  0.00     0.014 A 
ATOM     39  C   UNL     1      -4.117   1.401   1.679  1.00  0.00     0.010 A 
ATOM     40  C   UNL     1      -3.044  -0.724   2.085  1.00  0.00     0.010 A 
ATOM     41  C   UNL     1      -3.336   0.583   2.485  1.00  0.00    -0.014 A 
BRANCH  41  42
ATOM     42  C   UNL     1      -2.740   0.909   3.774  1.00  0.00     0.031 A 
ATOM     43  C   UNL     1      -3.209   0.195   4.987  1.00  0.00     0.074 A 
ATOM     44  C   UNL     1      -1.520   1.485   3.747  1.00  0.00     0.049 A 
ATOM     45  N   UNL     1      -2.784   0.408   6.184  1.00  0.00    -0.248 NA
ATOM     46  C   UNL     1      -4.210  -0.866   4.927  1.00  0.00     0.031 C 
ATOM     47  C   UNL     1      -0.453   1.357   4.734  1.00  0.00     0.029 A 
ATOM     48  N   UNL     1      -1.047   2.444   2.858  1.00  0.00    -0.354 N 
ATOM     49  C   UNL     1      -3.184  -0.653   6.973  1.00  0.00     0.074 A 
ATOM     50  C   UNL     1      -4.119  -1.385   6.153  1.00  0.00     0.031 C 
ATOM     51  C   UNL     1       0.438   2.345   4.546  1.00  0.00     0.029 A 
ATOM     52  C   UNL     1      -0.129   3.247   3.558  1.00  0.00     0.049 A 
ATOM     53  H   UNL     1      -1.307   2.542   1.913  1.00  0.00     0.167 HD
ATOM     54  C   UNL     1      -2.562  -0.858   8.173  1.00  0.00     0.037 A 
ATOM     55  C   UNL     1      -0.438   4.557   3.813  1.00  0.00     0.037 A 
ATOM     56  C   UNL     1      -1.602   0.220   8.436  1.00  0.00     0.049 A 
ATOM     57  C   UNL     1      -0.626   4.867   5.284  1.00  0.00     0.074 A 
ATOM     58  C   UNL     1      -0.225   0.302   8.307  1.00  0.00     0.029 A 
ATOM     59  N   UNL     1      -2.059   1.525   8.597  1.00  0.00    -0.354 N 
ATOM     60  N   UNL     1      -0.814   3.966   6.208  1.00  0.00    -0.248 NA
ATOM     61  C   UNL     1      -0.611   6.221   5.830  1.00  0.00     0.031 C 
ATOM     62  C   UNL     1       0.136   1.673   8.310  1.00  0.00     0.029 A 
ATOM     63  C   UNL     1      -1.018   2.424   8.462  1.00  0.00     0.049 A 
ATOM     64  H   UNL     1      -2.994   1.773   8.780  1.00  0.00     0.167 HD
ATOM     65  C   UNL     1      -0.982   4.572   7.425  1.00  0.00     0.074 A 
ATOM     66  C   UNL     1      -0.815   5.985   7.139  1.00  0.00     0.031 C 
ATOM     67  C   UNL     1      -1.253   3.859   8.560  1.00  0.00     0.037 A 
BRANCH  54  68
ATOM     68  C   UNL     1      -2.596  -2.151   8.982  1.00  0.00     0.058 A 
ATOM     69  C   UNL     1      -1.563  -2.452   9.902  1.00  0.00     0.135 A 
ATOM     70  C   UNL     1      -3.577  -3.159   8.878  1.00  0.00     0.135 A 
ATOM     71  F   UNL     1      -0.609  -1.562  10.204  1.00  0.00    -0.206 F 
ATOM     72  C   UNL     1      -1.452  -3.680  10.562  1.00  0.00     0.059 A 
ATOM     73  C   UNL     1      -3.465  -4.414   9.490  1.00  0.00     0.059 A 
ATOM     74  F   UNL     1      -4.730  -2.956   8.233  1.00  0.00    -0.206 F 
ATOM     75  C   UNL     1      -2.390  -4.672  10.324  1.00  0.00     0.060 A 
BRANCH  75  76
ATOM     76  S   UNL     1      -2.204  -6.269  11.136  1.00  0.00     0.124 S 
ATOM     77  O   UNL     1      -0.886  -6.696  10.674  1.00  0.00    -0.237 OA
ATOM     78  O   UNL     1      -2.297  -5.908  12.547  1.00  0.00    -0.237 OA
ATOM     79  O   UNL     1      -3.324  -7.049  10.617  1.00  0.00    -0.744 OA
ENDBRANCH  75  76
ENDBRANCH  54  68
BRANCH  55  80
ATOM     80  C   UNL     1      -1.190   5.184   2.685  1.00  0.00     0.058 A 
ATOM     81  C   UNL     1      -0.491   5.344   1.471  1.00  0.00     0.135 A 
ATOM     82  C   UNL     1      -2.590   5.104   2.624  1.00  0.00     0.135 A 
ATOM     83  F   UNL     1       0.848   5.447   1.478  1.00  0.00    -0.206 F 
ATOM     84  C   UNL     1      -1.129   5.213   0.243  1.00  0.00     0.059 A 
ATOM     85  C   UNL     1      -3.252   4.986   1.400  1.00  0.00     0.059 A 
ATOM     86  F   UNL     1      -3.309   4.960   3.748  1.00  0.00    -0.206 F 
ATOM     87  C   UNL     1      -2.497   4.954   0.226  1.00  0.00     0.060 A 
BRANCH  87  88
ATOM     88  S   UNL     1      -3.213   4.342  -1.319  1.00  0.00     0.124 S 
ATOM     89  O   UNL     1      -2.885   5.415  -2.252  1.00  0.00    -0.237 OA
ATOM     90  O   UNL     1      -2.474   3.095  -1.498  1.00  0.00    -0.237 OA
ATOM     91  O   UNL     1      -4.629   4.196  -0.998  1.00  0.00    -0.744 OA
ENDBRANCH  87  88
ENDBRANCH  55  80
BRANCH  67  92
ATOM     92  C   UNL     1      -1.674   4.436   9.894  1.00  0.00     0.058 A 
ATOM     93  C   UNL     1      -2.364   5.651  10.047  1.00  0.00     0.135 A 
ATOM     94  C   UNL     1      -1.506   3.682  11.084  1.00  0.00     0.135 A 
ATOM     95  F   UNL     1      -2.699   6.402   8.989  1.00  0.00    -0.206 F 
ATOM     96  C   UNL     1      -2.783   6.124  11.293  1.00  0.00     0.059 A 
ATOM     97  C   UNL     1      -1.970   4.106  12.326  1.00  0.00     0.059 A 
ATOM     98  F   UNL     1      -0.892   2.489  11.078  1.00  0.00    -0.206 F 
ATOM     99  C   UNL     1      -2.580   5.346  12.428  1.00  0.00     0.060 A 
BRANCH  99 100
ATOM    100  S   UNL     1      -3.162   5.925  14.031  1.00  0.00     0.124 S 
ATOM    101  O   UNL     1      -1.986   6.631  14.529  1.00  0.00    -0.237 OA
ATOM    102  O   UNL     1      -4.301   6.769  13.680  1.00  0.00    -0.237 OA
ATOM    103  O   UNL     1      -3.501   4.688  14.728  1.00  0.00    -0.744 OA
ENDBRANCH  99 100
ENDBRANCH  67  92
ENDBRANCH  41  42
ENDBRANCH  33  36
ENDBRANCH  31  32
ENDBRANCH  30  31
ENDBRANCH   1  30
TORSDOF 19
