REMARK SMILES O=C(NCCCCNC(=O)c1ccccc1NC(=O)c1cc2cc(Cl)cc(Cl)c2oc1=O)c1ccc(-c2c3nc(c(-c4c(F)cc(S(=O)(=O)[O-])cc4F)c4ccc([nH]4)c(-c4c(F)cc(S(=O)(=O)[O-])cc4F)c4nc(c(-c5c(F)cc(S(=O)(=O)[O-])cc5F)c5ccc2[nH]5)C=C4)C=C3)cc1
REMARK SMILES IDX 5 1 4 2 3 3 1 4 2 5 33 7 34 8 98 9 35 10 97 11 36 12 37 13
REMARK SMILES IDX 38 14 91 15 39 16 96 17 90 18 92 19 40 20 95 21 89 22 88 23
REMARK SMILES IDX 41 25 75 26 54 27 74 28 55 29 58 30 73 31 93 32 56 33 57 34
REMARK SMILES IDX 72 36 94 37 59 38 42 39 43 40 52 41 44 42 45 43 51 44 53 45
REMARK SMILES IDX 46 46 47 47 48 48 49 49 50 50 76 51 77 52 86 53 78 54 79 55
REMARK SMILES IDX 85 56 87 57 80 58 81 59 82 60 83 61 84 62 60 63 61 64 70 65
REMARK SMILES IDX 62 66 63 67 69 68 71 69 64 70 65 71 66 72 67 73 68 74 6 75
REMARK SMILES IDX 7 76 8 77 9 78 10 80 11 81 12 82 16 83 13 84 15 85 14 86
REMARK SMILES IDX 17 87 18 88 19 90 20 91 21 92 31 93 22 94 30 95 32 96 23 97
REMARK SMILES IDX 29 98 24 99 27 100 25 101 26 102 28 103
REMARK H PARENT 3 6 92 24 58 35 8 79 17 89
REMARK Flexibility Score: inf
ROOT
ATOM      1  C   UNL     1       5.014   2.842  -0.009  1.00  0.00     0.023 C 
ENDROOT
BRANCH   1   2
ATOM      2  C   UNL     1       4.674   1.409   0.398  1.00  0.00     0.116 C 
BRANCH   2   3
ATOM      3  N   UNL     1       3.247   1.150   0.413  1.00  0.00    -0.352 N 
ATOM      4  O   UNL     1       1.290   0.247  -0.214  1.00  0.00    -0.269 OA
ATOM      5  C   UNL     1       2.517   0.199  -0.259  1.00  0.00     0.251 C 
ATOM      6  H   UNL     1       2.721   1.746   0.993  1.00  0.00     0.163 HD
BRANCH   5   7
ATOM      7  C   UNL     1       3.183  -0.861  -1.054  1.00  0.00     0.039 A 
ATOM      8  C   UNL     1       4.271  -1.584  -0.556  1.00  0.00     0.014 A 
ATOM      9  C   UNL     1       2.656  -1.180  -2.311  1.00  0.00     0.014 A 
ATOM     10  C   UNL     1       4.887  -2.557  -1.348  1.00  0.00     0.010 A 
ATOM     11  C   UNL     1       3.245  -2.184  -3.086  1.00  0.00     0.010 A 
ATOM     12  C   UNL     1       4.378  -2.867  -2.620  1.00  0.00    -0.014 A 
BRANCH  12  13
ATOM     13  C   UNL     1       4.995  -3.950  -3.427  1.00  0.00     0.031 A 
ATOM     14  C   UNL     1       5.780  -3.639  -4.671  1.00  0.00     0.074 A 
ATOM     15  C   UNL     1       4.825  -5.230  -3.044  1.00  0.00     0.049 A 
ATOM     16  N   UNL     1       6.380  -4.464  -5.492  1.00  0.00    -0.248 NA
ATOM     17  C   UNL     1       5.902  -2.223  -5.049  1.00  0.00     0.031 C 
ATOM     18  C   UNL     1       4.053  -5.667  -1.878  1.00  0.00     0.029 A 
ATOM     19  N   UNL     1       5.284  -6.399  -3.596  1.00  0.00    -0.354 N 
ATOM     20  C   UNL     1       6.936  -3.674  -6.490  1.00  0.00     0.074 A 
ATOM     21  C   UNL     1       6.593  -2.302  -6.180  1.00  0.00     0.031 C 
ATOM     22  C   UNL     1       4.101  -7.006  -1.797  1.00  0.00     0.029 A 
ATOM     23  C   UNL     1       4.883  -7.523  -2.916  1.00  0.00     0.049 A 
ATOM     24  H   UNL     1       5.848  -6.429  -4.403  1.00  0.00     0.167 HD
ATOM     25  C   UNL     1       7.673  -4.058  -7.559  1.00  0.00     0.037 A 
ATOM     26  C   UNL     1       5.106  -8.826  -3.170  1.00  0.00     0.037 A 
ATOM     27  C   UNL     1       8.050  -5.417  -7.848  1.00  0.00     0.049 A 
ATOM     28  C   UNL     1       5.916  -9.224  -4.367  1.00  0.00     0.074 A 
ATOM     29  C   UNL     1       8.897  -5.884  -8.839  1.00  0.00     0.029 A 
ATOM     30  N   UNL     1       7.594  -6.527  -7.157  1.00  0.00    -0.354 N 
ATOM     31  N   UNL     1       6.497  -8.456  -5.255  1.00  0.00    -0.248 NA
ATOM     32  C   UNL     1       6.090 -10.664  -4.603  1.00  0.00     0.031 C 
ATOM     33  C   UNL     1       8.930  -7.282  -8.765  1.00  0.00     0.029 A 
ATOM     34  C   UNL     1       8.114  -7.681  -7.720  1.00  0.00     0.049 A 
ATOM     35  H   UNL     1       6.990  -6.501  -6.380  1.00  0.00     0.167 HD
ATOM     36  C   UNL     1       7.099  -9.318  -6.163  1.00  0.00     0.074 A 
ATOM     37  C   UNL     1       6.827 -10.666  -5.707  1.00  0.00     0.031 C 
ATOM     38  C   UNL     1       7.811  -9.016  -7.275  1.00  0.00     0.037 A 
BRANCH  25  39
ATOM     39  C   UNL     1       8.133  -2.990  -8.505  1.00  0.00     0.058 A 
ATOM     40  C   UNL     1       9.278  -2.225  -8.240  1.00  0.00     0.135 A 
ATOM     41  C   UNL     1       7.461  -2.775  -9.718  1.00  0.00     0.135 A 
ATOM     42  F   UNL     1       9.948  -2.389  -7.088  1.00  0.00    -0.206 F 
ATOM     43  C   UNL     1       9.740  -1.275  -9.144  1.00  0.00     0.059 A 
ATOM     44  C   UNL     1       7.910  -1.835 -10.641  1.00  0.00     0.059 A 
ATOM     45  F   UNL     1       6.357  -3.479 -10.013  1.00  0.00    -0.206 F 
ATOM     46  C   UNL     1       9.046  -1.084 -10.341  1.00  0.00     0.060 A 
BRANCH  46  47
ATOM     47  S   UNL     1       9.662   0.139 -11.519  1.00  0.00     0.124 S 
ATOM     48  O   UNL     1       9.150   1.379 -10.942  1.00  0.00    -0.237 OA
ATOM     49  O   UNL     1      11.108  -0.044 -11.442  1.00  0.00    -0.237 OA
ATOM     50  O   UNL     1       9.049  -0.269 -12.779  1.00  0.00    -0.744 OA
ENDBRANCH  46  47
ENDBRANCH  25  39
BRANCH  26  51
ATOM     51  C   UNL     1       4.526  -9.852  -2.271  1.00  0.00     0.058 A 
ATOM     52  C   UNL     1       5.311 -10.479  -1.295  1.00  0.00     0.135 A 
ATOM     53  C   UNL     1       3.168 -10.192  -2.349  1.00  0.00     0.135 A 
ATOM     54  F   UNL     1       6.616 -10.184  -1.192  1.00  0.00    -0.206 F 
ATOM     55  C   UNL     1       4.768 -11.412  -0.418  1.00  0.00     0.059 A 
ATOM     56  C   UNL     1       2.600 -11.112  -1.476  1.00  0.00     0.059 A 
ATOM     57  F   UNL     1       2.380  -9.606  -3.263  1.00  0.00    -0.206 F 
ATOM     58  C   UNL     1       3.410 -11.721  -0.516  1.00  0.00     0.060 A 
BRANCH  58  59
ATOM     59  S   UNL     1       2.673 -12.871   0.666  1.00  0.00     0.124 S 
ATOM     60  O   UNL     1       2.855 -14.147  -0.015  1.00  0.00    -0.237 OA
ATOM     61  O   UNL     1       3.485 -12.666   1.862  1.00  0.00    -0.237 OA
ATOM     62  O   UNL     1       1.297 -12.394   0.767  1.00  0.00    -0.744 OA
ENDBRANCH  58  59
ENDBRANCH  26  51
BRANCH  38  63
ATOM     63  C   UNL     1       8.317 -10.166  -8.091  1.00  0.00     0.058 A 
ATOM     64  C   UNL     1       7.481 -10.819  -9.009  1.00  0.00     0.135 A 
ATOM     65  C   UNL     1       9.644 -10.604  -7.976  1.00  0.00     0.135 A 
ATOM     66  F   UNL     1       6.201 -10.438  -9.146  1.00  0.00    -0.206 F 
ATOM     67  C   UNL     1       7.941 -11.880  -9.780  1.00  0.00     0.059 A 
ATOM     68  C   UNL     1      10.129 -11.658  -8.744  1.00  0.00     0.059 A 
ATOM     69  F   UNL     1      10.481 -10.008  -7.112  1.00  0.00    -0.206 F 
ATOM     70  C   UNL     1       9.266 -12.297  -9.636  1.00  0.00     0.060 A 
BRANCH  70  71
ATOM     71  S   UNL     1       9.874 -13.660 -10.653  1.00  0.00     0.124 S 
ATOM     72  O   UNL     1       9.468 -14.818  -9.863  1.00  0.00    -0.237 OA
ATOM     73  O   UNL     1       9.158 -13.470 -11.911  1.00  0.00    -0.237 OA
ATOM     74  O   UNL     1      11.312 -13.412 -10.716  1.00  0.00    -0.744 OA
ENDBRANCH  70  71
ENDBRANCH  38  63
ENDBRANCH  12  13
ENDBRANCH   5   7
ENDBRANCH   2   3
ENDBRANCH   1   2
BRANCH   1  75
ATOM     75  C   UNL     1       4.501   3.957   0.909  1.00  0.00     0.023 C 
BRANCH  75  76
ATOM     76  C   UNL     1       4.740   3.768   2.406  1.00  0.00     0.116 C 
BRANCH  76  77
ATOM     77  N   UNL     1       6.124   3.463   2.736  1.00  0.00    -0.352 N 
ATOM     78  C   UNL     1       6.911   3.905   3.768  1.00  0.00     0.253 C 
ATOM     79  H   UNL     1       6.567   2.838   2.119  1.00  0.00     0.163 HD
ATOM     80  O   UNL     1       8.094   3.578   3.812  1.00  0.00    -0.269 OA
BRANCH  78  81
ATOM     81  C   UNL     1       6.368   4.786   4.826  1.00  0.00     0.063 A 
ATOM     82  C   UNL     1       7.056   5.996   5.008  1.00  0.00     0.016 A 
ATOM     83  C   UNL     1       5.287   4.427   5.663  1.00  0.00     0.054 A 
ATOM     84  C   UNL     1       6.651   6.888   5.994  1.00  0.00     0.001 A 
ATOM     85  C   UNL     1       4.885   5.350   6.634  1.00  0.00     0.027 A 
ATOM     86  C   UNL     1       5.562   6.568   6.798  1.00  0.00     0.002 A 
BRANCH  83  87
ATOM     87  N   UNL     1       4.674   3.170   5.469  1.00  0.00    -0.321 N 
ATOM     88  C   UNL     1       3.627   2.503   6.028  1.00  0.00     0.263 C 
ATOM     89  H   UNL     1       5.109   2.649   4.756  1.00  0.00     0.170 HD
ATOM     90  O   UNL     1       3.246   1.468   5.481  1.00  0.00    -0.269 OA
BRANCH  88  91
ATOM     91  C   UNL     1       2.986   2.996   7.275  1.00  0.00     0.126 A 
ATOM     92  C   UNL     1       1.635   3.009   7.324  1.00  0.00     0.033 A 
ATOM     93  C   UNL     1       3.545   2.369   8.502  1.00  0.00     0.349 A 
ATOM     94  C   UNL     1       1.059   1.653   7.457  1.00  0.00     0.021 A 
ATOM     95  O   UNL     1       2.993   1.128   8.826  1.00  0.00    -0.421 OA
ATOM     96  O   UNL     1       4.424   2.908   9.163  1.00  0.00    -0.245 OA
ATOM     97  C   UNL     1      -0.150   1.288   6.872  1.00  0.00     0.032 A 
ATOM     98  C   UNL     1       1.798   0.710   8.187  1.00  0.00     0.157 A 
ATOM     99  C   UNL     1      -0.591  -0.032   7.000  1.00  0.00     0.043 A 
ATOM    100  C   UNL     1       1.360  -0.606   8.306  1.00  0.00     0.085 A 
ATOM    101  Cl  UNL     1      -2.089  -0.492   6.287  1.00  0.00    -0.084 Cl
ATOM    102  C   UNL     1       0.159  -0.981   7.702  1.00  0.00     0.045 A 
ATOM    103  Cl  UNL     1       2.266  -1.779   9.180  1.00  0.00    -0.080 Cl
ENDBRANCH  88  91
ENDBRANCH  83  87
ENDBRANCH  78  81
ENDBRANCH  76  77
ENDBRANCH  75  76
ENDBRANCH   1  75
TORSDOF 16
