REMARK SMILES C[C@@H]1Cc2ccccc2N1S(=O)(=O)c1cccc(C(=O)NCCCCNC(=O)c2ccc(-c3c4nc(c(-c5c(F)cc(S(=O)(=O)[O-])cc5F)c5ccc([nH]5)c(-c5c(F)cc(S(=O)(=O)[O-])cc5F)c5nc(c(-c6c(F)cc(S(=O)(=O)[O-])cc6F)c6ccc3[nH]6)C=C5)C=C4)cc2)c1
REMARK SMILES IDX 24 1 23 2 22 3 21 4 19 5 20 6 18 8 14 9 15 10 95 11 16 12
REMARK SMILES IDX 17 13 11 14 12 15 13 16 10 17 1 18 2 19 3 20 4 21 9 22 5 23
REMARK SMILES IDX 8 24 6 25 7 26 25 27 26 28 27 29 28 31 29 32 30 33 94 34
REMARK SMILES IDX 31 35 93 36 32 37 33 38 34 39 87 40 35 41 92 42 86 43 88 44
REMARK SMILES IDX 36 45 91 46 85 47 84 48 37 50 71 51 50 52 70 53 51 54 54 55
REMARK SMILES IDX 69 56 89 57 52 58 53 59 68 61 90 62 55 63 38 64 39 65 48 66
REMARK SMILES IDX 40 67 41 68 47 69 49 70 42 71 43 72 44 73 45 74 46 75 72 76
REMARK SMILES IDX 73 77 82 78 74 79 75 80 81 81 83 82 76 83 77 84 78 85 79 86
REMARK SMILES IDX 80 87 56 88 57 89 66 90 58 91 59 92 65 93 67 94 60 95 61 96
REMARK SMILES IDX 62 97 63 98 64 99
REMARK H PARENT 21 7 26 30 88 49 54 60
REMARK Flexibility Score: inf
ROOT
ATOM      1  C   UNL     1      -6.484   4.795   1.028  1.00  0.00     0.023 C 
ENDROOT
BRANCH   1   2
ATOM      2  C   UNL     1      -5.044   4.345   0.833  1.00  0.00     0.023 C 
BRANCH   2   3
ATOM      3  C   UNL     1      -4.566   4.144  -0.599  1.00  0.00     0.116 C 
BRANCH   3   4
ATOM      4  N   UNL     1      -4.719   5.284  -1.486  1.00  0.00    -0.352 N 
ATOM      5  C   UNL     1      -3.991   5.685  -2.586  1.00  0.00     0.251 C 
ATOM      6  O   UNL     1      -4.392   6.660  -3.222  1.00  0.00    -0.269 OA
ATOM      7  H   UNL     1      -5.475   5.873  -1.263  1.00  0.00     0.163 HD
BRANCH   5   8
ATOM      8  C   UNL     1      -2.694   5.057  -2.980  1.00  0.00     0.041 A 
ATOM      9  C   UNL     1      -0.980   3.386  -2.738  1.00  0.00     0.088 A 
ATOM     10  C   UNL     1      -0.054   4.185  -3.414  1.00  0.00     0.022 A 
ATOM     11  C   UNL     1      -2.323   3.756  -2.644  1.00  0.00     0.036 A 
ATOM     12  C   UNL     1      -0.455   5.428  -3.890  1.00  0.00     0.002 A 
ATOM     13  C   UNL     1      -1.756   5.877  -3.638  1.00  0.00     0.014 A 
BRANCH   9  14
ATOM     14  S   UNL     1      -0.407   1.973  -1.831  1.00  0.00     0.264 S 
ATOM     15  O   UNL     1       0.909   1.637  -2.331  1.00  0.00    -0.201 OA
ATOM     16  O   UNL     1      -1.472   0.985  -1.857  1.00  0.00    -0.201 OA
BRANCH  14  17
ATOM     17  N   UNL     1      -0.248   2.495  -0.184  1.00  0.00    -0.263 N 
ATOM     18  C   UNL     1      -0.616   0.744   1.561  1.00  0.00     0.032 C 
ATOM     19  C   UNL     1       0.422   1.409   0.661  1.00  0.00     0.101 C 
ATOM     20  C   UNL     1       1.580   2.086   1.434  1.00  0.00     0.063 C 
ATOM     21  C   UNL     1       1.538   3.496   0.955  1.00  0.00    -0.021 A 
ATOM     22  C   UNL     1       0.474   3.709   0.090  1.00  0.00     0.055 A 
ATOM     23  C   UNL     1       2.374   4.537   1.344  1.00  0.00     0.006 A 
ATOM     24  C   UNL     1       0.137   5.001  -0.276  1.00  0.00     0.027 A 
ATOM     25  C   UNL     1       2.097   5.826   0.886  1.00  0.00     0.000 A 
ATOM     26  C   UNL     1       0.968   6.061   0.097  1.00  0.00     0.002 A 
ENDBRANCH  14  17
ENDBRANCH   9  14
ENDBRANCH   5   8
ENDBRANCH   3   4
ENDBRANCH   2   3
ENDBRANCH   1   2
BRANCH   1  27
ATOM     27  C   UNL     1      -7.538   4.037   0.235  1.00  0.00     0.116 C 
BRANCH  27  28
ATOM     28  N   UNL     1      -7.614   2.615   0.546  1.00  0.00    -0.352 N 
ATOM     29  C   UNL     1      -8.645   1.875   1.085  1.00  0.00     0.251 C 
ATOM     30  H   UNL     1      -6.800   2.102   0.339  1.00  0.00     0.163 HD
ATOM     31  O   UNL     1      -8.478   0.684   1.333  1.00  0.00    -0.269 OA
BRANCH  29  32
ATOM     32  C   UNL     1      -9.931   2.527   1.418  1.00  0.00     0.039 A 
ATOM     33  C   UNL     1     -10.535   3.407   0.523  1.00  0.00     0.014 A 
ATOM     34  C   UNL     1     -10.508   2.301   2.671  1.00  0.00     0.014 A 
ATOM     35  C   UNL     1     -11.559   4.235   0.966  1.00  0.00     0.010 A 
ATOM     36  C   UNL     1     -11.615   3.057   3.074  1.00  0.00     0.010 A 
ATOM     37  C   UNL     1     -12.105   4.083   2.252  1.00  0.00    -0.014 A 
BRANCH  37  38
ATOM     38  C   UNL     1     -13.161   5.027   2.710  1.00  0.00     0.031 A 
ATOM     39  C   UNL     1     -12.924   5.942   3.888  1.00  0.00     0.074 A 
ATOM     40  C   UNL     1     -14.305   5.125   2.004  1.00  0.00     0.049 A 
ATOM     41  N   UNL     1     -13.719   6.849   4.398  1.00  0.00    -0.248 NA
ATOM     42  C   UNL     1     -11.633   5.825   4.587  1.00  0.00     0.031 C 
ATOM     43  C   UNL     1     -14.645   4.308   0.835  1.00  0.00     0.029 A 
ATOM     44  N   UNL     1     -15.376   5.973   2.135  1.00  0.00    -0.354 N 
ATOM     45  C   UNL     1     -13.036   7.397   5.479  1.00  0.00     0.074 A 
ATOM     46  C   UNL     1     -11.773   6.700   5.575  1.00  0.00     0.031 C 
ATOM     47  C   UNL     1     -15.800   4.744   0.314  1.00  0.00     0.029 A 
ATOM     48  C   UNL     1     -16.323   5.818   1.150  1.00  0.00     0.049 A 
ATOM     49  H   UNL     1     -15.457   6.630   2.863  1.00  0.00     0.167 HD
ATOM     50  C   UNL     1     -13.421   8.399   6.307  1.00  0.00     0.037 A 
ATOM     51  C   UNL     1     -17.490   6.458   0.945  1.00  0.00     0.037 A 
ATOM     52  C   UNL     1     -14.667   9.112   6.190  1.00  0.00     0.049 A 
ATOM     53  C   UNL     1     -17.910   7.537   1.901  1.00  0.00     0.074 A 
ATOM     54  C   UNL     1     -15.144  10.144   6.980  1.00  0.00     0.029 A 
ATOM     55  N   UNL     1     -15.627   8.879   5.217  1.00  0.00    -0.354 N 
ATOM     56  N   UNL     1     -17.258   8.022   2.931  1.00  0.00    -0.248 NA
ATOM     57  C   UNL     1     -19.229   8.146   1.680  1.00  0.00     0.031 C 
ATOM     58  C   UNL     1     -16.407  10.511   6.506  1.00  0.00     0.029 A 
ATOM     59  C   UNL     1     -16.699   9.738   5.395  1.00  0.00     0.049 A 
ATOM     60  H   UNL     1     -15.558   8.202   4.505  1.00  0.00     0.167 HD
ATOM     61  C   UNL     1     -18.082   9.000   3.473  1.00  0.00     0.074 A 
ATOM     62  C   UNL     1     -19.272   9.051   2.648  1.00  0.00     0.031 C 
ATOM     63  C   UNL     1     -17.874   9.780   4.561  1.00  0.00     0.037 A 
BRANCH  50  64
ATOM     64  C   UNL     1     -12.489   8.797   7.420  1.00  0.00     0.058 A 
ATOM     65  C   UNL     1     -11.323   9.537   7.172  1.00  0.00     0.135 A 
ATOM     66  C   UNL     1     -12.810   8.510   8.757  1.00  0.00     0.135 A 
ATOM     67  F   UNL     1     -10.960   9.825   5.912  1.00  0.00    -0.206 F 
ATOM     68  C   UNL     1     -10.503   9.971   8.210  1.00  0.00     0.059 A 
ATOM     69  C   UNL     1     -12.017   8.953   9.812  1.00  0.00     0.059 A 
ATOM     70  F   UNL     1     -13.915   7.805   9.050  1.00  0.00    -0.206 F 
ATOM     71  C   UNL     1     -10.861   9.679   9.527  1.00  0.00     0.060 A 
BRANCH  71  72
ATOM     72  S   UNL     1      -9.800  10.277  10.861  1.00  0.00     0.124 S 
ATOM     73  O   UNL     1      -8.623   9.430  10.699  1.00  0.00    -0.237 OA
ATOM     74  O   UNL     1      -9.621  11.682  10.508  1.00  0.00    -0.237 OA
ATOM     75  O   UNL     1     -10.589  10.030  12.063  1.00  0.00    -0.744 OA
ENDBRANCH  71  72
ENDBRANCH  50  64
BRANCH  51  76
ATOM     76  C   UNL     1     -18.343   6.087  -0.214  1.00  0.00     0.058 A 
ATOM     77  C   UNL     1     -18.512   6.963  -1.296  1.00  0.00     0.135 A 
ATOM     78  C   UNL     1     -18.981   4.838  -0.276  1.00  0.00     0.135 A 
ATOM     79  F   UNL     1     -17.928   8.170  -1.280  1.00  0.00    -0.206 F 
ATOM     80  C   UNL     1     -19.291   6.618  -2.396  1.00  0.00     0.059 A 
ATOM     81  C   UNL     1     -19.742   4.459  -1.377  1.00  0.00     0.059 A 
ATOM     82  F   UNL     1     -18.837   3.958   0.727  1.00  0.00    -0.206 F 
ATOM     83  C   UNL     1     -19.898   5.361  -2.428  1.00  0.00     0.060 A 
BRANCH  83  84
ATOM     84  S   UNL     1     -20.864   4.902  -3.883  1.00  0.00     0.124 S 
ATOM     85  O   UNL     1     -22.063   5.712  -3.706  1.00  0.00    -0.237 OA
ATOM     86  O   UNL     1     -19.980   5.298  -4.975  1.00  0.00    -0.237 OA
ATOM     87  O   UNL     1     -21.045   3.462  -3.725  1.00  0.00    -0.744 OA
ENDBRANCH  83  84
ENDBRANCH  51  76
BRANCH  63  88
ATOM     88  C   UNL     1     -18.945  10.771   4.918  1.00  0.00     0.058 A 
ATOM     89  C   UNL     1     -20.143  10.366   5.524  1.00  0.00     0.135 A 
ATOM     90  C   UNL     1     -18.739  12.145   4.717  1.00  0.00     0.135 A 
ATOM     91  F   UNL     1     -20.390   9.063   5.730  1.00  0.00    -0.206 F 
ATOM     92  C   UNL     1     -21.108  11.290   5.910  1.00  0.00     0.059 A 
ATOM     93  C   UNL     1     -19.680  13.089   5.116  1.00  0.00     0.059 A 
ATOM     94  F   UNL     1     -17.605  12.583   4.147  1.00  0.00    -0.206 F 
ATOM     95  C   UNL     1     -20.865  12.650   5.707  1.00  0.00     0.060 A 
BRANCH  95  96
ATOM     96  S   UNL     1     -22.104  13.840   6.261  1.00  0.00     0.124 S 
ATOM     97  O   UNL     1     -23.162  13.644   5.275  1.00  0.00    -0.237 OA
ATOM     98  O   UNL     1     -22.401  13.374   7.612  1.00  0.00    -0.237 OA
ATOM     99  O   UNL     1     -21.405  15.120   6.186  1.00  0.00    -0.744 OA
ENDBRANCH  95  96
ENDBRANCH  63  88
ENDBRANCH  37  38
ENDBRANCH  29  32
ENDBRANCH  27  28
ENDBRANCH   1  27
TORSDOF 16
