REMARK SMILES CC1=C(CC(=O)NCCCCNC(=O)c2ccc(-c3c4nc(c(-c5c(F)cc(S(=O)(=O)[O-])cc5F)c5ccc([nH]5)c(-c5c(F)cc(S(=O)(=O)[O-])cc5F)c5nc(c(-c6c(F)cc(S(=O)(=O)[O-])cc6F)c6ccc3[nH]6)C=C5)C=C4)cc2)c2cc(F)ccc2/C1=C\c1ccc([S@@+](C)[O-])cc1
REMARK SMILES IDX 9 1 8 2 7 3 5 4 6 5 4 7 3 8 1 9 2 10 88 11 81 12 87 13 89 14
REMARK SMILES IDX 82 15 86 16 83 17 85 18 84 19 90 20 91 21 98 22 92 23 97 24
REMARK SMILES IDX 93 25 94 26 95 27 96 28 10 29 11 30 12 31 13 32 14 34 15 35
REMARK SMILES IDX 16 36 80 37 17 38 79 39 18 40 19 41 20 42 73 43 21 44 78 45
REMARK SMILES IDX 72 46 74 47 22 48 77 49 71 50 70 51 23 53 57 54 36 55 56 56
REMARK SMILES IDX 37 57 40 58 55 59 75 60 38 61 39 62 54 64 76 65 41 66 24 67
REMARK SMILES IDX 25 68 34 69 26 70 27 71 33 72 35 73 28 74 29 75 30 76 31 77
REMARK SMILES IDX 32 78 58 79 59 80 68 81 60 82 61 83 67 84 69 85 62 86 63 87
REMARK SMILES IDX 64 88 65 89 66 90 42 91 43 92 52 93 44 94 45 95 51 96 53 97
REMARK SMILES IDX 46 98 47 99 48 100 49 101 50 102
REMARK H PARENT 7 6 12 33 74 52 40 63
REMARK Flexibility Score: inf
ROOT
ATOM      1  C   UNL     1      -2.440  -1.919   0.027  1.00  0.00     0.023 C 
ENDROOT
BRANCH   1   2
ATOM      2  C   UNL     1      -1.419  -2.412   1.053  1.00  0.00     0.116 C 
BRANCH   2   3
ATOM      3  N   UNL     1      -0.922  -3.736   0.745  1.00  0.00    -0.356 N 
ATOM      4  C   UNL     1       0.239  -4.093   0.125  1.00  0.00     0.224 C 
ATOM      5  O   UNL     1       0.470  -5.293  -0.045  1.00  0.00    -0.275 OA
ATOM      6  H   UNL     1      -1.503  -4.482   1.020  1.00  0.00     0.163 HD
BRANCH   4   7
ATOM      7  C   UNL     1       1.249  -3.031  -0.307  1.00  0.00     0.136 C 
BRANCH   7   8
ATOM      8  C   UNL     1       0.770  -2.162  -1.425  1.00  0.00    -0.027 C 
ATOM      9  C   UNL     1       0.979   0.178  -0.409  1.00  0.00     0.045 C 
ATOM     10  C   UNL     1       0.635  -0.814  -1.470  1.00  0.00    -0.039 C 
ATOM     11  C   UNL     1       0.059  -0.419  -2.768  1.00  0.00    -0.014 C 
ATOM     12  C   UNL     1       0.380  -2.698  -2.742  1.00  0.00    -0.011 A 
ATOM     13  C   UNL     1      -0.012  -1.644  -3.589  1.00  0.00    -0.010 A 
ATOM     14  C   UNL     1      -0.377   0.822  -3.063  1.00  0.00     0.017 C 
ATOM     15  C   UNL     1       0.386  -4.009  -3.201  1.00  0.00     0.048 A 
ATOM     16  C   UNL     1      -0.344  -1.892  -4.915  1.00  0.00     0.012 A 
ATOM     17  C   UNL     1       0.003  -4.250  -4.517  1.00  0.00     0.123 A 
ATOM     18  C   UNL     1      -0.351  -3.210  -5.375  1.00  0.00     0.040 A 
ATOM     19  F   UNL     1      -0.006  -5.507  -4.980  1.00  0.00    -0.207 F 
BRANCH  14  20
ATOM     20  C   UNL     1      -1.018   1.221  -4.318  1.00  0.00    -0.025 A 
ATOM     21  C   UNL     1      -2.295   0.758  -4.658  1.00  0.00     0.013 A 
ATOM     22  C   UNL     1      -0.297   1.986  -5.237  1.00  0.00     0.013 A 
ATOM     23  C   UNL     1      -2.791   0.950  -5.953  1.00  0.00     0.061 A 
ATOM     24  C   UNL     1      -0.804   2.196  -6.522  1.00  0.00     0.061 A 
ATOM     25  C   UNL     1      -2.035   1.647  -6.903  1.00  0.00     0.152 A 
BRANCH  25  26
ATOM     26  S   UNL     1      -2.523   1.693  -8.646  1.00  0.00    -0.018 S 
ATOM     27  C   UNL     1      -4.231   2.246  -8.479  1.00  0.00     0.346 C 
ATOM     28  O   UNL     1      -1.702   2.850  -9.322  1.00  0.00    -0.612 OA
ENDBRANCH  25  26
ENDBRANCH  14  20
ENDBRANCH   7   8
ENDBRANCH   4   7
ENDBRANCH   2   3
ENDBRANCH   1   2
BRANCH   1  29
ATOM     29  C   UNL     1      -3.777  -2.659   0.035  1.00  0.00     0.023 C 
BRANCH  29  30
ATOM     30  C   UNL     1      -4.519  -2.654   1.365  1.00  0.00     0.116 C 
BRANCH  30  31
ATOM     31  N   UNL     1      -4.818  -1.320   1.866  1.00  0.00    -0.352 N 
ATOM     32  C   UNL     1      -5.899  -0.918   2.618  1.00  0.00     0.251 C 
ATOM     33  H   UNL     1      -4.166  -0.618   1.638  1.00  0.00     0.163 HD
ATOM     34  O   UNL     1      -6.058   0.266   2.895  1.00  0.00    -0.269 OA
BRANCH  32  35
ATOM     35  C   UNL     1      -6.893  -1.930   3.038  1.00  0.00     0.039 A 
ATOM     36  C   UNL     1      -6.478  -3.123   3.632  1.00  0.00     0.014 A 
ATOM     37  C   UNL     1      -8.245  -1.714   2.755  1.00  0.00     0.014 A 
ATOM     38  C   UNL     1      -7.386  -4.166   3.781  1.00  0.00     0.010 A 
ATOM     39  C   UNL     1      -9.169  -2.738   2.976  1.00  0.00     0.010 A 
ATOM     40  C   UNL     1      -8.737  -3.992   3.436  1.00  0.00    -0.014 A 
BRANCH  40  41
ATOM     41  C   UNL     1      -9.665  -5.149   3.532  1.00  0.00     0.031 A 
ATOM     42  C   UNL     1     -10.265  -5.754   2.289  1.00  0.00     0.074 A 
ATOM     43  C   UNL     1      -9.904  -5.704   4.735  1.00  0.00     0.049 A 
ATOM     44  N   UNL     1     -11.067  -6.783   2.180  1.00  0.00    -0.248 NA
ATOM     45  C   UNL     1      -9.924  -5.125   1.003  1.00  0.00     0.031 C 
ATOM     46  C   UNL     1      -9.364  -5.219   6.007  1.00  0.00     0.029 A 
ATOM     47  N   UNL     1     -10.631  -6.812   5.083  1.00  0.00    -0.354 N 
ATOM     48  C   UNL     1     -11.339  -6.914   0.823  1.00  0.00     0.074 A 
ATOM     49  C   UNL     1     -10.637  -5.844   0.147  1.00  0.00     0.031 C 
ATOM     50  C   UNL     1      -9.730  -6.059   6.987  1.00  0.00     0.029 A 
ATOM     51  C   UNL     1     -10.574  -7.108   6.424  1.00  0.00     0.049 A 
ATOM     52  H   UNL     1     -11.146  -7.346   4.435  1.00  0.00     0.167 HD
ATOM     53  C   UNL     1     -12.095  -7.847   0.196  1.00  0.00     0.037 A 
ATOM     54  C   UNL     1     -11.140  -8.108   7.125  1.00  0.00     0.037 A 
ATOM     55  C   UNL     1     -12.770  -8.928   0.866  1.00  0.00     0.049 A 
ATOM     56  C   UNL     1     -11.996  -9.113   6.411  1.00  0.00     0.074 A 
ATOM     57  C   UNL     1     -13.551  -9.929   0.315  1.00  0.00     0.029 A 
ATOM     58  N   UNL     1     -12.737  -9.156   2.234  1.00  0.00    -0.354 N 
ATOM     59  N   UNL     1     -12.259  -9.206   5.130  1.00  0.00    -0.248 NA
ATOM     60  C   UNL     1     -12.646 -10.139   7.238  1.00  0.00     0.031 C 
ATOM     61  C   UNL     1     -14.014 -10.746   1.352  1.00  0.00     0.029 A 
ATOM     62  C   UNL     1     -13.495 -10.272   2.546  1.00  0.00     0.049 A 
ATOM     63  H   UNL     1     -12.248  -8.605   2.886  1.00  0.00     0.167 HD
ATOM     64  C   UNL     1     -13.105 -10.300   4.996  1.00  0.00     0.074 A 
ATOM     65  C   UNL     1     -13.293 -10.850   6.324  1.00  0.00     0.031 C 
ATOM     66  C   UNL     1     -13.680 -10.799   3.875  1.00  0.00     0.037 A 
BRANCH  53  67
ATOM     67  C   UNL     1     -12.241  -7.740  -1.296  1.00  0.00     0.058 A 
ATOM     68  C   UNL     1     -11.202  -8.108  -2.164  1.00  0.00     0.135 A 
ATOM     69  C   UNL     1     -13.450  -7.308  -1.865  1.00  0.00     0.135 A 
ATOM     70  F   UNL     1     -10.021  -8.511  -1.671  1.00  0.00    -0.206 F 
ATOM     71  C   UNL     1     -11.350  -8.035  -3.546  1.00  0.00     0.059 A 
ATOM     72  C   UNL     1     -13.627  -7.245  -3.245  1.00  0.00     0.059 A 
ATOM     73  F   UNL     1     -14.475  -6.943  -1.079  1.00  0.00    -0.206 F 
ATOM     74  C   UNL     1     -12.566  -7.600  -4.077  1.00  0.00     0.060 A 
BRANCH  74  75
ATOM     75  S   UNL     1     -12.741  -7.510  -5.872  1.00  0.00     0.124 S 
ATOM     76  O   UNL     1     -11.936  -6.333  -6.183  1.00  0.00    -0.237 OA
ATOM     77  O   UNL     1     -12.187  -8.788  -6.306  1.00  0.00    -0.237 OA
ATOM     78  O   UNL     1     -14.179  -7.355  -6.066  1.00  0.00    -0.744 OA
ENDBRANCH  74  75
ENDBRANCH  53  67
BRANCH  54  79
ATOM     79  C   UNL     1     -10.905  -8.200   8.588  1.00  0.00     0.058 A 
ATOM     80  C   UNL     1     -10.067  -9.189   9.120  1.00  0.00     0.135 A 
ATOM     81  C   UNL     1     -11.470  -7.270   9.474  1.00  0.00     0.135 A 
ATOM     82  F   UNL     1      -9.509 -10.103   8.311  1.00  0.00    -0.206 F 
ATOM     83  C   UNL     1      -9.793  -9.253  10.482  1.00  0.00     0.059 A 
ATOM     84  C   UNL     1     -11.195  -7.300  10.836  1.00  0.00     0.059 A 
ATOM     85  F   UNL     1     -12.268  -6.297   9.007  1.00  0.00    -0.206 F 
ATOM     86  C   UNL     1     -10.356  -8.298  11.331  1.00  0.00     0.060 A 
BRANCH  86  87
ATOM     87  S   UNL     1      -9.929  -8.336  13.086  1.00  0.00     0.124 S 
ATOM     88  O   UNL     1     -10.734  -9.456  13.559  1.00  0.00    -0.237 OA
ATOM     89  O   UNL     1      -8.487  -8.556  13.047  1.00  0.00    -0.237 OA
ATOM     90  O   UNL     1     -10.340  -7.017  13.558  1.00  0.00    -0.744 OA
ENDBRANCH  86  87
ENDBRANCH  54  79
BRANCH  66  91
ATOM     91  C   UNL     1     -14.572 -11.995   4.034  1.00  0.00     0.058 A 
ATOM     92  C   UNL     1     -15.876 -11.868   4.535  1.00  0.00     0.135 A 
ATOM     93  C   UNL     1     -14.141 -13.268   3.629  1.00  0.00     0.135 A 
ATOM     94  F   UNL     1     -16.330 -10.671   4.941  1.00  0.00    -0.206 F 
ATOM     95  C   UNL     1     -16.721 -12.966   4.641  1.00  0.00     0.059 A 
ATOM     96  C   UNL     1     -14.977 -14.378   3.710  1.00  0.00     0.059 A 
ATOM     97  F   UNL     1     -12.904 -13.439   3.137  1.00  0.00    -0.206 F 
ATOM     98  C   UNL     1     -16.263 -14.218   4.224  1.00  0.00     0.060 A 
BRANCH  98  99
ATOM     99  S   UNL     1     -17.385 -15.628   4.330  1.00  0.00     0.124 S 
ATOM    100  O   UNL     1     -17.372 -15.907   5.762  1.00  0.00    -0.237 OA
ATOM    101  O   UNL     1     -18.630 -15.079   3.802  1.00  0.00    -0.237 OA
ATOM    102  O   UNL     1     -16.744 -16.634   3.487  1.00  0.00    -0.744 OA
ENDBRANCH  98  99
ENDBRANCH  66  91
ENDBRANCH  40  41
ENDBRANCH  32  35
ENDBRANCH  30  31
ENDBRANCH  29  30
ENDBRANCH   1  29
TORSDOF 17
