REMARK SMILES CC(C)[C@H](NC(=O)[C@H](Cc1ccccc1)n1c(=O)[nH]c2ccccc2c1=O)C(=O)NCCCCNC(=O)c1ccc(-c2c3nc(c(-c4c(F)cc(S(=O)(=O)[O-])cc4F)c4ccc([nH]4)c(-c4c(F)cc(S(=O)(=O)[O-])cc4F)c4nc(c(-c5c(F)cc(S(=O)(=O)[O-])cc5F)c5ccc2[nH]5)C=C4)C=C3)cc1
REMARK SMILES IDX 32 1 31 2 30 3 28 4 29 5 4 7 2 8 1 9 3 10 5 11 6 12 7 14
REMARK SMILES IDX 8 15 16 16 17 17 26 18 18 19 19 20 25 21 27 22 20 23 24 25
REMARK SMILES IDX 21 26 23 27 22 28 9 29 10 30 11 31 15 32 12 33 14 34 13 35
REMARK SMILES IDX 33 36 34 37 35 38 36 39 37 41 38 42 39 43 103 44 40 45
REMARK SMILES IDX 102 46 41 47 42 48 43 49 96 50 44 51 101 52 95 53 97 54
REMARK SMILES IDX 45 55 100 56 94 57 93 58 46 60 80 61 59 62 79 63 60 64 63 65
REMARK SMILES IDX 78 66 98 67 61 68 62 69 77 71 99 72 64 73 47 74 48 75 57 76
REMARK SMILES IDX 49 77 50 78 56 79 58 80 51 81 52 82 53 83 54 84 55 85 81 86
REMARK SMILES IDX 82 87 91 88 83 89 84 90 90 91 92 92 85 93 86 94 87 95 88 96
REMARK SMILES IDX 89 97 65 98 66 99 75 100 67 101 68 102 74 103 76 104 69 105
REMARK SMILES IDX 70 106 71 107 72 108 73 109
REMARK H PARENT 30 6 5 13 19 24 35 40 97 59 63 70
REMARK Flexibility Score: inf
ROOT
ATOM      1  C   UNL     1      -4.453  -2.680  -4.163  1.00  0.00     0.023 C 
ENDROOT
BRANCH   1   2
ATOM      2  C   UNL     1      -3.546  -1.464  -4.044  1.00  0.00     0.116 C 
BRANCH   2   3
ATOM      3  N   UNL     1      -3.477  -0.968  -2.676  1.00  0.00    -0.354 N 
ATOM      4  C   UNL     1      -2.455  -0.418  -1.955  1.00  0.00     0.242 C 
ATOM      5  O   UNL     1      -2.760   0.202  -0.931  1.00  0.00    -0.273 OA
ATOM      6  H   UNL     1      -4.323  -1.044  -2.179  1.00  0.00     0.163 HD
BRANCH   4   7
ATOM      7  C   UNL     1      -0.995  -0.434  -2.461  1.00  0.00     0.173 C 
BRANCH   7   8
ATOM      8  C   UNL     1      -0.732   0.765  -3.434  1.00  0.00     0.015 C 
ATOM      9  C   UNL     1      -1.832   1.152  -4.428  1.00  0.00     0.010 C 
ATOM     10  C   UNL     1      -0.418   2.064  -2.658  1.00  0.00     0.010 C 
ENDBRANCH   7   8
BRANCH   7  11
ATOM     11  N   UNL     1      -0.671  -1.794  -2.966  1.00  0.00    -0.342 N 
ATOM     12  C   UNL     1       0.377  -2.651  -2.985  1.00  0.00     0.244 C 
ATOM     13  H   UNL     1      -1.450  -2.189  -3.422  1.00  0.00     0.164 HD
ATOM     14  O   UNL     1       0.043  -3.820  -3.246  1.00  0.00    -0.273 OA
BRANCH  12  15
ATOM     15  C   UNL     1       1.852  -2.382  -2.615  1.00  0.00     0.189 C 
BRANCH  15  16
ATOM     16  N   UNL     1       2.472  -1.313  -3.416  1.00  0.00    -0.247 N 
ATOM     17  C   UNL     1       2.339  -0.019  -2.993  1.00  0.00     0.329 A 
ATOM     18  C   UNL     1       3.197  -1.661  -4.560  1.00  0.00     0.264 A 
ATOM     19  O   UNL     1       1.733   0.312  -1.986  1.00  0.00    -0.248 OA
ATOM     20  N   UNL     1       2.893   0.967  -3.733  1.00  0.00    -0.307 N 
ATOM     21  C   UNL     1       3.844  -0.556  -5.310  1.00  0.00     0.064 A 
ATOM     22  O   UNL     1       3.340  -2.810  -4.971  1.00  0.00    -0.268 OA
ATOM     23  C   UNL     1       3.648   0.745  -4.866  1.00  0.00     0.055 A 
ATOM     24  H   UNL     1       2.750   1.898  -3.447  1.00  0.00     0.171 HD
ATOM     25  C   UNL     1       4.643  -0.783  -6.434  1.00  0.00     0.016 A 
ATOM     26  C   UNL     1       4.218   1.830  -5.525  1.00  0.00     0.027 A 
ATOM     27  C   UNL     1       5.232   0.301  -7.094  1.00  0.00     0.001 A 
ATOM     28  C   UNL     1       5.016   1.605  -6.642  1.00  0.00     0.002 A 
ENDBRANCH  15  16
BRANCH  15  29
ATOM     29  C   UNL     1       2.056  -2.343  -1.070  1.00  0.00     0.071 C 
BRANCH  29  30
ATOM     30  C   UNL     1       3.453  -1.925  -0.641  1.00  0.00    -0.045 A 
ATOM     31  C   UNL     1       3.694  -0.605  -0.229  1.00  0.00     0.004 A 
ATOM     32  C   UNL     1       4.543  -2.792  -0.757  1.00  0.00     0.004 A 
ATOM     33  C   UNL     1       4.989  -0.108  -0.118  1.00  0.00     0.000 A 
ATOM     34  C   UNL     1       5.844  -2.313  -0.569  1.00  0.00     0.000 A 
ATOM     35  C   UNL     1       6.068  -0.963  -0.298  1.00  0.00     0.000 A 
ENDBRANCH  29  30
ENDBRANCH  15  29
ENDBRANCH  12  15
ENDBRANCH   7  11
ENDBRANCH   4   7
ENDBRANCH   2   3
ENDBRANCH   1   2
BRANCH   1  36
ATOM     36  C   UNL     1      -5.923  -2.372  -3.882  1.00  0.00     0.023 C 
BRANCH  36  37
ATOM     37  C   UNL     1      -6.479  -1.169  -4.638  1.00  0.00     0.116 C 
BRANCH  37  38
ATOM     38  N   UNL     1      -6.352  -1.308  -6.083  1.00  0.00    -0.352 N 
ATOM     39  C   UNL     1      -7.331  -1.157  -7.036  1.00  0.00     0.251 C 
ATOM     40  H   UNL     1      -5.455  -1.538  -6.418  1.00  0.00     0.163 HD
ATOM     41  O   UNL     1      -7.123  -1.454  -8.206  1.00  0.00    -0.269 OA
BRANCH  39  42
ATOM     42  C   UNL     1      -8.647  -0.654  -6.603  1.00  0.00     0.039 A 
ATOM     43  C   UNL     1      -9.785  -1.421  -6.856  1.00  0.00     0.014 A 
ATOM     44  C   UNL     1      -8.725   0.523  -5.854  1.00  0.00     0.014 A 
ATOM     45  C   UNL     1     -11.002  -1.039  -6.292  1.00  0.00     0.010 A 
ATOM     46  C   UNL     1      -9.921   0.856  -5.231  1.00  0.00     0.010 A 
ATOM     47  C   UNL     1     -11.071   0.079  -5.442  1.00  0.00    -0.014 A 
BRANCH  47  48
ATOM     48  C   UNL     1     -12.333   0.456  -4.759  1.00  0.00     0.031 A 
ATOM     49  C   UNL     1     -12.970   1.786  -5.054  1.00  0.00     0.074 A 
ATOM     50  C   UNL     1     -12.860  -0.357  -3.822  1.00  0.00     0.049 A 
ATOM     51  N   UNL     1     -14.010   2.346  -4.494  1.00  0.00    -0.248 NA
ATOM     52  C   UNL     1     -12.334   2.609  -6.097  1.00  0.00     0.031 C 
ATOM     53  C   UNL     1     -12.309  -1.653  -3.418  1.00  0.00     0.029 A 
ATOM     54  N   UNL     1     -13.968  -0.209  -3.026  1.00  0.00    -0.354 N 
ATOM     55  C   UNL     1     -14.143   3.588  -5.103  1.00  0.00     0.074 A 
ATOM     56  C   UNL     1     -13.046   3.724  -6.035  1.00  0.00     0.031 C 
ATOM     57  C   UNL     1     -13.090  -2.187  -2.465  1.00  0.00     0.029 A 
ATOM     58  C   UNL     1     -14.169  -1.255  -2.155  1.00  0.00     0.049 A 
ATOM     59  H   UNL     1     -14.563   0.574  -3.074  1.00  0.00     0.167 HD
ATOM     60  C   UNL     1     -15.107   4.521  -4.918  1.00  0.00     0.037 A 
ATOM     61  C   UNL     1     -15.108  -1.435  -1.204  1.00  0.00     0.037 A 
ATOM     62  C   UNL     1     -16.208   4.366  -4.004  1.00  0.00     0.049 A 
ATOM     63  C   UNL     1     -16.159  -0.376  -1.004  1.00  0.00     0.074 A 
ATOM     64  C   UNL     1     -17.269   5.226  -3.785  1.00  0.00     0.029 A 
ATOM     65  N   UNL     1     -16.388   3.284  -3.154  1.00  0.00    -0.354 N 
ATOM     66  N   UNL     1     -16.309   0.765  -1.635  1.00  0.00    -0.248 NA
ATOM     67  C   UNL     1     -17.171  -0.626   0.032  1.00  0.00     0.031 C 
ATOM     68  C   UNL     1     -18.061   4.691  -2.764  1.00  0.00     0.029 A 
ATOM     69  C   UNL     1     -17.529   3.467  -2.391  1.00  0.00     0.049 A 
ATOM     70  H   UNL     1     -15.793   2.501  -3.102  1.00  0.00     0.167 HD
ATOM     71  C   UNL     1     -17.449   1.352  -1.095  1.00  0.00     0.074 A 
ATOM     72  C   UNL     1     -17.953   0.438  -0.092  1.00  0.00     0.031 C 
ATOM     73  C   UNL     1     -18.027   2.539  -1.406  1.00  0.00     0.037 A 
BRANCH  60  74
ATOM     74  C   UNL     1     -15.014   5.791  -5.718  1.00  0.00     0.058 A 
ATOM     75  C   UNL     1     -15.221   5.806  -7.107  1.00  0.00     0.135 A 
ATOM     76  C   UNL     1     -14.753   7.016  -5.083  1.00  0.00     0.135 A 
ATOM     77  F   UNL     1     -15.458   4.663  -7.769  1.00  0.00    -0.206 F 
ATOM     78  C   UNL     1     -15.142   6.985  -7.842  1.00  0.00     0.059 A 
ATOM     79  C   UNL     1     -14.701   8.212  -5.793  1.00  0.00     0.059 A 
ATOM     80  F   UNL     1     -14.546   7.060  -3.757  1.00  0.00    -0.206 F 
ATOM     81  C   UNL     1     -14.883   8.183  -7.175  1.00  0.00     0.060 A 
BRANCH  81  82
ATOM     82  S   UNL     1     -14.793   9.704  -8.143  1.00  0.00     0.124 S 
ATOM     83  O   UNL     1     -13.530   9.521  -8.854  1.00  0.00    -0.237 OA
ATOM     84  O   UNL     1     -15.998   9.623  -8.962  1.00  0.00    -0.237 OA
ATOM     85  O   UNL     1     -14.795  10.754  -7.130  1.00  0.00    -0.744 OA
ENDBRANCH  81  82
ENDBRANCH  60  74
BRANCH  61  86
ATOM     86  C   UNL     1     -15.102  -2.672  -0.377  1.00  0.00     0.058 A 
ATOM     87  C   UNL     1     -16.109  -3.639  -0.516  1.00  0.00     0.135 A 
ATOM     88  C   UNL     1     -14.087  -2.919   0.561  1.00  0.00     0.135 A 
ATOM     89  F   UNL     1     -17.106  -3.447  -1.394  1.00  0.00    -0.206 F 
ATOM     90  C   UNL     1     -16.121  -4.797   0.255  1.00  0.00     0.059 A 
ATOM     91  C   UNL     1     -14.062  -4.082   1.324  1.00  0.00     0.059 A 
ATOM     92  F   UNL     1     -13.091  -2.034   0.722  1.00  0.00    -0.206 F 
ATOM     93  C   UNL     1     -15.090  -5.011   1.171  1.00  0.00     0.060 A 
BRANCH  93  94
ATOM     94  S   UNL     1     -15.091  -6.539   2.134  1.00  0.00     0.124 S 
ATOM     95  O   UNL     1     -16.199  -6.306   3.053  1.00  0.00    -0.237 OA
ATOM     96  O   UNL     1     -15.317  -7.548   1.103  1.00  0.00    -0.237 OA
ATOM     97  O   UNL     1     -13.762  -6.557   2.737  1.00  0.00    -0.744 OA
ENDBRANCH  93  94
ENDBRANCH  61  86
BRANCH  73  98
ATOM     98  C   UNL     1     -19.298   2.908  -0.691  1.00  0.00     0.058 A 
ATOM     99  C   UNL     1     -19.303   3.305   0.655  1.00  0.00     0.135 A 
ATOM    100  C   UNL     1     -20.516   2.945  -1.390  1.00  0.00     0.135 A 
ATOM    101  F   UNL     1     -18.168   3.280   1.371  1.00  0.00    -0.206 F 
ATOM    102  C   UNL     1     -20.472   3.717   1.286  1.00  0.00     0.059 A 
ATOM    103  C   UNL     1     -21.691   3.381  -0.788  1.00  0.00     0.059 A 
ATOM    104  F   UNL     1     -20.565   2.583  -2.682  1.00  0.00    -0.206 F 
ATOM    105  C   UNL     1     -21.661   3.760   0.553  1.00  0.00     0.060 A 
BRANCH 105 106
ATOM    106  S   UNL     1     -23.157   4.356   1.367  1.00  0.00     0.124 S 
ATOM    107  O   UNL     1     -23.466   3.248   2.265  1.00  0.00    -0.237 OA
ATOM    108  O   UNL     1     -22.694   5.582   2.010  1.00  0.00    -0.237 OA
ATOM    109  O   UNL     1     -24.093   4.549   0.263  1.00  0.00    -0.744 OA
ENDBRANCH 105 106
ENDBRANCH  73  98
ENDBRANCH  47  48
ENDBRANCH  39  42
ENDBRANCH  37  38
ENDBRANCH  36  37
ENDBRANCH   1  36
TORSDOF 20
