REMARK SMILES Cc1oc2cc3c(cc2c1C)[C@H](C)[C@@H](CC(=O)N[C@H](CC1=c2ccccc2=NC1)C(=O)NCCCCNC(=O)c1ccc(-c2c4nc(c(-c5c(F)cc(S(=O)(=O)[O-])cc5F)c5ccc([nH]5)c(-c5c(F)cc(S(=O)(=O)[O-])cc5F)c5nc(c(-c6c(F)cc(S(=O)(=O)[O-])cc6F)c6ccc2[nH]6)C=C5)C=C4)cc1)C(=O)O3
REMARK SMILES IDX 34 1 33 2 32 3 30 4 31 5 19 7 18 8 16 9 17 10 15 12 14 13
REMARK SMILES IDX 1 14 2 15 3 16 10 17 4 18 9 19 11 20 5 21 8 22 6 23 7 24
REMARK SMILES IDX 108 25 12 26 106 27 13 28 107 29 20 30 21 31 22 32 29 33
REMARK SMILES IDX 23 34 27 35 28 36 24 37 26 38 25 39 35 40 36 41 37 42 38 43
REMARK SMILES IDX 39 45 40 46 41 47 105 48 42 49 104 50 43 51 44 52 45 53
REMARK SMILES IDX 98 54 46 55 103 56 97 57 99 58 47 59 102 60 96 61 95 62
REMARK SMILES IDX 48 64 82 65 61 66 81 67 62 68 65 69 80 70 100 71 63 72 64 73
REMARK SMILES IDX 79 75 101 76 66 77 49 78 50 79 59 80 51 81 52 82 58 83 60 84
REMARK SMILES IDX 53 85 54 86 55 87 56 88 57 89 83 90 84 91 93 92 85 93 86 94
REMARK SMILES IDX 92 95 94 96 87 97 88 98 89 99 90 100 91 101 67 102 68 103
REMARK SMILES IDX 77 104 69 105 70 106 76 107 78 108 71 109 72 110 73 111
REMARK SMILES IDX 74 112 75 113
REMARK H PARENT 32 6 18 11 37 44 99 63 65 74
REMARK Flexibility Score: inf
ROOT
ATOM      1  C   UNL     1      -1.180  11.704   7.588  1.00  0.00     0.023 C 
ENDROOT
BRANCH   1   2
ATOM      2  C   UNL     1      -0.482  10.469   7.030  1.00  0.00     0.116 C 
BRANCH   2   3
ATOM      3  N   UNL     1      -0.156   9.502   8.059  1.00  0.00    -0.354 N 
ATOM      4  C   UNL     1       0.203   8.195   7.922  1.00  0.00     0.242 C 
ATOM      5  O   UNL     1       0.733   7.587   8.843  1.00  0.00    -0.273 OA
ATOM      6  H   UNL     1      -0.200   9.835   8.984  1.00  0.00     0.163 HD
BRANCH   4   7
ATOM      7  C   UNL     1      -0.101   7.382   6.721  1.00  0.00     0.175 C 
BRANCH   7   8
ATOM      8  N   UNL     1       0.454   8.101   5.552  1.00  0.00    -0.344 N 
ATOM      9  C   UNL     1       1.709   8.537   5.201  1.00  0.00     0.221 C 
ATOM     10  O   UNL     1       1.751   9.089   4.088  1.00  0.00    -0.275 OA
ATOM     11  H   UNL     1      -0.228   8.314   4.875  1.00  0.00     0.164 HD
BRANCH   9  12
ATOM     12  C   UNL     1       3.067   8.395   5.971  1.00  0.00     0.116 C 
BRANCH  12  13
ATOM     13  C   UNL     1       3.170   8.795   7.451  1.00  0.00     0.116 C 
ATOM     14  C   UNL     1       0.101  12.628  13.621  1.00  0.00     0.088 C 
ATOM     15  C   UNL     1       1.081  11.979  12.718  1.00  0.00     0.105 A 
ATOM     16  O   UNL     1       0.501  11.017  11.926  1.00  0.00    -0.461 OA
ATOM     17  C   UNL     1       2.462  11.814  12.548  1.00  0.00    -0.002 A 
ATOM     18  C   UNL     1       1.533  10.499  11.227  1.00  0.00     0.138 A 
ATOM     19  C   UNL     1       2.595  11.377  11.207  1.00  0.00     0.024 A 
ATOM     20  C   UNL     1       3.551  11.478  13.512  1.00  0.00     0.049 C 
ATOM     21  C   UNL     1       1.674   9.218  10.795  1.00  0.00     0.095 A 
ATOM     22  C   UNL     1       3.648  11.183  10.281  1.00  0.00     0.020 A 
ATOM     23  C   UNL     1       2.790   9.007  10.002  1.00  0.00     0.138 A 
ATOM     24  C   UNL     1       3.581  10.040   9.495  1.00  0.00    -0.001 A 
ATOM     25  O   UNL     1       3.077   7.693   9.629  1.00  0.00    -0.426 OA
ATOM     26  C   UNL     1       4.206   9.786   8.114  1.00  0.00     0.035 C 
ATOM     27  C   UNL     1       3.373   7.535   8.292  1.00  0.00     0.315 C 
ATOM     28  C   UNL     1       4.419  11.071   7.318  1.00  0.00     0.014 C 
ATOM     29  O   UNL     1       3.815   6.476   7.857  1.00  0.00    -0.251 OA
ENDBRANCH  12  13
ENDBRANCH   9  12
ENDBRANCH   7   8
BRANCH   7  30
ATOM     30  C   UNL     1      -1.664   7.155   6.856  1.00  0.00     0.068 C 
BRANCH  30  31
ATOM     31  C   UNL     1      -2.302   6.722   8.223  1.00  0.00    -0.037 C 
ATOM     32  C   UNL     1      -1.698   6.388   9.373  1.00  0.00     0.001 A 
ATOM     33  C   UNL     1      -3.550   5.877   8.192  1.00  0.00     0.174 C 
ATOM     34  C   UNL     1      -1.215   7.098  10.526  1.00  0.00     0.010 A 
ATOM     35  C   UNL     1      -2.174   5.017   9.615  1.00  0.00     0.065 A 
ATOM     36  N   UNL     1      -3.207   4.633   8.931  1.00  0.00    -0.280 NA
ATOM     37  C   UNL     1      -0.654   6.380  11.518  1.00  0.00     0.001 A 
ATOM     38  C   UNL     1      -1.326   4.240  10.554  1.00  0.00     0.028 A 
ATOM     39  C   UNL     1      -0.553   4.933  11.412  1.00  0.00     0.002 A 
ENDBRANCH  30  31
ENDBRANCH   7  30
ENDBRANCH   4   7
ENDBRANCH   2   3
ENDBRANCH   1   2
BRANCH   1  40
ATOM     40  C   UNL     1      -0.396  12.550   8.610  1.00  0.00     0.023 C 
BRANCH  40  41
ATOM     41  C   UNL     1       0.983  13.060   8.171  1.00  0.00     0.116 C 
BRANCH  41  42
ATOM     42  N   UNL     1       1.038  14.510   8.110  1.00  0.00    -0.352 N 
ATOM     43  C   UNL     1       1.389  15.464   9.035  1.00  0.00     0.251 C 
ATOM     44  H   UNL     1       0.774  14.882   7.237  1.00  0.00     0.163 HD
ATOM     45  O   UNL     1       1.192  16.644   8.743  1.00  0.00    -0.269 OA
BRANCH  43  46
ATOM     46  C   UNL     1       1.998  15.157  10.354  1.00  0.00     0.039 A 
ATOM     47  C   UNL     1       3.293  14.646  10.460  1.00  0.00     0.014 A 
ATOM     48  C   UNL     1       1.373  15.641  11.508  1.00  0.00     0.014 A 
ATOM     49  C   UNL     1       3.933  14.576  11.720  1.00  0.00     0.010 A 
ATOM     50  C   UNL     1       2.012  15.568  12.761  1.00  0.00     0.010 A 
ATOM     51  C   UNL     1       3.299  15.020  12.896  1.00  0.00    -0.014 A 
BRANCH  51  52
ATOM     52  C   UNL     1       4.072  15.028  14.193  1.00  0.00     0.031 A 
ATOM     53  C   UNL     1       4.202  16.396  14.739  1.00  0.00     0.074 A 
ATOM     54  C   UNL     1       3.922  14.153  15.221  1.00  0.00     0.049 A 
ATOM     55  N   UNL     1       3.207  16.967  15.343  1.00  0.00    -0.248 NA
ATOM     56  C   UNL     1       5.318  17.276  14.421  1.00  0.00     0.031 C 
ATOM     57  C   UNL     1       2.692  13.435  15.489  1.00  0.00     0.029 A 
ATOM     58  N   UNL     1       4.739  13.781  16.281  1.00  0.00    -0.354 N 
ATOM     59  C   UNL     1       3.519  18.295  15.436  1.00  0.00     0.074 A 
ATOM     60  C   UNL     1       4.849  18.445  14.882  1.00  0.00     0.031 C 
ATOM     61  C   UNL     1       2.822  12.625  16.546  1.00  0.00     0.029 A 
ATOM     62  C   UNL     1       4.135  12.836  17.131  1.00  0.00     0.049 A 
ATOM     63  H   UNL     1       5.645  14.141  16.423  1.00  0.00     0.167 HD
ATOM     64  C   UNL     1       2.647  19.193  15.949  1.00  0.00     0.037 A 
ATOM     65  C   UNL     1       4.285  12.717  18.480  1.00  0.00     0.037 A 
ATOM     66  C   UNL     1       1.387  18.670  16.389  1.00  0.00     0.049 A 
ATOM     67  C   UNL     1       3.484  13.890  18.985  1.00  0.00     0.074 A 
ATOM     68  C   UNL     1       0.120  18.528  15.872  1.00  0.00     0.029 A 
ATOM     69  N   UNL     1       1.345  18.032  17.607  1.00  0.00    -0.354 N 
ATOM     70  N   UNL     1       2.172  13.959  18.996  1.00  0.00    -0.248 NA
ATOM     71  C   UNL     1       4.152  15.184  19.045  1.00  0.00     0.031 C 
ATOM     72  C   UNL     1      -0.494  17.480  16.630  1.00  0.00     0.029 A 
ATOM     73  C   UNL     1       0.463  16.981  17.518  1.00  0.00     0.049 A 
ATOM     74  H   UNL     1       1.861  18.284  18.407  1.00  0.00     0.167 HD
ATOM     75  C   UNL     1       1.863  15.292  18.699  1.00  0.00     0.074 A 
ATOM     76  C   UNL     1       3.131  15.995  18.786  1.00  0.00     0.031 C 
ATOM     77  C   UNL     1       0.651  15.708  18.208  1.00  0.00     0.037 A 
BRANCH  64  78
ATOM     78  C   UNL     1       3.062  20.567  16.227  1.00  0.00     0.058 A 
ATOM     79  C   UNL     1       3.510  20.861  17.520  1.00  0.00     0.135 A 
ATOM     80  C   UNL     1       2.971  21.596  15.287  1.00  0.00     0.135 A 
ATOM     81  F   UNL     1       3.628  19.880  18.431  1.00  0.00    -0.206 F 
ATOM     82  C   UNL     1       3.816  22.155  17.893  1.00  0.00     0.059 A 
ATOM     83  C   UNL     1       3.275  22.905  15.638  1.00  0.00     0.059 A 
ATOM     84  F   UNL     1       2.572  21.337  14.031  1.00  0.00    -0.206 F 
ATOM     85  C   UNL     1       3.675  23.174  16.950  1.00  0.00     0.060 A 
BRANCH  85  86
ATOM     86  S   UNL     1       3.995  24.860  17.495  1.00  0.00     0.124 S 
ATOM     87  O   UNL     1       2.972  25.038  18.520  1.00  0.00    -0.237 OA
ATOM     88  O   UNL     1       5.369  24.763  17.976  1.00  0.00    -0.237 OA
ATOM     89  O   UNL     1       3.811  25.649  16.281  1.00  0.00    -0.744 OA
ENDBRANCH  85  86
ENDBRANCH  64  78
BRANCH  65  90
ATOM     90  C   UNL     1       5.606  12.207  18.924  1.00  0.00     0.058 A 
ATOM     91  C   UNL     1       5.996  10.942  18.421  1.00  0.00     0.135 A 
ATOM     92  C   UNL     1       6.534  12.854  19.745  1.00  0.00     0.135 A 
ATOM     93  F   UNL     1       5.119  10.192  17.730  1.00  0.00    -0.206 F 
ATOM     94  C   UNL     1       7.280  10.435  18.574  1.00  0.00     0.059 A 
ATOM     95  C   UNL     1       7.838  12.373  19.905  1.00  0.00     0.059 A 
ATOM     96  F   UNL     1       6.220  13.986  20.388  1.00  0.00    -0.206 F 
ATOM     97  C   UNL     1       8.214  11.190  19.269  1.00  0.00     0.060 A 
BRANCH  97  98
ATOM     98  S   UNL     1       9.942  10.664  19.243  1.00  0.00     0.124 S 
ATOM     99  O   UNL     1       9.858   9.317  19.822  1.00  0.00    -0.237 OA
ATOM    100  O   UNL     1      10.231  10.706  17.804  1.00  0.00    -0.237 OA
ATOM    101  O   UNL     1      10.616  11.652  20.044  1.00  0.00    -0.744 OA
ENDBRANCH  97  98
ENDBRANCH  65  90
BRANCH  77 102
ATOM    102  C   UNL     1      -0.484  14.708  18.218  1.00  0.00     0.058 A 
ATOM    103  C   UNL     1      -0.992  14.215  19.431  1.00  0.00     0.135 A 
ATOM    104  C   UNL     1      -1.172  14.334  17.047  1.00  0.00     0.135 A 
ATOM    105  F   UNL     1      -0.402  14.536  20.594  1.00  0.00    -0.206 F 
ATOM    106  C   UNL     1      -2.149  13.434  19.484  1.00  0.00     0.059 A 
ATOM    107  C   UNL     1      -2.353  13.588  17.079  1.00  0.00     0.059 A 
ATOM    108  F   UNL     1      -0.733  14.723  15.838  1.00  0.00    -0.206 F 
ATOM    109  C   UNL     1      -2.841  13.152  18.306  1.00  0.00     0.060 A 
BRANCH 109 110
ATOM    110  S   UNL     1      -4.418  12.273  18.412  1.00  0.00     0.124 S 
ATOM    111  O   UNL     1      -4.009  10.970  18.926  1.00  0.00    -0.237 OA
ATOM    112  O   UNL     1      -5.176  13.110  19.338  1.00  0.00    -0.237 OA
ATOM    113  O   UNL     1      -4.907  12.275  17.036  1.00  0.00    -0.744 OA
ENDBRANCH 109 110
ENDBRANCH  77 102
ENDBRANCH  51  52
ENDBRANCH  43  46
ENDBRANCH  41  42
ENDBRANCH  40  41
ENDBRANCH   1  40
TORSDOF 19
