REMARK SMILES C[C@@H](C(=O)NCCCCNC(=O)c1ccc(-c2c3nc(c(-c4c(F)cc(S(=O)(=O)[O-])cc4F)c4ccc([nH]4)c(-c4c(F)cc(S(=O)(=O)[O-])cc4F)c4nc(c(-c5c(F)cc(S(=O)(=O)[O-])cc5F)c5ccc2[nH]5)C=C4)C=C3)cc1)c1ccc(C[C@H]2CCCC2=O)c(Br)c1
REMARK SMILES IDX 7 1 6 2 5 3 3 4 4 5 2 7 1 8 79 9 80 10 92 11 81 12 90 13
REMARK SMILES IDX 82 14 91 15 83 16 84 17 85 18 88 19 86 20 87 21 89 22 8 23
REMARK SMILES IDX 9 24 10 25 11 26 12 28 13 29 14 30 78 31 15 32 77 33 16 34
REMARK SMILES IDX 17 35 18 36 71 37 19 38 76 39 70 40 72 41 20 42 75 43 69 44
REMARK SMILES IDX 68 45 21 47 55 48 34 49 54 50 35 51 38 52 53 53 73 54 36 55
REMARK SMILES IDX 37 56 52 58 74 59 39 60 22 61 23 62 32 63 24 64 25 65 31 66
REMARK SMILES IDX 33 67 26 68 27 69 28 70 29 71 30 72 56 73 57 74 66 75 58 76
REMARK SMILES IDX 59 77 65 78 67 79 60 80 61 81 62 82 63 83 64 84 40 85 41 86
REMARK SMILES IDX 50 87 42 88 43 89 49 90 51 91 44 92 45 93 46 94 47 95 48 96
REMARK H PARENT 5 6 10 27 72 46 38 57
REMARK Flexibility Score: inf
ROOT
ATOM      1  C   UNL     1       4.216  -0.524  -1.108  1.00  0.00     0.023 C 
ENDROOT
BRANCH   1   2
ATOM      2  C   UNL     1       3.388   0.565  -1.791  1.00  0.00     0.116 C 
BRANCH   2   3
ATOM      3  N   UNL     1       2.342  -0.003  -2.616  1.00  0.00    -0.356 N 
ATOM      4  C   UNL     1       1.004  -0.140  -2.379  1.00  0.00     0.227 C 
ATOM      5  O   UNL     1       0.346  -0.737  -3.232  1.00  0.00    -0.274 OA
ATOM      6  H   UNL     1       2.644  -0.346  -3.488  1.00  0.00     0.163 HD
BRANCH   4   7
ATOM      7  C   UNL     1       0.380   0.468  -1.113  1.00  0.00     0.105 C 
ATOM      8  C   UNL     1       0.804  -0.274   0.160  1.00  0.00     0.023 C 
BRANCH   7   9
ATOM      9  C   UNL     1      -1.144   0.525  -1.188  1.00  0.00    -0.035 A 
ATOM     10  C   UNL     1      -1.798   1.748  -1.361  1.00  0.00     0.005 A 
ATOM     11  C   UNL     1      -1.922  -0.639  -1.081  1.00  0.00     0.020 A 
ATOM     12  C   UNL     1      -3.194   1.809  -1.367  1.00  0.00     0.005 A 
ATOM     13  C   UNL     1      -3.320  -0.579  -1.073  1.00  0.00     0.021 A 
ATOM     14  C   UNL     1      -3.979   0.655  -1.180  1.00  0.00    -0.033 A 
ATOM     15  Br  UNL     1      -4.238  -2.235  -0.900  1.00  0.00    -0.051 Br
BRANCH  14  16
ATOM     16  C   UNL     1      -5.480   0.819  -1.078  1.00  0.00     0.048 C 
BRANCH  16  17
ATOM     17  C   UNL     1      -6.017   1.333   0.267  1.00  0.00     0.060 C 
ATOM     18  C   UNL     1      -5.544   0.617   1.537  1.00  0.00     0.012 C 
ATOM     19  C   UNL     1      -5.599   2.760   0.546  1.00  0.00     0.136 C 
ATOM     20  C   UNL     1      -4.382   1.438   2.082  1.00  0.00     0.009 C 
ATOM     21  C   UNL     1      -4.742   2.885   1.779  1.00  0.00     0.076 C 
ATOM     22  O   UNL     1      -5.938   3.718  -0.139  1.00  0.00    -0.299 OA
ENDBRANCH  16  17
ENDBRANCH  14  16
ENDBRANCH   7   9
ENDBRANCH   4   7
ENDBRANCH   2   3
ENDBRANCH   1   2
BRANCH   1  23
ATOM     23  C   UNL     1       5.010  -1.423  -2.062  1.00  0.00     0.023 C 
BRANCH  23  24
ATOM     24  C   UNL     1       5.989  -0.701  -2.981  1.00  0.00     0.116 C 
BRANCH  24  25
ATOM     25  N   UNL     1       6.989   0.069  -2.254  1.00  0.00    -0.352 N 
ATOM     26  C   UNL     1       8.342   0.153  -2.480  1.00  0.00     0.251 C 
ATOM     27  H   UNL     1       6.649   0.602  -1.499  1.00  0.00     0.163 HD
ATOM     28  O   UNL     1       9.062   0.761  -1.693  1.00  0.00    -0.269 OA
BRANCH  26  29
ATOM     29  C   UNL     1       8.927  -0.528  -3.654  1.00  0.00     0.039 A 
ATOM     30  C   UNL     1      10.006  -1.395  -3.464  1.00  0.00     0.014 A 
ATOM     31  C   UNL     1       8.378  -0.348  -4.926  1.00  0.00     0.014 A 
ATOM     32  C   UNL     1      10.477  -2.155  -4.537  1.00  0.00     0.010 A 
ATOM     33  C   UNL     1       8.815  -1.144  -5.982  1.00  0.00     0.010 A 
ATOM     34  C   UNL     1       9.853  -2.070  -5.792  1.00  0.00    -0.014 A 
BRANCH  34  35
ATOM     35  C   UNL     1      10.218  -2.983  -6.905  1.00  0.00     0.031 A 
ATOM     36  C   UNL     1      10.820  -2.435  -8.167  1.00  0.00     0.074 A 
ATOM     37  C   UNL     1       9.893  -4.289  -6.818  1.00  0.00     0.049 A 
ATOM     38  N   UNL     1      11.066  -3.049  -9.295  1.00  0.00    -0.248 NA
ATOM     39  C   UNL     1      11.168  -1.005  -8.172  1.00  0.00     0.031 C 
ATOM     40  C   UNL     1       9.252  -4.928  -5.665  1.00  0.00     0.029 A 
ATOM     41  N   UNL     1      10.023  -5.309  -7.729  1.00  0.00    -0.354 N 
ATOM     42  C   UNL     1      11.568  -2.079 -10.154  1.00  0.00     0.074 A 
ATOM     43  C   UNL     1      11.574  -0.830  -9.423  1.00  0.00     0.031 C 
ATOM     44  C   UNL     1       9.036  -6.224  -5.942  1.00  0.00     0.029 A 
ATOM     45  C   UNL     1       9.486  -6.501  -7.301  1.00  0.00     0.049 A 
ATOM     46  H   UNL     1      10.459  -5.197  -8.604  1.00  0.00     0.167 HD
ATOM     47  C   UNL     1      11.994  -2.223 -11.430  1.00  0.00     0.037 A 
ATOM     48  C   UNL     1       9.344  -7.678  -7.942  1.00  0.00     0.037 A 
ATOM     49  C   UNL     1      12.030  -3.478 -12.134  1.00  0.00     0.049 A 
ATOM     50  C   UNL     1       9.836  -7.811  -9.357  1.00  0.00     0.074 A 
ATOM     51  C   UNL     1      12.557  -3.744 -13.386  1.00  0.00     0.029 A 
ATOM     52  N   UNL     1      11.512  -4.671 -11.656  1.00  0.00    -0.354 N 
ATOM     53  N   UNL     1      10.399  -6.905 -10.119  1.00  0.00    -0.248 NA
ATOM     54  C   UNL     1       9.670  -9.121 -10.002  1.00  0.00     0.031 C 
ATOM     55  C   UNL     1      12.320  -5.090 -13.683  1.00  0.00     0.029 A 
ATOM     56  C   UNL     1      11.677  -5.669 -12.602  1.00  0.00     0.049 A 
ATOM     57  H   UNL     1      11.089  -4.791 -10.775  1.00  0.00     0.167 HD
ATOM     58  C   UNL     1      10.665  -7.539 -11.327  1.00  0.00     0.074 A 
ATOM     59  C   UNL     1      10.218  -8.909 -11.191  1.00  0.00     0.031 C 
ATOM     60  C   UNL     1      11.227  -7.029 -12.450  1.00  0.00     0.037 A 
BRANCH  47  61
ATOM     61  C   UNL     1      12.467  -0.999 -12.160  1.00  0.00     0.058 A 
ATOM     62  C   UNL     1      13.716  -0.420 -11.890  1.00  0.00     0.135 A 
ATOM     63  C   UNL     1      11.697  -0.451 -13.199  1.00  0.00     0.135 A 
ATOM     64  F   UNL     1      14.483  -0.898 -10.898  1.00  0.00    -0.206 F 
ATOM     65  C   UNL     1      14.183   0.668 -12.620  1.00  0.00     0.059 A 
ATOM     66  C   UNL     1      12.154   0.624 -13.955  1.00  0.00     0.059 A 
ATOM     67  F   UNL     1      10.494  -0.968 -13.493  1.00  0.00    -0.206 F 
ATOM     68  C   UNL     1      13.396   1.180 -13.654  1.00  0.00     0.060 A 
BRANCH  68  69
ATOM     69  S   UNL     1      14.035   2.567 -14.618  1.00  0.00     0.124 S 
ATOM     70  O   UNL     1      13.865   3.674 -13.682  1.00  0.00    -0.237 OA
ATOM     71  O   UNL     1      15.413   2.161 -14.875  1.00  0.00    -0.237 OA
ATOM     72  O   UNL     1      13.165   2.596 -15.789  1.00  0.00    -0.744 OA
ENDBRANCH  68  69
ENDBRANCH  47  61
BRANCH  48  73
ATOM     73  C   UNL     1       8.685  -8.823  -7.262  1.00  0.00     0.058 A 
ATOM     74  C   UNL     1       9.424  -9.941  -6.850  1.00  0.00     0.135 A 
ATOM     75  C   UNL     1       7.302  -8.827  -7.022  1.00  0.00     0.135 A 
ATOM     76  F   UNL     1      10.748  -9.986  -7.064  1.00  0.00    -0.206 F 
ATOM     77  C   UNL     1       8.813 -11.035  -6.244  1.00  0.00     0.059 A 
ATOM     78  C   UNL     1       6.672  -9.899  -6.398  1.00  0.00     0.059 A 
ATOM     79  F   UNL     1       6.554  -7.773  -7.383  1.00  0.00    -0.206 F 
ATOM     80  C   UNL     1       7.435 -11.005  -6.026  1.00  0.00     0.060 A 
BRANCH  80  81
ATOM     81  S   UNL     1       6.651 -12.415  -5.213  1.00  0.00     0.124 S 
ATOM     82  O   UNL     1       6.570 -13.375  -6.308  1.00  0.00    -0.237 OA
ATOM     83  O   UNL     1       7.604 -12.732  -4.154  1.00  0.00    -0.237 OA
ATOM     84  O   UNL     1       5.377 -11.868  -4.755  1.00  0.00    -0.744 OA
ENDBRANCH  80  81
ENDBRANCH  48  73
BRANCH  60  85
ATOM     85  C   UNL     1      11.402  -7.955 -13.619  1.00  0.00     0.058 A 
ATOM     86  C   UNL     1      10.317  -8.317 -14.431  1.00  0.00     0.135 A 
ATOM     87  C   UNL     1      12.676  -8.429 -13.971  1.00  0.00     0.135 A 
ATOM     88  F   UNL     1       9.078  -7.897 -14.129  1.00  0.00    -0.206 F 
ATOM     89  C   UNL     1      10.487  -9.124 -15.551  1.00  0.00     0.059 A 
ATOM     90  C   UNL     1      12.873  -9.220 -15.098  1.00  0.00     0.059 A 
ATOM     91  F   UNL     1      13.747  -8.105 -13.229  1.00  0.00    -0.206 F 
ATOM     92  C   UNL     1      11.770  -9.567 -15.879  1.00  0.00     0.060 A 
BRANCH  92  93
ATOM     93  S   UNL     1      11.988 -10.567 -17.366  1.00  0.00     0.124 S 
ATOM     94  O   UNL     1      11.493 -11.866 -16.922  1.00  0.00    -0.237 OA
ATOM     95  O   UNL     1      11.154  -9.870 -18.340  1.00  0.00    -0.237 OA
ATOM     96  O   UNL     1      13.425 -10.494 -17.615  1.00  0.00    -0.744 OA
ENDBRANCH  92  93
ENDBRANCH  60  85
ENDBRANCH  34  35
ENDBRANCH  26  29
ENDBRANCH  24  25
ENDBRANCH  23  24
ENDBRANCH   1  23
TORSDOF 17
