REMARK SMILES O=C(Cc1ccccc1Nc1c(Cl)cccc1Cl)NCCCCNC(=O)c1ccc(-c2c3nc(c(-c4c(F)cc(S(=O)(=O)[O-])cc4F)c4ccc([nH]4)c(-c4c(F)cc(S(=O)(=O)[O-])cc4F)c4nc(c(-c5c(F)cc(S(=O)(=O)[O-])cc5F)c5ccc2[nH]5)C=C4)C=C3)cc1
REMARK SMILES IDX 21 1 20 2 19 3 1 4 2 5 3 7 4 8 5 9 9 10 6 11 8 12 7 13 10 14
REMARK SMILES IDX 11 16 12 17 17 18 13 19 14 20 16 21 18 22 15 23 22 24 23 25
REMARK SMILES IDX 24 26 25 27 26 29 27 30 28 31 92 32 29 33 91 34 30 35 31 36
REMARK SMILES IDX 32 37 85 38 33 39 90 40 84 41 86 42 34 43 89 44 83 45 82 46
REMARK SMILES IDX 35 48 69 49 48 50 68 51 49 52 52 53 67 54 87 55 50 56 51 57
REMARK SMILES IDX 66 59 88 60 53 61 36 62 37 63 46 64 38 65 39 66 45 67 47 68
REMARK SMILES IDX 40 69 41 70 42 71 43 72 44 73 70 74 71 75 80 76 72 77 73 78
REMARK SMILES IDX 79 79 81 80 74 81 75 82 76 83 77 84 78 85 54 86 55 87 64 88
REMARK SMILES IDX 56 89 57 90 63 91 65 92 58 93 59 94 60 95 61 96 62 97
REMARK H PARENT 19 6 10 15 24 28 86 47 52 58
REMARK Flexibility Score: inf
ROOT
ATOM      1  C   UNL     1       2.538  -1.799  -3.118  1.00  0.00     0.023 C 
ENDROOT
BRANCH   1   2
ATOM      2  C   UNL     1       2.136  -1.834  -1.647  1.00  0.00     0.116 C 
BRANCH   2   3
ATOM      3  N   UNL     1       2.845  -0.850  -0.855  1.00  0.00    -0.356 N 
ATOM      4  O   UNL     1       0.981   0.046   0.150  1.00  0.00    -0.275 OA
ATOM      5  C   UNL     1       2.202  -0.009   0.030  1.00  0.00     0.224 C 
ATOM      6  H   UNL     1       3.822  -0.779  -0.952  1.00  0.00     0.163 HD
BRANCH   5   7
ATOM      7  C   UNL     1       3.139   0.842   0.870  1.00  0.00     0.137 C 
BRANCH   7   8
ATOM      8  C   UNL     1       3.809   0.143   2.045  1.00  0.00    -0.015 A 
ATOM      9  C   UNL     1       3.700  -1.252   2.222  1.00  0.00     0.006 A 
ATOM     10  C   UNL     1       4.584   0.887   2.969  1.00  0.00     0.042 A 
ATOM     11  C   UNL     1       4.346  -1.907   3.270  1.00  0.00     0.000 A 
ATOM     12  C   UNL     1       5.205   0.204   4.030  1.00  0.00     0.026 A 
ATOM     13  C   UNL     1       5.095  -1.177   4.178  1.00  0.00     0.002 A 
BRANCH  10  14
ATOM     14  N   UNL     1       4.773   2.280   2.793  1.00  0.00    -0.353 N 
ATOM     15  H   UNL     1       4.202   2.694   2.106  1.00  0.00     0.167 HD
BRANCH  14  16
ATOM     16  C   UNL     1       5.658   3.171   3.453  1.00  0.00     0.076 A 
ATOM     17  C   UNL     1       5.126   4.303   4.109  1.00  0.00     0.066 A 
ATOM     18  C   UNL     1       7.046   2.952   3.573  1.00  0.00     0.066 A 
ATOM     19  Cl  UNL     1       3.439   4.684   3.985  1.00  0.00    -0.082 Cl
ATOM     20  C   UNL     1       5.927   5.149   4.883  1.00  0.00     0.023 A 
ATOM     21  C   UNL     1       7.846   3.796   4.356  1.00  0.00     0.023 A 
ATOM     22  Cl  UNL     1       7.867   1.706   2.693  1.00  0.00    -0.082 Cl
ATOM     23  C   UNL     1       7.286   4.886   5.019  1.00  0.00     0.003 A 
ENDBRANCH  14  16
ENDBRANCH  10  14
ENDBRANCH   7   8
ENDBRANCH   5   7
ENDBRANCH   2   3
ENDBRANCH   1   2
BRANCH   1  24
ATOM     24  C   UNL     1       4.024  -2.046  -3.391  1.00  0.00     0.023 C 
BRANCH  24  25
ATOM     25  C   UNL     1       4.576  -3.370  -2.870  1.00  0.00     0.116 C 
BRANCH  25  26
ATOM     26  N   UNL     1       3.976  -4.524  -3.519  1.00  0.00    -0.352 N 
ATOM     27  C   UNL     1       4.577  -5.563  -4.189  1.00  0.00     0.251 C 
ATOM     28  H   UNL     1       2.993  -4.568  -3.472  1.00  0.00     0.163 HD
ATOM     29  O   UNL     1       3.884  -6.363  -4.815  1.00  0.00    -0.269 OA
BRANCH  27  30
ATOM     30  C   UNL     1       6.051  -5.707  -4.185  1.00  0.00     0.039 A 
ATOM     31  C   UNL     1       6.704  -6.014  -5.382  1.00  0.00     0.014 A 
ATOM     32  C   UNL     1       6.792  -5.548  -3.010  1.00  0.00     0.014 A 
ATOM     33  C   UNL     1       8.099  -6.089  -5.415  1.00  0.00     0.010 A 
ATOM     34  C   UNL     1       8.185  -5.547  -3.061  1.00  0.00     0.010 A 
ATOM     35  C   UNL     1       8.856  -5.816  -4.263  1.00  0.00    -0.014 A 
BRANCH  35  36
ATOM     36  C   UNL     1      10.344  -5.793  -4.303  1.00  0.00     0.031 A 
ATOM     37  C   UNL     1      11.144  -6.768  -3.480  1.00  0.00     0.074 A 
ATOM     38  C   UNL     1      10.976  -4.852  -5.033  1.00  0.00     0.049 A 
ATOM     39  N   UNL     1      12.442  -6.859  -3.339  1.00  0.00    -0.248 NA
ATOM     40  C   UNL     1      10.386  -7.753  -2.693  1.00  0.00     0.031 C 
ATOM     41  C   UNL     1      10.317  -3.822  -5.841  1.00  0.00     0.029 A 
ATOM     42  N   UNL     1      12.315  -4.599  -5.209  1.00  0.00    -0.354 N 
ATOM     43  C   UNL     1      12.656  -7.898  -2.440  1.00  0.00     0.074 A 
ATOM     44  C   UNL     1      11.352  -8.372  -2.030  1.00  0.00     0.031 C 
ATOM     45  C   UNL     1      11.250  -3.069  -6.444  1.00  0.00     0.029 A 
ATOM     46  C   UNL     1      12.573  -3.528  -6.034  1.00  0.00     0.049 A 
ATOM     47  H   UNL     1      13.024  -5.134  -4.784  1.00  0.00     0.167 HD
ATOM     48  C   UNL     1      13.830  -8.421  -2.012  1.00  0.00     0.037 A 
ATOM     49  C   UNL     1      13.742  -2.971  -6.410  1.00  0.00     0.037 A 
ATOM     50  C   UNL     1      15.125  -7.957  -2.440  1.00  0.00     0.049 A 
ATOM     51  C   UNL     1      15.032  -3.561  -5.907  1.00  0.00     0.074 A 
ATOM     52  C   UNL     1      16.370  -8.464  -2.112  1.00  0.00     0.029 A 
ATOM     53  N   UNL     1      15.344  -6.876  -3.281  1.00  0.00    -0.354 N 
ATOM     54  N   UNL     1      15.215  -4.588  -5.112  1.00  0.00    -0.248 NA
ATOM     55  C   UNL     1      16.276  -2.919  -6.355  1.00  0.00     0.031 C 
ATOM     56  C   UNL     1      17.343  -7.654  -2.707  1.00  0.00     0.029 A 
ATOM     57  C   UNL     1      16.704  -6.681  -3.458  1.00  0.00     0.049 A 
ATOM     58  H   UNL     1      14.637  -6.327  -3.691  1.00  0.00     0.167 HD
ATOM     59  C   UNL     1      16.593  -4.736  -4.992  1.00  0.00     0.074 A 
ATOM     60  C   UNL     1      17.196  -3.699  -5.804  1.00  0.00     0.031 C 
ATOM     61  C   UNL     1      17.295  -5.649  -4.276  1.00  0.00     0.037 A 
BRANCH  48  62
ATOM     62  C   UNL     1      13.773  -9.556  -1.022  1.00  0.00     0.058 A 
ATOM     63  C   UNL     1      13.304 -10.830  -1.381  1.00  0.00     0.135 A 
ATOM     64  C   UNL     1      14.237  -9.379   0.292  1.00  0.00     0.135 A 
ATOM     65  F   UNL     1      12.836 -11.055  -2.620  1.00  0.00    -0.206 F 
ATOM     66  C   UNL     1      13.267 -11.877  -0.467  1.00  0.00     0.059 A 
ATOM     67  C   UNL     1      14.240 -10.421   1.215  1.00  0.00     0.059 A 
ATOM     68  F   UNL     1      14.699  -8.183   0.691  1.00  0.00    -0.206 F 
ATOM     69  C   UNL     1      13.739 -11.664   0.830  1.00  0.00     0.060 A 
BRANCH  69  70
ATOM     70  S   UNL     1      13.689 -13.036   2.001  1.00  0.00     0.124 S 
ATOM     71  O   UNL     1      12.257 -13.149   2.256  1.00  0.00    -0.237 OA
ATOM     72  O   UNL     1      14.284 -14.124   1.232  1.00  0.00    -0.237 OA
ATOM     73  O   UNL     1      14.489 -12.555   3.124  1.00  0.00    -0.744 OA
ENDBRANCH  69  70
ENDBRANCH  48  62
BRANCH  49  74
ATOM     74  C   UNL     1      13.747  -1.799  -7.328  1.00  0.00     0.058 A 
ATOM     75  C   UNL     1      14.227  -1.914  -8.642  1.00  0.00     0.135 A 
ATOM     76  C   UNL     1      13.270  -0.545  -6.917  1.00  0.00     0.135 A 
ATOM     77  F   UNL     1      14.702  -3.090  -9.081  1.00  0.00    -0.206 F 
ATOM     78  C   UNL     1      14.252  -0.826  -9.508  1.00  0.00     0.059 A 
ATOM     79  C   UNL     1      13.256   0.551  -7.774  1.00  0.00     0.059 A 
ATOM     80  F   UNL     1      12.785  -0.384  -5.675  1.00  0.00    -0.206 F 
ATOM     81  C   UNL     1      13.760   0.403  -9.065  1.00  0.00     0.060 A 
BRANCH  81  82
ATOM     82  S   UNL     1      13.755   1.797 -10.213  1.00  0.00     0.124 S 
ATOM     83  O   UNL     1      15.176   2.111 -10.301  1.00  0.00    -0.237 OA
ATOM     84  O   UNL     1      13.156   1.208 -11.406  1.00  0.00    -0.237 OA
ATOM     85  O   UNL     1      12.930   2.790  -9.532  1.00  0.00    -0.744 OA
ENDBRANCH  81  82
ENDBRANCH  49  74
BRANCH  61  86
ATOM     86  C   UNL     1      18.797  -5.601  -4.367  1.00  0.00     0.058 A 
ATOM     87  C   UNL     1      19.544  -4.573  -3.771  1.00  0.00     0.135 A 
ATOM     88  C   UNL     1      19.501  -6.630  -5.015  1.00  0.00     0.135 A 
ATOM     89  F   UNL     1      18.923  -3.561  -3.145  1.00  0.00    -0.206 F 
ATOM     90  C   UNL     1      20.934  -4.553  -3.837  1.00  0.00     0.059 A 
ATOM     91  C   UNL     1      20.891  -6.647  -5.064  1.00  0.00     0.059 A 
ATOM     92  F   UNL     1      18.837  -7.644  -5.593  1.00  0.00    -0.206 F 
ATOM     93  C   UNL     1      21.599  -5.597  -4.483  1.00  0.00     0.060 A 
BRANCH  93  94
ATOM     94  S   UNL     1      23.404  -5.577  -4.529  1.00  0.00     0.124 S 
ATOM     95  O   UNL     1      23.662  -4.504  -5.483  1.00  0.00    -0.237 OA
ATOM     96  O   UNL     1      23.747  -5.286  -3.140  1.00  0.00    -0.237 OA
ATOM     97  O   UNL     1      23.748  -6.920  -4.985  1.00  0.00    -0.744 OA
ENDBRANCH  93  94
ENDBRANCH  61  86
ENDBRANCH  35  36
ENDBRANCH  27  30
ENDBRANCH  25  26
ENDBRANCH  24  25
ENDBRANCH   1  24
TORSDOF 17
