REMARK SMILES CCc1ccc(Nc2nc(OCC(=O)NCCCCNC(=O)c3ccc(-c4c5nc(c(-c6c(F)cc(S(=O)(=O)[O-])cc6F)c6ccc([nH]6)c(-c6c(F)cc(S(=O)(=O)[O-])cc6F)c6nc(c(-c7c(F)cc(S(=O)(=O)[O-])cc7F)c7ccc4[nH]7)C=C6)C=C5)cc3)cc(-c3cccnc3)n2)cc1
REMARK SMILES IDX 16 1 15 2 13 3 14 4 12 6 11 7 10 8 8 9 9 10 97 11 90 12
REMARK SMILES IDX 89 13 7 14 6 16 3 17 4 18 99 19 5 20 98 21 2 22 1 23 91 24
REMARK SMILES IDX 92 25 96 26 93 27 95 28 94 29 17 30 18 31 19 32 20 33 21 34
REMARK SMILES IDX 22 36 23 37 24 38 88 39 25 40 87 41 26 42 27 43 28 44 81 45
REMARK SMILES IDX 29 46 86 47 80 48 82 49 30 50 85 51 79 52 78 53 31 55 65 56
REMARK SMILES IDX 44 57 64 58 45 59 48 60 63 61 83 62 46 63 47 64 62 66 84 67
REMARK SMILES IDX 49 68 32 69 33 70 42 71 34 72 35 73 41 74 43 75 36 76 37 77
REMARK SMILES IDX 38 78 39 79 40 80 66 81 67 82 76 83 68 84 69 85 75 86 77 87
REMARK SMILES IDX 70 88 71 89 72 90 73 91 74 92 50 93 51 94 60 95 52 96 53 97
REMARK SMILES IDX 59 98 61 99 54 100 55 101 56 102 57 103 58 104
REMARK H PARENT 15 5 7 15 20 35 82 54 48 65
REMARK Flexibility Score: inf
ROOT
ATOM      1  C   UNL     1       6.496  -4.638  -6.333  1.00  0.00     0.116 C 
ENDROOT
BRANCH   1   2
ATOM      2  N   UNL     1       5.437  -5.533  -6.755  1.00  0.00    -0.353 N 
ATOM      3  C   UNL     1       4.673  -5.470  -7.881  1.00  0.00     0.258 C 
ATOM      4  O   UNL     1       3.798  -6.321  -8.057  1.00  0.00    -0.271 OA
ATOM      5  H   UNL     1       5.245  -6.285  -6.149  1.00  0.00     0.163 HD
BRANCH   3   6
ATOM      6  C   UNL     1       4.918  -4.361  -8.915  1.00  0.00     0.331 C 
BRANCH   6   7
ATOM      7  O   UNL     1       4.751  -3.019  -8.491  1.00  0.00    -0.467 OA
BRANCH   7   8
ATOM      8  C   UNL     1       3.519  -2.638  -8.041  1.00  0.00     0.219 A 
ATOM      9  C   UNL     1       2.420  -1.029  -6.833  1.00  0.00     0.231 A 
ATOM     10  N   UNL     1       3.546  -1.444  -7.426  1.00  0.00    -0.177 NA
ATOM     11  N   UNL     1       1.260  -1.697  -6.901  1.00  0.00    -0.212 NA
ATOM     12  C   UNL     1       1.249  -2.869  -7.554  1.00  0.00     0.081 A 
ATOM     13  C   UNL     1       2.373  -3.383  -8.157  1.00  0.00     0.097 A 
BRANCH   9  14
ATOM     14  N   UNL     1       2.507   0.132  -6.069  1.00  0.00    -0.324 N 
ATOM     15  H   UNL     1       3.022   0.871  -6.466  1.00  0.00     0.170 HD
BRANCH  14  16
ATOM     16  C   UNL     1       1.953   0.383  -4.803  1.00  0.00     0.041 A 
ATOM     17  C   UNL     1       0.918   0.917  -2.215  1.00  0.00    -0.048 A 
ATOM     18  C   UNL     1       0.860  -0.368  -2.757  1.00  0.00     0.006 A 
ATOM     19  C   UNL     1       1.443   1.948  -3.006  1.00  0.00     0.006 A 
ATOM     20  C   UNL     1       1.367  -0.627  -4.031  1.00  0.00     0.026 A 
ATOM     21  C   UNL     1       1.956   1.682  -4.284  1.00  0.00     0.026 A 
BRANCH  17  22
ATOM     22  C   UNL     1       0.386   1.202  -0.832  1.00  0.00     0.032 C 
ATOM     23  C   UNL     1       0.871   0.218   0.229  1.00  0.00     0.009 C 
ENDBRANCH  17  22
ENDBRANCH  14  16
ENDBRANCH   9  14
BRANCH  12  24
ATOM     24  C   UNL     1      -0.016  -3.597  -7.546  1.00  0.00     0.019 A 
ATOM     25  C   UNL     1      -0.129  -4.873  -6.978  1.00  0.00     0.013 A 
ATOM     26  C   UNL     1      -1.168  -3.066  -8.123  1.00  0.00     0.121 A 
ATOM     27  C   UNL     1      -1.341  -5.556  -7.024  1.00  0.00     0.021 A 
ATOM     28  N   UNL     1      -2.357  -3.714  -8.204  1.00  0.00    -0.264 NA
ATOM     29  C   UNL     1      -2.414  -4.944  -7.650  1.00  0.00     0.111 A 
ENDBRANCH  12  24
ENDBRANCH   7   8
ENDBRANCH   6   7
ENDBRANCH   3   6
ENDBRANCH   1   2
BRANCH   1  30
ATOM     30  C   UNL     1       6.090  -3.796  -5.125  1.00  0.00     0.023 C 
BRANCH  30  31
ATOM     31  C   UNL     1       5.755  -4.590  -3.857  1.00  0.00     0.023 C 
BRANCH  31  32
ATOM     32  C   UNL     1       6.816  -5.582  -3.390  1.00  0.00     0.116 C 
BRANCH  32  33
ATOM     33  N   UNL     1       8.103  -4.961  -3.130  1.00  0.00    -0.352 N 
ATOM     34  C   UNL     1       8.979  -5.167  -2.095  1.00  0.00     0.251 C 
ATOM     35  H   UNL     1       8.389  -4.294  -3.795  1.00  0.00     0.163 HD
ATOM     36  O   UNL     1       9.971  -4.439  -1.998  1.00  0.00    -0.269 OA
BRANCH  34  37
ATOM     37  C   UNL     1       8.741  -6.225  -1.086  1.00  0.00     0.039 A 
ATOM     38  C   UNL     1       9.026  -5.946   0.254  1.00  0.00     0.014 A 
ATOM     39  C   UNL     1       8.277  -7.494  -1.445  1.00  0.00     0.014 A 
ATOM     40  C   UNL     1       8.812  -6.921   1.232  1.00  0.00     0.010 A 
ATOM     41  C   UNL     1       7.992  -8.440  -0.459  1.00  0.00     0.010 A 
ATOM     42  C   UNL     1       8.273  -8.172   0.889  1.00  0.00    -0.014 A 
BRANCH  42  43
ATOM     43  C   UNL     1       8.039  -9.212   1.927  1.00  0.00     0.031 A 
ATOM     44  C   UNL     1       8.810 -10.507   1.891  1.00  0.00     0.074 A 
ATOM     45  C   UNL     1       7.123  -9.001   2.894  1.00  0.00     0.049 A 
ATOM     46  N   UNL     1       8.744 -11.532   2.703  1.00  0.00    -0.248 NA
ATOM     47  C   UNL     1       9.764 -10.685   0.783  1.00  0.00     0.031 C 
ATOM     48  C   UNL     1       6.278  -7.811   3.014  1.00  0.00     0.029 A 
ATOM     49  N   UNL     1       6.751  -9.779   3.962  1.00  0.00    -0.354 N 
ATOM     50  C   UNL     1       9.642 -12.470   2.205  1.00  0.00     0.074 A 
ATOM     51  C   UNL     1      10.189 -11.923   0.984  1.00  0.00     0.031 C 
ATOM     52  C   UNL     1       5.514  -7.922   4.114  1.00  0.00     0.029 A 
ATOM     53  C   UNL     1       5.790  -9.202   4.759  1.00  0.00     0.049 A 
ATOM     54  H   UNL     1       7.137 -10.667   4.141  1.00  0.00     0.167 HD
ATOM     55  C   UNL     1      10.006 -13.664   2.734  1.00  0.00     0.037 A 
ATOM     56  C   UNL     1       5.200  -9.652   5.884  1.00  0.00     0.037 A 
ATOM     57  C   UNL     1       9.478 -14.196   3.964  1.00  0.00     0.049 A 
ATOM     58  C   UNL     1       5.614 -10.987   6.446  1.00  0.00     0.074 A 
ATOM     59  C   UNL     1       9.812 -15.377   4.604  1.00  0.00     0.029 A 
ATOM     60  N   UNL     1       8.509 -13.581   4.742  1.00  0.00    -0.354 N 
ATOM     61  N   UNL     1       6.509 -11.833   5.992  1.00  0.00    -0.248 NA
ATOM     62  C   UNL     1       4.945 -11.424   7.679  1.00  0.00     0.031 C 
ATOM     63  C   UNL     1       9.016 -15.495   5.749  1.00  0.00     0.029 A 
ATOM     64  C   UNL     1       8.221 -14.364   5.848  1.00  0.00     0.049 A 
ATOM     65  H   UNL     1       8.088 -12.714   4.539  1.00  0.00     0.167 HD
ATOM     66  C   UNL     1       6.529 -12.888   6.899  1.00  0.00     0.074 A 
ATOM     67  C   UNL     1       5.572 -12.563   7.937  1.00  0.00     0.031 C 
ATOM     68  C   UNL     1       7.269 -14.024   6.875  1.00  0.00     0.037 A 
BRANCH  55  69
ATOM     69  C   UNL     1      11.041 -14.468   1.993  1.00  0.00     0.058 A 
ATOM     70  C   UNL     1      12.382 -14.056   1.931  1.00  0.00     0.135 A 
ATOM     71  C   UNL     1      10.701 -15.680   1.371  1.00  0.00     0.135 A 
ATOM     72  F   UNL     1      12.761 -12.897   2.494  1.00  0.00    -0.206 F 
ATOM     73  C   UNL     1      13.343 -14.800   1.254  1.00  0.00     0.059 A 
ATOM     74  C   UNL     1      11.652 -16.456   0.714  1.00  0.00     0.059 A 
ATOM     75  F   UNL     1       9.434 -16.122   1.399  1.00  0.00    -0.206 F 
ATOM     76  C   UNL     1      12.968 -16.000   0.649  1.00  0.00     0.060 A 
BRANCH  76  77
ATOM     77  S   UNL     1      14.230 -16.958  -0.217  1.00  0.00     0.124 S 
ATOM     78  O   UNL     1      14.447 -16.142  -1.408  1.00  0.00    -0.237 OA
ATOM     79  O   UNL     1      15.325 -16.975   0.748  1.00  0.00    -0.237 OA
ATOM     80  O   UNL     1      13.582 -18.245  -0.448  1.00  0.00    -0.744 OA
ENDBRANCH  76  77
ENDBRANCH  55  69
BRANCH  56  81
ATOM     81  C   UNL     1       4.175  -8.826   6.578  1.00  0.00     0.058 A 
ATOM     82  C   UNL     1       4.438  -8.255   7.833  1.00  0.00     0.135 A 
ATOM     83  C   UNL     1       2.909  -8.608   6.015  1.00  0.00     0.135 A 
ATOM     84  F   UNL     1       5.632  -8.439   8.417  1.00  0.00    -0.206 F 
ATOM     85  C   UNL     1       3.473  -7.524   8.519  1.00  0.00     0.059 A 
ATOM     86  C   UNL     1       1.937  -7.856   6.669  1.00  0.00     0.059 A 
ATOM     87  F   UNL     1       2.612  -9.117   4.809  1.00  0.00    -0.206 F 
ATOM     88  C   UNL     1       2.223  -7.332   7.929  1.00  0.00     0.060 A 
BRANCH  88  89
ATOM     89  S   UNL     1       0.984  -6.365   8.818  1.00  0.00     0.124 S 
ATOM     90  O   UNL     1       0.581  -7.296   9.864  1.00  0.00    -0.237 OA
ATOM     91  O   UNL     1       1.756  -5.206   9.256  1.00  0.00    -0.237 OA
ATOM     92  O   UNL     1      -0.021  -6.089   7.795  1.00  0.00    -0.744 OA
ENDBRANCH  88  89
ENDBRANCH  56  81
BRANCH  68  93
ATOM     93  C   UNL     1       7.096 -14.983   8.022  1.00  0.00     0.058 A 
ATOM     94  C   UNL     1       5.928 -15.746   8.175  1.00  0.00     0.135 A 
ATOM     95  C   UNL     1       8.122 -15.159   8.964  1.00  0.00     0.135 A 
ATOM     96  F   UNL     1       4.914 -15.613   7.305  1.00  0.00    -0.206 F 
ATOM     97  C   UNL     1       5.768 -16.623   9.243  1.00  0.00     0.059 A 
ATOM     98  C   UNL     1       7.996 -16.054  10.023  1.00  0.00     0.059 A 
ATOM     99  F   UNL     1       9.266 -14.465   8.857  1.00  0.00    -0.206 F 
ATOM    100  C   UNL     1       6.807 -16.768  10.164  1.00  0.00     0.060 A 
BRANCH 100 101
ATOM    101  S   UNL     1       6.592 -17.918  11.538  1.00  0.00     0.124 S 
ATOM    102  O   UNL     1       5.674 -17.178  12.399  1.00  0.00    -0.237 OA
ATOM    103  O   UNL     1       6.034 -19.094  10.878  1.00  0.00    -0.237 OA
ATOM    104  O   UNL     1       7.946 -18.083  12.059  1.00  0.00    -0.744 OA
ENDBRANCH 100 101
ENDBRANCH  68  93
ENDBRANCH  42  43
ENDBRANCH  34  37
ENDBRANCH  32  33
ENDBRANCH  31  32
ENDBRANCH  30  31
ENDBRANCH   1  30
TORSDOF 20
