REMARK SMILES Cc1ccc(NC(=O)C[C@@H]2C[NH2+]CCO2)c(C(=O)NCCCCNC(=O)c2ccc(-c3c4nc(c(-c5c(F)cc(S(=O)(=O)[O-])cc5F)c5ccc([nH]5)c(-c5c(F)cc(S(=O)(=O)[O-])cc5F)c5nc(c(-c6c(F)cc(S(=O)(=O)[O-])cc6F)c6ccc3[nH]6)C=C5)C=C4)cc2)c1
REMARK SMILES IDX 21 1 20 2 19 3 17 4 18 5 16 7 1 8 2 9 3 10 93 11 4 12 5 13
REMARK SMILES IDX 6 14 7 15 8 17 9 18 10 19 11 20 15 21 12 22 14 23 13 24
REMARK SMILES IDX 22 27 23 28 24 29 25 30 26 32 27 33 28 34 92 35 29 36 91 37
REMARK SMILES IDX 30 38 31 39 32 40 85 41 33 42 90 43 84 44 86 45 34 46 89 47
REMARK SMILES IDX 83 48 82 49 35 51 69 52 48 53 68 54 49 55 52 56 67 57 87 58
REMARK SMILES IDX 50 59 51 60 66 62 88 63 53 64 36 65 37 66 46 67 38 68 39 69
REMARK SMILES IDX 45 70 47 71 40 72 41 73 42 74 43 75 44 76 70 77 71 78 80 79
REMARK SMILES IDX 72 80 73 81 79 82 81 83 74 84 75 85 76 86 77 87 78 88 54 89
REMARK SMILES IDX 55 90 64 91 56 92 57 93 63 94 65 95 58 96 59 97 60 98 61 99
REMARK SMILES IDX 62 100
REMARK H PARENT 19 6 6 16 12 25 12 26 24 31 86 50 52 61
REMARK Flexibility Score: inf
ROOT
ATOM      1  C   UNL     1       1.121   4.357  -1.124  1.00  0.00     0.023 C 
ENDROOT
BRANCH   1   2
ATOM      2  C   UNL     1       0.272   4.044   0.120  1.00  0.00     0.116 C 
BRANCH   2   3
ATOM      3  N   UNL     1      -1.050   3.547  -0.241  1.00  0.00    -0.352 N 
ATOM      4  C   UNL     1      -1.620   2.297  -0.262  1.00  0.00     0.253 C 
ATOM      5  O   UNL     1      -2.825   2.250  -0.524  1.00  0.00    -0.269 OA
ATOM      6  H   UNL     1      -1.665   4.259  -0.533  1.00  0.00     0.163 HD
BRANCH   4   7
ATOM      7  C   UNL     1      -0.885   1.036   0.077  1.00  0.00     0.063 A 
ATOM      8  C   UNL     1       2.695  -0.289   0.020  1.00  0.00     0.044 C 
ATOM      9  C   UNL     1       1.222  -0.200   0.287  1.00  0.00    -0.050 A 
ATOM     10  C   UNL     1       0.538  -1.251   0.887  1.00  0.00     0.005 A 
ATOM     11  C   UNL     1       0.501   0.930  -0.115  1.00  0.00     0.019 A 
ATOM     12  C   UNL     1      -0.852  -1.204   1.002  1.00  0.00     0.027 A 
ATOM     13  C   UNL     1      -1.585  -0.117   0.510  1.00  0.00     0.054 A 
BRANCH  13  14
ATOM     14  N   UNL     1      -2.995  -0.177   0.366  1.00  0.00    -0.325 N 
ATOM     15  C   UNL     1      -3.829  -1.202   0.007  1.00  0.00     0.227 C 
ATOM     16  H   UNL     1      -3.457   0.670   0.560  1.00  0.00     0.169 HD
ATOM     17  O   UNL     1      -5.039  -0.968  -0.109  1.00  0.00    -0.275 OA
BRANCH  15  18
ATOM     18  C   UNL     1      -3.338  -2.606  -0.283  1.00  0.00     0.138 C 
BRANCH  18  19
ATOM     19  C   UNL     1      -2.556  -2.799  -1.593  1.00  0.00     0.182 C 
ATOM     20  C   UNL     1      -1.717  -4.101  -1.486  1.00  0.00     0.293 C 
ATOM     21  O   UNL     1      -1.715  -1.677  -1.871  1.00  0.00    -0.366 OA
ATOM     22  N   UNL     1      -0.814  -4.327  -2.631  1.00  0.00    -0.342 N 
ATOM     23  C   UNL     1      -0.857  -1.875  -2.993  1.00  0.00     0.222 C 
ATOM     24  C   UNL     1       0.015  -3.118  -2.798  1.00  0.00     0.289 C 
ATOM     25  H   UNL     1      -1.360  -4.493  -3.476  1.00  0.00     0.346 HD
ATOM     26  H   UNL     1      -0.224  -5.142  -2.463  1.00  0.00     0.346 HD
ENDBRANCH  18  19
ENDBRANCH  15  18
ENDBRANCH  13  14
ENDBRANCH   4   7
ENDBRANCH   2   3
ENDBRANCH   1   2
BRANCH   1  27
ATOM     27  C   UNL     1       0.622   5.555  -1.940  1.00  0.00     0.023 C 
BRANCH  27  28
ATOM     28  C   UNL     1       0.809   6.879  -1.209  1.00  0.00     0.116 C 
BRANCH  28  29
ATOM     29  N   UNL     1       1.822   7.746  -1.782  1.00  0.00    -0.352 N 
ATOM     30  C   UNL     1       2.161   9.027  -1.369  1.00  0.00     0.251 C 
ATOM     31  H   UNL     1       2.324   7.386  -2.549  1.00  0.00     0.163 HD
ATOM     32  O   UNL     1       2.787   9.793  -2.072  1.00  0.00    -0.269 OA
BRANCH  30  33
ATOM     33  C   UNL     1       1.853   9.370   0.040  1.00  0.00     0.039 A 
ATOM     34  C   UNL     1       2.946   9.502   0.906  1.00  0.00     0.014 A 
ATOM     35  C   UNL     1       0.555   9.265   0.533  1.00  0.00     0.014 A 
ATOM     36  C   UNL     1       2.757   9.341   2.276  1.00  0.00     0.010 A 
ATOM     37  C   UNL     1       0.382   9.029   1.885  1.00  0.00     0.010 A 
ATOM     38  C   UNL     1       1.489   9.011   2.748  1.00  0.00    -0.014 A 
BRANCH  38  39
ATOM     39  C   UNL     1       1.230   8.529   4.101  1.00  0.00     0.031 A 
ATOM     40  C   UNL     1       0.488   9.376   5.066  1.00  0.00     0.074 A 
ATOM     41  C   UNL     1       1.583   7.270   4.448  1.00  0.00     0.049 A 
ATOM     42  N   UNL     1       0.382   9.115   6.326  1.00  0.00    -0.248 NA
ATOM     43  C   UNL     1      -0.130  10.650   4.699  1.00  0.00     0.031 C 
ATOM     44  C   UNL     1       1.068   6.486   5.568  1.00  0.00     0.029 A 
ATOM     45  N   UNL     1       2.651   6.514   3.967  1.00  0.00    -0.354 N 
ATOM     46  C   UNL     1      -0.535   9.986   6.860  1.00  0.00     0.074 A 
ATOM     47  C   UNL     1      -0.717  10.996   5.850  1.00  0.00     0.031 C 
ATOM     48  C   UNL     1       1.924   5.489   5.839  1.00  0.00     0.029 A 
ATOM     49  C   UNL     1       3.102   5.693   5.016  1.00  0.00     0.049 A 
ATOM     50  H   UNL     1       3.023   6.548   3.057  1.00  0.00     0.167 HD
ATOM     51  C   UNL     1      -1.133   9.669   8.041  1.00  0.00     0.037 A 
ATOM     52  C   UNL     1       4.370   5.808   5.514  1.00  0.00     0.037 A 
ATOM     53  C   UNL     1      -0.384   8.620   8.735  1.00  0.00     0.049 A 
ATOM     54  C   UNL     1       4.437   6.232   6.965  1.00  0.00     0.074 A 
ATOM     55  C   UNL     1      -0.603   7.273   8.962  1.00  0.00     0.029 A 
ATOM     56  N   UNL     1       0.935   8.874   9.107  1.00  0.00    -0.354 N 
ATOM     57  N   UNL     1       3.424   6.701   7.640  1.00  0.00    -0.248 NA
ATOM     58  C   UNL     1       5.659   6.182   7.765  1.00  0.00     0.031 C 
ATOM     59  C   UNL     1       0.637   6.695   9.355  1.00  0.00     0.029 A 
ATOM     60  C   UNL     1       1.590   7.699   9.421  1.00  0.00     0.049 A 
ATOM     61  H   UNL     1       1.344   9.768   9.142  1.00  0.00     0.167 HD
ATOM     62  C   UNL     1       3.838   7.081   8.891  1.00  0.00     0.074 A 
ATOM     63  C   UNL     1       5.235   6.689   8.936  1.00  0.00     0.031 C 
ATOM     64  C   UNL     1       3.007   7.714   9.772  1.00  0.00     0.037 A 
BRANCH  51  65
ATOM     65  C   UNL     1      -2.497  10.168   8.492  1.00  0.00     0.058 A 
ATOM     66  C   UNL     1      -3.013   9.800   9.756  1.00  0.00     0.135 A 
ATOM     67  C   UNL     1      -3.411  10.879   7.678  1.00  0.00     0.135 A 
ATOM     68  F   UNL     1      -2.269   9.102  10.628  1.00  0.00    -0.206 F 
ATOM     69  C   UNL     1      -4.321  10.094  10.165  1.00  0.00     0.059 A 
ATOM     70  C   UNL     1      -4.700  11.228   8.085  1.00  0.00     0.059 A 
ATOM     71  F   UNL     1      -3.137  11.212   6.413  1.00  0.00    -0.206 F 
ATOM     72  C   UNL     1      -5.161  10.807   9.319  1.00  0.00     0.060 A 
BRANCH  72  73
ATOM     73  S   UNL     1      -6.861  11.150   9.813  1.00  0.00     0.124 S 
ATOM     74  O   UNL     1      -7.478   9.833   9.696  1.00  0.00    -0.237 OA
ATOM     75  O   UNL     1      -6.700  11.661  11.169  1.00  0.00    -0.237 OA
ATOM     76  O   UNL     1      -7.307  12.135   8.830  1.00  0.00    -0.744 OA
ENDBRANCH  72  73
ENDBRANCH  51  65
BRANCH  52  77
ATOM     77  C   UNL     1       5.380   6.125   4.469  1.00  0.00     0.058 A 
ATOM     78  C   UNL     1       5.669   5.115   3.532  1.00  0.00     0.135 A 
ATOM     79  C   UNL     1       5.658   7.450   4.106  1.00  0.00     0.135 A 
ATOM     80  F   UNL     1       5.447   3.827   3.843  1.00  0.00    -0.206 F 
ATOM     81  C   UNL     1       6.027   5.417   2.225  1.00  0.00     0.059 A 
ATOM     82  C   UNL     1       6.027   7.776   2.799  1.00  0.00     0.059 A 
ATOM     83  F   UNL     1       5.413   8.452   4.963  1.00  0.00    -0.206 F 
ATOM     84  C   UNL     1       6.123   6.755   1.851  1.00  0.00     0.060 A 
BRANCH  84  85
ATOM     85  S   UNL     1       6.158   7.129   0.081  1.00  0.00     0.124 S 
ATOM     86  O   UNL     1       7.307   6.353  -0.373  1.00  0.00    -0.237 OA
ATOM     87  O   UNL     1       4.851   6.629  -0.344  1.00  0.00    -0.237 OA
ATOM     88  O   UNL     1       6.321   8.577   0.049  1.00  0.00    -0.744 OA
ENDBRANCH  84  85
ENDBRANCH  52  77
BRANCH  64  89
ATOM     89  C   UNL     1       3.442   8.353  11.073  1.00  0.00     0.058 A 
ATOM     90  C   UNL     1       4.708   8.926  11.287  1.00  0.00     0.135 A 
ATOM     91  C   UNL     1       2.515   8.520  12.130  1.00  0.00     0.135 A 
ATOM     92  F   UNL     1       5.636   8.949  10.319  1.00  0.00    -0.206 F 
ATOM     93  C   UNL     1       5.061   9.543  12.490  1.00  0.00     0.059 A 
ATOM     94  C   UNL     1       2.828   9.181  13.317  1.00  0.00     0.059 A 
ATOM     95  F   UNL     1       1.262   8.050  12.038  1.00  0.00    -0.206 F 
ATOM     96  C   UNL     1       4.116   9.662  13.503  1.00  0.00     0.060 A 
BRANCH  96  97
ATOM     97  S   UNL     1       4.542  10.496  15.044  1.00  0.00     0.124 S 
ATOM     98  O   UNL     1       4.925   9.369  15.888  1.00  0.00    -0.237 OA
ATOM     99  O   UNL     1       5.632  11.383  14.648  1.00  0.00    -0.237 OA
ATOM    100  O   UNL     1       3.299  11.169  15.408  1.00  0.00    -0.744 OA
ENDBRANCH  96  97
ENDBRANCH  64  89
ENDBRANCH  38  39
ENDBRANCH  30  33
ENDBRANCH  28  29
ENDBRANCH  27  28
ENDBRANCH   1  27
TORSDOF 17
