REMARK SMILES Cc1cc(N(C)C2CCC(C)(C)CC2)cc(C(=O)NCCCCNC(=O)c2ccc(-c3c4nc(c(-c5c(F)cc(S(=O)(=O)[O-])cc5F)c5ccc([nH]5)c(-c5c(F)cc(S(=O)(=O)[O-])cc5F)c5nc(c(-c6c(F)cc(S(=O)(=O)[O-])cc6F)c6ccc3[nH]6)C=C5)C=C4)cc2)c1N
REMARK SMILES IDX 22 1 21 2 20 3 19 4 17 5 18 6 16 8 1 9 2 10 3 11 93 12 4 13
REMARK SMILES IDX 15 14 94 15 5 18 6 19 7 20 8 21 14 22 9 23 13 24 10 25 11 26
REMARK SMILES IDX 12 27 23 28 24 29 25 30 26 32 27 33 28 34 92 35 29 36 91 37
REMARK SMILES IDX 30 38 31 39 32 40 85 41 33 42 90 43 84 44 86 45 34 46 89 47
REMARK SMILES IDX 83 48 82 49 35 51 69 52 48 53 68 54 49 55 52 56 67 57 87 58
REMARK SMILES IDX 50 59 51 60 66 62 88 63 53 64 36 65 37 66 46 67 38 68 39 69
REMARK SMILES IDX 45 70 47 71 40 72 41 73 42 74 43 75 44 76 70 77 71 78 80 79
REMARK SMILES IDX 72 80 73 81 79 82 81 83 74 84 75 85 76 86 77 87 78 88 54 89
REMARK SMILES IDX 55 90 64 91 56 92 57 93 63 94 65 95 58 96 59 97 60 98 61 99
REMARK SMILES IDX 62 100
REMARK H PARENT 19 7 94 16 94 17 24 31 86 50 52 61
REMARK Flexibility Score: inf
ROOT
ATOM      1  C   UNL     1      -4.500  -4.730  -1.427  1.00  0.00     0.023 C 
ENDROOT
BRANCH   1   2
ATOM      2  C   UNL     1      -4.017  -3.384  -0.884  1.00  0.00     0.023 C 
BRANCH   2   3
ATOM      3  C   UNL     1      -3.068  -3.519   0.308  1.00  0.00     0.116 C 
BRANCH   3   4
ATOM      4  N   UNL     1      -1.756  -3.902  -0.174  1.00  0.00    -0.352 N 
ATOM      5  C   UNL     1      -0.658  -3.137  -0.489  1.00  0.00     0.253 C 
ATOM      6  O   UNL     1       0.309  -3.701  -1.002  1.00  0.00    -0.269 OA
ATOM      7  H   UNL     1      -1.630  -4.871  -0.296  1.00  0.00     0.163 HD
BRANCH   5   8
ATOM      8  C   UNL     1      -0.580  -1.701  -0.089  1.00  0.00     0.065 A 
ATOM      9  C   UNL     1       1.849   0.717   1.540  1.00  0.00     0.046 C 
ATOM     10  C   UNL     1       0.595   0.006   1.113  1.00  0.00    -0.025 A 
ATOM     11  C   UNL     1      -0.630   0.675   1.261  1.00  0.00     0.031 A 
ATOM     12  C   UNL     1       0.628  -1.221   0.450  1.00  0.00     0.047 A 
ATOM     13  C   UNL     1      -1.718   0.407   0.434  1.00  0.00     0.038 A 
ATOM     14  C   UNL     1      -1.676  -0.828  -0.219  1.00  0.00     0.042 A 
BRANCH  12  15
ATOM     15  N   UNL     1       1.829  -1.893   0.270  1.00  0.00    -0.398 N 
ATOM     16  H   UNL     1       2.659  -1.532   0.659  1.00  0.00     0.156 HD
ATOM     17  H   UNL     1       1.852  -2.731  -0.247  1.00  0.00     0.156 HD
ENDBRANCH  12  15
BRANCH  13  18
ATOM     18  N   UNL     1      -2.736   1.328   0.205  1.00  0.00    -0.372 N 
ATOM     19  C   UNL     1      -4.112   0.816   0.264  1.00  0.00     0.144 C 
BRANCH  18  20
ATOM     20  C   UNL     1      -2.586   2.824   0.158  1.00  0.00     0.082 C 
ATOM     21  C   UNL     1      -1.191   3.425   0.325  1.00  0.00     0.025 C 
ATOM     22  C   UNL     1      -3.156   3.451  -1.138  1.00  0.00     0.025 C 
ATOM     23  C   UNL     1      -0.271   2.993  -0.809  1.00  0.00     0.008 C 
ATOM     24  C   UNL     1      -2.203   3.688  -2.337  1.00  0.00     0.008 C 
ATOM     25  C   UNL     1      -0.661   3.663  -2.125  1.00  0.00    -0.035 C 
ATOM     26  C   UNL     1      -0.011   2.877  -3.285  1.00  0.00     0.011 C 
ATOM     27  C   UNL     1      -0.052   5.080  -2.125  1.00  0.00     0.011 C 
ENDBRANCH  18  20
ENDBRANCH  13  18
ENDBRANCH   5   8
ENDBRANCH   3   4
ENDBRANCH   2   3
ENDBRANCH   1   2
BRANCH   1  28
ATOM     28  C   UNL     1      -5.352  -5.523  -0.448  1.00  0.00     0.116 C 
BRANCH  28  29
ATOM     29  N   UNL     1      -6.540  -4.800  -0.014  1.00  0.00    -0.352 N 
ATOM     30  C   UNL     1      -7.744  -5.335   0.373  1.00  0.00     0.251 C 
ATOM     31  H   UNL     1      -6.472  -3.818   0.004  1.00  0.00     0.163 HD
ATOM     32  O   UNL     1      -8.708  -4.616   0.617  1.00  0.00    -0.269 OA
BRANCH  30  33
ATOM     33  C   UNL     1      -7.852  -6.803   0.439  1.00  0.00     0.039 A 
ATOM     34  C   UNL     1      -8.784  -7.447  -0.374  1.00  0.00     0.014 A 
ATOM     35  C   UNL     1      -6.935  -7.529   1.204  1.00  0.00     0.014 A 
ATOM     36  C   UNL     1      -8.751  -8.837  -0.473  1.00  0.00     0.010 A 
ATOM     37  C   UNL     1      -6.860  -8.907   1.048  1.00  0.00     0.010 A 
ATOM     38  C   UNL     1      -7.763  -9.572   0.204  1.00  0.00    -0.014 A 
BRANCH  38  39
ATOM     39  C   UNL     1      -7.644 -11.039   0.027  1.00  0.00     0.031 A 
ATOM     40  C   UNL     1      -7.871 -11.954   1.196  1.00  0.00     0.074 A 
ATOM     41  C   UNL     1      -7.261 -11.536  -1.165  1.00  0.00     0.049 A 
ATOM     42  N   UNL     1      -7.756 -13.255   1.259  1.00  0.00    -0.248 NA
ATOM     43  C   UNL     1      -8.247 -11.321   2.471  1.00  0.00     0.031 C 
ATOM     44  C   UNL     1      -6.952 -10.739  -2.356  1.00  0.00     0.029 A 
ATOM     45  N   UNL     1      -7.054 -12.830  -1.572  1.00  0.00    -0.354 N 
ATOM     46  C   UNL     1      -8.032 -13.594   2.578  1.00  0.00     0.074 A 
ATOM     47  C   UNL     1      -8.264 -12.359   3.294  1.00  0.00     0.031 C 
ATOM     48  C   UNL     1      -6.618 -11.562  -3.363  1.00  0.00     0.029 A 
ATOM     49  C   UNL     1      -6.656 -12.940  -2.883  1.00  0.00     0.049 A 
ATOM     50  H   UNL     1      -7.178 -13.606  -0.980  1.00  0.00     0.167 HD
ATOM     51  C   UNL     1      -8.110 -14.826   3.135  1.00  0.00     0.037 A 
ATOM     52  C   UNL     1      -6.353 -14.030  -3.615  1.00  0.00     0.037 A 
ATOM     53  C   UNL     1      -7.900 -16.050   2.408  1.00  0.00     0.049 A 
ATOM     54  C   UNL     1      -6.460 -15.389  -2.979  1.00  0.00     0.074 A 
ATOM     55  C   UNL     1      -8.016 -17.351   2.863  1.00  0.00     0.029 A 
ATOM     56  N   UNL     1      -7.530 -16.124   1.073  1.00  0.00    -0.354 N 
ATOM     57  N   UNL     1      -6.793 -15.698  -1.748  1.00  0.00    -0.248 NA
ATOM     58  C   UNL     1      -6.159 -16.548  -3.830  1.00  0.00     0.031 C 
ATOM     59  C   UNL     1      -7.677 -18.212   1.813  1.00  0.00     0.029 A 
ATOM     60  C   UNL     1      -7.396 -17.448   0.691  1.00  0.00     0.049 A 
ATOM     61  H   UNL     1      -7.384 -15.349   0.483  1.00  0.00     0.167 HD
ATOM     62  C   UNL     1      -6.768 -17.086  -1.684  1.00  0.00     0.074 A 
ATOM     63  C   UNL     1      -6.396 -17.557  -3.003  1.00  0.00     0.031 C 
ATOM     64  C   UNL     1      -7.032 -17.898  -0.630  1.00  0.00     0.037 A 
BRANCH  51  65
ATOM     65  C   UNL     1      -8.440 -14.903   4.599  1.00  0.00     0.058 A 
ATOM     66  C   UNL     1      -9.717 -14.574   5.084  1.00  0.00     0.135 A 
ATOM     67  C   UNL     1      -7.477 -15.327   5.529  1.00  0.00     0.135 A 
ATOM     68  F   UNL     1     -10.671 -14.146   4.241  1.00  0.00    -0.206 F 
ATOM     69  C   UNL     1     -10.016 -14.626   6.441  1.00  0.00     0.059 A 
ATOM     70  C   UNL     1      -7.763 -15.415   6.888  1.00  0.00     0.059 A 
ATOM     71  F   UNL     1      -6.241 -15.653   5.121  1.00  0.00    -0.206 F 
ATOM     72  C   UNL     1      -9.031 -15.045   7.336  1.00  0.00     0.060 A 
BRANCH  72  73
ATOM     73  S   UNL     1      -9.433 -15.103   9.095  1.00  0.00     0.124 S 
ATOM     74  O   UNL     1      -9.433 -13.684   9.438  1.00  0.00    -0.237 OA
ATOM     75  O   UNL     1     -10.739 -15.754   9.096  1.00  0.00    -0.237 OA
ATOM     76  O   UNL     1      -8.343 -15.887   9.667  1.00  0.00    -0.744 OA
ENDBRANCH  72  73
ENDBRANCH  51  65
BRANCH  52  77
ATOM     77  C   UNL     1      -5.955 -13.879  -5.040  1.00  0.00     0.058 A 
ATOM     78  C   UNL     1      -6.821 -14.264  -6.074  1.00  0.00     0.135 A 
ATOM     79  C   UNL     1      -4.716 -13.324  -5.396  1.00  0.00     0.135 A 
ATOM     80  F   UNL     1      -8.014 -14.804  -5.782  1.00  0.00    -0.206 F 
ATOM     81  C   UNL     1      -6.470 -14.116  -7.412  1.00  0.00     0.059 A 
ATOM     82  C   UNL     1      -4.352 -13.144  -6.728  1.00  0.00     0.059 A 
ATOM     83  F   UNL     1      -3.860 -12.923  -4.444  1.00  0.00    -0.206 F 
ATOM     84  C   UNL     1      -5.233 -13.552  -7.729  1.00  0.00     0.060 A 
BRANCH  84  85
ATOM     85  S   UNL     1      -4.812 -13.311  -9.469  1.00  0.00     0.124 S 
ATOM     86  O   UNL     1      -4.526 -14.676  -9.893  1.00  0.00    -0.237 OA
ATOM     87  O   UNL     1      -6.036 -12.719 -10.001  1.00  0.00    -0.237 OA
ATOM     88  O   UNL     1      -3.664 -12.411  -9.414  1.00  0.00    -0.744 OA
ENDBRANCH  84  85
ENDBRANCH  52  77
BRANCH  64  89
ATOM     89  C   UNL     1      -6.961 -19.381  -0.865  1.00  0.00     0.058 A 
ATOM     90  C   UNL     1      -5.735 -20.047  -1.012  1.00  0.00     0.135 A 
ATOM     91  C   UNL     1      -8.135 -20.151  -0.882  1.00  0.00     0.135 A 
ATOM     92  F   UNL     1      -4.585 -19.355  -1.009  1.00  0.00    -0.206 F 
ATOM     93  C   UNL     1      -5.676 -21.425  -1.189  1.00  0.00     0.059 A 
ATOM     94  C   UNL     1      -8.098 -21.534  -1.032  1.00  0.00     0.059 A 
ATOM     95  F   UNL     1      -9.333 -19.563  -0.735  1.00  0.00    -0.206 F 
ATOM     96  C   UNL     1      -6.864 -22.161  -1.195  1.00  0.00     0.060 A 
BRANCH  96  97
ATOM     97  S   UNL     1      -6.771 -23.953  -1.386  1.00  0.00     0.124 S 
ATOM     98  O   UNL     1      -6.471 -24.082  -2.808  1.00  0.00    -0.237 OA
ATOM     99  O   UNL     1      -5.689 -24.311  -0.474  1.00  0.00    -0.237 OA
ATOM    100  O   UNL     1      -8.099 -24.407  -0.981  1.00  0.00    -0.744 OA
ENDBRANCH  96  97
ENDBRANCH  64  89
ENDBRANCH  38  39
ENDBRANCH  30  33
ENDBRANCH  28  29
ENDBRANCH   1  28
TORSDOF 17
