REMARK SMILES Cc1ccc(N2C(=O)[NH+]=C(NCCCCNC(=O)c3ccc(-c4c5nc(c(-c6c(F)cc(S(=O)(=O)[O-])cc6F)c6ccc([nH]6)c(-c6c(F)cc(S(=O)(=O)[O-])cc6F)c6nc(c(-c7c(F)cc(S(=O)(=O)[O-])cc7F)c7ccc4[nH]7)C=C6)C=C5)cc3)/C(=C\c3ccccc3OCc3cccc(C(=O)[O-])c3)C2=O)cc1
REMARK SMILES IDX 13 1 12 2 11 3 6 4 7 5 104 6 8 7 9 8 85 9 105 10 10 11 86 13
REMARK SMILES IDX 5 15 1 16 2 17 3 18 107 19 4 20 106 21 87 22 88 23 92 24
REMARK SMILES IDX 89 25 91 26 90 27 93 28 94 29 95 30 96 31 103 32 97 33 99 34
REMARK SMILES IDX 98 35 100 36 101 37 102 38 14 39 15 40 16 41 17 42 18 44
REMARK SMILES IDX 19 45 20 46 84 47 21 48 83 49 22 50 23 51 24 52 77 53 25 54
REMARK SMILES IDX 82 55 76 56 78 57 26 58 81 59 75 60 74 61 27 63 61 64 40 65
REMARK SMILES IDX 60 66 41 67 44 68 59 69 79 70 42 71 43 72 58 74 80 75 45 76
REMARK SMILES IDX 28 77 29 78 38 79 30 80 31 81 37 82 39 83 32 84 33 85 34 86
REMARK SMILES IDX 35 87 36 88 62 89 63 90 72 91 64 92 65 93 71 94 73 95 66 96
REMARK SMILES IDX 67 97 68 98 69 99 70 100 46 101 47 102 56 103 48 104 49 105
REMARK SMILES IDX 55 106 57 107 50 108 51 109 52 110 53 111 54 112
REMARK H PARENT 9 12 11 14 16 43 78 62 44 73
REMARK Flexibility Score: inf
ROOT
ATOM      1  C   UNL     1      -8.971   0.990   3.077  1.00  0.00     0.039 C 
ENDROOT
BRANCH   1   2
ATOM      2  C   UNL     1      -7.928   0.340   2.083  1.00  0.00     0.194 C 
BRANCH   2   3
ATOM      3  N   UNL     1      -7.228   1.241   1.127  1.00  0.00    -0.305 N 
ATOM      4  N   UNL     1      -3.076   0.843   0.386  1.00  0.00    -0.155 N 
ATOM      5  C   UNL     1      -3.771   0.193   1.417  1.00  0.00     0.448 C 
ATOM      6  C   UNL     1      -3.717   1.718  -0.479  1.00  0.00     0.328 C 
ATOM      7  O   UNL     1      -3.191  -0.547   2.215  1.00  0.00    -0.212 OA
ATOM      8  N   UNL     1      -5.102   0.444   1.624  1.00  0.00    -0.209 N 
ATOM      9  C   UNL     1      -5.214   1.645  -0.449  1.00  0.00     0.129 C 
ATOM     10  O   UNL     1      -3.148   2.422  -1.318  1.00  0.00    -0.249 OA
ATOM     11  C   UNL     1      -5.869   1.086   0.788  1.00  0.00     0.236 C 
ATOM     12  H   UNL     1      -5.506   0.117   2.461  1.00  0.00     0.270 HD
ATOM     13  C   UNL     1      -5.750   1.897  -1.661  1.00  0.00     0.034 C 
ATOM     14  H   UNL     1      -7.736   1.976   0.713  1.00  0.00     0.256 HD
BRANCH   4  15
ATOM     15  C   UNL     1      -1.650   0.618   0.239  1.00  0.00     0.111 A 
ATOM     16  C   UNL     1       2.636  -0.055  -0.060  1.00  0.00     0.044 C 
ATOM     17  C   UNL     1       1.157   0.180   0.023  1.00  0.00    -0.051 A 
ATOM     18  C   UNL     1       0.285  -0.887   0.247  1.00  0.00     0.007 A 
ATOM     19  C   UNL     1       0.619   1.460  -0.130  1.00  0.00     0.007 A 
ATOM     20  C   UNL     1      -1.095  -0.667   0.368  1.00  0.00     0.044 A 
ATOM     21  C   UNL     1      -0.764   1.672  -0.035  1.00  0.00     0.044 A 
ENDBRANCH   4  15
BRANCH  13  22
ATOM     22  C   UNL     1      -7.071   1.543  -2.172  1.00  0.00     0.018 A 
ATOM     23  C   UNL     1      -7.775   2.513  -2.905  1.00  0.00     0.012 A 
ATOM     24  C   UNL     1      -7.600   0.253  -2.054  1.00  0.00     0.127 A 
ATOM     25  C   UNL     1      -9.056   2.247  -3.387  1.00  0.00     0.001 A 
ATOM     26  C   UNL     1      -8.868  -0.007  -2.554  1.00  0.00     0.047 A 
ATOM     27  C   UNL     1      -9.616   0.993  -3.178  1.00  0.00     0.004 A 
BRANCH  24  28
ATOM     28  O   UNL     1      -6.997  -0.752  -1.343  1.00  0.00    -0.488 OA
BRANCH  28  29
ATOM     29  C   UNL     1      -5.818  -1.269  -1.957  1.00  0.00     0.265 C 
BRANCH  29  30
ATOM     30  C   UNL     1      -5.323  -2.479  -1.196  1.00  0.00    -0.010 A 
ATOM     31  C   UNL     1      -3.952  -2.769  -1.122  1.00  0.00     0.007 A 
ATOM     32  C   UNL     1      -6.234  -3.401  -0.673  1.00  0.00     0.017 A 
ATOM     33  C   UNL     1      -3.502  -3.958  -0.541  1.00  0.00     0.001 A 
ATOM     34  C   UNL     1      -5.790  -4.625  -0.156  1.00  0.00    -0.002 A 
ATOM     35  C   UNL     1      -4.420  -4.895  -0.073  1.00  0.00     0.010 A 
BRANCH  34  36
ATOM     36  C   UNL     1      -6.752  -5.691   0.161  1.00  0.00     0.071 C 
ATOM     37  O   UNL     1      -6.479  -6.886   0.334  1.00  0.00    -0.545 OA
ATOM     38  O   UNL     1      -8.004  -5.245   0.154  1.00  0.00    -0.545 OA
ENDBRANCH  34  36
ENDBRANCH  29  30
ENDBRANCH  28  29
ENDBRANCH  24  28
ENDBRANCH  13  22
ENDBRANCH   2   3
ENDBRANCH   1   2
BRANCH   1  39
ATOM     39  C   UNL     1     -10.533   1.399   2.820  1.00  0.00     0.024 C 
BRANCH  39  40
ATOM     40  C   UNL     1     -11.677   0.279   2.974  1.00  0.00     0.116 C 
BRANCH  40  41
ATOM     41  N   UNL     1     -13.267   0.450   2.665  1.00  0.00    -0.352 N 
ATOM     42  C   UNL     1     -14.444   0.127   1.847  1.00  0.00     0.251 C 
ATOM     43  H   UNL     1     -13.598   1.064   3.359  1.00  0.00     0.163 HD
ATOM     44  O   UNL     1     -15.505   0.295   2.485  1.00  0.00    -0.269 OA
BRANCH  42  45
ATOM     45  C   UNL     1     -14.722  -0.534   0.412  1.00  0.00     0.039 A 
ATOM     46  C   UNL     1     -15.420  -1.769   0.277  1.00  0.00     0.014 A 
ATOM     47  C   UNL     1     -14.296  -0.048  -0.814  1.00  0.00     0.014 A 
ATOM     48  C   UNL     1     -15.067  -2.700  -0.762  1.00  0.00     0.010 A 
ATOM     49  C   UNL     1     -13.959  -0.954  -1.856  1.00  0.00     0.010 A 
ATOM     50  C   UNL     1     -14.132  -2.334  -1.730  1.00  0.00    -0.014 A 
BRANCH  50  51
ATOM     51  C   UNL     1     -13.285  -3.282  -2.542  1.00  0.00     0.031 A 
ATOM     52  C   UNL     1     -13.587  -3.524  -3.953  1.00  0.00     0.074 A 
ATOM     53  C   UNL     1     -12.118  -3.876  -2.155  1.00  0.00     0.049 A 
ATOM     54  N   UNL     1     -13.566  -4.674  -4.536  1.00  0.00    -0.248 NA
ATOM     55  C   UNL     1     -13.855  -2.416  -4.849  1.00  0.00     0.031 C 
ATOM     56  C   UNL     1     -11.200  -4.813  -2.833  1.00  0.00     0.029 A 
ATOM     57  N   UNL     1     -11.528  -3.829  -0.913  1.00  0.00    -0.354 N 
ATOM     58  C   UNL     1     -13.465  -4.426  -5.889  1.00  0.00     0.074 A 
ATOM     59  C   UNL     1     -13.791  -3.025  -6.034  1.00  0.00     0.031 C 
ATOM     60  C   UNL     1     -10.551  -5.551  -1.905  1.00  0.00     0.029 A 
ATOM     61  C   UNL     1     -10.988  -5.080  -0.611  1.00  0.00     0.049 A 
ATOM     62  H   UNL     1     -11.493  -3.038  -0.328  1.00  0.00     0.167 HD
ATOM     63  C   UNL     1     -12.923  -5.361  -6.729  1.00  0.00     0.037 A 
ATOM     64  C   UNL     1     -11.526  -5.781   0.431  1.00  0.00     0.037 A 
ATOM     65  C   UNL     1     -12.407  -6.509  -5.962  1.00  0.00     0.049 A 
ATOM     66  C   UNL     1     -12.316  -6.937  -0.147  1.00  0.00     0.074 A 
ATOM     67  C   UNL     1     -11.123  -6.917  -5.627  1.00  0.00     0.029 A 
ATOM     68  N   UNL     1     -13.258  -7.214  -5.106  1.00  0.00    -0.354 N 
ATOM     69  N   UNL     1     -12.666  -6.967  -1.409  1.00  0.00    -0.248 NA
ATOM     70  C   UNL     1     -12.627  -8.193   0.530  1.00  0.00     0.031 C 
ATOM     71  C   UNL     1     -11.208  -7.740  -4.467  1.00  0.00     0.029 A 
ATOM     72  C   UNL     1     -12.542  -7.852  -4.105  1.00  0.00     0.049 A 
ATOM     73  H   UNL     1     -14.238  -7.252  -5.202  1.00  0.00     0.167 HD
ATOM     74  C   UNL     1     -13.045  -8.224  -1.762  1.00  0.00     0.074 A 
ATOM     75  C   UNL     1     -13.072  -8.946  -0.498  1.00  0.00     0.031 C 
ATOM     76  C   UNL     1     -13.220  -8.618  -3.060  1.00  0.00     0.037 A 
BRANCH  63  77
ATOM     77  C   UNL     1     -12.594  -5.062  -8.188  1.00  0.00     0.058 A 
ATOM     78  C   UNL     1     -11.553  -5.720  -8.876  1.00  0.00     0.135 A 
ATOM     79  C   UNL     1     -13.302  -4.125  -8.976  1.00  0.00     0.135 A 
ATOM     80  F   UNL     1     -10.850  -6.707  -8.306  1.00  0.00    -0.206 F 
ATOM     81  C   UNL     1     -11.193  -5.415 -10.196  1.00  0.00     0.059 A 
ATOM     82  C   UNL     1     -12.918  -3.751 -10.270  1.00  0.00     0.059 A 
ATOM     83  F   UNL     1     -14.450  -3.583  -8.547  1.00  0.00    -0.206 F 
ATOM     84  C   UNL     1     -11.866  -4.412 -10.880  1.00  0.00     0.060 A 
BRANCH  84  85
ATOM     85  S   UNL     1     -11.410  -4.051 -12.588  1.00  0.00     0.124 S 
ATOM     86  O   UNL     1      -9.986  -3.755 -12.476  1.00  0.00    -0.237 OA
ATOM     87  O   UNL     1     -11.747  -5.301 -13.261  1.00  0.00    -0.237 OA
ATOM     88  O   UNL     1     -12.255  -2.911 -12.935  1.00  0.00    -0.744 OA
ENDBRANCH  84  85
ENDBRANCH  63  77
BRANCH  64  89
ATOM     89  C   UNL     1     -11.775  -4.856   1.623  1.00  0.00     0.058 A 
ATOM     90  C   UNL     1     -10.616  -4.124   1.982  1.00  0.00     0.135 A 
ATOM     91  C   UNL     1     -12.914  -4.073   1.615  1.00  0.00     0.135 A 
ATOM     92  F   UNL     1      -9.522  -4.781   2.385  1.00  0.00    -0.206 F 
ATOM     93  C   UNL     1     -10.463  -2.778   1.617  1.00  0.00     0.059 A 
ATOM     94  C   UNL     1     -12.788  -2.682   1.449  1.00  0.00     0.059 A 
ATOM     95  F   UNL     1     -14.136  -4.630   1.604  1.00  0.00    -0.206 F 
ATOM     96  C   UNL     1     -11.564  -2.095   1.136  1.00  0.00     0.060 A 
BRANCH  96  97
ATOM     97  S   UNL     1     -11.212  -0.585   0.006  1.00  0.00     0.124 S 
ATOM     98  O   UNL     1      -9.856  -0.234   0.361  1.00  0.00    -0.237 OA
ATOM     99  O   UNL     1     -11.315  -1.144  -1.326  1.00  0.00    -0.237 OA
ATOM    100  O   UNL     1     -12.111   0.505   0.327  1.00  0.00    -0.744 OA
ENDBRANCH  96  97
ENDBRANCH  64  89
BRANCH  76 101
ATOM    101  C   UNL     1     -13.940  -9.873  -3.457  1.00  0.00     0.058 A 
ATOM    102  C   UNL     1     -14.982 -10.421  -2.693  1.00  0.00     0.135 A 
ATOM    103  C   UNL     1     -13.712 -10.470  -4.719  1.00  0.00     0.135 A 
ATOM    104  F   UNL     1     -15.376  -9.860  -1.540  1.00  0.00    -0.206 F 
ATOM    105  C   UNL     1     -15.684 -11.548  -3.104  1.00  0.00     0.059 A 
ATOM    106  C   UNL     1     -14.449 -11.551  -5.179  1.00  0.00     0.059 A 
ATOM    107  F   UNL     1     -12.772 -10.013  -5.560  1.00  0.00    -0.206 F 
ATOM    108  C   UNL     1     -15.406 -12.109  -4.347  1.00  0.00     0.060 A 
BRANCH 108 109
ATOM    109  S   UNL     1     -16.324 -13.558  -4.877  1.00  0.00     0.124 S 
ATOM    110  O   UNL     1     -15.590 -14.623  -4.199  1.00  0.00    -0.237 OA
ATOM    111  O   UNL     1     -17.665 -13.290  -4.365  1.00  0.00    -0.237 OA
ATOM    112  O   UNL     1     -16.196 -13.528  -6.330  1.00  0.00    -0.744 OA
ENDBRANCH 108 109
ENDBRANCH  76 101
ENDBRANCH  50  51
ENDBRANCH  42  45
ENDBRANCH  40  41
ENDBRANCH  39  40
ENDBRANCH   1  39
TORSDOF 19
