REMARK SMILES CCC1C[NH+]([C@H]2COC[C@@]2(C)C(=O)NCCCCNC(=O)c2ccc(-c3c4nc(c(-c5c(F)cc(S(=O)(=O)[O-])cc5F)c5ccc([nH]5)c(-c5c(F)cc(S(=O)(=O)[O-])cc5F)c5nc(c(-c6c(F)cc(S(=O)(=O)[O-])cc6F)c6ccc3[nH]6)C=C5)C=C4)cc2)C1
REMARK SMILES IDX 17 1 16 2 15 3 14 4 12 5 13 6 10 8 6 9 7 10 8 11 9 12 11 13
REMARK SMILES IDX 5 14 3 15 4 16 88 17 2 19 1 20 18 21 19 22 20 23 21 25 22 26
REMARK SMILES IDX 23 27 87 28 24 29 86 30 25 31 26 32 27 33 80 34 28 35 85 36
REMARK SMILES IDX 79 37 81 38 29 39 84 40 78 41 77 42 30 44 64 45 43 46 63 47
REMARK SMILES IDX 44 48 47 49 62 50 82 51 45 52 46 53 61 55 83 56 48 57 31 58
REMARK SMILES IDX 32 59 41 60 33 61 34 62 40 63 42 64 35 65 36 66 37 67 38 68
REMARK SMILES IDX 39 69 65 70 66 71 75 72 67 73 68 74 74 75 76 76 69 77 70 78
REMARK SMILES IDX 71 79 72 80 73 81 49 82 50 83 59 84 51 85 52 86 58 87 60 88
REMARK SMILES IDX 53 89 54 90 55 91 56 92 57 93
REMARK H PARENT 14 7 5 18 19 24 81 43 47 54
REMARK Flexibility Score: inf
ROOT
ATOM      1  C   UNL     1       5.787   4.279   4.992  1.00  0.00     0.023 C 
ENDROOT
BRANCH   1   2
ATOM      2  C   UNL     1       5.126   3.594   3.789  1.00  0.00     0.023 C 
BRANCH   2   3
ATOM      3  C   UNL     1       3.899   4.335   3.251  1.00  0.00     0.116 C 
BRANCH   3   4
ATOM      4  N   UNL     1       4.323   5.519   2.536  1.00  0.00    -0.355 N 
ATOM      5  C   UNL     1       4.575   5.710   1.213  1.00  0.00     0.234 C 
ATOM      6  O   UNL     1       5.301   6.670   0.933  1.00  0.00    -0.274 OA
ATOM      7  H   UNL     1       4.450   6.316   3.099  1.00  0.00     0.163 HD
BRANCH   5   8
ATOM      8  C   UNL     1       3.969   4.816   0.122  1.00  0.00     0.123 C 
ATOM      9  C   UNL     1       2.441   5.011  -0.081  1.00  0.00     0.228 C 
ATOM     10  C   UNL     1       2.293   4.563  -1.544  1.00  0.00     0.226 C 
ATOM     11  O   UNL     1       3.510   4.877  -2.234  1.00  0.00    -0.374 OA
ATOM     12  C   UNL     1       4.496   5.256  -1.255  1.00  0.00     0.183 C 
ATOM     13  C   UNL     1       4.354   3.327   0.282  1.00  0.00     0.031 C 
BRANCH   9  14
ATOM     14  N   UNL     1       1.925   6.335   0.317  1.00  0.00    -0.329 N 
ATOM     15  C   UNL     1       1.047   8.167  -0.131  1.00  0.00     0.099 C 
ATOM     16  C   UNL     1       0.554   6.686  -0.150  1.00  0.00     0.271 C 
ATOM     17  C   UNL     1       2.423   7.511  -0.439  1.00  0.00     0.271 C 
ATOM     18  H   UNL     1       2.139   6.217   1.307  1.00  0.00     0.348 HD
BRANCH  15  19
ATOM     19  C   UNL     1       0.564   9.175  -1.161  1.00  0.00     0.012 C 
ATOM     20  C   UNL     1       1.060  10.567  -0.789  1.00  0.00     0.004 C 
ENDBRANCH  15  19
ENDBRANCH   9  14
ENDBRANCH   5   8
ENDBRANCH   3   4
ENDBRANCH   2   3
ENDBRANCH   1   2
BRANCH   1  21
ATOM     21  C   UNL     1       4.895   4.413   6.221  1.00  0.00     0.116 C 
BRANCH  21  22
ATOM     22  N   UNL     1       4.379   3.134   6.681  1.00  0.00    -0.352 N 
ATOM     23  C   UNL     1       4.185   2.691   7.965  1.00  0.00     0.251 C 
ATOM     24  H   UNL     1       4.135   2.497   5.972  1.00  0.00     0.163 HD
ATOM     25  O   UNL     1       3.874   1.517   8.161  1.00  0.00    -0.269 OA
BRANCH  23  26
ATOM     26  C   UNL     1       4.383   3.611   9.103  1.00  0.00     0.039 A 
ATOM     27  C   UNL     1       5.084   3.151  10.219  1.00  0.00     0.014 A 
ATOM     28  C   UNL     1       3.893   4.921   9.071  1.00  0.00     0.014 A 
ATOM     29  C   UNL     1       5.340   4.021  11.279  1.00  0.00     0.010 A 
ATOM     30  C   UNL     1       4.220   5.809  10.092  1.00  0.00     0.010 A 
ATOM     31  C   UNL     1       4.943   5.368  11.210  1.00  0.00    -0.014 A 
BRANCH  31  32
ATOM     32  C   UNL     1       5.311   6.315  12.293  1.00  0.00     0.031 A 
ATOM     33  C   UNL     1       4.253   6.984  13.127  1.00  0.00     0.074 A 
ATOM     34  C   UNL     1       6.613   6.592  12.504  1.00  0.00     0.049 A 
ATOM     35  N   UNL     1       4.397   7.794  14.145  1.00  0.00    -0.248 NA
ATOM     36  C   UNL     1       2.851   6.733  12.758  1.00  0.00     0.031 C 
ATOM     37  C   UNL     1       7.726   6.067  11.708  1.00  0.00     0.029 A 
ATOM     38  N   UNL     1       7.224   7.376  13.449  1.00  0.00    -0.354 N 
ATOM     39  C   UNL     1       3.111   8.151  14.533  1.00  0.00     0.074 A 
ATOM     40  C   UNL     1       2.201   7.519  13.603  1.00  0.00     0.031 C 
ATOM     41  C   UNL     1       8.883   6.508  12.225  1.00  0.00     0.029 A 
ATOM     42  C   UNL     1       8.597   7.373  13.364  1.00  0.00     0.049 A 
ATOM     43  H   UNL     1       6.727   7.891  14.125  1.00  0.00     0.167 HD
ATOM     44  C   UNL     1       2.724   8.915  15.583  1.00  0.00     0.037 A 
ATOM     45  C   UNL     1       9.523   7.992  14.122  1.00  0.00     0.037 A 
ATOM     46  C   UNL     1       3.641   9.533  16.509  1.00  0.00     0.049 A 
ATOM     47  C   UNL     1       9.071   8.812  15.298  1.00  0.00     0.074 A 
ATOM     48  C   UNL     1       3.352  10.273  17.642  1.00  0.00     0.029 A 
ATOM     49  N   UNL     1       5.025   9.492  16.403  1.00  0.00    -0.354 N 
ATOM     50  N   UNL     1       7.850   9.067  15.706  1.00  0.00    -0.248 NA
ATOM     51  C   UNL     1      10.122   9.414  16.128  1.00  0.00     0.031 C 
ATOM     52  C   UNL     1       4.557  10.727  18.188  1.00  0.00     0.029 A 
ATOM     53  C   UNL     1       5.602  10.215  17.435  1.00  0.00     0.049 A 
ATOM     54  H   UNL     1       5.523   9.019  15.698  1.00  0.00     0.167 HD
ATOM     55  C   UNL     1       7.986   9.837  16.856  1.00  0.00     0.074 A 
ATOM     56  C   UNL     1       9.408   9.989  17.087  1.00  0.00     0.031 C 
ATOM     57  C   UNL     1       7.021  10.366  17.650  1.00  0.00     0.037 A 
BRANCH  44  58
ATOM     58  C   UNL     1       1.247   9.131  15.784  1.00  0.00     0.058 A 
ATOM     59  C   UNL     1       0.389   8.085  16.166  1.00  0.00     0.135 A 
ATOM     60  C   UNL     1       0.683  10.408  15.624  1.00  0.00     0.135 A 
ATOM     61  F   UNL     1       0.867   6.841  16.322  1.00  0.00    -0.206 F 
ATOM     62  C   UNL     1      -0.976   8.289  16.345  1.00  0.00     0.059 A 
ATOM     63  C   UNL     1      -0.674  10.642  15.830  1.00  0.00     0.059 A 
ATOM     64  F   UNL     1       1.453  11.446  15.262  1.00  0.00    -0.206 F 
ATOM     65  C   UNL     1      -1.498   9.572  16.174  1.00  0.00     0.060 A 
BRANCH  65  66
ATOM     66  S   UNL     1      -3.271   9.819  16.409  1.00  0.00     0.124 S 
ATOM     67  O   UNL     1      -3.816   9.158  15.227  1.00  0.00    -0.237 OA
ATOM     68  O   UNL     1      -3.514   9.144  17.680  1.00  0.00    -0.237 OA
ATOM     69  O   UNL     1      -3.413  11.271  16.437  1.00  0.00    -0.744 OA
ENDBRANCH  65  66
ENDBRANCH  44  58
BRANCH  45  70
ATOM     70  C   UNL     1      10.967   7.821  13.807  1.00  0.00     0.058 A 
ATOM     71  C   UNL     1      11.810   7.074  14.643  1.00  0.00     0.135 A 
ATOM     72  C   UNL     1      11.524   8.374  12.644  1.00  0.00     0.135 A 
ATOM     73  F   UNL     1      11.326   6.528  15.770  1.00  0.00    -0.206 F 
ATOM     74  C   UNL     1      13.157   6.891  14.345  1.00  0.00     0.059 A 
ATOM     75  C   UNL     1      12.860   8.181  12.309  1.00  0.00     0.059 A 
ATOM     76  F   UNL     1      10.756   9.081  11.800  1.00  0.00    -0.206 F 
ATOM     77  C   UNL     1      13.671   7.443  13.171  1.00  0.00     0.060 A 
BRANCH  77  78
ATOM     78  S   UNL     1      15.404   7.145  12.759  1.00  0.00     0.124 S 
ATOM     79  O   UNL     1      16.087   7.982  13.739  1.00  0.00    -0.237 OA
ATOM     80  O   UNL     1      15.521   5.703  12.958  1.00  0.00    -0.237 OA
ATOM     81  O   UNL     1      15.501   7.588  11.372  1.00  0.00    -0.744 OA
ENDBRANCH  77  78
ENDBRANCH  45  70
BRANCH  57  82
ATOM     82  C   UNL     1       7.474  11.130  18.866  1.00  0.00     0.058 A 
ATOM     83  C   UNL     1       8.117  12.374  18.767  1.00  0.00     0.135 A 
ATOM     84  C   UNL     1       7.248  10.611  20.152  1.00  0.00     0.135 A 
ATOM     85  F   UNL     1       8.361  12.916  17.563  1.00  0.00    -0.206 F 
ATOM     86  C   UNL     1       8.562  13.054  19.897  1.00  0.00     0.059 A 
ATOM     87  C   UNL     1       7.654  11.291  21.297  1.00  0.00     0.059 A 
ATOM     88  F   UNL     1       6.624   9.433  20.308  1.00  0.00    -0.206 F 
ATOM     89  C   UNL     1       8.330  12.502  21.157  1.00  0.00     0.060 A 
BRANCH  89  90
ATOM     90  S   UNL     1       8.919  13.389  22.615  1.00  0.00     0.124 S 
ATOM     91  O   UNL     1      10.357  13.156  22.538  1.00  0.00    -0.237 OA
ATOM     92  O   UNL     1       8.482  14.756  22.346  1.00  0.00    -0.237 OA
ATOM     93  O   UNL     1       8.233  12.723  23.718  1.00  0.00    -0.744 OA
ENDBRANCH  89  90
ENDBRANCH  57  82
ENDBRANCH  31  32
ENDBRANCH  23  26
ENDBRANCH  21  22
ENDBRANCH   1  21
TORSDOF 16
