REMARK SMILES O=C(CC[C@@]1(c2ccccc2)NC(=O)N(CC(=O)Nc2cccc(F)c2)C1=O)NCCCCNC(=O)c1ccc(-c2c3nc(c(-c4c(F)cc(S(=O)(=O)[O-])cc4F)c4ccc([nH]4)c(-c4c(F)cc(S(=O)(=O)[O-])cc4F)c4nc(c(-c5c(F)cc(S(=O)(=O)[O-])cc5F)c5ccc2[nH]5)C=C4)C=C3)cc1
REMARK SMILES IDX 30 1 29 2 1 3 2 4 3 6 4 7 5 8 12 9 27 10 13 11 15 13 28 14
REMARK SMILES IDX 14 15 6 16 7 17 11 18 8 19 10 20 9 21 16 22 17 23 18 24
REMARK SMILES IDX 19 25 20 27 21 28 26 29 22 30 24 31 23 32 25 33 31 34 32 35
REMARK SMILES IDX 33 36 34 37 35 38 36 40 37 41 38 42 102 43 39 44 101 45
REMARK SMILES IDX 40 46 41 47 42 48 95 49 43 50 100 51 94 52 96 53 44 54 99 55
REMARK SMILES IDX 93 56 92 57 45 59 79 60 58 61 78 62 59 63 62 64 77 65 97 66
REMARK SMILES IDX 60 67 61 68 76 70 98 71 63 72 46 73 47 74 56 75 48 76 49 77
REMARK SMILES IDX 55 78 57 79 50 80 51 81 52 82 53 83 54 84 80 85 81 86 90 87
REMARK SMILES IDX 82 88 83 89 89 90 91 91 84 92 85 93 86 94 87 95 88 96 64 97
REMARK SMILES IDX 65 98 74 99 66 100 67 101 73 102 75 103 68 104 69 105 70 106
REMARK SMILES IDX 71 107 72 108
REMARK H PARENT 29 5 12 12 19 26 34 39 96 58 62 69
REMARK Flexibility Score: inf
ROOT
ATOM      1  C   UNL     1       4.485  -3.560   1.258  1.00  0.00     0.116 C 
ENDROOT
BRANCH   1   2
ATOM      2  N   UNL     1       5.154  -2.609   0.394  1.00  0.00    -0.356 N 
ATOM      3  O   UNL     1       6.507  -4.064  -0.732  1.00  0.00    -0.275 OA
ATOM      4  C   UNL     1       6.125  -2.914  -0.527  1.00  0.00     0.220 C 
ATOM      5  H   UNL     1       4.891  -1.664   0.474  1.00  0.00     0.163 HD
BRANCH   4   6
ATOM      6  C   UNL     1       6.824  -1.728  -1.202  1.00  0.00     0.103 C 
BRANCH   6   7
ATOM      7  C   UNL     1       6.093  -0.640  -2.011  1.00  0.00     0.053 C 
BRANCH   7   8
ATOM      8  C   UNL     1       4.729  -0.108  -1.504  1.00  0.00     0.147 C 
ATOM      9  N   UNL     1       4.825   0.261  -0.089  1.00  0.00    -0.319 N 
ATOM     10  C   UNL     1       4.531   1.332  -2.081  1.00  0.00     0.261 C 
ATOM     11  C   UNL     1       4.747   1.607   0.128  1.00  0.00     0.325 C 
ATOM     12  H   UNL     1       4.936  -0.398   0.634  1.00  0.00     0.166 HD
ATOM     13  N   UNL     1       4.745   2.237  -1.069  1.00  0.00    -0.252 N 
ATOM     14  O   UNL     1       4.340   1.605  -3.257  1.00  0.00    -0.271 OA
ATOM     15  O   UNL     1       4.795   2.095   1.245  1.00  0.00    -0.248 OA
BRANCH   8  16
ATOM     16  C   UNL     1       3.566  -1.082  -1.749  1.00  0.00    -0.013 A 
ATOM     17  C   UNL     1       2.367  -0.967  -1.025  1.00  0.00     0.007 A 
ATOM     18  C   UNL     1       3.730  -2.243  -2.538  1.00  0.00     0.007 A 
ATOM     19  C   UNL     1       1.456  -2.030  -0.972  1.00  0.00     0.000 A 
ATOM     20  C   UNL     1       2.833  -3.309  -2.467  1.00  0.00     0.000 A 
ATOM     21  C   UNL     1       1.708  -3.213  -1.661  1.00  0.00     0.000 A 
ENDBRANCH   8  16
BRANCH  13  22
ATOM     22  C   UNL     1       4.944   3.663  -1.201  1.00  0.00     0.230 C 
BRANCH  22  23
ATOM     23  C   UNL     1       6.233   4.151  -1.904  1.00  0.00     0.244 C 
ATOM     24  O   UNL     1       6.118   4.825  -2.939  1.00  0.00    -0.273 OA
ATOM     25  N   UNL     1       7.505   4.083  -1.399  1.00  0.00    -0.324 N 
ATOM     26  H   UNL     1       8.107   4.732  -1.829  1.00  0.00     0.170 HD
BRANCH  25  27
ATOM     27  C   UNL     1       8.166   3.320  -0.423  1.00  0.00     0.044 A 
ATOM     28  C   UNL     1       9.371   3.788   0.112  1.00  0.00     0.026 A 
ATOM     29  C   UNL     1       7.762   2.057  -0.044  1.00  0.00     0.065 A 
ATOM     30  C   UNL     1      10.076   3.039   1.072  1.00  0.00     0.005 A 
ATOM     31  C   UNL     1       8.428   1.329   0.936  1.00  0.00     0.125 A 
ATOM     32  C   UNL     1       9.587   1.811   1.506  1.00  0.00     0.039 A 
ATOM     33  F   UNL     1       7.949   0.131   1.300  1.00  0.00    -0.207 F 
ENDBRANCH  25  27
ENDBRANCH  22  23
ENDBRANCH  13  22
ENDBRANCH   7   8
ENDBRANCH   6   7
ENDBRANCH   4   6
ENDBRANCH   1   2
BRANCH   1  34
ATOM     34  C   UNL     1       4.671  -3.239   2.743  1.00  0.00     0.023 C 
BRANCH  34  35
ATOM     35  C   UNL     1       4.350  -1.806   3.196  1.00  0.00     0.023 C 
BRANCH  35  36
ATOM     36  C   UNL     1       2.943  -1.287   2.905  1.00  0.00     0.116 C 
BRANCH  36  37
ATOM     37  N   UNL     1       1.905  -2.018   3.611  1.00  0.00    -0.352 N 
ATOM     38  C   UNL     1       0.958  -1.581   4.509  1.00  0.00     0.251 C 
ATOM     39  H   UNL     1       1.875  -2.983   3.416  1.00  0.00     0.163 HD
ATOM     40  O   UNL     1       0.264  -2.410   5.094  1.00  0.00    -0.269 OA
BRANCH  38  41
ATOM     41  C   UNL     1       0.775  -0.137   4.800  1.00  0.00     0.039 A 
ATOM     42  C   UNL     1       0.584   0.260   6.128  1.00  0.00     0.014 A 
ATOM     43  C   UNL     1       0.750   0.823   3.785  1.00  0.00     0.014 A 
ATOM     44  C   UNL     1       0.444   1.617   6.443  1.00  0.00     0.010 A 
ATOM     45  C   UNL     1       0.679   2.181   4.107  1.00  0.00     0.010 A 
ATOM     46  C   UNL     1       0.531   2.596   5.440  1.00  0.00    -0.014 A 
BRANCH  46  47
ATOM     47  C   UNL     1       0.498   4.049   5.774  1.00  0.00     0.031 A 
ATOM     48  C   UNL     1      -0.609   4.931   5.259  1.00  0.00     0.074 A 
ATOM     49  C   UNL     1       1.502   4.590   6.495  1.00  0.00     0.049 A 
ATOM     50  N   UNL     1      -0.768   6.224   5.397  1.00  0.00    -0.248 NA
ATOM     51  C   UNL     1      -1.667   4.281   4.470  1.00  0.00     0.031 C 
ATOM     52  C   UNL     1       2.654   3.856   7.022  1.00  0.00     0.029 A 
ATOM     53  N   UNL     1       1.723   5.883   6.904  1.00  0.00    -0.354 N 
ATOM     54  C   UNL     1      -1.930   6.543   4.703  1.00  0.00     0.074 A 
ATOM     55  C   UNL     1      -2.411   5.316   4.106  1.00  0.00     0.031 C 
ATOM     56  C   UNL     1       3.445   4.702   7.700  1.00  0.00     0.029 A 
ATOM     57  C   UNL     1       2.886   6.048   7.620  1.00  0.00     0.049 A 
ATOM     58  H   UNL     1       1.106   6.624   6.702  1.00  0.00     0.167 HD
ATOM     59  C   UNL     1      -2.549   7.744   4.588  1.00  0.00     0.037 A 
ATOM     60  C   UNL     1       3.450   7.156   8.142  1.00  0.00     0.037 A 
ATOM     61  C   UNL     1      -2.074   8.961   5.199  1.00  0.00     0.049 A 
ATOM     62  C   UNL     1       2.755   8.482   7.980  1.00  0.00     0.074 A 
ATOM     63  C   UNL     1      -2.665  10.214   5.189  1.00  0.00     0.029 A 
ATOM     64  N   UNL     1      -0.895   9.084   5.919  1.00  0.00    -0.354 N 
ATOM     65  N   UNL     1       1.621   8.751   7.377  1.00  0.00    -0.248 NA
ATOM     66  C   UNL     1       3.413   9.655   8.573  1.00  0.00     0.031 C 
ATOM     67  C   UNL     1      -1.814  11.106   5.849  1.00  0.00     0.029 A 
ATOM     68  C   UNL     1      -0.726  10.397   6.330  1.00  0.00     0.049 A 
ATOM     69  H   UNL     1      -0.271   8.348   6.110  1.00  0.00     0.167 HD
ATOM     70  C   UNL     1       1.414  10.116   7.548  1.00  0.00     0.074 A 
ATOM     71  C   UNL     1       2.533  10.614   8.320  1.00  0.00     0.031 C 
ATOM     72  C   UNL     1       0.388  10.885   7.107  1.00  0.00     0.037 A 
BRANCH  59  73
ATOM     73  C   UNL     1      -3.809   7.812   3.765  1.00  0.00     0.058 A 
ATOM     74  C   UNL     1      -5.005   7.213   4.191  1.00  0.00     0.135 A 
ATOM     75  C   UNL     1      -3.836   8.535   2.561  1.00  0.00     0.135 A 
ATOM     76  F   UNL     1      -5.038   6.500   5.328  1.00  0.00    -0.206 F 
ATOM     77  C   UNL     1      -6.174   7.303   3.440  1.00  0.00     0.059 A 
ATOM     78  C   UNL     1      -5.001   8.666   1.809  1.00  0.00     0.059 A 
ATOM     79  F   UNL     1      -2.723   9.132   2.105  1.00  0.00    -0.206 F 
ATOM     80  C   UNL     1      -6.162   8.035   2.251  1.00  0.00     0.060 A 
BRANCH  80  81
ATOM     81  S   UNL     1      -7.690   8.151   1.297  1.00  0.00     0.124 S 
ATOM     82  O   UNL     1      -7.816   6.791   0.783  1.00  0.00    -0.237 OA
ATOM     83  O   UNL     1      -8.663   8.536   2.314  1.00  0.00    -0.237 OA
ATOM     84  O   UNL     1      -7.392   9.173   0.299  1.00  0.00    -0.744 OA
ENDBRANCH  80  81
ENDBRANCH  59  73
BRANCH  60  85
ATOM     85  C   UNL     1       4.740   7.061   8.881  1.00  0.00     0.058 A 
ATOM     86  C   UNL     1       4.800   7.292  10.264  1.00  0.00     0.135 A 
ATOM     87  C   UNL     1       5.938   6.742   8.222  1.00  0.00     0.135 A 
ATOM     88  F   UNL     1       3.685   7.610  10.939  1.00  0.00    -0.206 F 
ATOM     89  C   UNL     1       6.001   7.231  10.963  1.00  0.00     0.059 A 
ATOM     90  C   UNL     1       7.146   6.645   8.905  1.00  0.00     0.059 A 
ATOM     91  F   UNL     1       5.936   6.499   6.902  1.00  0.00    -0.206 F 
ATOM     92  C   UNL     1       7.170   6.904  10.274  1.00  0.00     0.060 A 
BRANCH  92  93
ATOM     93  S   UNL     1       8.717   6.791  11.198  1.00  0.00     0.124 S 
ATOM     94  O   UNL     1       8.982   8.192  11.501  1.00  0.00    -0.237 OA
ATOM     95  O   UNL     1       8.336   5.953  12.331  1.00  0.00    -0.237 OA
ATOM     96  O   UNL     1       9.632   6.167  10.247  1.00  0.00    -0.744 OA
ENDBRANCH  92  93
ENDBRANCH  60  85
BRANCH  72  97
ATOM     97  C   UNL     1       0.397  12.344   7.483  1.00  0.00     0.058 A 
ATOM     98  C   UNL     1       1.312  13.250   6.925  1.00  0.00     0.135 A 
ATOM     99  C   UNL     1      -0.560  12.851   8.378  1.00  0.00     0.135 A 
ATOM    100  F   UNL     1       2.253  12.820   6.069  1.00  0.00    -0.206 F 
ATOM    101  C   UNL     1       1.294  14.601   7.259  1.00  0.00     0.059 A 
ATOM    102  C   UNL     1      -0.618  14.203   8.702  1.00  0.00     0.059 A 
ATOM    103  F   UNL     1      -1.466  12.031   8.935  1.00  0.00    -0.206 F 
ATOM    104  C   UNL     1       0.322  15.069   8.146  1.00  0.00     0.060 A 
BRANCH 104 105
ATOM    105  S   UNL     1       0.290  16.829   8.544  1.00  0.00     0.124 S 
ATOM    106  O   UNL     1       1.475  16.964   9.384  1.00  0.00    -0.237 OA
ATOM    107  O   UNL     1       0.374  17.448   7.224  1.00  0.00    -0.237 OA
ATOM    108  O   UNL     1      -0.988  17.001   9.229  1.00  0.00    -0.744 OA
ENDBRANCH 104 105
ENDBRANCH  72  97
ENDBRANCH  46  47
ENDBRANCH  38  41
ENDBRANCH  36  37
ENDBRANCH  35  36
ENDBRANCH  34  35
ENDBRANCH   1  34
TORSDOF 20
