REMARK SMILES Cc1oc2ccc(NS(=O)(=O)c3ccc(C(C)C)cc3)cc2c1C(=O)NCCCCNC(=O)c1ccc(-c2c3nc(c(-c4c(F)cc(S(=O)(=O)[O-])cc4F)c4ccc([nH]4)c(-c4c(F)cc(S(=O)(=O)[O-])cc4F)c4nc(c(-c5c(F)cc(S(=O)(=O)[O-])cc5F)c5ccc2[nH]5)C=C4)C=C3)cc1
REMARK SMILES IDX 28 1 27 2 26 3 24 4 25 5 23 7 1 8 2 9 3 10 4 11 22 12 5 13
REMARK SMILES IDX 21 14 6 15 7 16 8 17 9 19 10 20 11 21 12 22 13 23 20 24
REMARK SMILES IDX 14 25 19 26 15 27 16 28 17 29 18 30 29 31 30 32 31 33 32 34
REMARK SMILES IDX 33 36 34 37 35 38 99 39 36 40 98 41 37 42 38 43 39 44 92 45
REMARK SMILES IDX 40 46 97 47 91 48 93 49 41 50 96 51 90 52 89 53 42 55 76 56
REMARK SMILES IDX 55 57 75 58 56 59 59 60 74 61 94 62 57 63 58 64 73 66 95 67
REMARK SMILES IDX 60 68 43 69 44 70 53 71 45 72 46 73 52 74 54 75 47 76 48 77
REMARK SMILES IDX 49 78 50 79 51 80 77 81 78 82 87 83 79 84 80 85 86 86 88 87
REMARK SMILES IDX 81 88 82 89 83 90 84 91 85 92 61 93 62 94 71 95 63 96 64 97
REMARK SMILES IDX 70 98 72 99 65 100 66 101 67 102 68 103 69 104
REMARK H PARENT 26 6 8 18 31 35 93 54 59 65
REMARK Flexibility Score: inf
ROOT
ATOM      1  C   UNL     1       4.714  -2.352   1.756  1.00  0.00     0.023 C 
ENDROOT
BRANCH   1   2
ATOM      2  C   UNL     1       4.059  -1.603   0.600  1.00  0.00     0.116 C 
BRANCH   2   3
ATOM      3  N   UNL     1       3.165  -2.374  -0.238  1.00  0.00    -0.352 N 
ATOM      4  C   UNL     1       2.015  -2.002  -0.900  1.00  0.00     0.255 C 
ATOM      5  O   UNL     1       1.490  -2.841  -1.631  1.00  0.00    -0.269 OA
ATOM      6  H   UNL     1       3.421  -3.317  -0.354  1.00  0.00     0.163 HD
BRANCH   4   7
ATOM      7  C   UNL     1       1.386  -0.708  -0.668  1.00  0.00     0.088 A 
ATOM      8  C   UNL     1       3.300   1.129  -0.785  1.00  0.00     0.088 C 
ATOM      9  C   UNL     1       1.951   0.559  -0.574  1.00  0.00     0.114 A 
ATOM     10  O   UNL     1       1.006   1.478  -0.217  1.00  0.00    -0.461 OA
ATOM     11  C   UNL     1      -0.191   0.842  -0.192  1.00  0.00     0.135 A 
ATOM     12  C   UNL     1      -0.033  -0.484  -0.562  1.00  0.00     0.035 A 
ATOM     13  C   UNL     1      -1.413   1.427   0.128  1.00  0.00     0.050 A 
ATOM     14  C   UNL     1      -1.199  -1.264  -0.721  1.00  0.00     0.039 A 
ATOM     15  C   UNL     1      -2.546   0.600   0.052  1.00  0.00     0.030 A 
ATOM     16  C   UNL     1      -2.449  -0.734  -0.367  1.00  0.00     0.050 A 
BRANCH  16  17
ATOM     17  N   UNL     1      -3.653  -1.492  -0.582  1.00  0.00    -0.280 N 
ATOM     18  H   UNL     1      -4.278  -1.204  -1.285  1.00  0.00     0.180 HD
BRANCH  17  19
ATOM     19  S   UNL     1      -4.031  -2.876   0.344  1.00  0.00     0.261 S 
ATOM     20  O   UNL     1      -4.430  -2.407   1.649  1.00  0.00    -0.201 OA
ATOM     21  O   UNL     1      -4.973  -3.627  -0.472  1.00  0.00    -0.201 OA
BRANCH  19  22
ATOM     22  C   UNL     1      -2.569  -3.853   0.535  1.00  0.00     0.087 A 
ATOM     23  C   UNL     1      -2.422  -5.048  -0.169  1.00  0.00     0.022 A 
ATOM     24  C   UNL     1      -1.565  -3.420   1.405  1.00  0.00     0.022 A 
ATOM     25  C   UNL     1      -1.208  -5.737  -0.109  1.00  0.00     0.005 A 
ATOM     26  C   UNL     1      -0.337  -4.082   1.417  1.00  0.00     0.005 A 
ATOM     27  C   UNL     1      -0.126  -5.220   0.621  1.00  0.00    -0.045 A 
BRANCH  27  28
ATOM     28  C   UNL     1       1.271  -5.817   0.542  1.00  0.00     0.013 C 
ATOM     29  C   UNL     1       1.530  -6.785   1.694  1.00  0.00     0.012 C 
ATOM     30  C   UNL     1       1.587  -6.481  -0.803  1.00  0.00     0.012 C 
ENDBRANCH  27  28
ENDBRANCH  19  22
ENDBRANCH  17  19
ENDBRANCH  16  17
ENDBRANCH   4   7
ENDBRANCH   2   3
ENDBRANCH   1   2
BRANCH   1  31
ATOM     31  C   UNL     1       5.479  -3.633   1.441  1.00  0.00     0.023 C 
BRANCH  31  32
ATOM     32  C   UNL     1       6.384  -3.629   0.215  1.00  0.00     0.116 C 
BRANCH  32  33
ATOM     33  N   UNL     1       7.442  -2.632   0.251  1.00  0.00    -0.352 N 
ATOM     34  C   UNL     1       8.810  -2.776   0.160  1.00  0.00     0.251 C 
ATOM     35  H   UNL     1       7.132  -1.704   0.358  1.00  0.00     0.163 HD
ATOM     36  O   UNL     1       9.524  -1.781   0.259  1.00  0.00    -0.269 OA
BRANCH  34  37
ATOM     37  C   UNL     1       9.428  -4.114  -0.003  1.00  0.00     0.039 A 
ATOM     38  C   UNL     1      10.539  -4.439   0.782  1.00  0.00     0.014 A 
ATOM     39  C   UNL     1       8.919  -5.054  -0.901  1.00  0.00     0.014 A 
ATOM     40  C   UNL     1      11.068  -5.733   0.743  1.00  0.00     0.010 A 
ATOM     41  C   UNL     1       9.389  -6.367  -0.873  1.00  0.00     0.010 A 
ATOM     42  C   UNL     1      10.461  -6.726  -0.043  1.00  0.00    -0.014 A 
BRANCH  42  43
ATOM     43  C   UNL     1      10.915  -8.143   0.005  1.00  0.00     0.031 A 
ATOM     44  C   UNL     1      11.429  -8.820  -1.239  1.00  0.00     0.074 A 
ATOM     45  C   UNL     1      10.787  -8.849   1.147  1.00  0.00     0.049 A 
ATOM     46  N   UNL     1      11.773 -10.069  -1.418  1.00  0.00    -0.248 NA
ATOM     47  C   UNL     1      11.542  -7.989  -2.449  1.00  0.00     0.031 C 
ATOM     48  C   UNL     1      10.255  -8.330   2.410  1.00  0.00     0.029 A 
ATOM     49  N   UNL     1      11.082 -10.161   1.431  1.00  0.00    -0.354 N 
ATOM     50  C   UNL     1      12.124 -10.179  -2.759  1.00  0.00     0.074 A 
ATOM     51  C   UNL     1      11.900  -8.882  -3.360  1.00  0.00     0.031 C 
ATOM     52  C   UNL     1      10.280  -9.303   3.334  1.00  0.00     0.029 A 
ATOM     53  C   UNL     1      10.790 -10.528   2.725  1.00  0.00     0.049 A 
ATOM     54  H   UNL     1      11.466 -10.781   0.770  1.00  0.00     0.167 HD
ATOM     55  C   UNL     1      12.610 -11.254  -3.425  1.00  0.00     0.037 A 
ATOM     56  C   UNL     1      10.908 -11.716   3.351  1.00  0.00     0.037 A 
ATOM     57  C   UNL     1      12.862 -12.535  -2.817  1.00  0.00     0.049 A 
ATOM     58  C   UNL     1      11.457 -12.895   2.592  1.00  0.00     0.074 A 
ATOM     59  C   UNL     1      13.411 -13.667  -3.393  1.00  0.00     0.029 A 
ATOM     60  N   UNL     1      12.584 -12.855  -1.496  1.00  0.00    -0.354 N 
ATOM     61  N   UNL     1      11.841 -12.961   1.340  1.00  0.00    -0.248 NA
ATOM     62  C   UNL     1      11.597 -14.157   3.332  1.00  0.00     0.031 C 
ATOM     63  C   UNL     1      13.426 -14.684  -2.433  1.00  0.00     0.029 A 
ATOM     64  C   UNL     1      12.934 -14.171  -1.244  1.00  0.00     0.049 A 
ATOM     65  H   UNL     1      12.195 -12.237  -0.835  1.00  0.00     0.167 HD
ATOM     66  C   UNL     1      12.296 -14.262   1.150  1.00  0.00     0.074 A 
ATOM     67  C   UNL     1      12.147 -14.945   2.418  1.00  0.00     0.031 C 
ATOM     68  C   UNL     1      12.794 -14.836   0.028  1.00  0.00     0.037 A 
BRANCH  55  69
ATOM     69  C   UNL     1      12.912 -11.090  -4.890  1.00  0.00     0.058 A 
ATOM     70  C   UNL     1      13.985 -10.302  -5.337  1.00  0.00     0.135 A 
ATOM     71  C   UNL     1      12.145 -11.758  -5.858  1.00  0.00     0.135 A 
ATOM     72  F   UNL     1      14.743  -9.629  -4.456  1.00  0.00    -0.206 F 
ATOM     73  C   UNL     1      14.267 -10.156  -6.691  1.00  0.00     0.059 A 
ATOM     74  C   UNL     1      12.427 -11.651  -7.217  1.00  0.00     0.059 A 
ATOM     75  F   UNL     1      11.108 -12.526  -5.487  1.00  0.00    -0.206 F 
ATOM     76  C   UNL     1      13.481 -10.834  -7.624  1.00  0.00     0.060 A 
BRANCH  76  77
ATOM     77  S   UNL     1      13.863 -10.637  -9.377  1.00  0.00     0.124 S 
ATOM     78  O   UNL     1      13.391  -9.278  -9.626  1.00  0.00    -0.237 OA
ATOM     79  O   UNL     1      15.311 -10.818  -9.404  1.00  0.00    -0.237 OA
ATOM     80  O   UNL     1      13.089 -11.696 -10.016  1.00  0.00    -0.744 OA
ENDBRANCH  76  77
ENDBRANCH  55  69
BRANCH  56  81
ATOM     81  C   UNL     1      10.520 -11.847   4.781  1.00  0.00     0.058 A 
ATOM     82  C   UNL     1      11.491 -12.027   5.778  1.00  0.00     0.135 A 
ATOM     83  C   UNL     1       9.177 -11.786   5.183  1.00  0.00     0.135 A 
ATOM     84  F   UNL     1      12.789 -12.100   5.444  1.00  0.00    -0.206 F 
ATOM     85  C   UNL     1      11.145 -12.160   7.119  1.00  0.00     0.059 A 
ATOM     86  C   UNL     1       8.807 -11.889   6.521  1.00  0.00     0.059 A 
ATOM     87  F   UNL     1       8.210 -11.597   4.271  1.00  0.00    -0.206 F 
ATOM     88  C   UNL     1       9.799 -12.087   7.481  1.00  0.00     0.060 A 
BRANCH  88  89
ATOM     89  S   UNL     1       9.364 -12.211   9.229  1.00  0.00     0.124 S 
ATOM     90  O   UNL     1       9.572 -13.632   9.484  1.00  0.00    -0.237 OA
ATOM     91  O   UNL     1      10.324 -11.303   9.849  1.00  0.00    -0.237 OA
ATOM     92  O   UNL     1       7.976 -11.760   9.261  1.00  0.00    -0.744 OA
ENDBRANCH  88  89
ENDBRANCH  56  81
BRANCH  68  93
ATOM     93  C   UNL     1      13.260 -16.263   0.123  1.00  0.00     0.058 A 
ATOM     94  C   UNL     1      12.356 -17.332   0.220  1.00  0.00     0.135 A 
ATOM     95  C   UNL     1      14.630 -16.566   0.057  1.00  0.00     0.135 A 
ATOM     96  F   UNL     1      11.037 -17.097   0.293  1.00  0.00    -0.206 F 
ATOM     97  C   UNL     1      12.795 -18.652   0.266  1.00  0.00     0.059 A 
ATOM     98  C   UNL     1      15.090 -17.879   0.074  1.00  0.00     0.059 A 
ATOM     99  F   UNL     1      15.536 -15.581  -0.045  1.00  0.00    -0.206 F 
ATOM    100  C   UNL     1      14.165 -18.915   0.189  1.00  0.00     0.060 A 
BRANCH 100 101
ATOM    101  S   UNL     1      14.719 -20.633   0.207  1.00  0.00     0.124 S 
ATOM    102  O   UNL     1      14.525 -20.989   1.609  1.00  0.00    -0.237 OA
ATOM    103  O   UNL     1      13.806 -21.267  -0.740  1.00  0.00    -0.237 OA
ATOM    104  O   UNL     1      16.108 -20.547  -0.233  1.00  0.00    -0.744 OA
ENDBRANCH 100 101
ENDBRANCH  68  93
ENDBRANCH  42  43
ENDBRANCH  34  37
ENDBRANCH  32  33
ENDBRANCH  31  32
ENDBRANCH   1  31
TORSDOF 18
