REMARK SMILES CC(C)(Cn1ccc(=O)nc1SCC(=O)NCCCCNC(=O)c1ccc(-c2c3nc(c(-c4c(F)cc(S(=O)(=O)[O-])cc4F)c4ccc([nH]4)c(-c4c(F)cc(S(=O)(=O)[O-])cc4F)c4nc(c(-c5c(F)cc(S(=O)(=O)[O-])cc5F)c5ccc2[nH]5)C=C4)C=C3)cc1)S(C)(=O)=O
REMARK SMILES IDX 17 1 16 2 14 3 15 4 13 6 12 7 11 8 5 9 6 10 7 11 10 12 8 13
REMARK SMILES IDX 9 14 4 15 2 16 1 17 3 18 90 19 91 20 92 21 93 22 18 23 19 24
REMARK SMILES IDX 20 25 21 26 22 27 23 29 24 30 25 31 89 32 26 33 88 34 27 35
REMARK SMILES IDX 28 36 29 37 82 38 30 39 87 40 81 41 83 42 31 43 86 44 80 45
REMARK SMILES IDX 79 46 32 48 66 49 45 50 65 51 46 52 49 53 64 54 84 55 47 56
REMARK SMILES IDX 48 57 63 59 85 60 50 61 33 62 34 63 43 64 35 65 36 66 42 67
REMARK SMILES IDX 44 68 37 69 38 70 39 71 40 72 41 73 67 74 68 75 77 76 69 77
REMARK SMILES IDX 70 78 76 79 78 80 71 81 72 82 73 83 74 84 75 85 51 86 52 87
REMARK SMILES IDX 61 88 53 89 54 90 60 91 62 92 55 93 56 94 57 95 58 96 59 97
REMARK H PARENT 16 5 21 28 83 47 49 58
REMARK Flexibility Score: inf
ROOT
ATOM      1  C   UNL     1      -3.882   1.325   4.880  1.00  0.00     0.116 C 
ENDROOT
BRANCH   1   2
ATOM      2  N   UNL     1      -2.653   1.843   4.314  1.00  0.00    -0.355 N 
ATOM      3  C   UNL     1      -2.387   2.252   3.049  1.00  0.00     0.230 C 
ATOM      4  O   UNL     1      -1.380   2.948   2.870  1.00  0.00    -0.274 OA
ATOM      5  H   UNL     1      -1.898   1.907   4.942  1.00  0.00     0.163 HD
BRANCH   3   6
ATOM      6  C   UNL     1      -3.280   1.955   1.867  1.00  0.00     0.178 C 
BRANCH   6   7
ATOM      7  S   UNL     1      -3.924   0.312   1.680  1.00  0.00    -0.078 SA
BRANCH   7   8
ATOM      8  C   UNL     1      -2.745  -0.973   1.449  1.00  0.00     0.172 A 
ATOM      9  N   UNL     1      -1.435  -0.882   0.937  1.00  0.00    -0.326 N 
ATOM     10  C   UNL     1      -0.989  -2.026   0.295  1.00  0.00     0.094 A 
ATOM     11  C   UNL     1      -1.565  -3.218   0.459  1.00  0.00     0.091 A 
ATOM     12  N   UNL     1      -3.344  -2.108   1.662  1.00  0.00    -0.185 NA
ATOM     13  C   UNL     1      -2.713  -3.288   1.385  1.00  0.00     0.273 A 
ATOM     14  O   UNL     1      -3.100  -4.382   1.770  1.00  0.00    -0.267 OA
BRANCH   9  15
ATOM     15  C   UNL     1      -0.646   0.359   1.011  1.00  0.00     0.146 C 
BRANCH  15  16
ATOM     16  C   UNL     1       0.902   0.384   1.092  1.00  0.00     0.084 C 
ATOM     17  C   UNL     1       1.654  -0.253  -0.082  1.00  0.00     0.030 C 
ATOM     18  C   UNL     1       1.299   1.894   1.070  1.00  0.00     0.030 C 
BRANCH  16  19
ATOM     19  S   UNL     1       1.519  -0.254   2.695  1.00  0.00     0.154 S 
ATOM     20  C   UNL     1       1.073  -1.968   2.821  1.00  0.00     0.158 C 
ATOM     21  O   UNL     1       2.969  -0.212   2.634  1.00  0.00    -0.229 OA
ATOM     22  O   UNL     1       0.814   0.433   3.761  1.00  0.00    -0.229 OA
ENDBRANCH  16  19
ENDBRANCH  15  16
ENDBRANCH   9  15
ENDBRANCH   7   8
ENDBRANCH   6   7
ENDBRANCH   3   6
ENDBRANCH   1   2
BRANCH   1  23
ATOM     23  C   UNL     1      -3.770  -0.130   5.331  1.00  0.00     0.023 C 
BRANCH  23  24
ATOM     24  C   UNL     1      -2.715  -0.413   6.400  1.00  0.00     0.023 C 
BRANCH  24  25
ATOM     25  C   UNL     1      -2.741   0.495   7.624  1.00  0.00     0.116 C 
BRANCH  25  26
ATOM     26  N   UNL     1      -4.025   0.524   8.310  1.00  0.00    -0.352 N 
ATOM     27  C   UNL     1      -4.290   0.489   9.661  1.00  0.00     0.251 C 
ATOM     28  H   UNL     1      -4.816   0.576   7.725  1.00  0.00     0.163 HD
ATOM     29  O   UNL     1      -5.450   0.461  10.060  1.00  0.00    -0.269 OA
BRANCH  27  30
ATOM     30  C   UNL     1      -3.168   0.431  10.623  1.00  0.00     0.039 A 
ATOM     31  C   UNL     1      -2.072   1.285  10.494  1.00  0.00     0.014 A 
ATOM     32  C   UNL     1      -3.188  -0.540  11.629  1.00  0.00     0.014 A 
ATOM     33  C   UNL     1      -0.924   1.045  11.242  1.00  0.00     0.010 A 
ATOM     34  C   UNL     1      -2.063  -0.722  12.439  1.00  0.00     0.010 A 
ATOM     35  C   UNL     1      -0.899   0.028  12.211  1.00  0.00    -0.014 A 
BRANCH  35  36
ATOM     36  C   UNL     1       0.365  -0.251  12.945  1.00  0.00     0.031 A 
ATOM     37  C   UNL     1       1.081  -1.566  12.771  1.00  0.00     0.074 A 
ATOM     38  C   UNL     1       0.905   0.712  13.716  1.00  0.00     0.049 A 
ATOM     39  N   UNL     1       2.207  -1.968  13.306  1.00  0.00    -0.248 NA
ATOM     40  C   UNL     1       0.455  -2.561  11.885  1.00  0.00     0.031 C 
ATOM     41  C   UNL     1       0.314   2.031  13.951  1.00  0.00     0.029 A 
ATOM     42  N   UNL     1       2.082   0.746  14.420  1.00  0.00    -0.354 N 
ATOM     43  C   UNL     1       2.415  -3.261  12.837  1.00  0.00     0.074 A 
ATOM     44  C   UNL     1       1.282  -3.591  11.999  1.00  0.00     0.031 C 
ATOM     45  C   UNL     1       1.158   2.765  14.692  1.00  0.00     0.029 A 
ATOM     46  C   UNL     1       2.318   1.950  15.039  1.00  0.00     0.049 A 
ATOM     47  H   UNL     1       2.699  -0.020  14.476  1.00  0.00     0.167 HD
ATOM     48  C   UNL     1       3.461  -4.091  13.069  1.00  0.00     0.037 A 
ATOM     49  C   UNL     1       3.348   2.355  15.807  1.00  0.00     0.037 A 
ATOM     50  C   UNL     1       4.599  -3.749  13.884  1.00  0.00     0.049 A 
ATOM     51  C   UNL     1       4.474   1.402  16.086  1.00  0.00     0.074 A 
ATOM     52  C   UNL     1       5.717  -4.516  14.164  1.00  0.00     0.029 A 
ATOM     53  N   UNL     1       4.768  -2.541  14.546  1.00  0.00    -0.354 N 
ATOM     54  N   UNL     1       4.650   0.183  15.637  1.00  0.00    -0.248 NA
ATOM     55  C   UNL     1       5.536   1.874  16.985  1.00  0.00     0.031 C 
ATOM     56  C   UNL     1       6.543  -3.788  15.027  1.00  0.00     0.029 A 
ATOM     57  C   UNL     1       5.961  -2.550  15.250  1.00  0.00     0.049 A 
ATOM     58  H   UNL     1       4.134  -1.789  14.518  1.00  0.00     0.167 HD
ATOM     59  C   UNL     1       5.845  -0.258  16.192  1.00  0.00     0.074 A 
ATOM     60  C   UNL     1       6.359   0.833  16.995  1.00  0.00     0.031 C 
ATOM     61  C   UNL     1       6.457  -1.459  16.053  1.00  0.00     0.037 A 
BRANCH  48  62
ATOM     62  C   UNL     1       3.425  -5.458  12.441  1.00  0.00     0.058 A 
ATOM     63  C   UNL     1       3.628  -5.642  11.064  1.00  0.00     0.135 A 
ATOM     64  C   UNL     1       3.234  -6.603  13.233  1.00  0.00     0.135 A 
ATOM     65  F   UNL     1       3.801  -4.583  10.258  1.00  0.00    -0.206 F 
ATOM     66  C   UNL     1       3.620  -6.910  10.491  1.00  0.00     0.059 A 
ATOM     67  C   UNL     1       3.247  -7.883  12.684  1.00  0.00     0.059 A 
ATOM     68  F   UNL     1       3.037  -6.484  14.555  1.00  0.00    -0.206 F 
ATOM     69  C   UNL     1       3.429  -8.025  11.310  1.00  0.00     0.060 A 
BRANCH  69  70
ATOM     70  S   UNL     1       3.426  -9.662  10.548  1.00  0.00     0.124 S 
ATOM     71  O   UNL     1       2.158  -9.646   9.826  1.00  0.00    -0.237 OA
ATOM     72  O   UNL     1       4.626  -9.623   9.719  1.00  0.00    -0.237 OA
ATOM     73  O   UNL     1       3.485 -10.570  11.689  1.00  0.00    -0.744 OA
ENDBRANCH  69  70
ENDBRANCH  48  62
BRANCH  49  74
ATOM     74  C   UNL     1       3.349   3.735  16.359  1.00  0.00     0.058 A 
ATOM     75  C   UNL     1       4.234   4.705  15.870  1.00  0.00     0.135 A 
ATOM     76  C   UNL     1       2.429   4.123  17.346  1.00  0.00     0.135 A 
ATOM     77  F   UNL     1       5.137   4.379  14.933  1.00  0.00    -0.206 F 
ATOM     78  C   UNL     1       4.205   6.016  16.335  1.00  0.00     0.059 A 
ATOM     79  C   UNL     1       2.364   5.433  17.809  1.00  0.00     0.059 A 
ATOM     80  F   UNL     1       1.553   3.233  17.836  1.00  0.00    -0.206 F 
ATOM     81  C   UNL     1       3.258   6.372  17.298  1.00  0.00     0.060 A 
BRANCH  81  82
ATOM     82  S   UNL     1       3.176   8.094  17.835  1.00  0.00     0.124 S 
ATOM     83  O   UNL     1       4.386   8.210  18.640  1.00  0.00    -0.237 OA
ATOM     84  O   UNL     1       3.184   8.811  16.563  1.00  0.00    -0.237 OA
ATOM     85  O   UNL     1       1.917   8.157  18.572  1.00  0.00    -0.744 OA
ENDBRANCH  81  82
ENDBRANCH  49  74
BRANCH  61  86
ATOM     86  C   UNL     1       7.755  -1.663  16.781  1.00  0.00     0.058 A 
ATOM     87  C   UNL     1       7.790  -1.874  18.168  1.00  0.00     0.135 A 
ATOM     88  C   UNL     1       8.969  -1.717  16.078  1.00  0.00     0.135 A 
ATOM     89  F   UNL     1       6.657  -1.824  18.887  1.00  0.00    -0.206 F 
ATOM     90  C   UNL     1       8.985  -2.119  18.835  1.00  0.00     0.059 A 
ATOM     91  C   UNL     1      10.174  -1.984  16.721  1.00  0.00     0.059 A 
ATOM     92  F   UNL     1       8.989  -1.530  14.748  1.00  0.00    -0.206 F 
ATOM     93  C   UNL     1      10.172  -2.177  18.102  1.00  0.00     0.060 A 
BRANCH  93  94
ATOM     94  S   UNL     1      11.709  -2.544  18.976  1.00  0.00     0.124 S 
ATOM     95  O   UNL     1      11.940  -1.299  19.700  1.00  0.00    -0.237 OA
ATOM     96  O   UNL     1      11.335  -3.693  19.794  1.00  0.00    -0.237 OA
ATOM     97  O   UNL     1      12.653  -2.829  17.900  1.00  0.00    -0.744 OA
ENDBRANCH  93  94
ENDBRANCH  61  86
ENDBRANCH  35  36
ENDBRANCH  27  30
ENDBRANCH  25  26
ENDBRANCH  24  25
ENDBRANCH  23  24
ENDBRANCH   1  23
TORSDOF 19
