REMARK SMILES COc1ccc(-c2cc(F)cc(C(=O)NCCCCNC(=O)c3ccc(-c4c5nc(c(-c6c(F)cc(S(=O)(=O)[O-])cc6F)c6ccc([nH]6)c(-c6c(F)cc(S(=O)(=O)[O-])cc6F)c6nc(c(-c7c(F)cc(S(=O)(=O)[O-])cc7F)c7ccc4[nH]7)C=C6)C=C5)cc3)c2)cc1C
REMARK SMILES IDX 18 1 17 2 16 3 15 4 13 5 14 6 12 8 7 9 8 10 89 11 9 12 10 13
REMARK SMILES IDX 11 14 6 15 3 16 4 17 91 18 5 19 90 20 92 21 2 22 1 23 19 24
REMARK SMILES IDX 20 25 21 26 22 28 23 29 24 30 88 31 25 32 87 33 26 34 27 35
REMARK SMILES IDX 28 36 81 37 29 38 86 39 80 40 82 41 30 42 85 43 79 44 78 45
REMARK SMILES IDX 31 47 65 48 44 49 64 50 45 51 48 52 63 53 83 54 46 55 47 56
REMARK SMILES IDX 62 58 84 59 49 60 32 61 33 62 42 63 34 64 35 65 41 66 43 67
REMARK SMILES IDX 36 68 37 69 38 70 39 71 40 72 66 73 67 74 76 75 68 76 69 77
REMARK SMILES IDX 75 78 77 79 70 80 71 81 72 82 73 83 74 84 50 85 51 86 60 87
REMARK SMILES IDX 52 88 53 89 59 90 61 91 54 92 55 93 56 94 57 95 58 96
REMARK H PARENT 15 7 20 27 82 46 48 57
REMARK Flexibility Score: inf
ROOT
ATOM      1  C   UNL     1       0.200   2.352  13.265  1.00  0.00     0.023 C 
ENDROOT
BRANCH   1   2
ATOM      2  C   UNL     1       1.230   2.824  12.237  1.00  0.00     0.023 C 
BRANCH   2   3
ATOM      3  C   UNL     1       2.102   1.720  11.629  1.00  0.00     0.116 C 
BRANCH   3   4
ATOM      4  N   UNL     1       1.359   0.794  10.779  1.00  0.00    -0.352 N 
ATOM      5  C   UNL     1       1.196   0.587   9.433  1.00  0.00     0.251 C 
ATOM      6  O   UNL     1       0.420  -0.319   9.112  1.00  0.00    -0.269 OA
ATOM      7  H   UNL     1       0.838   0.150  11.311  1.00  0.00     0.163 HD
BRANCH   5   8
ATOM      8  C   UNL     1       1.846   1.366   8.333  1.00  0.00     0.043 A 
ATOM      9  C   UNL     1       1.895   1.841   5.906  1.00  0.00    -0.015 A 
ATOM     10  C   UNL     1       2.943   2.741   6.137  1.00  0.00     0.048 A 
ATOM     11  C   UNL     1       1.333   1.190   7.021  1.00  0.00     0.022 A 
ATOM     12  C   UNL     1       3.467   2.893   7.408  1.00  0.00     0.124 A 
ATOM     13  F   UNL     1       4.514   3.709   7.588  1.00  0.00    -0.207 F 
ATOM     14  C   UNL     1       2.959   2.187   8.489  1.00  0.00     0.053 A 
BRANCH   9  15
ATOM     15  C   UNL     1       1.487   1.567   4.517  1.00  0.00    -0.018 A 
ATOM     16  C   UNL     1       0.865   1.228   1.784  1.00  0.00     0.121 A 
ATOM     17  C   UNL     1      -0.130   1.572   2.706  1.00  0.00     0.047 A 
ATOM     18  C   UNL     1       2.187   1.058   2.206  1.00  0.00    -0.008 A 
ATOM     19  C   UNL     1       0.175   1.733   4.064  1.00  0.00     0.012 A 
ATOM     20  C   UNL     1       2.469   1.197   3.575  1.00  0.00     0.016 A 
ATOM     21  C   UNL     1       3.318   0.747   1.270  1.00  0.00     0.048 C 
BRANCH  16  22
ATOM     22  O   UNL     1       0.483   1.187   0.469  1.00  0.00    -0.496 OA
ATOM     23  C   UNL     1       0.625  -0.110  -0.106  1.00  0.00     0.278 C 
ENDBRANCH  16  22
ENDBRANCH   9  15
ENDBRANCH   5   8
ENDBRANCH   3   4
ENDBRANCH   2   3
ENDBRANCH   1   2
BRANCH   1  24
ATOM     24  C   UNL     1       0.794   1.652  14.482  1.00  0.00     0.116 C 
BRANCH  24  25
ATOM     25  N   UNL     1       1.204   2.523  15.567  1.00  0.00    -0.352 N 
ATOM     26  C   UNL     1       1.724   2.146  16.796  1.00  0.00     0.251 C 
ATOM     27  H   UNL     1       1.101   3.490  15.414  1.00  0.00     0.163 HD
ATOM     28  O   UNL     1       1.651   2.876  17.772  1.00  0.00    -0.269 OA
BRANCH  26  29
ATOM     29  C   UNL     1       2.497   0.881  16.855  1.00  0.00     0.039 A 
ATOM     30  C   UNL     1       3.855   0.973  17.186  1.00  0.00     0.014 A 
ATOM     31  C   UNL     1       1.972  -0.309  16.362  1.00  0.00     0.014 A 
ATOM     32  C   UNL     1       4.722  -0.070  16.854  1.00  0.00     0.010 A 
ATOM     33  C   UNL     1       2.844  -1.300  15.947  1.00  0.00     0.010 A 
ATOM     34  C   UNL     1       4.225  -1.171  16.155  1.00  0.00    -0.014 A 
BRANCH  34  35
ATOM     35  C   UNL     1       5.061  -2.192  15.526  1.00  0.00     0.031 A 
ATOM     36  C   UNL     1       5.116  -3.576  16.069  1.00  0.00     0.074 A 
ATOM     37  C   UNL     1       5.720  -1.932  14.372  1.00  0.00     0.049 A 
ATOM     38  N   UNL     1       6.118  -4.379  15.905  1.00  0.00    -0.248 NA
ATOM     39  C   UNL     1       4.037  -4.160  16.863  1.00  0.00     0.031 C 
ATOM     40  C   UNL     1       6.294  -2.926  13.466  1.00  0.00     0.029 A 
ATOM     41  N   UNL     1       6.180  -0.715  13.862  1.00  0.00    -0.354 N 
ATOM     42  C   UNL     1       5.704  -5.633  16.291  1.00  0.00     0.074 A 
ATOM     43  C   UNL     1       4.432  -5.435  16.948  1.00  0.00     0.031 C 
ATOM     44  C   UNL     1       7.244  -2.338  12.725  1.00  0.00     0.029 A 
ATOM     45  C   UNL     1       7.409  -0.989  13.236  1.00  0.00     0.049 A 
ATOM     46  H   UNL     1       5.733   0.159  13.928  1.00  0.00     0.167 HD
ATOM     47  C   UNL     1       6.380  -6.748  15.894  1.00  0.00     0.037 A 
ATOM     48  C   UNL     1       8.607  -0.416  13.551  1.00  0.00     0.037 A 
ATOM     49  C   UNL     1       7.521  -6.436  15.047  1.00  0.00     0.049 A 
ATOM     50  C   UNL     1       9.698  -1.417  13.860  1.00  0.00     0.074 A 
ATOM     51  C   UNL     1       7.680  -6.419  13.671  1.00  0.00     0.029 A 
ATOM     52  N   UNL     1       8.633  -5.793  15.578  1.00  0.00    -0.354 N 
ATOM     53  N   UNL     1       9.475  -2.676  14.110  1.00  0.00    -0.248 NA
ATOM     54  C   UNL     1      11.115  -1.075  13.970  1.00  0.00     0.031 C 
ATOM     55  C   UNL     1       8.879  -5.738  13.370  1.00  0.00     0.029 A 
ATOM     56  C   UNL     1       9.453  -5.338  14.563  1.00  0.00     0.049 A 
ATOM     57  H   UNL     1       8.811  -5.678  16.540  1.00  0.00     0.167 HD
ATOM     58  C   UNL     1      10.649  -3.294  14.459  1.00  0.00     0.074 A 
ATOM     59  C   UNL     1      11.652  -2.257  14.324  1.00  0.00     0.031 C 
ATOM     60  C   UNL     1      10.676  -4.604  14.848  1.00  0.00     0.037 A 
BRANCH  47  61
ATOM     61  C   UNL     1       5.777  -8.123  16.041  1.00  0.00     0.058 A 
ATOM     62  C   UNL     1       5.784  -9.050  14.979  1.00  0.00     0.135 A 
ATOM     63  C   UNL     1       5.123  -8.552  17.213  1.00  0.00     0.135 A 
ATOM     64  F   UNL     1       6.412  -8.793  13.825  1.00  0.00    -0.206 F 
ATOM     65  C   UNL     1       5.110 -10.269  15.037  1.00  0.00     0.059 A 
ATOM     66  C   UNL     1       4.404  -9.751  17.280  1.00  0.00     0.059 A 
ATOM     67  F   UNL     1       5.150  -7.799  18.324  1.00  0.00    -0.206 F 
ATOM     68  C   UNL     1       4.394 -10.599  16.179  1.00  0.00     0.060 A 
BRANCH  68  69
ATOM     69  S   UNL     1       3.408 -12.110  16.170  1.00  0.00     0.124 S 
ATOM     70  O   UNL     1       2.731 -12.033  14.878  1.00  0.00    -0.237 OA
ATOM     71  O   UNL     1       4.432 -13.141  16.289  1.00  0.00    -0.237 OA
ATOM     72  O   UNL     1       2.536 -11.949  17.331  1.00  0.00    -0.744 OA
ENDBRANCH  68  69
ENDBRANCH  47  61
BRANCH  48  73
ATOM     73  C   UNL     1       8.503   0.925  14.176  1.00  0.00     0.058 A 
ATOM     74  C   UNL     1       8.079   1.996  13.370  1.00  0.00     0.135 A 
ATOM     75  C   UNL     1       8.374   1.054  15.566  1.00  0.00     0.135 A 
ATOM     76  F   UNL     1       8.212   1.929  12.036  1.00  0.00    -0.206 F 
ATOM     77  C   UNL     1       7.384   3.071  13.908  1.00  0.00     0.059 A 
ATOM     78  C   UNL     1       7.682   2.125  16.127  1.00  0.00     0.059 A 
ATOM     79  F   UNL     1       8.762   0.058  16.376  1.00  0.00    -0.206 F 
ATOM     80  C   UNL     1       7.126   3.084  15.278  1.00  0.00     0.060 A 
BRANCH  80  81
ATOM     81  S   UNL     1       5.874   4.239  15.885  1.00  0.00     0.124 S 
ATOM     82  O   UNL     1       6.417   5.525  15.463  1.00  0.00    -0.237 OA
ATOM     83  O   UNL     1       4.692   3.779  15.159  1.00  0.00    -0.237 OA
ATOM     84  O   UNL     1       5.867   3.992  17.322  1.00  0.00    -0.744 OA
ENDBRANCH  80  81
ENDBRANCH  48  73
BRANCH  60  85
ATOM     85  C   UNL     1      11.856  -5.346  15.430  1.00  0.00     0.058 A 
ATOM     86  C   UNL     1      12.871  -4.743  16.191  1.00  0.00     0.135 A 
ATOM     87  C   UNL     1      11.924  -6.760  15.340  1.00  0.00     0.135 A 
ATOM     88  F   UNL     1      12.861  -3.427  16.445  1.00  0.00    -0.206 F 
ATOM     89  C   UNL     1      13.915  -5.475  16.765  1.00  0.00     0.059 A 
ATOM     90  C   UNL     1      12.926  -7.513  15.947  1.00  0.00     0.059 A 
ATOM     91  F   UNL     1      11.003  -7.463  14.663  1.00  0.00    -0.206 F 
ATOM     92  C   UNL     1      13.935  -6.860  16.637  1.00  0.00     0.060 A 
BRANCH  92  93
ATOM     93  S   UNL     1      15.241  -7.824  17.421  1.00  0.00     0.124 S 
ATOM     94  O   UNL     1      16.197  -7.963  16.328  1.00  0.00    -0.237 OA
ATOM     95  O   UNL     1      15.667  -6.965  18.523  1.00  0.00    -0.237 OA
ATOM     96  O   UNL     1      14.553  -9.047  17.821  1.00  0.00    -0.744 OA
ENDBRANCH  92  93
ENDBRANCH  60  85
ENDBRANCH  34  35
ENDBRANCH  26  29
ENDBRANCH  24  25
ENDBRANCH   1  24
TORSDOF 16
