REMARK SMILES CC1=C(C)C[C@@H](C(=O)NCCCCNC(=O)c2ccc(-c3c4nc(c(-c5c(F)cc(S(=O)(=O)[O-])cc5F)c5ccc([nH]5)c(-c5c(F)cc(S(=O)(=O)[O-])cc5F)c5nc(c(-c6c(F)cc(S(=O)(=O)[O-])cc6F)c6ccc3[nH]6)C=C5)C=C4)cc2)[C@@H](C(=O)N2CCN(c3cccc(C(F)(F)F)c3)CC2)C1
REMARK SMILES IDX 11 1 10 2 9 3 7 4 8 5 6 7 1 8 2 9 3 10 102 11 4 12 5 13
REMARK SMILES IDX 83 14 84 15 85 16 86 17 87 18 101 19 88 20 100 21 89 22
REMARK SMILES IDX 90 23 91 24 99 25 92 26 94 27 93 28 95 29 96 30 97 31 98 32
REMARK SMILES IDX 12 33 13 34 14 35 15 36 16 38 17 39 18 40 82 41 19 42 81 43
REMARK SMILES IDX 20 44 21 45 22 46 75 47 23 48 80 49 74 50 76 51 24 52 79 53
REMARK SMILES IDX 73 54 72 55 25 57 59 58 38 59 58 60 39 61 42 62 57 63 77 64
REMARK SMILES IDX 40 65 41 66 56 68 78 69 43 70 26 71 27 72 36 73 28 74 29 75
REMARK SMILES IDX 35 76 37 77 30 78 31 79 32 80 33 81 34 82 60 83 61 84 70 85
REMARK SMILES IDX 62 86 63 87 69 88 71 89 64 90 65 91 66 92 67 93 68 94 44 95
REMARK SMILES IDX 45 96 54 97 46 98 47 99 53 100 55 101 48 102 49 103 50 104
REMARK SMILES IDX 51 105 52 106
REMARK H PARENT 9 6 14 37 76 56 42 67
REMARK Flexibility Score: inf
ROOT
ATOM      1  C   UNL     1      -2.410   1.730  -0.415  1.00  0.00     0.023 C 
ENDROOT
BRANCH   1   2
ATOM      2  C   UNL     1      -2.619   0.731  -1.550  1.00  0.00     0.116 C 
BRANCH   2   3
ATOM      3  N   UNL     1      -2.913   1.323  -2.837  1.00  0.00    -0.356 N 
ATOM      4  C   UNL     1      -2.138   1.665  -3.894  1.00  0.00     0.224 C 
ATOM      5  O   UNL     1      -2.718   2.116  -4.891  1.00  0.00    -0.275 OA
ATOM      6  H   UNL     1      -3.868   1.518  -2.972  1.00  0.00     0.163 HD
BRANCH   4   7
ATOM      7  C   UNL     1      -0.615   1.524  -3.941  1.00  0.00     0.095 C 
ATOM      8  C   UNL     1       1.343   0.221  -0.203  1.00  0.00     0.039 C 
ATOM      9  C   UNL     1       0.875   0.563  -1.599  1.00  0.00    -0.074 C 
ATOM     10  C   UNL     1       0.443  -0.343  -2.501  1.00  0.00    -0.074 C 
ATOM     11  C   UNL     1       0.885   2.053  -1.883  1.00  0.00     0.045 C 
ATOM     12  C   UNL     1       0.395  -1.838  -2.293  1.00  0.00     0.039 C 
ATOM     13  C   UNL     1      -0.120   0.080  -3.837  1.00  0.00     0.045 C 
ATOM     14  C   UNL     1       0.220   2.559  -3.182  1.00  0.00     0.095 C 
BRANCH  14  15
ATOM     15  C   UNL     1      -0.542   3.853  -2.863  1.00  0.00     0.226 C 
ATOM     16  O   UNL     1      -1.630   3.880  -2.296  1.00  0.00    -0.275 OA
ATOM     17  N   UNL     1       0.152   5.031  -3.070  1.00  0.00    -0.339 N 
ATOM     18  C   UNL     1      -0.127   6.112  -2.120  1.00  0.00     0.141 C 
ATOM     19  C   UNL     1       0.352   5.486  -4.448  1.00  0.00     0.141 C 
ATOM     20  C   UNL     1       0.974   7.175  -2.145  1.00  0.00     0.138 C 
ATOM     21  C   UNL     1       1.364   6.641  -4.564  1.00  0.00     0.138 C 
ATOM     22  N   UNL     1       1.161   7.650  -3.519  1.00  0.00    -0.368 N 
BRANCH  22  23
ATOM     23  C   UNL     1       1.069   8.996  -3.781  1.00  0.00     0.037 A 
ATOM     24  C   UNL     1       1.868   9.912  -3.084  1.00  0.00     0.026 A 
ATOM     25  C   UNL     1       0.137   9.498  -4.695  1.00  0.00     0.039 A 
ATOM     26  C   UNL     1       1.748  11.286  -3.290  1.00  0.00     0.003 A 
ATOM     27  C   UNL     1      -0.021  10.881  -4.894  1.00  0.00     0.058 A 
ATOM     28  C   UNL     1       0.802  11.770  -4.188  1.00  0.00     0.013 A 
BRANCH  27  29
ATOM     29  C   UNL     1      -1.071  11.417  -5.833  1.00  0.00     0.416 C 
ATOM     30  F   UNL     1      -1.914  12.299  -5.229  1.00  0.00    -0.166 F 
ATOM     31  F   UNL     1      -0.523  12.090  -6.885  1.00  0.00    -0.166 F 
ATOM     32  F   UNL     1      -1.862  10.454  -6.382  1.00  0.00    -0.166 F 
ENDBRANCH  27  29
ENDBRANCH  22  23
ENDBRANCH  14  15
ENDBRANCH   4   7
ENDBRANCH   2   3
ENDBRANCH   1   2
BRANCH   1  33
ATOM     33  C   UNL     1      -3.630   2.591  -0.093  1.00  0.00     0.023 C 
BRANCH  33  34
ATOM     34  C   UNL     1      -4.836   1.782   0.350  1.00  0.00     0.116 C 
BRANCH  34  35
ATOM     35  N   UNL     1      -4.538   0.924   1.490  1.00  0.00    -0.352 N 
ATOM     36  C   UNL     1      -5.371   0.554   2.515  1.00  0.00     0.251 C 
ATOM     37  H   UNL     1      -3.622   0.564   1.530  1.00  0.00     0.163 HD
ATOM     38  O   UNL     1      -4.942  -0.053   3.485  1.00  0.00    -0.269 OA
BRANCH  36  39
ATOM     39  C   UNL     1      -6.790   0.939   2.424  1.00  0.00     0.039 A 
ATOM     40  C   UNL     1      -7.377   1.611   3.495  1.00  0.00     0.014 A 
ATOM     41  C   UNL     1      -7.503   0.691   1.248  1.00  0.00     0.014 A 
ATOM     42  C   UNL     1      -8.681   2.083   3.365  1.00  0.00     0.010 A 
ATOM     43  C   UNL     1      -8.769   1.233   1.092  1.00  0.00     0.010 A 
ATOM     44  C   UNL     1      -9.373   1.921   2.154  1.00  0.00    -0.014 A 
BRANCH  44  45
ATOM     45  C   UNL     1     -10.748   2.438   1.979  1.00  0.00     0.031 A 
ATOM     46  C   UNL     1     -11.875   1.471   1.747  1.00  0.00     0.074 A 
ATOM     47  C   UNL     1     -10.961   3.768   1.959  1.00  0.00     0.049 A 
ATOM     48  N   UNL     1     -13.132   1.716   1.491  1.00  0.00    -0.248 NA
ATOM     49  C   UNL     1     -11.534   0.038   1.770  1.00  0.00     0.031 C 
ATOM     50  C   UNL     1      -9.927   4.795   2.113  1.00  0.00     0.029 A 
ATOM     51  N   UNL     1     -12.117   4.484   1.790  1.00  0.00    -0.354 N 
ATOM     52  C   UNL     1     -13.725   0.474   1.302  1.00  0.00     0.074 A 
ATOM     53  C   UNL     1     -12.681  -0.519   1.415  1.00  0.00     0.031 C 
ATOM     54  C   UNL     1     -10.500   6.008   2.055  1.00  0.00     0.029 A 
ATOM     55  C   UNL     1     -11.933   5.845   1.829  1.00  0.00     0.049 A 
ATOM     56  H   UNL     1     -12.996   4.063   1.654  1.00  0.00     0.167 HD
ATOM     57  C   UNL     1     -15.030   0.187   1.083  1.00  0.00     0.037 A 
ATOM     58  C   UNL     1     -12.823   6.846   1.695  1.00  0.00     0.037 A 
ATOM     59  C   UNL     1     -16.063   1.185   1.013  1.00  0.00     0.049 A 
ATOM     60  C   UNL     1     -14.272   6.502   1.484  1.00  0.00     0.074 A 
ATOM     61  C   UNL     1     -17.426   1.005   0.859  1.00  0.00     0.029 A 
ATOM     62  N   UNL     1     -15.845   2.553   1.099  1.00  0.00    -0.354 N 
ATOM     63  N   UNL     1     -14.830   5.319   1.371  1.00  0.00    -0.248 NA
ATOM     64  C   UNL     1     -15.215   7.624   1.390  1.00  0.00     0.031 C 
ATOM     65  C   UNL     1     -18.029   2.267   0.821  1.00  0.00     0.029 A 
ATOM     66  C   UNL     1     -17.047   3.231   0.992  1.00  0.00     0.049 A 
ATOM     67  H   UNL     1     -14.966   2.978   1.219  1.00  0.00     0.167 HD
ATOM     68  C   UNL     1     -16.191   5.554   1.217  1.00  0.00     0.074 A 
ATOM     69  C   UNL     1     -16.373   6.991   1.263  1.00  0.00     0.031 C 
ATOM     70  C   UNL     1     -17.200   4.663   1.052  1.00  0.00     0.037 A 
BRANCH  57  71
ATOM     71  C   UNL     1     -15.404  -1.259   0.920  1.00  0.00     0.058 A 
ATOM     72  C   UNL     1     -15.364  -2.155   2.001  1.00  0.00     0.135 A 
ATOM     73  C   UNL     1     -15.820  -1.755  -0.325  1.00  0.00     0.135 A 
ATOM     74  F   UNL     1     -14.954  -1.739   3.210  1.00  0.00    -0.206 F 
ATOM     75  C   UNL     1     -15.691  -3.498   1.847  1.00  0.00     0.059 A 
ATOM     76  C   UNL     1     -16.179  -3.090  -0.497  1.00  0.00     0.059 A 
ATOM     77  F   UNL     1     -15.874  -0.944  -1.393  1.00  0.00    -0.206 F 
ATOM     78  C   UNL     1     -16.095  -3.957   0.592  1.00  0.00     0.060 A 
BRANCH  78  79
ATOM     79  S   UNL     1     -16.518  -5.702   0.408  1.00  0.00     0.124 S 
ATOM     80  O   UNL     1     -15.198  -6.324   0.422  1.00  0.00    -0.237 OA
ATOM     81  O   UNL     1     -17.347  -5.949   1.583  1.00  0.00    -0.237 OA
ATOM     82  O   UNL     1     -17.220  -5.748  -0.871  1.00  0.00    -0.744 OA
ENDBRANCH  78  79
ENDBRANCH  57  71
BRANCH  58  83
ATOM     83  C   UNL     1     -12.374   8.259   1.797  1.00  0.00     0.058 A 
ATOM     84  C   UNL     1     -12.691   9.034   2.922  1.00  0.00     0.135 A 
ATOM     85  C   UNL     1     -11.602   8.856   0.789  1.00  0.00     0.135 A 
ATOM     86  F   UNL     1     -13.428   8.508   3.912  1.00  0.00    -0.206 F 
ATOM     87  C   UNL     1     -12.274  10.356   3.038  1.00  0.00     0.059 A 
ATOM     88  C   UNL     1     -11.154  10.169   0.892  1.00  0.00     0.059 A 
ATOM     89  F   UNL     1     -11.255   8.150  -0.299  1.00  0.00    -0.206 F 
ATOM     90  C   UNL     1     -11.504  10.915   2.017  1.00  0.00     0.060 A 
BRANCH  90  91
ATOM     91  S   UNL     1     -10.926  12.617   2.201  1.00  0.00     0.124 S 
ATOM     92  O   UNL     1     -12.148  13.370   1.944  1.00  0.00    -0.237 OA
ATOM     93  O   UNL     1     -10.444  12.632   3.578  1.00  0.00    -0.237 OA
ATOM     94  O   UNL     1      -9.888  12.730   1.181  1.00  0.00    -0.744 OA
ENDBRANCH  90  91
ENDBRANCH  58  83
BRANCH  70  95
ATOM     95  C   UNL     1     -18.592   5.215   0.942  1.00  0.00     0.058 A 
ATOM     96  C   UNL     1     -19.039   5.853  -0.225  1.00  0.00     0.135 A 
ATOM     97  C   UNL     1     -19.505   5.050   1.996  1.00  0.00     0.135 A 
ATOM     98  F   UNL     1     -18.202   6.039  -1.257  1.00  0.00    -0.206 F 
ATOM     99  C   UNL     1     -20.341   6.328  -0.336  1.00  0.00     0.059 A 
ATOM    100  C   UNL     1     -20.818   5.495   1.897  1.00  0.00     0.059 A 
ATOM    101  F   UNL     1     -19.127   4.436   3.128  1.00  0.00    -0.206 F 
ATOM    102  C   UNL     1     -21.224   6.143   0.731  1.00  0.00     0.060 A 
BRANCH 102 103
ATOM    103  S   UNL     1     -22.922   6.730   0.561  1.00  0.00     0.124 S 
ATOM    104  O   UNL     1     -22.754   8.169   0.737  1.00  0.00    -0.237 OA
ATOM    105  O   UNL     1     -23.273   6.293  -0.787  1.00  0.00    -0.237 OA
ATOM    106  O   UNL     1     -23.628   6.043   1.639  1.00  0.00    -0.744 OA
ENDBRANCH 102 103
ENDBRANCH  70  95
ENDBRANCH  44  45
ENDBRANCH  36  39
ENDBRANCH  34  35
ENDBRANCH  33  34
ENDBRANCH   1  33
TORSDOF 17
