REMARK SMILES CCc1ncc(C[N@H+]2CCC[C@@H](c3cccc(C(=O)NCCCCNC(=O)c4ccc(-c5c6nc(c(-c7c(F)cc(S(=O)(=O)[O-])cc7F)c7ccc([nH]7)c(-c7c(F)cc(S(=O)(=O)[O-])cc7F)c7nc(c(-c8c(F)cc(S(=O)(=O)[O-])cc8F)c8ccc5[nH]8)C=C7)C=C6)cc4)c3)C2)cn1
REMARK SMILES IDX 22 1 21 2 20 3 18 4 19 5 17 7 13 8 14 9 94 10 15 11 16 12
REMARK SMILES IDX 12 13 8 14 9 15 95 16 10 18 11 19 7 20 6 21 3 22 4 23 97 24
REMARK SMILES IDX 5 25 96 26 2 27 1 28 23 29 24 30 25 31 26 32 27 34 28 35
REMARK SMILES IDX 29 36 93 37 30 38 92 39 31 40 32 41 33 42 86 43 34 44 91 45
REMARK SMILES IDX 85 46 87 47 35 48 90 49 84 50 83 51 36 53 70 54 49 55 69 56
REMARK SMILES IDX 50 57 53 58 68 59 88 60 51 61 52 62 67 64 89 65 54 66 37 67
REMARK SMILES IDX 38 68 47 69 39 70 40 71 46 72 48 73 41 74 42 75 43 76 44 77
REMARK SMILES IDX 45 78 71 79 72 80 81 81 73 82 74 83 80 84 82 85 75 86 76 87
REMARK SMILES IDX 77 88 78 89 79 90 55 91 56 92 65 93 57 94 58 95 64 96 66 97
REMARK SMILES IDX 59 98 60 99 61 100 62 101 63 102
REMARK H PARENT 20 6 8 17 25 33 87 52 53 63
REMARK Flexibility Score: inf
ROOT
ATOM      1  C   UNL     1      -3.397 -11.924   4.672  1.00  0.00     0.023 C 
ENDROOT
BRANCH   1   2
ATOM      2  C   UNL     1      -2.541 -11.413   3.525  1.00  0.00     0.116 C 
BRANCH   2   3
ATOM      3  N   UNL     1      -2.892 -11.915   2.204  1.00  0.00    -0.352 N 
ATOM      4  C   UNL     1      -3.010 -11.260   0.992  1.00  0.00     0.251 C 
ATOM      5  O   UNL     1      -3.304 -11.903  -0.013  1.00  0.00    -0.269 OA
ATOM      6  H   UNL     1      -3.077 -12.881   2.167  1.00  0.00     0.163 HD
BRANCH   4   7
ATOM      7  C   UNL     1      -2.868  -9.784   0.891  1.00  0.00     0.040 A 
ATOM      8  C   UNL     1      -2.140  -7.698   1.887  1.00  0.00    -0.039 A 
ATOM      9  C   UNL     1      -2.976  -6.996   1.011  1.00  0.00     0.004 A 
ATOM     10  C   UNL     1      -1.988  -9.075   1.705  1.00  0.00     0.018 A 
ATOM     11  C   UNL     1      -3.723  -7.683   0.051  1.00  0.00     0.001 A 
ATOM     12  C   UNL     1      -3.702  -9.079   0.019  1.00  0.00     0.014 A 
BRANCH   8  13
ATOM     13  C   UNL     1      -1.460  -7.069   3.090  1.00  0.00     0.074 C 
ATOM     14  N   UNL     1       0.510  -5.752   3.850  1.00  0.00    -0.331 N 
ATOM     15  C   UNL     1      -0.365  -4.843   4.603  1.00  0.00     0.262 C 
ATOM     16  C   UNL     1      -0.179  -6.338   2.688  1.00  0.00     0.270 C 
ATOM     17  H   UNL     1       0.735  -6.518   4.485  1.00  0.00     0.348 HD
ATOM     18  C   UNL     1      -1.639  -5.548   5.074  1.00  0.00     0.062 C 
ATOM     19  C   UNL     1      -2.394  -6.152   3.895  1.00  0.00     0.020 C 
BRANCH  14  20
ATOM     20  C   UNL     1       1.808  -5.146   3.489  1.00  0.00     0.302 C 
BRANCH  20  21
ATOM     21  C   UNL     1       1.733  -4.049   2.469  1.00  0.00     0.043 A 
ATOM     22  C   UNL     1       1.185  -2.132   0.627  1.00  0.00     0.127 A 
ATOM     23  N   UNL     1       1.233  -1.764   1.923  1.00  0.00    -0.241 NA
ATOM     24  N   UNL     1       1.453  -3.372   0.178  1.00  0.00    -0.241 NA
ATOM     25  C   UNL     1       1.521  -2.732   2.812  1.00  0.00     0.124 A 
ATOM     26  C   UNL     1       1.732  -4.300   1.112  1.00  0.00     0.124 A 
BRANCH  22  27
ATOM     27  C   UNL     1       0.637  -1.153  -0.374  1.00  0.00     0.074 C 
ATOM     28  C   UNL     1       1.046   0.285  -0.103  1.00  0.00     0.012 C 
ENDBRANCH  22  27
ENDBRANCH  20  21
ENDBRANCH  14  20
ENDBRANCH   8  13
ENDBRANCH   4   7
ENDBRANCH   2   3
ENDBRANCH   1   2
BRANCH   1  29
ATOM     29  C   UNL     1      -3.376 -13.423   4.921  1.00  0.00     0.023 C 
BRANCH  29  30
ATOM     30  C   UNL     1      -2.000 -14.072   4.979  1.00  0.00     0.116 C 
BRANCH  30  31
ATOM     31  N   UNL     1      -1.111 -13.497   5.978  1.00  0.00    -0.352 N 
ATOM     32  C   UNL     1      -0.369 -14.125   6.957  1.00  0.00     0.251 C 
ATOM     33  H   UNL     1      -1.026 -12.517   5.950  1.00  0.00     0.163 HD
ATOM     34  O   UNL     1       0.283 -13.465   7.750  1.00  0.00    -0.269 OA
BRANCH  32  35
ATOM     35  C   UNL     1      -0.411 -15.602   7.067  1.00  0.00     0.039 A 
ATOM     36  C   UNL     1      -0.649 -16.177   8.318  1.00  0.00     0.014 A 
ATOM     37  C   UNL     1      -0.271 -16.409   5.937  1.00  0.00     0.014 A 
ATOM     38  C   UNL     1      -0.844 -17.557   8.417  1.00  0.00     0.010 A 
ATOM     39  C   UNL     1      -0.554 -17.768   6.023  1.00  0.00     0.010 A 
ATOM     40  C   UNL     1      -0.847 -18.357   7.263  1.00  0.00    -0.014 A 
BRANCH  40  41
ATOM     41  C   UNL     1      -1.154 -19.809   7.323  1.00  0.00     0.031 A 
ATOM     42  C   UNL     1      -0.118 -20.814   6.899  1.00  0.00     0.074 A 
ATOM     43  C   UNL     1      -2.389 -20.220   7.674  1.00  0.00     0.049 A 
ATOM     44  N   UNL     1      -0.220 -22.114   6.796  1.00  0.00    -0.248 NA
ATOM     45  C   UNL     1       1.195 -20.281   6.503  1.00  0.00     0.031 C 
ATOM     46  C   UNL     1      -3.499 -19.343   8.055  1.00  0.00     0.029 A 
ATOM     47  N   UNL     1      -2.921 -21.482   7.761  1.00  0.00    -0.354 N 
ATOM     48  C   UNL     1       1.001 -22.550   6.295  1.00  0.00     0.074 A 
ATOM     49  C   UNL     1       1.809 -21.371   6.069  1.00  0.00     0.031 C 
ATOM     50  C   UNL     1      -4.567 -20.095   8.366  1.00  0.00     0.029 A 
ATOM     51  C   UNL     1      -4.233 -21.503   8.174  1.00  0.00     0.049 A 
ATOM     52  H   UNL     1      -2.412 -22.297   7.547  1.00  0.00     0.167 HD
ATOM     53  C   UNL     1       1.421 -23.817   6.065  1.00  0.00     0.037 A 
ATOM     54  C   UNL     1      -5.069 -22.539   8.377  1.00  0.00     0.037 A 
ATOM     55  C   UNL     1       0.628 -24.988   6.332  1.00  0.00     0.049 A 
ATOM     56  C   UNL     1      -4.575 -23.940   8.141  1.00  0.00     0.074 A 
ATOM     57  C   UNL     1       0.989 -26.318   6.211  1.00  0.00     0.029 A 
ATOM     58  N   UNL     1      -0.686 -24.968   6.775  1.00  0.00    -0.354 N 
ATOM     59  N   UNL     1      -3.395 -24.339   7.731  1.00  0.00    -0.248 NA
ATOM     60  C   UNL     1      -5.525 -25.031   8.398  1.00  0.00     0.031 C 
ATOM     61  C   UNL     1      -0.120 -27.103   6.549  1.00  0.00     0.029 A 
ATOM     62  C   UNL     1      -1.158 -26.262   6.918  1.00  0.00     0.049 A 
ATOM     63  H   UNL     1      -1.207 -24.153   6.961  1.00  0.00     0.167 HD
ATOM     64  C   UNL     1      -3.449 -25.728   7.711  1.00  0.00     0.074 A 
ATOM     65  C   UNL     1      -4.779 -26.099   8.151  1.00  0.00     0.031 C 
ATOM     66  C   UNL     1      -2.483 -26.614   7.366  1.00  0.00     0.037 A 
BRANCH  53  67
ATOM     67  C   UNL     1       2.800 -23.989   5.492  1.00  0.00     0.058 A 
ATOM     68  C   UNL     1       3.953 -23.709   6.245  1.00  0.00     0.135 A 
ATOM     69  C   UNL     1       2.973 -24.420   4.168  1.00  0.00     0.135 A 
ATOM     70  F   UNL     1       3.845 -23.279   7.513  1.00  0.00    -0.206 F 
ATOM     71  C   UNL     1       5.224 -23.796   5.689  1.00  0.00     0.059 A 
ATOM     72  C   UNL     1       4.238 -24.543   3.599  1.00  0.00     0.059 A 
ATOM     73  F   UNL     1       1.907 -24.705   3.404  1.00  0.00    -0.206 F 
ATOM     74  C   UNL     1       5.356 -24.204   4.360  1.00  0.00     0.060 A 
BRANCH  74  75
ATOM     75  S   UNL     1       7.008 -24.273   3.635  1.00  0.00     0.124 S 
ATOM     76  O   UNL     1       7.269 -22.860   3.378  1.00  0.00    -0.237 OA
ATOM     77  O   UNL     1       7.797 -24.877   4.704  1.00  0.00    -0.237 OA
ATOM     78  O   UNL     1       6.822 -25.104   2.450  1.00  0.00    -0.744 OA
ENDBRANCH  74  75
ENDBRANCH  53  67
BRANCH  54  79
ATOM     79  C   UNL     1      -6.442 -22.289   8.888  1.00  0.00     0.058 A 
ATOM     80  C   UNL     1      -6.770 -22.581  10.220  1.00  0.00     0.135 A 
ATOM     81  C   UNL     1      -7.438 -21.720   8.079  1.00  0.00     0.135 A 
ATOM     82  F   UNL     1      -5.852 -23.132  11.030  1.00  0.00    -0.206 F 
ATOM     83  C   UNL     1      -8.036 -22.322  10.734  1.00  0.00     0.059 A 
ATOM     84  C   UNL     1      -8.706 -21.433   8.575  1.00  0.00     0.059 A 
ATOM     85  F   UNL     1      -7.169 -21.409   6.801  1.00  0.00    -0.206 F 
ATOM     86  C   UNL     1      -8.996 -21.741   9.904  1.00  0.00     0.060 A 
BRANCH  86  87
ATOM     87  S   UNL     1     -10.612 -21.339  10.604  1.00  0.00     0.124 S 
ATOM     88  O   UNL     1     -11.221 -22.659  10.718  1.00  0.00    -0.237 OA
ATOM     89  O   UNL     1     -10.249 -20.692  11.862  1.00  0.00    -0.237 OA
ATOM     90  O   UNL     1     -11.200 -20.456   9.602  1.00  0.00    -0.744 OA
ENDBRANCH  86  87
ENDBRANCH  54  79
BRANCH  66  91
ATOM     91  C   UNL     1      -2.812 -28.076   7.485  1.00  0.00     0.058 A 
ATOM     92  C   UNL     1      -3.646 -28.722   6.560  1.00  0.00     0.135 A 
ATOM     93  C   UNL     1      -2.243 -28.848   8.510  1.00  0.00     0.135 A 
ATOM     94  F   UNL     1      -4.221 -28.027   5.567  1.00  0.00    -0.206 F 
ATOM     95  C   UNL     1      -3.918 -30.083   6.658  1.00  0.00     0.059 A 
ATOM     96  C   UNL     1      -2.483 -30.214   8.613  1.00  0.00     0.059 A 
ATOM     97  F   UNL     1      -1.431 -28.278   9.415  1.00  0.00    -0.206 F 
ATOM     98  C   UNL     1      -3.331 -30.821   7.688  1.00  0.00     0.060 A 
BRANCH  98  99
ATOM     99  S   UNL     1      -3.660 -32.594   7.784  1.00  0.00     0.124 S 
ATOM    100  O   UNL     1      -5.008 -32.612   8.343  1.00  0.00    -0.237 OA
ATOM    101  O   UNL     1      -3.546 -33.011   6.389  1.00  0.00    -0.237 OA
ATOM    102  O   UNL     1      -2.607 -33.087   8.666  1.00  0.00    -0.744 OA
ENDBRANCH  98  99
ENDBRANCH  66  91
ENDBRANCH  40  41
ENDBRANCH  32  35
ENDBRANCH  30  31
ENDBRANCH  29  30
ENDBRANCH   1  29
TORSDOF 18
