REMARK SMILES COc1cc([C@@H]2CC(=O)Nc3c(C(=O)NCCCCNC(=O)c4ccc(-c5c6nc(c(-c7c(F)cc(S(=O)(=O)[O-])cc7F)c7ccc([nH]7)c(-c7c(F)cc(S(=O)(=O)[O-])cc7F)c7nc(c(-c8c(F)cc(S(=O)(=O)[O-])cc8F)c8ccc5[nH]8)C=C7)C=C6)cc4)cn(-c4ccc(F)cc4)c32)c(OC)c2c1OCO2
REMARK SMILES IDX 18 1 17 2 16 3 15 4 13 5 14 6 12 8 6 9 7 10 98 11 8 12 11 13
REMARK SMILES IDX 90 14 9 15 10 16 89 17 5 19 3 20 4 21 103 22 102 23 104 24
REMARK SMILES IDX 99 25 106 26 105 27 2 28 1 29 100 30 101 31 91 32 92 33
REMARK SMILES IDX 97 34 93 35 96 36 94 37 95 38 19 39 20 40 21 41 22 43 23 44
REMARK SMILES IDX 24 45 88 46 25 47 87 48 26 49 27 50 28 51 81 52 29 53 86 54
REMARK SMILES IDX 80 55 82 56 30 57 85 58 79 59 78 60 31 62 65 63 44 64 64 65
REMARK SMILES IDX 45 66 48 67 63 68 83 69 46 70 47 71 62 73 84 74 49 75 32 76
REMARK SMILES IDX 33 77 42 78 34 79 35 80 41 81 43 82 36 83 37 84 38 85 39 86
REMARK SMILES IDX 40 87 66 88 67 89 76 90 68 91 69 92 75 93 77 94 70 95 71 96
REMARK SMILES IDX 72 97 73 98 74 99 50 100 51 101 60 102 52 103 53 104 59 105
REMARK SMILES IDX 61 106 54 107 55 108 56 109 57 110 58 111
REMARK H PARENT 15 7 10 18 20 42 82 61 48 72
REMARK Flexibility Score: inf
ROOT
ATOM      1  C   UNL     1      -0.466   9.917  -8.217  1.00  0.00     0.023 C 
ENDROOT
BRANCH   1   2
ATOM      2  C   UNL     1      -0.214   8.725  -7.287  1.00  0.00     0.023 C 
BRANCH   2   3
ATOM      3  C   UNL     1       0.519   9.065  -5.980  1.00  0.00     0.116 C 
BRANCH   3   4
ATOM      4  N   UNL     1      -0.411   9.465  -4.951  1.00  0.00    -0.352 N 
ATOM      5  C   UNL     1      -1.135   8.796  -4.002  1.00  0.00     0.254 C 
ATOM      6  O   UNL     1      -1.835   9.527  -3.291  1.00  0.00    -0.269 OA
ATOM      7  H   UNL     1      -0.557  10.438  -4.927  1.00  0.00     0.163 HD
BRANCH   5   8
ATOM      8  C   UNL     1      -1.132   7.341  -3.773  1.00  0.00     0.081 A 
ATOM      9  C   UNL     1      -0.745   3.623  -4.064  1.00  0.00     0.082 C 
ATOM     10  C   UNL     1      -0.644   3.521  -5.589  1.00  0.00     0.115 C 
ATOM     11  C   UNL     1      -0.986   5.052  -3.655  1.00  0.00     0.055 A 
ATOM     12  C   UNL     1       0.044   4.697  -6.239  1.00  0.00     0.225 C 
ATOM     13  C   UNL     1      -0.712   6.153  -4.449  1.00  0.00     0.076 A 
ATOM     14  N   UNL     1      -1.657   5.490  -2.534  1.00  0.00    -0.317 N 
ATOM     15  O   UNL     1       0.627   4.591  -7.319  1.00  0.00    -0.275 OA
ATOM     16  N   UNL     1      -0.139   5.931  -5.678  1.00  0.00    -0.324 N 
ATOM     17  C   UNL     1      -1.770   6.853  -2.628  1.00  0.00     0.107 A 
ATOM     18  H   UNL     1       0.161   6.716  -6.191  1.00  0.00     0.170 HD
BRANCH   9  19
ATOM     19  C   UNL     1       0.427   2.913  -3.381  1.00  0.00     0.012 A 
ATOM     20  C   UNL     1       1.100   0.981  -2.020  1.00  0.00     0.165 A 
ATOM     21  C   UNL     1       0.139   1.668  -2.756  1.00  0.00     0.059 A 
ATOM     22  C   UNL     1       2.382   1.487  -2.006  1.00  0.00     0.211 A 
ATOM     23  C   UNL     1       2.701   2.665  -2.654  1.00  0.00     0.211 A 
ATOM     24  O   UNL     1       3.460   0.916  -1.398  1.00  0.00    -0.449 OA
ATOM     25  C   UNL     1       1.749   3.413  -3.340  1.00  0.00     0.168 A 
ATOM     26  O   UNL     1       4.027   2.957  -2.514  1.00  0.00    -0.449 OA
ATOM     27  C   UNL     1       4.506   1.825  -1.773  1.00  0.00     0.468 C 
BRANCH  20  28
ATOM     28  O   UNL     1       0.697  -0.160  -1.389  1.00  0.00    -0.493 OA
ATOM     29  C   UNL     1       1.000  -0.137   0.006  1.00  0.00     0.278 C 
ENDBRANCH  20  28
BRANCH  25  30
ATOM     30  O   UNL     1       1.967   4.590  -3.990  1.00  0.00    -0.492 OA
ATOM     31  C   UNL     1       3.279   5.137  -4.007  1.00  0.00     0.278 C 
ENDBRANCH  25  30
ENDBRANCH   9  19
BRANCH  14  32
ATOM     32  C   UNL     1      -2.281   4.691  -1.547  1.00  0.00     0.046 A 
ATOM     33  C   UNL     1      -1.548   3.711  -0.872  1.00  0.00     0.029 A 
ATOM     34  C   UNL     1      -3.654   4.834  -1.315  1.00  0.00     0.029 A 
ATOM     35  C   UNL     1      -2.204   2.798  -0.048  1.00  0.00     0.041 A 
ATOM     36  C   UNL     1      -4.305   3.917  -0.487  1.00  0.00     0.041 A 
ATOM     37  C   UNL     1      -3.579   2.895   0.119  1.00  0.00     0.123 A 
ATOM     38  F   UNL     1      -4.216   1.988   0.872  1.00  0.00    -0.207 F 
ENDBRANCH  14  32
ENDBRANCH   5   8
ENDBRANCH   3   4
ENDBRANCH   2   3
ENDBRANCH   1   2
BRANCH   1  39
ATOM     39  C   UNL     1       0.779  10.387  -8.967  1.00  0.00     0.116 C 
BRANCH  39  40
ATOM     40  N   UNL     1       1.285   9.386  -9.905  1.00  0.00    -0.352 N 
ATOM     41  C   UNL     1       2.549   9.311 -10.463  1.00  0.00     0.251 C 
ATOM     42  H   UNL     1       0.651   8.681 -10.171  1.00  0.00     0.163 HD
ATOM     43  O   UNL     1       2.748   8.719 -11.508  1.00  0.00    -0.269 OA
BRANCH  41  44
ATOM     44  C   UNL     1       3.657   9.961  -9.743  1.00  0.00     0.039 A 
ATOM     45  C   UNL     1       4.537  10.823 -10.403  1.00  0.00     0.014 A 
ATOM     46  C   UNL     1       3.747   9.743  -8.369  1.00  0.00     0.014 A 
ATOM     47  C   UNL     1       5.460  11.546  -9.650  1.00  0.00     0.010 A 
ATOM     48  C   UNL     1       4.586  10.531  -7.619  1.00  0.00     0.010 A 
ATOM     49  C   UNL     1       5.463  11.416  -8.253  1.00  0.00    -0.014 A 
BRANCH  49  50
ATOM     50  C   UNL     1       6.244  12.338  -7.421  1.00  0.00     0.031 A 
ATOM     51  C   UNL     1       5.889  13.780  -7.605  1.00  0.00     0.074 A 
ATOM     52  C   UNL     1       6.976  11.897  -6.371  1.00  0.00     0.049 A 
ATOM     53  N   UNL     1       6.647  14.759  -7.978  1.00  0.00    -0.248 NA
ATOM     54  C   UNL     1       4.467  14.159  -7.489  1.00  0.00     0.031 C 
ATOM     55  C   UNL     1       7.099  10.504  -5.915  1.00  0.00     0.029 A 
ATOM     56  N   UNL     1       7.635  12.585  -5.395  1.00  0.00    -0.354 N 
ATOM     57  C   UNL     1       5.857  15.909  -7.886  1.00  0.00     0.074 A 
ATOM     58  C   UNL     1       4.499  15.454  -7.809  1.00  0.00     0.031 C 
ATOM     59  C   UNL     1       7.542  10.481  -4.641  1.00  0.00     0.029 A 
ATOM     60  C   UNL     1       7.907  11.831  -4.255  1.00  0.00     0.049 A 
ATOM     61  H   UNL     1       7.895  13.530  -5.487  1.00  0.00     0.167 HD
ATOM     62  C   UNL     1       6.409  17.114  -7.559  1.00  0.00     0.037 A 
ATOM     63  C   UNL     1       8.381  12.273  -3.063  1.00  0.00     0.037 A 
ATOM     64  C   UNL     1       7.841  17.061  -7.701  1.00  0.00     0.049 A 
ATOM     65  C   UNL     1       9.024  13.584  -3.307  1.00  0.00     0.074 A 
ATOM     66  C   UNL     1       8.749  17.008  -8.735  1.00  0.00     0.029 A 
ATOM     67  N   UNL     1       8.494  16.678  -6.559  1.00  0.00    -0.354 N 
ATOM     68  N   UNL     1      10.084  13.739  -4.051  1.00  0.00    -0.248 NA
ATOM     69  C   UNL     1       8.291  14.808  -3.003  1.00  0.00     0.031 C 
ATOM     70  C   UNL     1       9.909  16.367  -8.206  1.00  0.00     0.029 A 
ATOM     71  C   UNL     1       9.691  16.088  -6.857  1.00  0.00     0.049 A 
ATOM     72  H   UNL     1       8.148  16.810  -5.647  1.00  0.00     0.167 HD
ATOM     73  C   UNL     1       9.907  14.970  -4.650  1.00  0.00     0.074 A 
ATOM     74  C   UNL     1       8.903  15.649  -3.841  1.00  0.00     0.031 C 
ATOM     75  C   UNL     1      10.339  15.191  -5.924  1.00  0.00     0.037 A 
BRANCH  62  76
ATOM     76  C   UNL     1       5.773  18.153  -6.637  1.00  0.00     0.058 A 
ATOM     77  C   UNL     1       6.482  19.349  -6.371  1.00  0.00     0.135 A 
ATOM     78  C   UNL     1       4.693  17.897  -5.763  1.00  0.00     0.135 A 
ATOM     79  F   UNL     1       7.518  19.717  -7.143  1.00  0.00    -0.206 F 
ATOM     80  C   UNL     1       6.211  20.160  -5.265  1.00  0.00     0.059 A 
ATOM     81  C   UNL     1       4.377  18.717  -4.683  1.00  0.00     0.059 A 
ATOM     82  F   UNL     1       3.940  16.796  -5.845  1.00  0.00    -0.206 F 
ATOM     83  C   UNL     1       5.168  19.819  -4.412  1.00  0.00     0.060 A 
BRANCH  83  84
ATOM     84  S   UNL     1       4.882  20.786  -2.919  1.00  0.00     0.124 S 
ATOM     85  O   UNL     1       6.060  20.452  -2.127  1.00  0.00    -0.237 OA
ATOM     86  O   UNL     1       4.827  22.146  -3.445  1.00  0.00    -0.237 OA
ATOM     87  O   UNL     1       3.614  20.262  -2.420  1.00  0.00    -0.744 OA
ENDBRANCH  83  84
ENDBRANCH  62  76
BRANCH  63  88
ATOM     88  C   UNL     1       8.121  11.755  -1.695  1.00  0.00     0.058 A 
ATOM     89  C   UNL     1       8.936  12.124  -0.610  1.00  0.00     0.135 A 
ATOM     90  C   UNL     1       6.904  11.121  -1.371  1.00  0.00     0.135 A 
ATOM     91  F   UNL     1      10.109  12.737  -0.825  1.00  0.00    -0.206 F 
ATOM     92  C   UNL     1       8.539  11.938   0.719  1.00  0.00     0.059 A 
ATOM     93  C   UNL     1       6.492  10.917  -0.054  1.00  0.00     0.059 A 
ATOM     94  F   UNL     1       6.036  10.764  -2.330  1.00  0.00    -0.206 F 
ATOM     95  C   UNL     1       7.301  11.357   0.987  1.00  0.00     0.060 A 
BRANCH  95  96
ATOM     96  S   UNL     1       6.700  11.295   2.693  1.00  0.00     0.124 S 
ATOM     97  O   UNL     1       7.583  10.297   3.287  1.00  0.00    -0.237 OA
ATOM     98  O   UNL     1       6.900  12.669   3.140  1.00  0.00    -0.237 OA
ATOM     99  O   UNL     1       5.306  10.886   2.545  1.00  0.00    -0.744 OA
ENDBRANCH  95  96
ENDBRANCH  63  88
BRANCH  75 100
ATOM    100  C   UNL     1      11.458  14.335  -6.439  1.00  0.00     0.058 A 
ATOM    101  C   UNL     1      11.364  12.963  -6.721  1.00  0.00     0.135 A 
ATOM    102  C   UNL     1      12.666  14.976  -6.750  1.00  0.00     0.135 A 
ATOM    103  F   UNL     1      10.218  12.295  -6.530  1.00  0.00    -0.206 F 
ATOM    104  C   UNL     1      12.438  12.252  -7.258  1.00  0.00     0.059 A 
ATOM    105  C   UNL     1      13.738  14.297  -7.314  1.00  0.00     0.059 A 
ATOM    106  F   UNL     1      12.797  16.298  -6.547  1.00  0.00    -0.206 F 
ATOM    107  C   UNL     1      13.622  12.930  -7.554  1.00  0.00     0.060 A 
BRANCH 107 108
ATOM    108  S   UNL     1      14.989  12.030  -8.313  1.00  0.00     0.124 S 
ATOM    109  O   UNL     1      15.460  11.199  -7.210  1.00  0.00    -0.237 OA
ATOM    110  O   UNL     1      14.332  11.319  -9.407  1.00  0.00    -0.237 OA
ATOM    111  O   UNL     1      15.904  13.089  -8.732  1.00  0.00    -0.744 OA
ENDBRANCH 107 108
ENDBRANCH  75 100
ENDBRANCH  49  50
ENDBRANCH  41  44
ENDBRANCH  39  40
ENDBRANCH   1  39
TORSDOF 18
