REMARK SMILES CC[C@@](C)(NC(=O)c1cncc(O)c1)C(=O)NCCCCNC(=O)c1ccc(-c2c3nc(c(-c4c(F)cc(S(=O)(=O)[O-])cc4F)c4ccc([nH]4)c(-c4c(F)cc(S(=O)(=O)[O-])cc4F)c4nc(c(-c5c(F)cc(S(=O)(=O)[O-])cc5F)c5ccc2[nH]5)C=C4)C=C3)cc1
REMARK SMILES IDX 19 1 18 2 17 3 15 4 16 5 3 7 4 8 2 9 1 10 5 11 6 12 7 14
REMARK SMILES IDX 8 15 9 16 14 17 10 18 12 19 11 20 13 21 20 23 21 24 22 25
REMARK SMILES IDX 23 26 24 28 25 29 26 30 90 31 27 32 89 33 28 34 29 35 30 36
REMARK SMILES IDX 83 37 31 38 88 39 82 40 84 41 32 42 87 43 81 44 80 45 33 47
REMARK SMILES IDX 67 48 46 49 66 50 47 51 50 52 65 53 85 54 48 55 49 56 64 58
REMARK SMILES IDX 86 59 51 60 34 61 35 62 44 63 36 64 37 65 43 66 45 67 38 68
REMARK SMILES IDX 39 69 40 70 41 71 42 72 68 73 69 74 78 75 70 76 71 77 77 78
REMARK SMILES IDX 79 79 72 80 73 81 74 82 75 83 76 84 52 85 53 86 62 87 54 88
REMARK SMILES IDX 55 89 61 90 63 91 56 92 57 93 58 94 59 95 60 96
REMARK H PARENT 17 6 5 13 13 22 22 27 84 46 50 57
REMARK Flexibility Score: inf
ROOT
ATOM      1  C   UNL     1       2.396  -1.546   6.067  1.00  0.00     0.023 C 
ENDROOT
BRANCH   1   2
ATOM      2  C   UNL     1       1.970  -0.206   5.466  1.00  0.00     0.116 C 
BRANCH   2   3
ATOM      3  N   UNL     1       2.603   0.197   4.221  1.00  0.00    -0.354 N 
ATOM      4  C   UNL     1       2.279   0.030   2.904  1.00  0.00     0.245 C 
ATOM      5  O   UNL     1       2.939   0.713   2.114  1.00  0.00    -0.272 OA
ATOM      6  H   UNL     1       3.441   0.695   4.355  1.00  0.00     0.163 HD
BRANCH   4   7
ATOM      7  C   UNL     1       1.120  -0.885   2.413  1.00  0.00     0.116 C 
ATOM      8  C   UNL     1      -0.193  -0.126   2.731  1.00  0.00     0.045 C 
BRANCH   7   9
ATOM      9  C   UNL     1       1.147  -1.175   0.881  1.00  0.00     0.035 C 
ATOM     10  C   UNL     1       1.093   0.015  -0.072  1.00  0.00     0.007 C 
ENDBRANCH   7   9
BRANCH   7  11
ATOM     11  N   UNL     1       1.061  -2.200   3.103  1.00  0.00    -0.338 N 
ATOM     12  C   UNL     1       1.797  -3.361   3.025  1.00  0.00     0.253 C 
ATOM     13  H   UNL     1       0.333  -2.252   3.763  1.00  0.00     0.164 HD
ATOM     14  O   UNL     1       1.185  -4.388   3.335  1.00  0.00    -0.269 OA
BRANCH  12  15
ATOM     15  C   UNL     1       3.239  -3.491   2.680  1.00  0.00     0.061 A 
ATOM     16  C   UNL     1       3.727  -4.778   2.443  1.00  0.00     0.125 A 
ATOM     17  C   UNL     1       4.197  -2.485   2.748  1.00  0.00     0.063 A 
ATOM     18  N   UNL     1       5.040  -5.100   2.288  1.00  0.00    -0.260 NA
ATOM     19  C   UNL     1       5.552  -2.782   2.621  1.00  0.00     0.134 A 
ATOM     20  C   UNL     1       5.930  -4.091   2.405  1.00  0.00     0.157 A 
BRANCH  19  21
ATOM     21  O   UNL     1       6.503  -1.817   2.760  1.00  0.00    -0.506 OA
ATOM     22  H   UNL     1       7.410  -2.037   2.671  1.00  0.00     0.293 HD
ENDBRANCH  19  21
ENDBRANCH  12  15
ENDBRANCH   7  11
ENDBRANCH   4   7
ENDBRANCH   2   3
ENDBRANCH   1   2
BRANCH   1  23
ATOM     23  C   UNL     1       3.888  -1.799   6.277  1.00  0.00     0.023 C 
BRANCH  23  24
ATOM     24  C   UNL     1       4.681  -0.697   6.957  1.00  0.00     0.116 C 
BRANCH  24  25
ATOM     25  N   UNL     1       4.197  -0.398   8.291  1.00  0.00    -0.352 N 
ATOM     26  C   UNL     1       4.902  -0.268   9.460  1.00  0.00     0.251 C 
ATOM     27  H   UNL     1       3.224  -0.268   8.368  1.00  0.00     0.163 HD
ATOM     28  O   UNL     1       4.287  -0.156  10.523  1.00  0.00    -0.269 OA
BRANCH  26  29
ATOM     29  C   UNL     1       6.383  -0.287   9.460  1.00  0.00     0.039 A 
ATOM     30  C   UNL     1       7.046  -0.999  10.466  1.00  0.00     0.014 A 
ATOM     31  C   UNL     1       7.122   0.408   8.498  1.00  0.00     0.014 A 
ATOM     32  C   UNL     1       8.443  -1.050  10.480  1.00  0.00     0.010 A 
ATOM     33  C   UNL     1       8.512   0.298   8.473  1.00  0.00     0.010 A 
ATOM     34  C   UNL     1       9.188  -0.420   9.470  1.00  0.00    -0.014 A 
BRANCH  34  35
ATOM     35  C   UNL     1      10.673  -0.477   9.458  1.00  0.00     0.031 A 
ATOM     36  C   UNL     1      11.476   0.784   9.634  1.00  0.00     0.074 A 
ATOM     37  C   UNL     1      11.298  -1.650   9.234  1.00  0.00     0.049 A 
ATOM     38  N   UNL     1      12.773   0.954   9.582  1.00  0.00    -0.248 NA
ATOM     39  C   UNL     1      10.720   2.024   9.873  1.00  0.00     0.031 C 
ATOM     40  C   UNL     1      10.631  -2.933   9.003  1.00  0.00     0.029 A 
ATOM     41  N   UNL     1      12.634  -1.952   9.151  1.00  0.00    -0.354 N 
ATOM     42  C   UNL     1      12.986   2.316   9.763  1.00  0.00     0.074 A 
ATOM     43  C   UNL     1      11.683   2.934   9.876  1.00  0.00     0.031 C 
ATOM     44  C   UNL     1      11.561  -3.886   8.822  1.00  0.00     0.029 A 
ATOM     45  C   UNL     1      12.887  -3.278   8.891  1.00  0.00     0.049 A 
ATOM     46  H   UNL     1      13.346  -1.282   9.268  1.00  0.00     0.167 HD
ATOM     47  C   UNL     1      14.159   2.987   9.851  1.00  0.00     0.037 A 
ATOM     48  C   UNL     1      14.053  -3.930   8.721  1.00  0.00     0.037 A 
ATOM     49  C   UNL     1      15.453   2.361   9.771  1.00  0.00     0.049 A 
ATOM     50  C   UNL     1      15.345  -3.167   8.836  1.00  0.00     0.074 A 
ATOM     51  C   UNL     1      16.701   2.944   9.905  1.00  0.00     0.029 A 
ATOM     52  N   UNL     1      15.666   1.010   9.538  1.00  0.00    -0.354 N 
ATOM     53  N   UNL     1      15.528  -1.888   9.065  1.00  0.00    -0.248 NA
ATOM     54  C   UNL     1      16.588  -3.934   8.680  1.00  0.00     0.031 C 
ATOM     55  C   UNL     1      17.670   1.952   9.719  1.00  0.00     0.029 A 
ATOM     56  C   UNL     1      17.025   0.743   9.510  1.00  0.00     0.049 A 
ATOM     57  H   UNL     1      14.957   0.340   9.411  1.00  0.00     0.167 HD
ATOM     58  C   UNL     1      16.906  -1.702   9.104  1.00  0.00     0.074 A 
ATOM     59  C   UNL     1      17.508  -3.001   8.887  1.00  0.00     0.031 C 
ATOM     60  C   UNL     1      17.608  -0.559   9.301  1.00  0.00     0.037 A 
BRANCH  47  61
ATOM     61  C   UNL     1      14.095   4.476  10.053  1.00  0.00     0.058 A 
ATOM     62  C   UNL     1      13.669   5.037  11.269  1.00  0.00     0.135 A 
ATOM     63  C   UNL     1      14.487   5.355   9.030  1.00  0.00     0.135 A 
ATOM     64  F   UNL     1      13.269   4.244  12.275  1.00  0.00    -0.206 F 
ATOM     65  C   UNL     1      13.602   6.414  11.451  1.00  0.00     0.059 A 
ATOM     66  C   UNL     1      14.454   6.736   9.201  1.00  0.00     0.059 A 
ATOM     67  F   UNL     1      14.903   4.874   7.848  1.00  0.00    -0.206 F 
ATOM     68  C   UNL     1      13.993   7.256  10.410  1.00  0.00     0.060 A 
BRANCH  68  69
ATOM     69  S   UNL     1      13.894   9.041  10.660  1.00  0.00     0.124 S 
ATOM     70  O   UNL     1      12.455   9.267  10.569  1.00  0.00    -0.237 OA
ATOM     71  O   UNL     1      14.478   9.205  11.988  1.00  0.00    -0.237 OA
ATOM     72  O   UNL     1      14.685   9.583   9.560  1.00  0.00    -0.744 OA
ENDBRANCH  68  69
ENDBRANCH  47  61
BRANCH  48  73
ATOM     73  C   UNL     1      14.053  -5.392   8.448  1.00  0.00     0.058 A 
ATOM     74  C   UNL     1      14.475  -6.307   9.424  1.00  0.00     0.135 A 
ATOM     75  C   UNL     1      13.617  -5.904   7.216  1.00  0.00     0.135 A 
ATOM     76  F   UNL     1      14.906  -5.864  10.615  1.00  0.00    -0.206 F 
ATOM     77  C   UNL     1      14.478  -7.677   9.186  1.00  0.00     0.059 A 
ATOM     78  C   UNL     1      13.589  -7.272   6.962  1.00  0.00     0.059 A 
ATOM     79  F   UNL     1      13.189  -5.071   6.255  1.00  0.00    -0.206 F 
ATOM     80  C   UNL     1      14.031  -8.151   7.951  1.00  0.00     0.060 A 
BRANCH  80  81
ATOM     81  S   UNL     1      13.994  -9.934   7.670  1.00  0.00     0.124 S 
ATOM     82  O   UNL     1      15.410 -10.232   7.486  1.00  0.00    -0.237 OA
ATOM     83  O   UNL     1      13.393 -10.428   8.905  1.00  0.00    -0.237 OA
ATOM     84  O   UNL     1      13.160 -10.068   6.480  1.00  0.00    -0.744 OA
ENDBRANCH  80  81
ENDBRANCH  48  73
BRANCH  60  85
ATOM     85  C   UNL     1      19.107  -0.664   9.325  1.00  0.00     0.058 A 
ATOM     86  C   UNL     1      19.851  -0.858   8.151  1.00  0.00     0.135 A 
ATOM     87  C   UNL     1      19.811  -0.514  10.531  1.00  0.00     0.135 A 
ATOM     88  F   UNL     1      19.226  -1.012   6.973  1.00  0.00    -0.206 F 
ATOM     89  C   UNL     1      21.241  -0.920   8.175  1.00  0.00     0.059 A 
ATOM     90  C   UNL     1      21.201  -0.548  10.575  1.00  0.00     0.059 A 
ATOM     91  F   UNL     1      19.146  -0.316  11.681  1.00  0.00    -0.206 F 
ATOM     92  C   UNL     1      21.907  -0.762   9.392  1.00  0.00     0.060 A 
BRANCH  92  93
ATOM     93  S   UNL     1      23.712  -0.807   9.404  1.00  0.00     0.124 S 
ATOM     94  O   UNL     1      23.971  -2.235   9.252  1.00  0.00    -0.237 OA
ATOM     95  O   UNL     1      24.054   0.025   8.255  1.00  0.00    -0.237 OA
ATOM     96  O   UNL     1      24.056  -0.241  10.705  1.00  0.00    -0.744 OA
ENDBRANCH  92  93
ENDBRANCH  60  85
ENDBRANCH  34  35
ENDBRANCH  26  29
ENDBRANCH  24  25
ENDBRANCH  23  24
ENDBRANCH   1  23
TORSDOF 18
