REMARK SMILES Cc1ccc2c(CC(=O)N3CCC(C(=O)NCCCCNC(=O)c4ccc(-c5c6nc(c(-c7c(F)cc(S(=O)(=O)[O-])cc7F)c7ccc([nH]7)c(-c7c(F)cc(S(=O)(=O)[O-])cc7F)c7nc(c(-c8c(F)cc(S(=O)(=O)[O-])cc8F)c8ccc5[nH]8)C=C7)C=C6)cc4)CC3)coc2c1
REMARK SMILES IDX 19 1 18 2 17 3 16 4 14 5 15 6 13 8 8 9 9 10 10 11 11 12
REMARK SMILES IDX 91 13 12 14 90 15 7 16 6 17 1 18 2 19 3 20 95 21 4 22 94 23
REMARK SMILES IDX 5 24 93 25 92 26 20 27 21 28 22 29 23 31 24 32 25 33 89 34
REMARK SMILES IDX 26 35 88 36 27 37 28 38 29 39 82 40 30 41 87 42 81 43 83 44
REMARK SMILES IDX 31 45 86 46 80 47 79 48 32 50 66 51 45 52 65 53 46 54 49 55
REMARK SMILES IDX 64 56 84 57 47 58 48 59 63 61 85 62 50 63 33 64 34 65 43 66
REMARK SMILES IDX 35 67 36 68 42 69 44 70 37 71 38 72 39 73 40 74 41 75 67 76
REMARK SMILES IDX 68 77 77 78 69 79 70 80 76 81 78 82 71 83 72 84 73 85 74 86
REMARK SMILES IDX 75 87 51 88 52 89 61 90 53 91 54 92 60 93 62 94 55 95 56 96
REMARK SMILES IDX 57 97 58 98 59 99
REMARK H PARENT 16 7 21 30 83 49 49 60
REMARK Flexibility Score: inf
ROOT
ATOM      1  C   UNL     1       2.449  -3.529  11.879  1.00  0.00     0.023 C 
ENDROOT
BRANCH   1   2
ATOM      2  C   UNL     1       2.255  -4.162  10.495  1.00  0.00     0.023 C 
BRANCH   2   3
ATOM      3  C   UNL     1       2.507  -3.222   9.319  1.00  0.00     0.116 C 
BRANCH   3   4
ATOM      4  N   UNL     1       3.905  -2.834   9.216  1.00  0.00    -0.356 N 
ATOM      5  C   UNL     1       4.795  -2.989   8.198  1.00  0.00     0.223 C 
ATOM      6  O   UNL     1       5.928  -2.521   8.339  1.00  0.00    -0.275 OA
ATOM      7  H   UNL     1       4.267  -2.386  10.014  1.00  0.00     0.163 HD
BRANCH   5   8
ATOM      8  C   UNL     1       4.409  -3.685   6.901  1.00  0.00     0.082 C 
ATOM      9  C   UNL     1       0.957  -5.235   5.605  1.00  0.00     0.227 C 
ATOM     10  O   UNL     1       0.627  -5.929   6.572  1.00  0.00    -0.275 OA
ATOM     11  N   UNL     1       2.290  -4.906   5.388  1.00  0.00    -0.342 N 
ATOM     12  C   UNL     1       3.327  -5.773   5.933  1.00  0.00     0.120 C 
ATOM     13  C   UNL     1       2.777  -3.607   4.946  1.00  0.00     0.120 C 
ATOM     14  C   UNL     1       4.020  -5.152   7.134  1.00  0.00     0.035 C 
ATOM     15  C   UNL     1       3.391  -2.844   6.115  1.00  0.00     0.035 C 
BRANCH   9  16
ATOM     16  C   UNL     1      -0.065  -4.965   4.501  1.00  0.00     0.139 C 
BRANCH  16  17
ATOM     17  C   UNL     1      -0.339  -3.545   4.166  1.00  0.00     0.008 A 
ATOM     18  C   UNL     1       1.000   0.123   0.019  1.00  0.00     0.044 C 
ATOM     19  C   UNL     1       0.599  -0.913   1.029  1.00  0.00    -0.047 A 
ATOM     20  C   UNL     1       0.926  -2.258   0.800  1.00  0.00     0.004 A 
ATOM     21  C   UNL     1      -0.061  -0.535   2.211  1.00  0.00     0.051 A 
ATOM     22  C   UNL     1       0.633  -3.251   1.745  1.00  0.00     0.012 A 
ATOM     23  C   UNL     1      -0.335  -1.545   3.131  1.00  0.00     0.134 A 
ATOM     24  C   UNL     1       0.004  -2.878   2.947  1.00  0.00     0.024 A 
ATOM     25  O   UNL     1      -0.935  -1.377   4.341  1.00  0.00    -0.464 OA
ATOM     26  C   UNL     1      -0.948  -2.589   4.955  1.00  0.00     0.200 A 
ENDBRANCH  16  17
ENDBRANCH   9  16
ENDBRANCH   5   8
ENDBRANCH   3   4
ENDBRANCH   2   3
ENDBRANCH   1   2
BRANCH   1  27
ATOM     27  C   UNL     1       1.757  -2.178  12.057  1.00  0.00     0.116 C 
BRANCH  27  28
ATOM     28  N   UNL     1       0.343  -2.207  11.745  1.00  0.00    -0.352 N 
ATOM     29  C   UNL     1      -0.800  -2.416  12.460  1.00  0.00     0.251 C 
ATOM     30  H   UNL     1       0.165  -2.036  10.792  1.00  0.00     0.163 HD
ATOM     31  O   UNL     1      -1.855  -2.232  11.844  1.00  0.00    -0.269 OA
BRANCH  29  32
ATOM     32  C   UNL     1      -0.858  -2.896  13.864  1.00  0.00     0.039 A 
ATOM     33  C   UNL     1       0.240  -3.110  14.698  1.00  0.00     0.014 A 
ATOM     34  C   UNL     1      -2.142  -3.222  14.341  1.00  0.00     0.014 A 
ATOM     35  C   UNL     1       0.078  -3.744  15.923  1.00  0.00     0.010 A 
ATOM     36  C   UNL     1      -2.312  -3.836  15.572  1.00  0.00     0.010 A 
ATOM     37  C   UNL     1      -1.190  -4.156  16.329  1.00  0.00    -0.014 A 
BRANCH  37  38
ATOM     38  C   UNL     1      -1.303  -4.874  17.593  1.00  0.00     0.031 A 
ATOM     39  C   UNL     1      -0.863  -4.100  18.792  1.00  0.00     0.074 A 
ATOM     40  C   UNL     1      -1.872  -6.095  17.669  1.00  0.00     0.049 A 
ATOM     41  N   UNL     1       0.081  -4.377  19.632  1.00  0.00    -0.248 NA
ATOM     42  C   UNL     1      -1.472  -2.774  19.001  1.00  0.00     0.031 C 
ATOM     43  C   UNL     1      -2.572  -6.835  16.613  1.00  0.00     0.029 A 
ATOM     44  N   UNL     1      -2.044  -6.896  18.753  1.00  0.00    -0.354 N 
ATOM     45  C   UNL     1       0.043  -3.370  20.597  1.00  0.00     0.074 A 
ATOM     46  C   UNL     1      -0.814  -2.338  20.076  1.00  0.00     0.031 C 
ATOM     47  C   UNL     1      -3.304  -7.826  17.171  1.00  0.00     0.029 A 
ATOM     48  C   UNL     1      -3.014  -7.880  18.592  1.00  0.00     0.049 A 
ATOM     49  H   UNL     1      -1.526  -6.789  19.584  1.00  0.00     0.167 HD
ATOM     50  C   UNL     1       0.543  -3.548  21.852  1.00  0.00     0.037 A 
ATOM     51  C   UNL     1      -3.591  -8.612  19.580  1.00  0.00     0.037 A 
ATOM     52  C   UNL     1       1.456  -4.655  21.911  1.00  0.00     0.049 A 
ATOM     53  C   UNL     1      -2.685  -8.537  20.759  1.00  0.00     0.074 A 
ATOM     54  C   UNL     1       2.664  -4.949  21.308  1.00  0.00     0.029 A 
ATOM     55  N   UNL     1       0.996  -5.846  22.417  1.00  0.00    -0.354 N 
ATOM     56  N   UNL     1      -1.485  -9.053  20.788  1.00  0.00    -0.248 NA
ATOM     57  C   UNL     1      -2.933  -7.480  21.728  1.00  0.00     0.031 C 
ATOM     58  C   UNL     1       2.611  -6.348  21.043  1.00  0.00     0.029 A 
ATOM     59  C   UNL     1       1.406  -6.831  21.554  1.00  0.00     0.049 A 
ATOM     60  H   UNL     1       0.471  -5.970  23.241  1.00  0.00     0.167 HD
ATOM     61  C   UNL     1      -0.714  -8.123  21.472  1.00  0.00     0.074 A 
ATOM     62  C   UNL     1      -1.675  -7.206  22.081  1.00  0.00     0.031 C 
ATOM     63  C   UNL     1       0.630  -8.014  21.255  1.00  0.00     0.037 A 
BRANCH  50  64
ATOM     64  C   UNL     1      -0.067  -2.938  23.090  1.00  0.00     0.058 A 
ATOM     65  C   UNL     1       0.630  -2.985  24.314  1.00  0.00     0.135 A 
ATOM     66  C   UNL     1      -1.429  -2.571  23.176  1.00  0.00     0.135 A 
ATOM     67  F   UNL     1       1.925  -3.337  24.349  1.00  0.00    -0.206 F 
ATOM     68  C   UNL     1       0.003  -2.747  25.539  1.00  0.00     0.059 A 
ATOM     69  C   UNL     1      -2.060  -2.278  24.379  1.00  0.00     0.059 A 
ATOM     70  F   UNL     1      -2.236  -2.578  22.108  1.00  0.00    -0.206 F 
ATOM     71  C   UNL     1      -1.348  -2.409  25.560  1.00  0.00     0.060 A 
BRANCH  71  72
ATOM     72  S   UNL     1      -2.187  -2.218  27.142  1.00  0.00     0.124 S 
ATOM     73  O   UNL     1      -2.149  -3.578  27.660  1.00  0.00    -0.237 OA
ATOM     74  O   UNL     1      -1.334  -1.248  27.820  1.00  0.00    -0.237 OA
ATOM     75  O   UNL     1      -3.510  -1.722  26.763  1.00  0.00    -0.744 OA
ENDBRANCH  71  72
ENDBRANCH  50  64
BRANCH  51  76
ATOM     76  C   UNL     1      -5.032  -8.975  19.702  1.00  0.00     0.058 A 
ATOM     77  C   UNL     1      -5.471  -9.907  20.660  1.00  0.00     0.135 A 
ATOM     78  C   UNL     1      -6.040  -8.206  19.083  1.00  0.00     0.135 A 
ATOM     79  F   UNL     1      -4.581 -10.666  21.317  1.00  0.00    -0.206 F 
ATOM     80  C   UNL     1      -6.820 -10.035  21.018  1.00  0.00     0.059 A 
ATOM     81  C   UNL     1      -7.390  -8.323  19.415  1.00  0.00     0.059 A 
ATOM     82  F   UNL     1      -5.736  -7.246  18.199  1.00  0.00    -0.206 F 
ATOM     83  C   UNL     1      -7.771  -9.220  20.404  1.00  0.00     0.060 A 
BRANCH  83  84
ATOM     84  S   UNL     1      -9.485  -9.256  20.982  1.00  0.00     0.124 S 
ATOM     85  O   UNL     1      -9.910 -10.594  20.587  1.00  0.00    -0.237 OA
ATOM     86  O   UNL     1      -9.330  -9.032  22.415  1.00  0.00    -0.237 OA
ATOM     87  O   UNL     1     -10.114  -8.161  20.247  1.00  0.00    -0.744 OA
ENDBRANCH  83  84
ENDBRANCH  51  76
BRANCH  63  88
ATOM     88  C   UNL     1       1.320  -9.085  20.449  1.00  0.00     0.058 A 
ATOM     89  C   UNL     1       1.075  -9.335  19.087  1.00  0.00     0.135 A 
ATOM     90  C   UNL     1       2.394  -9.765  21.041  1.00  0.00     0.135 A 
ATOM     91  F   UNL     1       0.136  -8.652  18.418  1.00  0.00    -0.206 F 
ATOM     92  C   UNL     1       1.842 -10.247  18.357  1.00  0.00     0.059 A 
ATOM     93  C   UNL     1       3.190 -10.655  20.326  1.00  0.00     0.059 A 
ATOM     94  F   UNL     1       2.719  -9.522  22.322  1.00  0.00    -0.206 F 
ATOM     95  C   UNL     1       2.902 -10.900  18.985  1.00  0.00     0.060 A 
BRANCH  95  96
ATOM     96  S   UNL     1       3.944 -12.021  18.026  1.00  0.00     0.124 S 
ATOM     97  O   UNL     1       3.028 -13.124  17.742  1.00  0.00    -0.237 OA
ATOM     98  O   UNL     1       4.316 -11.198  16.875  1.00  0.00    -0.237 OA
ATOM     99  O   UNL     1       5.037 -12.337  18.934  1.00  0.00    -0.744 OA
ENDBRANCH  95  96
ENDBRANCH  63  88
ENDBRANCH  37  38
ENDBRANCH  29  32
ENDBRANCH  27  28
ENDBRANCH   1  27
TORSDOF 16
