REMARK SMILES Cc1cccc(C(=O)Nc2cc(C(=O)NCCCCNC(=O)c3ccc(-c4c5nc(c(-c6c(F)cc(S(=O)(=O)[O-])cc6F)c6ccc([nH]6)c(-c6c(F)cc(S(=O)(=O)[O-])cc6F)c6nc(c(-c7c(F)cc(S(=O)(=O)[O-])cc7F)c7ccc4[nH]7)C=C6)C=C5)cc3)ccc2N2CC[NH+](CC(=O)NC(C)(C)C)CC2)c1
REMARK SMILES IDX 17 1 16 2 15 3 13 4 14 5 12 7 10 8 11 9 91 10 90 11 89 12
REMARK SMILES IDX 9 13 7 14 8 15 6 17 1 18 2 19 3 20 106 21 4 22 5 23 92 24
REMARK SMILES IDX 93 25 105 26 94 27 104 28 95 29 96 31 97 32 98 33 99 34
REMARK SMILES IDX 100 36 101 37 102 38 103 39 18 40 19 41 20 42 21 43 22 45
REMARK SMILES IDX 23 46 24 47 88 48 25 49 87 50 26 51 27 52 28 53 81 54 29 55
REMARK SMILES IDX 86 56 80 57 82 58 30 59 85 60 79 61 78 62 31 64 65 65 44 66
REMARK SMILES IDX 64 67 45 68 48 69 63 70 83 71 46 72 47 73 62 75 84 76 49 77
REMARK SMILES IDX 32 78 33 79 42 80 34 81 35 82 41 83 43 84 36 85 37 86 38 87
REMARK SMILES IDX 39 88 40 89 66 90 67 91 76 92 68 93 69 94 75 95 77 96 70 97
REMARK SMILES IDX 71 98 72 99 73 100 74 101 50 102 51 103 60 104 52 105 53 106
REMARK SMILES IDX 59 107 61 108 54 109 55 110 56 111 57 112 58 113
REMARK H PARENT 15 6 9 16 95 30 99 35 20 44 82 63 48 74
REMARK Flexibility Score: inf
ROOT
ATOM      1  C   UNL     1       0.635   1.551  -4.307  1.00  0.00     0.023 C 
ENDROOT
BRANCH   1   2
ATOM      2  C   UNL     1       1.447   0.894  -3.177  1.00  0.00     0.116 C 
BRANCH   2   3
ATOM      3  N   UNL     1       2.810   1.408  -3.052  1.00  0.00    -0.352 N 
ATOM      4  C   UNL     1       3.378   2.461  -2.371  1.00  0.00     0.251 C 
ATOM      5  O   UNL     1       4.610   2.535  -2.371  1.00  0.00    -0.269 OA
ATOM      6  H   UNL     1       3.466   0.886  -3.568  1.00  0.00     0.163 HD
BRANCH   4   7
ATOM      7  C   UNL     1       2.613   3.498  -1.615  1.00  0.00     0.042 A 
ATOM      8  C   UNL     1       0.559   4.449  -0.784  1.00  0.00     0.065 A 
ATOM      9  C   UNL     1       1.237   3.595  -1.644  1.00  0.00     0.042 A 
ATOM     10  C   UNL     1       1.224   5.392   0.032  1.00  0.00     0.061 A 
ATOM     11  C   UNL     1       2.619   5.362  -0.005  1.00  0.00     0.029 A 
ATOM     12  C   UNL     1       3.303   4.403  -0.786  1.00  0.00     0.016 A 
BRANCH   8  13
ATOM     13  N   UNL     1      -0.829   4.282  -0.656  1.00  0.00    -0.320 N 
ATOM     14  C   UNL     1      -1.485   3.156  -0.181  1.00  0.00     0.255 C 
ATOM     15  O   UNL     1      -2.670   3.256   0.143  1.00  0.00    -0.269 OA
ATOM     16  H   UNL     1      -1.394   5.041  -0.932  1.00  0.00     0.170 HD
BRANCH  14  17
ATOM     17  C   UNL     1      -0.796   1.847   0.029  1.00  0.00     0.040 A 
ATOM     18  C   UNL     1       2.576   0.275   0.937  1.00  0.00     0.044 C 
ATOM     19  C   UNL     1       1.129   0.433   0.567  1.00  0.00    -0.050 A 
ATOM     20  C   UNL     1       0.422  -0.675   0.102  1.00  0.00     0.003 A 
ATOM     21  C   UNL     1       0.487   1.684   0.589  1.00  0.00     0.017 A 
ATOM     22  C   UNL     1      -0.885  -0.526  -0.355  1.00  0.00     0.001 A 
ATOM     23  C   UNL     1      -1.494   0.722  -0.398  1.00  0.00     0.014 A 
ENDBRANCH  14  17
ENDBRANCH   8  13
BRANCH  10  24
ATOM     24  N   UNL     1       0.505   6.179   0.914  1.00  0.00    -0.359 N 
ATOM     25  C   UNL     1       0.865   7.527   1.365  1.00  0.00     0.178 C 
ATOM     26  C   UNL     1      -0.312   5.472   1.899  1.00  0.00     0.178 C 
ATOM     27  C   UNL     1      -0.420   8.297   1.848  1.00  0.00     0.284 C 
ATOM     28  C   UNL     1      -1.651   6.216   2.024  1.00  0.00     0.284 C 
ATOM     29  N   UNL     1      -1.496   7.568   2.567  1.00  0.00    -0.324 N 
ATOM     30  H   UNL     1      -2.336   8.113   2.374  1.00  0.00     0.348 HD
BRANCH  29  31
ATOM     31  C   UNL     1      -1.475   7.599   4.040  1.00  0.00     0.363 C 
BRANCH  31  32
ATOM     32  C   UNL     1      -0.365   6.797   4.708  1.00  0.00     0.275 C 
ATOM     33  O   UNL     1       0.773   7.281   4.787  1.00  0.00    -0.268 OA
ATOM     34  N   UNL     1      -0.522   5.552   5.240  1.00  0.00    -0.347 N 
ATOM     35  H   UNL     1       0.297   5.282   5.715  1.00  0.00     0.164 HD
BRANCH  34  36
ATOM     36  C   UNL     1      -1.545   4.467   5.332  1.00  0.00     0.032 C 
ATOM     37  C   UNL     1      -1.388   3.434   4.198  1.00  0.00     0.034 C 
ATOM     38  C   UNL     1      -1.243   3.706   6.643  1.00  0.00     0.034 C 
ATOM     39  C   UNL     1      -2.997   4.948   5.406  1.00  0.00     0.034 C 
ENDBRANCH  34  36
ENDBRANCH  31  32
ENDBRANCH  29  31
ENDBRANCH  10  24
ENDBRANCH   4   7
ENDBRANCH   2   3
ENDBRANCH   1   2
BRANCH   1  40
ATOM     40  C   UNL     1       1.072   1.145  -5.708  1.00  0.00     0.023 C 
BRANCH  40  41
ATOM     41  C   UNL     1       0.721  -0.296  -6.035  1.00  0.00     0.116 C 
BRANCH  41  42
ATOM     42  N   UNL     1      -0.444  -0.458  -6.888  1.00  0.00    -0.352 N 
ATOM     43  C   UNL     1      -0.732  -1.611  -7.611  1.00  0.00     0.251 C 
ATOM     44  H   UNL     1      -1.070   0.298  -6.959  1.00  0.00     0.163 HD
ATOM     45  O   UNL     1      -1.260  -1.609  -8.707  1.00  0.00    -0.269 OA
BRANCH  43  46
ATOM     46  C   UNL     1      -0.512  -2.882  -6.883  1.00  0.00     0.039 A 
ATOM     47  C   UNL     1      -1.641  -3.569  -6.416  1.00  0.00     0.014 A 
ATOM     48  C   UNL     1       0.763  -3.195  -6.425  1.00  0.00     0.014 A 
ATOM     49  C   UNL     1      -1.510  -4.449  -5.346  1.00  0.00     0.010 A 
ATOM     50  C   UNL     1       0.874  -3.967  -5.293  1.00  0.00     0.010 A 
ATOM     51  C   UNL     1      -0.266  -4.559  -4.732  1.00  0.00    -0.014 A 
BRANCH  51  52
ATOM     52  C   UNL     1      -0.018  -5.245  -3.474  1.00  0.00     0.031 A 
ATOM     53  C   UNL     1       0.687  -6.540  -3.497  1.00  0.00     0.074 A 
ATOM     54  C   UNL     1      -0.246  -4.587  -2.318  1.00  0.00     0.049 A 
ATOM     55  N   UNL     1       0.822  -7.326  -2.487  1.00  0.00    -0.248 NA
ATOM     56  C   UNL     1       1.271  -7.074  -4.720  1.00  0.00     0.031 C 
ATOM     57  C   UNL     1       0.289  -4.896  -0.998  1.00  0.00     0.029 A 
ATOM     58  N   UNL     1      -1.225  -3.626  -2.072  1.00  0.00    -0.354 N 
ATOM     59  C   UNL     1       1.741  -8.296  -2.829  1.00  0.00     0.074 A 
ATOM     60  C   UNL     1       1.926  -8.137  -4.251  1.00  0.00     0.031 C 
ATOM     61  C   UNL     1      -0.550  -4.405  -0.075  1.00  0.00     0.029 A 
ATOM     62  C   UNL     1      -1.715  -3.904  -0.789  1.00  0.00     0.049 A 
ATOM     63  H   UNL     1      -1.513  -2.902  -2.674  1.00  0.00     0.167 HD
ATOM     64  C   UNL     1       2.331  -9.016  -1.830  1.00  0.00     0.037 A 
ATOM     65  C   UNL     1      -3.010  -4.216  -0.504  1.00  0.00     0.037 A 
ATOM     66  C   UNL     1       1.665  -8.738  -0.550  1.00  0.00     0.049 A 
ATOM     67  C   UNL     1      -3.082  -5.550   0.195  1.00  0.00     0.074 A 
ATOM     68  C   UNL     1       1.978  -7.903   0.511  1.00  0.00     0.029 A 
ATOM     69  N   UNL     1       0.325  -9.092  -0.384  1.00  0.00    -0.354 N 
ATOM     70  N   UNL     1      -2.170  -6.478   0.066  1.00  0.00    -0.248 NA
ATOM     71  C   UNL     1      -4.132  -5.919   1.137  1.00  0.00     0.031 C 
ATOM     72  C   UNL     1       0.790  -7.676   1.256  1.00  0.00     0.029 A 
ATOM     73  C   UNL     1      -0.238  -8.401   0.674  1.00  0.00     0.049 A 
ATOM     74  H   UNL     1      -0.154  -9.745  -0.944  1.00  0.00     0.167 HD
ATOM     75  C   UNL     1      -2.452  -7.513   0.915  1.00  0.00     0.074 A 
ATOM     76  C   UNL     1      -3.701  -7.124   1.550  1.00  0.00     0.031 C 
ATOM     77  C   UNL     1      -1.633  -8.598   1.059  1.00  0.00     0.037 A 
BRANCH  64  78
ATOM     78  C   UNL     1       3.681  -9.715  -1.965  1.00  0.00     0.058 A 
ATOM     79  C   UNL     1       4.511  -9.909  -0.836  1.00  0.00     0.135 A 
ATOM     80  C   UNL     1       4.260 -10.147  -3.177  1.00  0.00     0.135 A 
ATOM     81  F   UNL     1       4.081  -9.635   0.403  1.00  0.00    -0.206 F 
ATOM     82  C   UNL     1       5.825 -10.389  -0.919  1.00  0.00     0.059 A 
ATOM     83  C   UNL     1       5.587 -10.576  -3.296  1.00  0.00     0.059 A 
ATOM     84  F   UNL     1       3.548 -10.242  -4.303  1.00  0.00    -0.206 F 
ATOM     85  C   UNL     1       6.368 -10.691  -2.160  1.00  0.00     0.060 A 
BRANCH  85  86
ATOM     86  S   UNL     1       8.072 -11.269  -2.266  1.00  0.00     0.124 S 
ATOM     87  O   UNL     1       8.808 -10.179  -1.633  1.00  0.00    -0.237 OA
ATOM     88  O   UNL     1       8.016 -12.520  -1.517  1.00  0.00    -0.237 OA
ATOM     89  O   UNL     1       8.294 -11.412  -3.703  1.00  0.00    -0.744 OA
ENDBRANCH  85  86
ENDBRANCH  64  78
BRANCH  65  90
ATOM     90  C   UNL     1      -4.010  -3.620  -1.434  1.00  0.00     0.058 A 
ATOM     91  C   UNL     1      -4.199  -2.226  -1.353  1.00  0.00     0.135 A 
ATOM     92  C   UNL     1      -4.337  -4.242  -2.647  1.00  0.00     0.135 A 
ATOM     93  F   UNL     1      -3.950  -1.586  -0.199  1.00  0.00    -0.206 F 
ATOM     94  C   UNL     1      -4.471  -1.455  -2.480  1.00  0.00     0.059 A 
ATOM     95  C   UNL     1      -4.633  -3.489  -3.788  1.00  0.00     0.059 A 
ATOM     96  F   UNL     1      -4.179  -5.566  -2.791  1.00  0.00    -0.206 F 
ATOM     97  C   UNL     1      -4.603  -2.095  -3.709  1.00  0.00     0.060 A 
BRANCH  97  98
ATOM     98  S   UNL     1      -4.534  -1.080  -5.211  1.00  0.00     0.124 S 
ATOM     99  O   UNL     1      -5.615  -0.129  -4.987  1.00  0.00    -0.237 OA
ATOM    100  O   UNL     1      -3.178  -0.534  -5.138  1.00  0.00    -0.237 OA
ATOM    101  O   UNL     1      -4.756  -2.053  -6.273  1.00  0.00    -0.744 OA
ENDBRANCH  97  98
ENDBRANCH  65  90
BRANCH  77 102
ATOM    102  C   UNL     1      -2.043  -9.906   1.692  1.00  0.00     0.058 A 
ATOM    103  C   UNL     1      -3.371 -10.369   1.721  1.00  0.00     0.135 A 
ATOM    104  C   UNL     1      -1.069 -10.827   2.148  1.00  0.00     0.135 A 
ATOM    105  F   UNL     1      -4.377  -9.647   1.204  1.00  0.00    -0.206 F 
ATOM    106  C   UNL     1      -3.719 -11.618   2.231  1.00  0.00     0.059 A 
ATOM    107  C   UNL     1      -1.389 -12.103   2.603  1.00  0.00     0.059 A 
ATOM    108  F   UNL     1       0.238 -10.527   2.145  1.00  0.00    -0.206 F 
ATOM    109  C   UNL     1      -2.721 -12.481   2.666  1.00  0.00     0.060 A 
BRANCH 109 110
ATOM    110  S   UNL     1      -3.163 -14.128   3.244  1.00  0.00     0.124 S 
ATOM    111  O   UNL     1      -3.380 -13.887   4.666  1.00  0.00    -0.237 OA
ATOM    112  O   UNL     1      -4.360 -14.432   2.466  1.00  0.00    -0.237 OA
ATOM    113  O   UNL     1      -1.988 -14.925   2.906  1.00  0.00    -0.744 OA
ENDBRANCH 109 110
ENDBRANCH  77 102
ENDBRANCH  51  52
ENDBRANCH  43  46
ENDBRANCH  41  42
ENDBRANCH  40  41
ENDBRANCH   1  40
TORSDOF 20
