REMARK SMILES CC[C@@H](C)S(=O)(=O)c1cc(C(=O)NCCCCNC(=O)c2ccc(-c3c4nc(c(-c5c(F)cc(S(=O)(=O)[O-])cc5F)c5ccc([nH]5)c(-c5c(F)cc(S(=O)(=O)[O-])cc5F)c5nc(c(-c6c(F)cc(S(=O)(=O)[O-])cc6F)c6ccc3[nH]6)C=C5)C=C4)cc2)c(C)cc1C
REMARK SMILES IDX 15 1 14 2 13 3 11 4 12 5 10 7 8 8 9 9 90 10 89 11 91 12
REMARK SMILES IDX 87 13 88 14 5 15 6 16 7 17 3 18 4 19 2 20 1 21 16 22 17 23
REMARK SMILES IDX 18 24 19 25 20 27 21 28 22 29 86 30 23 31 85 32 24 33 25 34
REMARK SMILES IDX 26 35 79 36 27 37 84 38 78 39 80 40 28 41 83 42 77 43 76 44
REMARK SMILES IDX 29 46 63 47 42 48 62 49 43 50 46 51 61 52 81 53 44 54 45 55
REMARK SMILES IDX 60 57 82 58 47 59 30 60 31 61 40 62 32 63 33 64 39 65 41 66
REMARK SMILES IDX 34 67 35 68 36 69 37 70 38 71 64 72 65 73 74 74 66 75 67 76
REMARK SMILES IDX 73 77 75 78 68 79 69 80 70 81 71 82 72 83 48 84 49 85 58 86
REMARK SMILES IDX 50 87 51 88 57 89 59 90 52 91 53 92 54 93 55 94 56 95
REMARK H PARENT 13 6 18 26 80 45 46 56
REMARK Flexibility Score: inf
ROOT
ATOM      1  C   UNL     1      -7.373  -2.109   2.677  1.00  0.00     0.023 C 
ENDROOT
BRANCH   1   2
ATOM      2  C   UNL     1      -6.525  -1.794   1.441  1.00  0.00     0.116 C 
BRANCH   2   3
ATOM      3  N   UNL     1      -5.342  -1.078   1.852  1.00  0.00    -0.352 N 
ATOM      4  C   UNL     1      -4.075  -1.454   2.193  1.00  0.00     0.251 C 
ATOM      5  O   UNL     1      -3.362  -0.546   2.638  1.00  0.00    -0.269 OA
ATOM      6  H   UNL     1      -5.479  -0.104   1.895  1.00  0.00     0.163 HD
BRANCH   4   7
ATOM      7  C   UNL     1      -3.433  -2.799   1.994  1.00  0.00     0.044 A 
ATOM      8  C   UNL     1      -1.175  -3.761   1.645  1.00  0.00     0.071 A 
ATOM      9  C   UNL     1      -2.050  -2.673   1.704  1.00  0.00     0.034 A 
ATOM     10  C   UNL     1      -1.691  -5.056   1.772  1.00  0.00    -0.032 A 
ATOM     11  C   UNL     1      -3.067  -5.198   2.001  1.00  0.00     0.009 A 
ATOM     12  C   UNL     1      -0.883  -6.321   1.663  1.00  0.00     0.046 C 
ATOM     13  C   UNL     1      -3.933  -4.096   2.192  1.00  0.00    -0.038 A 
ATOM     14  C   UNL     1      -5.296  -4.465   2.685  1.00  0.00     0.045 C 
BRANCH   8  15
ATOM     15  S   UNL     1       0.591  -3.526   1.518  1.00  0.00     0.181 S 
ATOM     16  O   UNL     1       0.983  -4.184   0.283  1.00  0.00    -0.223 OA
ATOM     17  O   UNL     1       1.135  -3.991   2.783  1.00  0.00    -0.223 OA
BRANCH  15  18
ATOM     18  C   UNL     1       1.057  -1.804   1.361  1.00  0.00     0.110 C 
ATOM     19  C   UNL     1       0.765  -0.969   2.609  1.00  0.00     0.025 C 
BRANCH  18  20
ATOM     20  C   UNL     1       0.610  -1.189   0.026  1.00  0.00     0.016 C 
ATOM     21  C   UNL     1       1.112   0.230  -0.192  1.00  0.00     0.005 C 
ENDBRANCH  18  20
ENDBRANCH  15  18
ENDBRANCH   8  15
ENDBRANCH   4   7
ENDBRANCH   2   3
ENDBRANCH   1   2
BRANCH   1  22
ATOM     22  C   UNL     1      -8.405  -1.050   3.051  1.00  0.00     0.023 C 
BRANCH  22  23
ATOM     23  C   UNL     1      -9.555  -0.916   2.068  1.00  0.00     0.116 C 
BRANCH  23  24
ATOM     24  N   UNL     1     -10.274  -2.160   1.837  1.00  0.00    -0.352 N 
ATOM     25  C   UNL     1     -11.611  -2.329   1.544  1.00  0.00     0.251 C 
ATOM     26  H   UNL     1      -9.740  -2.984   1.896  1.00  0.00     0.163 HD
ATOM     27  O   UNL     1     -12.092  -3.442   1.446  1.00  0.00    -0.269 OA
BRANCH  25  28
ATOM     28  C   UNL     1     -12.451  -1.120   1.409  1.00  0.00     0.039 A 
ATOM     29  C   UNL     1     -13.610  -1.019   2.180  1.00  0.00     0.014 A 
ATOM     30  C   UNL     1     -12.034  -0.059   0.601  1.00  0.00     0.014 A 
ATOM     31  C   UNL     1     -14.311   0.187   2.202  1.00  0.00     0.010 A 
ATOM     32  C   UNL     1     -12.684   1.164   0.691  1.00  0.00     0.010 A 
ATOM     33  C   UNL     1     -13.827   1.299   1.494  1.00  0.00    -0.014 A 
BRANCH  33  34
ATOM     34  C   UNL     1     -14.501   2.618   1.570  1.00  0.00     0.031 A 
ATOM     35  C   UNL     1     -15.096   3.220   0.328  1.00  0.00     0.074 A 
ATOM     36  C   UNL     1     -14.501   3.303   2.730  1.00  0.00     0.049 A 
ATOM     37  N   UNL     1     -15.637   4.398   0.160  1.00  0.00    -0.248 NA
ATOM     38  C   UNL     1     -15.041   2.404  -0.896  1.00  0.00     0.031 C 
ATOM     39  C   UNL     1     -13.896   2.848   3.986  1.00  0.00     0.029 A 
ATOM     40  N   UNL     1     -15.016   4.535   3.040  1.00  0.00    -0.354 N 
ATOM     41  C   UNL     1     -15.962   4.473  -1.189  1.00  0.00     0.074 A 
ATOM     42  C   UNL     1     -15.511   3.245  -1.804  1.00  0.00     0.031 C 
ATOM     43  C   UNL     1     -14.096   3.779   4.933  1.00  0.00     0.029 A 
ATOM     44  C   UNL     1     -14.813   4.907   4.349  1.00  0.00     0.049 A 
ATOM     45  H   UNL     1     -15.486   5.102   2.387  1.00  0.00     0.167 HD
ATOM     46  C   UNL     1     -16.603   5.466  -1.849  1.00  0.00     0.037 A 
ATOM     47  C   UNL     1     -15.168   6.031   5.001  1.00  0.00     0.037 A 
ATOM     48  C   UNL     1     -17.092   6.663  -1.219  1.00  0.00     0.049 A 
ATOM     49  C   UNL     1     -15.921   7.099   4.257  1.00  0.00     0.074 A 
ATOM     50  C   UNL     1     -17.814   7.700  -1.783  1.00  0.00     0.029 A 
ATOM     51  N   UNL     1     -16.917   6.977   0.121  1.00  0.00    -0.354 N 
ATOM     52  N   UNL     1     -16.274   7.129   2.994  1.00  0.00    -0.248 NA
ATOM     53  C   UNL     1     -16.332   8.282   5.025  1.00  0.00     0.031 C 
ATOM     54  C   UNL     1     -18.055   8.653  -0.788  1.00  0.00     0.029 A 
ATOM     55  C   UNL     1     -17.513   8.194   0.402  1.00  0.00     0.049 A 
ATOM     56  H   UNL     1     -16.440   6.417   0.775  1.00  0.00     0.167 HD
ATOM     57  C   UNL     1     -16.971   8.319   2.822  1.00  0.00     0.074 A 
ATOM     58  C   UNL     1     -16.997   8.978   4.112  1.00  0.00     0.031 C 
ATOM     59  C   UNL     1     -17.538   8.822   1.698  1.00  0.00     0.037 A 
BRANCH  46  60
ATOM     60  C   UNL     1     -16.826   5.285  -3.323  1.00  0.00     0.058 A 
ATOM     61  C   UNL     1     -17.752   4.352  -3.816  1.00  0.00     0.135 A 
ATOM     62  C   UNL     1     -16.117   6.060  -4.254  1.00  0.00     0.135 A 
ATOM     63  F   UNL     1     -18.441   3.571  -2.969  1.00  0.00    -0.206 F 
ATOM     64  C   UNL     1     -17.945   4.170  -5.181  1.00  0.00     0.059 A 
ATOM     65  C   UNL     1     -16.314   5.914  -5.625  1.00  0.00     0.059 A 
ATOM     66  F   UNL     1     -15.217   6.965  -3.837  1.00  0.00    -0.206 F 
ATOM     67  C   UNL     1     -17.218   4.955  -6.078  1.00  0.00     0.060 A 
BRANCH  67  68
ATOM     68  S   UNL     1     -17.477   4.707  -7.847  1.00  0.00     0.124 S 
ATOM     69  O   UNL     1     -16.737   3.470  -8.077  1.00  0.00    -0.237 OA
ATOM     70  O   UNL     1     -18.930   4.602  -7.941  1.00  0.00    -0.237 OA
ATOM     71  O   UNL     1     -16.899   5.906  -8.445  1.00  0.00    -0.744 OA
ENDBRANCH  67  68
ENDBRANCH  46  60
BRANCH  47  72
ATOM     72  C   UNL     1     -14.848   6.186   6.444  1.00  0.00     0.058 A 
ATOM     73  C   UNL     1     -15.856   6.096   7.415  1.00  0.00     0.135 A 
ATOM     74  C   UNL     1     -13.535   6.414   6.882  1.00  0.00     0.135 A 
ATOM     75  F   UNL     1     -17.127   5.882   7.043  1.00  0.00    -0.206 F 
ATOM     76  C   UNL     1     -15.578   6.243   8.770  1.00  0.00     0.059 A 
ATOM     77  C   UNL     1     -13.228   6.544   8.233  1.00  0.00     0.059 A 
ATOM     78  F   UNL     1     -12.533   6.490   5.992  1.00  0.00    -0.206 F 
ATOM     79  C   UNL     1     -14.259   6.467   9.169  1.00  0.00     0.060 A 
BRANCH  79  80
ATOM     80  S   UNL     1     -13.899   6.609  10.934  1.00  0.00     0.124 S 
ATOM     81  O   UNL     1     -14.373   7.958  11.221  1.00  0.00    -0.237 OA
ATOM     82  O   UNL     1     -14.689   5.520  11.499  1.00  0.00    -0.237 OA
ATOM     83  O   UNL     1     -12.453   6.420  10.995  1.00  0.00    -0.744 OA
ENDBRANCH  79  80
ENDBRANCH  47  72
BRANCH  59  84
ATOM     84  C   UNL     1     -18.266  10.130   1.820  1.00  0.00     0.058 A 
ATOM     85  C   UNL     1     -17.576  11.347   1.921  1.00  0.00     0.135 A 
ATOM     86  C   UNL     1     -19.668  10.168   1.773  1.00  0.00     0.135 A 
ATOM     87  F   UNL     1     -16.235  11.361   1.975  1.00  0.00    -0.206 F 
ATOM     88  C   UNL     1     -18.253  12.559   1.987  1.00  0.00     0.059 A 
ATOM     89  C   UNL     1     -20.366  11.370   1.816  1.00  0.00     0.059 A 
ATOM     90  F   UNL     1     -20.372   9.029   1.668  1.00  0.00    -0.206 F 
ATOM     91  C   UNL     1     -19.649  12.561   1.933  1.00  0.00     0.060 A 
BRANCH  91  92
ATOM     92  S   UNL     1     -20.518  14.142   1.976  1.00  0.00     0.124 S 
ATOM     93  O   UNL     1     -20.439  14.481   3.393  1.00  0.00    -0.237 OA
ATOM     94  O   UNL     1     -19.713  14.968   1.081  1.00  0.00    -0.237 OA
ATOM     95  O   UNL     1     -21.850  13.810   1.481  1.00  0.00    -0.744 OA
ENDBRANCH  91  92
ENDBRANCH  59  84
ENDBRANCH  33  34
ENDBRANCH  25  28
ENDBRANCH  23  24
ENDBRANCH  22  23
ENDBRANCH   1  22
TORSDOF 17
