REMARK SMILES Cc1c(Cl)cccc1NC(=O)C[C@](C)(C(=O)NCCCCNC(=O)c1ccc(-c2c3nc(c(-c4c(F)cc(S(=O)(=O)[O-])cc4F)c4ccc([nH]4)c(-c4c(F)cc(S(=O)(=O)[O-])cc4F)c4nc(c(-c5c(F)cc(S(=O)(=O)[O-])cc5F)c5ccc2[nH]5)C=C4)C=C3)cc1)c1ccccc1
REMARK SMILES IDX 19 1 18 2 17 3 15 4 16 5 13 7 14 8 12 9 10 10 9 11 11 13
REMARK SMILES IDX 8 14 1 15 2 16 3 17 4 18 5 19 7 20 6 21 91 22 92 23 96 24
REMARK SMILES IDX 93 25 95 26 94 27 20 28 21 29 22 30 23 31 24 33 25 34 26 35
REMARK SMILES IDX 90 36 27 37 89 38 28 39 29 40 30 41 83 42 31 43 88 44 82 45
REMARK SMILES IDX 84 46 32 47 87 48 81 49 80 50 33 52 67 53 46 54 66 55 47 56
REMARK SMILES IDX 50 57 65 58 85 59 48 60 49 61 64 63 86 64 51 65 34 66 35 67
REMARK SMILES IDX 44 68 36 69 37 70 43 71 45 72 38 73 39 74 40 75 41 76 42 77
REMARK SMILES IDX 68 78 69 79 78 80 70 81 71 82 77 83 79 84 72 85 73 86 74 87
REMARK SMILES IDX 75 88 76 89 52 90 53 91 62 92 54 93 55 94 61 95 63 96 56 97
REMARK SMILES IDX 57 98 58 99 59 100 60 101
REMARK H PARENT 17 6 9 12 22 32 84 51 50 62
REMARK Flexibility Score: inf
ROOT
ATOM      1  C   UNL     1      -4.901  -1.819   3.366  1.00  0.00     0.023 C 
ENDROOT
BRANCH   1   2
ATOM      2  C   UNL     1      -4.418  -2.070   1.728  1.00  0.00     0.116 C 
BRANCH   2   3
ATOM      3  N   UNL     1      -5.207  -1.381  -0.082  1.00  0.00    -0.355 N 
ATOM      4  C   UNL     1      -5.204  -0.555  -1.257  1.00  0.00     0.230 C 
ATOM      5  O   UNL     1      -6.167  -0.873  -1.980  1.00  0.00    -0.274 OA
ATOM      6  H   UNL     1      -6.029  -1.912  -0.185  1.00  0.00     0.163 HD
BRANCH   4   7
ATOM      7  C   UNL     1      -4.250   0.683  -1.699  1.00  0.00     0.080 C 
ATOM      8  C   UNL     1      -4.579   1.876  -0.722  1.00  0.00     0.027 C 
BRANCH   7   9
ATOM      9  C   UNL     1      -2.712   0.380  -1.801  1.00  0.00     0.121 C 
BRANCH   9  10
ATOM     10  C   UNL     1      -2.241  -1.035  -2.076  1.00  0.00     0.225 C 
ATOM     11  N   UNL     1      -2.367  -2.012  -1.134  1.00  0.00    -0.326 N 
ATOM     12  H   UNL     1      -1.780  -2.799  -1.199  1.00  0.00     0.169 HD
ATOM     13  O   UNL     1      -1.690  -1.322  -3.142  1.00  0.00    -0.275 OA
BRANCH  11  14
ATOM     14  C   UNL     1      -3.280  -1.959  -0.083  1.00  0.00     0.045 A 
ATOM     15  C   UNL     1      -4.056  -4.703  -0.489  1.00  0.00     0.048 C 
ATOM     16  C   UNL     1      -4.473  -3.322  -0.072  1.00  0.00    -0.009 A 
ATOM     17  C   UNL     1      -6.053  -3.112   0.772  1.00  0.00     0.046 A 
ATOM     18  Cl  UNL     1      -7.164  -4.417   0.890  1.00  0.00    -0.084 Cl
ATOM     19  C   UNL     1      -6.498  -1.526   1.497  1.00  0.00     0.021 A 
ATOM     20  C   UNL     1      -3.662  -0.382   0.769  1.00  0.00     0.026 A 
ATOM     21  C   UNL     1      -5.299  -0.163   1.524  1.00  0.00     0.004 A 
ENDBRANCH  11  14
ENDBRANCH   9  10
ENDBRANCH   7   9
BRANCH   7  22
ATOM     22  C   UNL     1      -4.574   1.358  -3.098  1.00  0.00    -0.032 A 
ATOM     23  C   UNL     1      -4.078   2.675  -3.334  1.00  0.00     0.005 A 
ATOM     24  C   UNL     1      -5.319   0.779  -4.126  1.00  0.00     0.005 A 
ATOM     25  C   UNL     1      -4.430   3.421  -4.455  1.00  0.00     0.000 A 
ATOM     26  C   UNL     1      -5.659   1.524  -5.267  1.00  0.00     0.000 A 
ATOM     27  C   UNL     1      -5.241   2.846  -5.418  1.00  0.00     0.000 A 
ENDBRANCH   7  22
ENDBRANCH   4   7
ENDBRANCH   2   3
ENDBRANCH   1   2
BRANCH   1  28
ATOM     28  C   UNL     1      -5.579  -3.017   4.032  1.00  0.00     0.023 C 
BRANCH  28  29
ATOM     29  C   UNL     1      -4.818  -4.318   3.914  1.00  0.00     0.116 C 
BRANCH  29  30
ATOM     30  N   UNL     1      -3.519  -4.253   4.571  1.00  0.00    -0.352 N 
ATOM     31  C   UNL     1      -2.997  -5.236   5.377  1.00  0.00     0.251 C 
ATOM     32  H   UNL     1      -2.975  -3.445   4.426  1.00  0.00     0.163 HD
ATOM     33  O   UNL     1      -2.005  -5.063   6.067  1.00  0.00    -0.269 OA
BRANCH  31  34
ATOM     34  C   UNL     1      -3.735  -6.508   5.359  1.00  0.00     0.039 A 
ATOM     35  C   UNL     1      -4.491  -6.865   6.473  1.00  0.00     0.014 A 
ATOM     36  C   UNL     1      -3.898  -7.144   4.122  1.00  0.00     0.014 A 
ATOM     37  C   UNL     1      -5.425  -7.889   6.343  1.00  0.00     0.010 A 
ATOM     38  C   UNL     1      -4.910  -8.079   3.974  1.00  0.00     0.010 A 
ATOM     39  C   UNL     1      -5.647  -8.496   5.093  1.00  0.00    -0.014 A 
BRANCH  39  40
ATOM     40  C   UNL     1      -6.573  -9.647   4.972  1.00  0.00     0.031 A 
ATOM     41  C   UNL     1      -6.014 -10.985   4.567  1.00  0.00     0.074 A 
ATOM     42  C   UNL     1      -7.885  -9.501   5.244  1.00  0.00     0.049 A 
ATOM     43  N   UNL     1      -6.627 -12.132   4.445  1.00  0.00    -0.248 NA
ATOM     44  C   UNL     1      -4.579 -11.039   4.231  1.00  0.00     0.031 C 
ATOM     45  C   UNL     1      -8.544  -8.243   5.604  1.00  0.00     0.029 A 
ATOM     46  N   UNL     1      -8.898 -10.426   5.277  1.00  0.00    -0.354 N 
ATOM     47  C   UNL     1      -5.656 -13.032   4.021  1.00  0.00     0.074 A 
ATOM     48  C   UNL     1      -4.438 -12.287   3.819  1.00  0.00     0.031 C 
ATOM     49  C   UNL     1      -9.838  -8.486   5.871  1.00  0.00     0.029 A 
ATOM     50  C   UNL     1     -10.111  -9.904   5.661  1.00  0.00     0.049 A 
ATOM     51  H   UNL     1      -8.768 -11.374   5.048  1.00  0.00     0.167 HD
ATOM     52  C   UNL     1      -5.757 -14.370   3.857  1.00  0.00     0.037 A 
ATOM     53  C   UNL     1     -11.306 -10.508   5.824  1.00  0.00     0.037 A 
ATOM     54  C   UNL     1      -6.969 -15.107   4.081  1.00  0.00     0.049 A 
ATOM     55  C   UNL     1     -11.403 -11.994   5.596  1.00  0.00     0.074 A 
ATOM     56  C   UNL     1      -7.176 -16.470   3.979  1.00  0.00     0.029 A 
ATOM     57  N   UNL     1      -8.182 -14.540   4.446  1.00  0.00    -0.354 N 
ATOM     58  N   UNL     1     -10.458 -12.843   5.263  1.00  0.00    -0.248 NA
ATOM     59  C   UNL     1     -12.725 -12.609   5.774  1.00  0.00     0.031 C 
ATOM     60  C   UNL     1      -8.530 -16.720   4.216  1.00  0.00     0.029 A 
ATOM     61  C   UNL     1      -9.151 -15.523   4.542  1.00  0.00     0.049 A 
ATOM     62  H   UNL     1      -8.331 -13.581   4.612  1.00  0.00     0.167 HD
ATOM     63  C   UNL     1     -11.065 -14.094   5.221  1.00  0.00     0.074 A 
ATOM     64  C   UNL     1     -12.454 -13.892   5.582  1.00  0.00     0.031 C 
ATOM     65  C   UNL     1     -10.527 -15.300   4.912  1.00  0.00     0.037 A 
BRANCH  52  66
ATOM     66  C   UNL     1      -4.525 -15.114   3.416  1.00  0.00     0.058 A 
ATOM     67  C   UNL     1      -3.398 -15.241   4.246  1.00  0.00     0.135 A 
ATOM     68  C   UNL     1      -4.480 -15.729   2.156  1.00  0.00     0.135 A 
ATOM     69  F   UNL     1      -3.374 -14.651   5.452  1.00  0.00    -0.206 F 
ATOM     70  C   UNL     1      -2.263 -15.929   3.832  1.00  0.00     0.059 A 
ATOM     71  C   UNL     1      -3.369 -16.453   1.735  1.00  0.00     0.059 A 
ATOM     72  F   UNL     1      -5.524 -15.631   1.318  1.00  0.00    -0.206 F 
ATOM     73  C   UNL     1      -2.261 -16.537   2.576  1.00  0.00     0.060 A 
BRANCH  73  74
ATOM     74  S   UNL     1      -0.788 -17.445   2.065  1.00  0.00     0.124 S 
ATOM     75  O   UNL     1       0.173 -16.361   1.880  1.00  0.00    -0.237 OA
ATOM     76  O   UNL     1      -0.548 -18.315   3.211  1.00  0.00    -0.237 OA
ATOM     77  O   UNL     1      -1.211 -18.122   0.843  1.00  0.00    -0.744 OA
ENDBRANCH  73  74
ENDBRANCH  52  66
BRANCH  53  78
ATOM     78  C   UNL     1     -12.499  -9.716   6.236  1.00  0.00     0.058 A 
ATOM     79  C   UNL     1     -13.119  -9.922   7.478  1.00  0.00     0.135 A 
ATOM     80  C   UNL     1     -13.052  -8.742   5.388  1.00  0.00     0.135 A 
ATOM     81  F   UNL     1     -12.636 -10.845   8.324  1.00  0.00    -0.206 F 
ATOM     82  C   UNL     1     -14.255  -9.212   7.855  1.00  0.00     0.059 A 
ATOM     83  C   UNL     1     -14.166  -7.995   5.757  1.00  0.00     0.059 A 
ATOM     84  F   UNL     1     -12.492  -8.493   4.194  1.00  0.00    -0.206 F 
ATOM     85  C   UNL     1     -14.770  -8.247   6.987  1.00  0.00     0.060 A 
BRANCH  85  86
ATOM     86  S   UNL     1     -16.222  -7.305   7.503  1.00  0.00     0.124 S 
ATOM     87  O   UNL     1     -17.265  -8.323   7.457  1.00  0.00    -0.237 OA
ATOM     88  O   UNL     1     -15.831  -6.849   8.833  1.00  0.00    -0.237 OA
ATOM     89  O   UNL     1     -16.318  -6.256   6.492  1.00  0.00    -0.744 OA
ENDBRANCH  85  86
ENDBRANCH  53  78
BRANCH  65  90
ATOM     90  C   UNL     1     -11.426 -16.504   4.990  1.00  0.00     0.058 A 
ATOM     91  C   UNL     1     -12.465 -16.716   4.070  1.00  0.00     0.135 A 
ATOM     92  C   UNL     1     -11.202 -17.492   5.964  1.00  0.00     0.135 A 
ATOM     93  F   UNL     1     -12.725 -15.802   3.121  1.00  0.00    -0.206 F 
ATOM     94  C   UNL     1     -13.269 -17.848   4.132  1.00  0.00     0.059 A 
ATOM     95  C   UNL     1     -11.968 -18.650   6.020  1.00  0.00     0.059 A 
ATOM     96  F   UNL     1     -10.212 -17.347   6.860  1.00  0.00    -0.206 F 
ATOM     97  C   UNL     1     -13.009 -18.813   5.108  1.00  0.00     0.060 A 
BRANCH  97  98
ATOM     98  S   UNL     1     -14.039 -20.294   5.152  1.00  0.00     0.124 S 
ATOM     99  O   UNL     1     -15.310 -19.754   5.622  1.00  0.00    -0.237 OA
ATOM    100  O   UNL     1     -14.011 -20.731   3.760  1.00  0.00    -0.237 OA
ATOM    101  O   UNL     1     -13.342 -21.166   6.092  1.00  0.00    -0.744 OA
ENDBRANCH  97  98
ENDBRANCH  65  90
ENDBRANCH  39  40
ENDBRANCH  31  34
ENDBRANCH  29  30
ENDBRANCH  28  29
ENDBRANCH   1  28
TORSDOF 18
