REMARK SMILES C[C@@H](CC(=O)NCCCCNC(=O)c1ccc(-c2c3nc(c(-c4c(F)cc(S(=O)(=O)[O-])cc4F)c4ccc([nH]4)c(-c4c(F)cc(S(=O)(=O)[O-])cc4F)c4nc(c(-c5c(F)cc(S(=O)(=O)[O-])cc5F)c5ccc2[nH]5)C=C4)C=C3)cc1)NC(=O)CCCN1C(=O)CN(C)C1=O
REMARK SMILES IDX 7 1 6 2 4 3 5 4 3 6 2 7 1 8 80 9 81 10 82 12 83 13 84 14
REMARK SMILES IDX 85 15 86 16 87 17 92 18 88 19 89 20 90 21 93 22 91 23 8 24
REMARK SMILES IDX 9 25 10 26 11 27 12 28 13 30 14 31 15 32 79 33 16 34 78 35
REMARK SMILES IDX 17 36 18 37 19 38 72 39 20 40 77 41 71 42 73 43 21 44 76 45
REMARK SMILES IDX 70 46 69 47 22 49 56 50 35 51 55 52 36 53 39 54 54 55 74 56
REMARK SMILES IDX 37 57 38 58 53 60 75 61 40 62 23 63 24 64 33 65 25 66 26 67
REMARK SMILES IDX 32 68 34 69 27 70 28 71 29 72 30 73 31 74 57 75 58 76 67 77
REMARK SMILES IDX 59 78 60 79 66 80 68 81 61 82 62 83 63 84 64 85 65 86 41 87
REMARK SMILES IDX 42 88 51 89 43 90 44 91 50 92 52 93 45 94 46 95 47 96 48 97
REMARK SMILES IDX 49 98
REMARK H PARENT 6 5 80 11 11 29 73 48 39 59
REMARK Flexibility Score: inf
ROOT
ATOM      1  C   UNL     1       1.623  -2.153  -1.263  1.00  0.00     0.116 C 
ENDROOT
BRANCH   1   2
ATOM      2  N   UNL     1       0.504  -2.201  -2.194  1.00  0.00    -0.356 N 
ATOM      3  C   UNL     1      -0.178  -1.201  -2.821  1.00  0.00     0.222 C 
ATOM      4  O   UNL     1      -1.145  -1.496  -3.524  1.00  0.00    -0.275 OA
ATOM      5  H   UNL     1       0.187  -3.108  -2.406  1.00  0.00     0.163 HD
BRANCH   3   6
ATOM      6  C   UNL     1       0.273   0.235  -2.703  1.00  0.00     0.124 C 
BRANCH   6   7
ATOM      7  C   UNL     1      -0.223   1.037  -1.498  1.00  0.00     0.088 C 
ATOM      8  C   UNL     1      -0.146   0.338  -0.159  1.00  0.00     0.031 C 
BRANCH   7   9
ATOM      9  N   UNL     1      -1.549   1.605  -1.586  1.00  0.00    -0.353 N 
ATOM     10  C   UNL     1      -1.934   2.687  -0.828  1.00  0.00     0.220 C 
ATOM     11  H   UNL     1      -2.198   1.204  -2.209  1.00  0.00     0.163 HD
ATOM     12  O   UNL     1      -3.103   2.785  -0.460  1.00  0.00    -0.275 OA
BRANCH  10  13
ATOM     13  C   UNL     1      -0.906   3.782  -0.532  1.00  0.00     0.102 C 
BRANCH  13  14
ATOM     14  C   UNL     1      -0.043   3.692   0.744  1.00  0.00     0.032 C 
BRANCH  14  15
ATOM     15  C   UNL     1       1.449   3.268   0.649  1.00  0.00     0.131 C 
BRANCH  15  16
ATOM     16  N   UNL     1       2.107   3.534  -0.617  1.00  0.00    -0.263 N 
ATOM     17  C   UNL     1       2.122   4.739  -1.262  1.00  0.00     0.250 C 
ATOM     18  C   UNL     1       2.751   2.587  -1.369  1.00  0.00     0.326 C 
ATOM     19  O   UNL     1       1.729   5.808  -0.817  1.00  0.00    -0.272 OA
ATOM     20  C   UNL     1       2.612   4.515  -2.682  1.00  0.00     0.221 C 
ATOM     21  N   UNL     1       3.008   3.131  -2.613  1.00  0.00    -0.318 N 
ATOM     22  O   UNL     1       2.979   1.430  -1.041  1.00  0.00    -0.248 OA
ATOM     23  C   UNL     1       3.395   2.380  -3.784  1.00  0.00     0.149 C 
ENDBRANCH  15  16
ENDBRANCH  14  15
ENDBRANCH  13  14
ENDBRANCH  10  13
ENDBRANCH   7   9
ENDBRANCH   6   7
ENDBRANCH   3   6
ENDBRANCH   1   2
BRANCH   1  24
ATOM     24  C   UNL     1       1.197  -2.507   0.168  1.00  0.00     0.023 C 
BRANCH  24  25
ATOM     25  C   UNL     1       0.686  -3.922   0.350  1.00  0.00     0.023 C 
BRANCH  25  26
ATOM     26  C   UNL     1       1.793  -4.942   0.263  1.00  0.00     0.116 C 
BRANCH  26  27
ATOM     27  N   UNL     1       2.768  -4.782   1.337  1.00  0.00    -0.352 N 
ATOM     28  C   UNL     1       3.259  -5.755   2.173  1.00  0.00     0.251 C 
ATOM     29  H   UNL     1       3.114  -3.871   1.479  1.00  0.00     0.163 HD
ATOM     30  O   UNL     1       3.933  -5.471   3.154  1.00  0.00    -0.269 OA
BRANCH  28  31
ATOM     31  C   UNL     1       2.914  -7.151   1.854  1.00  0.00     0.039 A 
ATOM     32  C   UNL     1       2.335  -7.959   2.831  1.00  0.00     0.014 A 
ATOM     33  C   UNL     1       3.036  -7.586   0.532  1.00  0.00     0.014 A 
ATOM     34  C   UNL     1       1.821  -9.200   2.460  1.00  0.00     0.010 A 
ATOM     35  C   UNL     1       2.405  -8.754   0.146  1.00  0.00     0.010 A 
ATOM     36  C   UNL     1       1.821  -9.588   1.110  1.00  0.00    -0.014 A 
BRANCH  36  37
ATOM     37  C   UNL     1       1.291 -10.898   0.666  1.00  0.00     0.031 A 
ATOM     38  C   UNL     1       2.227 -11.851  -0.031  1.00  0.00     0.074 A 
ATOM     39  C   UNL     1      -0.016 -11.189   0.803  1.00  0.00     0.049 A 
ATOM     40  N   UNL     1       1.960 -12.975  -0.639  1.00  0.00    -0.248 NA
ATOM     41  C   UNL     1       3.647 -11.459  -0.094  1.00  0.00     0.031 C 
ATOM     42  C   UNL     1      -1.022 -10.321   1.420  1.00  0.00     0.029 A 
ATOM     43  N   UNL     1      -0.728 -12.295   0.416  1.00  0.00    -0.354 N 
ATOM     44  C   UNL     1       3.167 -13.402  -1.180  1.00  0.00     0.074 A 
ATOM     45  C   UNL     1       4.149 -12.382  -0.896  1.00  0.00     0.031 C 
ATOM     46  C   UNL     1      -2.214 -10.940   1.393  1.00  0.00     0.029 A 
ATOM     47  C   UNL     1      -2.068 -12.224   0.715  1.00  0.00     0.049 A 
ATOM     48  H   UNL     1      -0.317 -13.069  -0.034  1.00  0.00     0.167 HD
ATOM     49  C   UNL     1       3.440 -14.559  -1.824  1.00  0.00     0.037 A 
ATOM     50  C   UNL     1      -3.064 -13.095   0.459  1.00  0.00     0.037 A 
ATOM     51  C   UNL     1       2.462 -15.585  -2.054  1.00  0.00     0.049 A 
ATOM     52  C   UNL     1      -2.736 -14.382  -0.254  1.00  0.00     0.074 A 
ATOM     53  C   UNL     1       2.639 -16.823  -2.643  1.00  0.00     0.029 A 
ATOM     54  N   UNL     1       1.125 -15.495  -1.696  1.00  0.00    -0.354 N 
ATOM     55  N   UNL     1      -1.579 -14.796  -0.715  1.00  0.00    -0.248 NA
ATOM     56  C   UNL     1      -3.842 -15.322  -0.476  1.00  0.00     0.031 C 
ATOM     57  C   UNL     1       1.397 -17.463  -2.685  1.00  0.00     0.029 A 
ATOM     58  C   UNL     1       0.461 -16.650  -2.064  1.00  0.00     0.049 A 
ATOM     59  H   UNL     1       0.711 -14.723  -1.247  1.00  0.00     0.167 HD
ATOM     60  C   UNL     1      -1.810 -16.063  -1.240  1.00  0.00     0.074 A 
ATOM     61  C   UNL     1      -3.217 -16.345  -1.044  1.00  0.00     0.031 C 
ATOM     62  C   UNL     1      -0.936 -16.919  -1.826  1.00  0.00     0.037 A 
BRANCH  49  63
ATOM     63  C   UNL     1       4.848 -14.774  -2.308  1.00  0.00     0.058 A 
ATOM     64  C   UNL     1       5.918 -14.953  -1.416  1.00  0.00     0.135 A 
ATOM     65  C   UNL     1       5.128 -14.821  -3.683  1.00  0.00     0.135 A 
ATOM     66  F   UNL     1       5.713 -14.894  -0.091  1.00  0.00    -0.206 F 
ATOM     67  C   UNL     1       7.220 -15.139  -1.869  1.00  0.00     0.059 A 
ATOM     68  C   UNL     1       6.417 -15.042  -4.159  1.00  0.00     0.059 A 
ATOM     69  F   UNL     1       4.144 -14.650  -4.580  1.00  0.00    -0.206 F 
ATOM     70  C   UNL     1       7.458 -15.184  -3.243  1.00  0.00     0.060 A 
BRANCH  70  71
ATOM     71  S   UNL     1       9.151 -15.438  -3.813  1.00  0.00     0.124 S 
ATOM     72  O   UNL     1       9.763 -14.152  -3.491  1.00  0.00    -0.237 OA
ATOM     73  O   UNL     1       9.587 -16.568  -2.999  1.00  0.00    -0.237 OA
ATOM     74  O   UNL     1       8.993 -15.718  -5.237  1.00  0.00    -0.744 OA
ENDBRANCH  70  71
ENDBRANCH  49  63
BRANCH  50  75
ATOM     75  C   UNL     1      -4.453 -12.796   0.903  1.00  0.00     0.058 A 
ATOM     76  C   UNL     1      -5.055 -13.534   1.933  1.00  0.00     0.135 A 
ATOM     77  C   UNL     1      -5.202 -11.764   0.317  1.00  0.00     0.135 A 
ATOM     78  F   UNL     1      -4.382 -14.533   2.524  1.00  0.00    -0.206 F 
ATOM     79  C   UNL     1      -6.357 -13.277   2.351  1.00  0.00     0.059 A 
ATOM     80  C   UNL     1      -6.497 -11.469   0.737  1.00  0.00     0.059 A 
ATOM     81  F   UNL     1      -4.667 -11.014  -0.659  1.00  0.00    -0.206 F 
ATOM     82  C   UNL     1      -7.070 -12.241   1.747  1.00  0.00     0.060 A 
BRANCH  82  83
ATOM     83  S   UNL     1      -8.746 -11.895   2.322  1.00  0.00     0.124 S 
ATOM     84  O   UNL     1      -9.478 -13.045   1.805  1.00  0.00    -0.237 OA
ATOM     85  O   UNL     1      -8.568 -11.849   3.770  1.00  0.00    -0.237 OA
ATOM     86  O   UNL     1      -9.059 -10.614   1.696  1.00  0.00    -0.744 OA
ENDBRANCH  82  83
ENDBRANCH  50  75
BRANCH  62  87
ATOM     87  C   UNL     1      -1.446 -18.272  -2.235  1.00  0.00     0.058 A 
ATOM     88  C   UNL     1      -2.272 -18.448  -3.354  1.00  0.00     0.135 A 
ATOM     89  C   UNL     1      -1.012 -19.418  -1.549  1.00  0.00     0.135 A 
ATOM     90  F   UNL     1      -2.719 -17.384  -4.040  1.00  0.00    -0.206 F 
ATOM     91  C   UNL     1      -2.659 -19.716  -3.775  1.00  0.00     0.059 A 
ATOM     92  C   UNL     1      -1.361 -20.696  -1.970  1.00  0.00     0.059 A 
ATOM     93  F   UNL     1      -0.211 -19.303  -0.478  1.00  0.00    -0.206 F 
ATOM     94  C   UNL     1      -2.189 -20.834  -3.082  1.00  0.00     0.060 A 
BRANCH  94  95
ATOM     95  S   UNL     1      -2.641 -22.475  -3.682  1.00  0.00     0.124 S 
ATOM     96  O   UNL     1      -4.052 -22.545  -3.315  1.00  0.00    -0.237 OA
ATOM     97  O   UNL     1      -2.362 -22.371  -5.111  1.00  0.00    -0.237 OA
ATOM     98  O   UNL     1      -1.754 -23.366  -2.939  1.00  0.00    -0.744 OA
ENDBRANCH  94  95
ENDBRANCH  62  87
ENDBRANCH  36  37
ENDBRANCH  28  31
ENDBRANCH  26  27
ENDBRANCH  25  26
ENDBRANCH  24  25
ENDBRANCH   1  24
TORSDOF 20
