REMARK SMILES Cc1ccc(NC(=O)C[N@H+]2CCC[C@@H](C(=O)NCCCCNC(=O)c3ccc(-c4c5nc(c(-c6c(F)cc(S(=O)(=O)[O-])cc6F)c6ccc([nH]6)c(-c6c(F)cc(S(=O)(=O)[O-])cc6F)c6nc(c(-c7c(F)cc(S(=O)(=O)[O-])cc7F)c7ccc4[nH]7)C=C6)C=C5)cc3)C2)cc1Cl
REMARK SMILES IDX 19 1 18 2 17 3 15 4 16 5 14 7 10 8 11 9 91 10 12 12 13 13
REMARK SMILES IDX 9 14 7 15 6 16 8 18 5 19 1 20 2 21 3 22 93 23 4 24 92 25
REMARK SMILES IDX 94 26 20 27 21 28 22 29 23 30 24 32 25 33 26 34 90 35 27 36
REMARK SMILES IDX 89 37 28 38 29 39 30 40 83 41 31 42 88 43 82 44 84 45 32 46
REMARK SMILES IDX 87 47 81 48 80 49 33 51 67 52 46 53 66 54 47 55 50 56 65 57
REMARK SMILES IDX 85 58 48 59 49 60 64 62 86 63 51 64 34 65 35 66 44 67 36 68
REMARK SMILES IDX 37 69 43 70 45 71 38 72 39 73 40 74 41 75 42 76 68 77 69 78
REMARK SMILES IDX 78 79 70 80 71 81 77 82 79 83 72 84 73 85 74 86 75 87 76 88
REMARK SMILES IDX 52 89 53 90 62 91 54 92 55 93 61 94 63 95 56 96 57 97 58 98
REMARK SMILES IDX 59 99 60 100
REMARK H PARENT 17 6 10 11 6 17 22 31 84 50 50 61
REMARK Flexibility Score: inf
ROOT
ATOM      1  C   UNL     1       2.517   1.653  -3.836  1.00  0.00     0.023 C 
ENDROOT
BRANCH   1   2
ATOM      2  C   UNL     1       1.889   0.914  -2.655  1.00  0.00     0.116 C 
BRANCH   2   3
ATOM      3  N   UNL     1       0.443   0.900  -2.776  1.00  0.00    -0.356 N 
ATOM      4  C   UNL     1      -0.394  -0.105  -3.155  1.00  0.00     0.228 C 
ATOM      5  O   UNL     1      -1.571   0.186  -3.377  1.00  0.00    -0.275 OA
ATOM      6  H   UNL     1      -0.001   1.748  -2.548  1.00  0.00     0.163 HD
BRANCH   4   7
ATOM      7  C   UNL     1       0.092  -1.550  -3.150  1.00  0.00     0.133 C 
ATOM      8  N   UNL     1      -0.147  -3.537  -1.576  1.00  0.00    -0.326 N 
ATOM      9  C   UNL     1      -0.798  -4.308  -2.640  1.00  0.00     0.262 C 
ATOM     10  C   UNL     1      -0.300  -2.093  -1.773  1.00  0.00     0.276 C 
ATOM     11  H   UNL     1       0.850  -3.740  -1.639  1.00  0.00     0.348 HD
ATOM     12  C   UNL     1      -0.301  -3.860  -4.020  1.00  0.00     0.062 C 
ATOM     13  C   UNL     1      -0.575  -2.375  -4.248  1.00  0.00     0.025 C 
BRANCH   8  14
ATOM     14  C   UNL     1      -0.574  -3.969  -0.214  1.00  0.00     0.363 C 
BRANCH  14  15
ATOM     15  C   UNL     1      -2.047  -3.698   0.151  1.00  0.00     0.279 C 
ATOM     16  N   UNL     1      -2.513  -2.492   0.610  1.00  0.00    -0.321 N 
ATOM     17  H   UNL     1      -3.481  -2.482   0.789  1.00  0.00     0.170 HD
ATOM     18  O   UNL     1      -2.895  -4.584  -0.032  1.00  0.00    -0.268 OA
BRANCH  16  19
ATOM     19  C   UNL     1      -1.874  -1.267   0.873  1.00  0.00     0.042 A 
ATOM     20  C   UNL     1       0.109   2.570   0.729  1.00  0.00     0.046 C 
ATOM     21  C   UNL     1      -0.587   1.250   0.896  1.00  0.00    -0.032 A 
ATOM     22  C   UNL     1      -1.929   1.135   0.512  1.00  0.00     0.007 A 
ATOM     23  C   UNL     1       0.074   0.097   1.340  1.00  0.00     0.046 A 
ATOM     24  C   UNL     1      -2.572  -0.107   0.520  1.00  0.00     0.026 A 
ATOM     25  C   UNL     1      -0.578  -1.144   1.363  1.00  0.00     0.047 A 
ATOM     26  Cl  UNL     1       1.743   0.126   1.788  1.00  0.00    -0.084 Cl
ENDBRANCH  16  19
ENDBRANCH  14  15
ENDBRANCH   8  14
ENDBRANCH   4   7
ENDBRANCH   2   3
ENDBRANCH   1   2
BRANCH   1  27
ATOM     27  C   UNL     1       2.179   3.148  -3.903  1.00  0.00     0.023 C 
BRANCH  27  28
ATOM     28  C   UNL     1       2.589   3.970  -2.684  1.00  0.00     0.116 C 
BRANCH  28  29
ATOM     29  N   UNL     1       4.017   3.915  -2.417  1.00  0.00    -0.352 N 
ATOM     30  C   UNL     1       4.907   4.941  -2.214  1.00  0.00     0.251 C 
ATOM     31  H   UNL     1       4.402   3.010  -2.376  1.00  0.00     0.163 HD
ATOM     32  O   UNL     1       6.110   4.698  -2.146  1.00  0.00    -0.269 OA
BRANCH  30  33
ATOM     33  C   UNL     1       4.424   6.335  -2.108  1.00  0.00     0.039 A 
ATOM     34  C   UNL     1       5.090   7.334  -2.824  1.00  0.00     0.014 A 
ATOM     35  C   UNL     1       3.321   6.660  -1.314  1.00  0.00     0.014 A 
ATOM     36  C   UNL     1       4.606   8.644  -2.799  1.00  0.00     0.010 A 
ATOM     37  C   UNL     1       2.798   7.952  -1.349  1.00  0.00     0.010 A 
ATOM     38  C   UNL     1       3.432   8.958  -2.094  1.00  0.00    -0.014 A 
BRANCH  38  39
ATOM     39  C   UNL     1       2.850  10.325  -2.141  1.00  0.00     0.031 A 
ATOM     40  C   UNL     1       2.740  11.152  -0.888  1.00  0.00     0.074 A 
ATOM     41  C   UNL     1       2.364  10.802  -3.306  1.00  0.00     0.049 A 
ATOM     42  N   UNL     1       2.217  12.340  -0.726  1.00  0.00    -0.248 NA
ATOM     43  C   UNL     1       3.266  10.554   0.350  1.00  0.00     0.031 C 
ATOM     44  C   UNL     1       2.370  10.082  -4.582  1.00  0.00     0.029 A 
ATOM     45  N   UNL     1       1.765  12.000  -3.607  1.00  0.00    -0.354 N 
ATOM     46  C   UNL     1       2.338  12.627   0.629  1.00  0.00     0.074 A 
ATOM     47  C   UNL     1       2.936  11.467   1.253  1.00  0.00     0.031 C 
ATOM     48  C   UNL     1       1.827  10.861  -5.530  1.00  0.00     0.029 A 
ATOM     49  C   UNL     1       1.395  12.118  -4.927  1.00  0.00     0.049 A 
ATOM     50  H   UNL     1       1.613  12.708  -2.940  1.00  0.00     0.167 HD
ATOM     51  C   UNL     1       2.001  13.762   1.289  1.00  0.00     0.037 A 
ATOM     52  C   UNL     1       0.772  13.120  -5.577  1.00  0.00     0.037 A 
ATOM     53  C   UNL     1       1.424  14.921   0.658  1.00  0.00     0.049 A 
ATOM     54  C   UNL     1       0.394  14.365  -4.820  1.00  0.00     0.074 A 
ATOM     55  C   UNL     1       1.105  16.141   1.229  1.00  0.00     0.029 A 
ATOM     56  N   UNL     1       1.070  15.004  -0.681  1.00  0.00    -0.354 N 
ATOM     57  N   UNL     1       0.581  14.646  -3.552  1.00  0.00    -0.248 NA
ATOM     58  C   UNL     1      -0.273  15.430  -5.580  1.00  0.00     0.031 C 
ATOM     59  C   UNL     1       0.507  16.940   0.250  1.00  0.00     0.029 A 
ATOM     60  C   UNL     1       0.510  16.243  -0.948  1.00  0.00     0.049 A 
ATOM     61  H   UNL     1       1.199  14.288  -1.345  1.00  0.00     0.167 HD
ATOM     62  C   UNL     1       0.082  15.932  -3.371  1.00  0.00     0.074 A 
ATOM     63  C   UNL     1      -0.404  16.376  -4.661  1.00  0.00     0.031 C 
ATOM     64  C   UNL     1       0.034  16.678  -2.239  1.00  0.00     0.037 A 
BRANCH  51  65
ATOM     65  C   UNL     1       2.243  13.805   2.775  1.00  0.00     0.058 A 
ATOM     66  C   UNL     1       3.540  13.839   3.314  1.00  0.00     0.135 A 
ATOM     67  C   UNL     1       1.163  13.852   3.672  1.00  0.00     0.135 A 
ATOM     68  F   UNL     1       4.611  13.784   2.505  1.00  0.00    -0.206 F 
ATOM     69  C   UNL     1       3.757  13.882   4.687  1.00  0.00     0.059 A 
ATOM     70  C   UNL     1       1.357  13.927   5.048  1.00  0.00     0.059 A 
ATOM     71  F   UNL     1      -0.098  13.824   3.214  1.00  0.00    -0.206 F 
ATOM     72  C   UNL     1       2.659  13.925   5.547  1.00  0.00     0.060 A 
BRANCH  72  73
ATOM     73  S   UNL     1       2.959  13.979   7.326  1.00  0.00     0.124 S 
ATOM     74  O   UNL     1       3.433  12.623   7.582  1.00  0.00    -0.237 OA
ATOM     75  O   UNL     1       3.962  15.033   7.441  1.00  0.00    -0.237 OA
ATOM     76  O   UNL     1       1.649  14.301   7.883  1.00  0.00    -0.744 OA
ENDBRANCH  72  73
ENDBRANCH  51  65
BRANCH  52  77
ATOM     77  C   UNL     1       0.485  12.997  -7.033  1.00  0.00     0.058 A 
ATOM     78  C   UNL     1       1.167  13.786  -7.972  1.00  0.00     0.135 A 
ATOM     79  C   UNL     1      -0.463  12.082  -7.516  1.00  0.00     0.135 A 
ATOM     80  F   UNL     1       2.077  14.681  -7.560  1.00  0.00    -0.206 F 
ATOM     81  C   UNL     1       0.909  13.684  -9.335  1.00  0.00     0.059 A 
ATOM     82  C   UNL     1      -0.719  11.942  -8.876  1.00  0.00     0.059 A 
ATOM     83  F   UNL     1      -1.132  11.292  -6.661  1.00  0.00    -0.206 F 
ATOM     84  C   UNL     1      -0.034  12.755  -9.778  1.00  0.00     0.060 A 
BRANCH  84  85
ATOM     85  S   UNL     1      -0.323  12.596 -11.554  1.00  0.00     0.124 S 
ATOM     86  O   UNL     1      -1.036  13.833 -11.847  1.00  0.00    -0.237 OA
ATOM     87  O   UNL     1       1.037  12.502 -12.076  1.00  0.00    -0.237 OA
ATOM     88  O   UNL     1      -1.111  11.372 -11.657  1.00  0.00    -0.744 OA
ENDBRANCH  84  85
ENDBRANCH  52  77
BRANCH  64  89
ATOM     89  C   UNL     1      -0.530  18.069  -2.345  1.00  0.00     0.058 A 
ATOM     90  C   UNL     1      -1.899  18.302  -2.543  1.00  0.00     0.135 A 
ATOM     91  C   UNL     1       0.308  19.187  -2.193  1.00  0.00     0.135 A 
ATOM     92  F   UNL     1      -2.744  17.271  -2.702  1.00  0.00    -0.206 F 
ATOM     93  C   UNL     1      -2.415  19.593  -2.611  1.00  0.00     0.059 A 
ATOM     94  C   UNL     1      -0.190  20.485  -2.226  1.00  0.00     0.059 A 
ATOM     95  F   UNL     1       1.625  19.022  -1.991  1.00  0.00    -0.206 F 
ATOM     96  C   UNL     1      -1.552  20.679  -2.448  1.00  0.00     0.060 A 
BRANCH  96  97
ATOM     97  S   UNL     1      -2.240  22.347  -2.502  1.00  0.00     0.124 S 
ATOM     98  O   UNL     1      -2.536  22.497  -3.923  1.00  0.00    -0.237 OA
ATOM     99  O   UNL     1      -3.399  22.234  -1.622  1.00  0.00    -0.237 OA
ATOM    100  O   UNL     1      -1.154  23.180  -1.996  1.00  0.00    -0.744 OA
ENDBRANCH  96  97
ENDBRANCH  64  89
ENDBRANCH  38  39
ENDBRANCH  30  33
ENDBRANCH  28  29
ENDBRANCH  27  28
ENDBRANCH   1  27
TORSDOF 17
