REMARK SMILES CN1C(=O)C[C@@H](C(=O)NCCCCNC(=O)c2ccc(-c3c4nc(c(-c5c(F)cc(S(=O)(=O)[O-])cc5F)c5ccc([nH]5)c(-c5c(F)cc(S(=O)(=O)[O-])cc5F)c5nc(c(-c6c(F)cc(S(=O)(=O)[O-])cc6F)c6ccc3[nH]6)C=C5)C=C4)cc2)C12CCN(C(=O)c1cc3ccccc3[nH]1)CC2
REMARK SMILES IDX 12 1 11 2 10 3 9 4 7 5 8 6 6 8 1 9 2 10 3 11 83 12 4 13 5 14
REMARK SMILES IDX 84 15 99 16 85 17 98 18 86 19 87 20 88 21 89 22 90 23 97 24
REMARK SMILES IDX 91 25 96 26 92 28 95 29 93 30 94 31 13 32 14 33 15 34 16 36
REMARK SMILES IDX 17 37 18 38 82 39 19 40 81 41 20 42 21 43 22 44 75 45 23 46
REMARK SMILES IDX 80 47 74 48 76 49 24 50 79 51 73 52 72 53 25 55 59 56 38 57
REMARK SMILES IDX 58 58 39 59 42 60 57 61 77 62 40 63 41 64 56 66 78 67 43 68
REMARK SMILES IDX 26 69 27 70 36 71 28 72 29 73 35 74 37 75 30 76 31 77 32 78
REMARK SMILES IDX 33 79 34 80 60 81 61 82 70 83 62 84 63 85 69 86 71 87 64 88
REMARK SMILES IDX 65 89 66 90 67 91 68 92 44 93 45 94 54 95 46 96 47 97 53 98
REMARK SMILES IDX 55 99 48 100 49 101 50 102 51 103 52 104
REMARK H PARENT 9 7 97 27 14 35 76 54 42 65
REMARK Flexibility Score: inf
ROOT
ATOM      1  C   UNL     1      -2.113  -1.954   3.410  1.00  0.00     0.023 C 
ENDROOT
BRANCH   1   2
ATOM      2  C   UNL     1      -1.440  -1.083   2.352  1.00  0.00     0.023 C 
BRANCH   2   3
ATOM      3  C   UNL     1      -2.063   0.303   2.178  1.00  0.00     0.116 C 
BRANCH   3   4
ATOM      4  N   UNL     1      -1.845   1.190   3.309  1.00  0.00    -0.356 N 
ATOM      5  C   UNL     1      -1.052   2.271   3.505  1.00  0.00     0.226 C 
ATOM      6  O   UNL     1      -1.137   2.821   4.611  1.00  0.00    -0.275 OA
ATOM      7  H   UNL     1      -2.387   0.955   4.097  1.00  0.00     0.163 HD
BRANCH   5   8
ATOM      8  C   UNL     1      -0.033   2.816   2.505  1.00  0.00     0.113 C 
ATOM      9  C   UNL     1       1.408   0.215   0.240  1.00  0.00     0.147 C 
ATOM     10  N   UNL     1       0.763   1.350   0.876  1.00  0.00    -0.339 N 
ATOM     11  C   UNL     1      -0.147   2.161   0.203  1.00  0.00     0.223 C 
ATOM     12  C   UNL     1       1.175   1.914   2.167  1.00  0.00     0.058 C 
ATOM     13  O   UNL     1      -0.524   2.041  -0.945  1.00  0.00    -0.275 OA
ATOM     14  C   UNL     1      -0.634   3.220   1.160  1.00  0.00     0.116 C 
ATOM     15  C   UNL     1       1.486   0.869   3.269  1.00  0.00     0.051 C 
ATOM     16  C   UNL     1       2.441   2.788   1.898  1.00  0.00     0.051 C 
ATOM     17  C   UNL     1       2.137   1.495   4.505  1.00  0.00     0.122 C 
ATOM     18  C   UNL     1       3.146   3.253   3.169  1.00  0.00     0.122 C 
ATOM     19  N   UNL     1       3.355   2.162   4.102  1.00  0.00    -0.337 N 
ATOM     20  C   UNL     1       4.420   1.297   3.863  1.00  0.00     0.270 C 
ATOM     21  O   UNL     1       4.653   0.835   2.750  1.00  0.00    -0.267 OA
BRANCH  20  22
ATOM     22  C   UNL     1       5.266   1.064   4.996  1.00  0.00     0.105 A 
ATOM     23  C   UNL     1       6.089  -0.018   5.244  1.00  0.00     0.042 A 
ATOM     24  N   UNL     1       5.583   2.016   5.937  1.00  0.00    -0.351 N 
ATOM     25  C   UNL     1       7.209   0.503   5.945  1.00  0.00     0.000 A 
ATOM     26  C   UNL     1       6.896   1.814   6.304  1.00  0.00     0.046 A 
ATOM     27  H   UNL     1       4.982   2.714   6.284  1.00  0.00     0.167 HD
ATOM     28  C   UNL     1       8.508   0.022   6.176  1.00  0.00     0.010 A 
ATOM     29  C   UNL     1       7.831   2.698   6.846  1.00  0.00     0.026 A 
ATOM     30  C   UNL     1       9.475   0.913   6.651  1.00  0.00     0.001 A 
ATOM     31  C   UNL     1       9.142   2.231   6.969  1.00  0.00     0.002 A 
ENDBRANCH  20  22
ENDBRANCH   5   8
ENDBRANCH   3   4
ENDBRANCH   2   3
ENDBRANCH   1   2
BRANCH   1  32
ATOM     32  C   UNL     1      -3.587  -2.224   3.143  1.00  0.00     0.116 C 
BRANCH  32  33
ATOM     33  N   UNL     1      -3.831  -2.751   1.808  1.00  0.00    -0.352 N 
ATOM     34  C   UNL     1      -4.733  -3.707   1.416  1.00  0.00     0.251 C 
ATOM     35  H   UNL     1      -3.275  -2.370   1.090  1.00  0.00     0.163 HD
ATOM     36  O   UNL     1      -4.721  -4.140   0.270  1.00  0.00    -0.269 OA
BRANCH  34  37
ATOM     37  C   UNL     1      -5.694  -4.222   2.408  1.00  0.00     0.039 A 
ATOM     38  C   UNL     1      -5.845  -5.602   2.549  1.00  0.00     0.014 A 
ATOM     39  C   UNL     1      -6.404  -3.336   3.222  1.00  0.00     0.014 A 
ATOM     40  C   UNL     1      -6.676  -6.097   3.552  1.00  0.00     0.010 A 
ATOM     41  C   UNL     1      -7.167  -3.831   4.269  1.00  0.00     0.010 A 
ATOM     42  C   UNL     1      -7.319  -5.215   4.436  1.00  0.00    -0.014 A 
BRANCH  42  43
ATOM     43  C   UNL     1      -8.191  -5.715   5.522  1.00  0.00     0.031 A 
ATOM     44  C   UNL     1      -9.659  -5.393   5.498  1.00  0.00     0.074 A 
ATOM     45  C   UNL     1      -7.650  -6.394   6.552  1.00  0.00     0.049 A 
ATOM     46  N   UNL     1     -10.576  -5.652   6.392  1.00  0.00    -0.248 NA
ATOM     47  C   UNL     1     -10.154  -4.645   4.330  1.00  0.00     0.031 C 
ATOM     48  C   UNL     1      -6.228  -6.712   6.708  1.00  0.00     0.029 A 
ATOM     49  N   UNL     1      -8.234  -6.932   7.669  1.00  0.00    -0.354 N 
ATOM     50  C   UNL     1     -11.746  -5.080   5.908  1.00  0.00     0.074 A 
ATOM     51  C   UNL     1     -11.413  -4.414   4.668  1.00  0.00     0.031 C 
ATOM     52  C   UNL     1      -6.056  -7.414   7.840  1.00  0.00     0.029 A 
ATOM     53  C   UNL     1      -7.347  -7.572   8.502  1.00  0.00     0.049 A 
ATOM     54  H   UNL     1      -9.198  -6.867   7.858  1.00  0.00     0.167 HD
ATOM     55  C   UNL     1     -12.992  -5.131   6.434  1.00  0.00     0.037 A 
ATOM     56  C   UNL     1      -7.559  -8.216   9.665  1.00  0.00     0.037 A 
ATOM     57  C   UNL     1     -13.321  -5.840   7.641  1.00  0.00     0.049 A 
ATOM     58  C   UNL     1      -8.961  -8.308  10.199  1.00  0.00     0.074 A 
ATOM     59  C   UNL     1     -14.558  -5.996   8.241  1.00  0.00     0.029 A 
ATOM     60  N   UNL     1     -12.405  -6.528   8.424  1.00  0.00    -0.354 N 
ATOM     61  N   UNL     1     -10.065  -7.795   9.709  1.00  0.00    -0.248 NA
ATOM     62  C   UNL     1      -9.151  -9.077  11.437  1.00  0.00     0.031 C 
ATOM     63  C   UNL     1     -14.387  -6.769   9.395  1.00  0.00     0.029 A 
ATOM     64  C   UNL     1     -13.050  -7.117   9.498  1.00  0.00     0.049 A 
ATOM     65  H   UNL     1     -11.440  -6.588   8.242  1.00  0.00     0.167 HD
ATOM     66  C   UNL     1     -11.084  -8.201  10.562  1.00  0.00     0.074 A 
ATOM     67  C   UNL     1     -10.466  -9.010  11.594  1.00  0.00     0.031 C 
ATOM     68  C   UNL     1     -12.411  -7.932  10.499  1.00  0.00     0.037 A 
BRANCH  55  69
ATOM     69  C   UNL     1     -14.085  -4.418   5.690  1.00  0.00     0.058 A 
ATOM     70  C   UNL     1     -14.575  -4.904   4.467  1.00  0.00     0.135 A 
ATOM     71  C   UNL     1     -14.653  -3.242   6.203  1.00  0.00     0.135 A 
ATOM     72  F   UNL     1     -14.051  -6.014   3.922  1.00  0.00    -0.206 F 
ATOM     73  C   UNL     1     -15.568  -4.232   3.763  1.00  0.00     0.059 A 
ATOM     74  C   UNL     1     -15.666  -2.567   5.528  1.00  0.00     0.059 A 
ATOM     75  F   UNL     1     -14.218  -2.732   7.366  1.00  0.00    -0.206 F 
ATOM     76  C   UNL     1     -16.104  -3.061   4.299  1.00  0.00     0.060 A 
BRANCH  76  77
ATOM     77  S   UNL     1     -17.390  -2.196   3.374  1.00  0.00     0.124 S 
ATOM     78  O   UNL     1     -16.604  -1.531   2.339  1.00  0.00    -0.237 OA
ATOM     79  O   UNL     1     -18.241  -3.290   2.917  1.00  0.00    -0.237 OA
ATOM     80  O   UNL     1     -17.989  -1.315   4.371  1.00  0.00    -0.744 OA
ENDBRANCH  76  77
ENDBRANCH  55  69
BRANCH  56  81
ATOM     81  C   UNL     1      -6.427  -8.866  10.374  1.00  0.00     0.058 A 
ATOM     82  C   UNL     1      -6.293 -10.262  10.379  1.00  0.00     0.135 A 
ATOM     83  C   UNL     1      -5.456  -8.112  11.049  1.00  0.00     0.135 A 
ATOM     84  F   UNL     1      -7.198 -11.024   9.747  1.00  0.00    -0.206 F 
ATOM     85  C   UNL     1      -5.249 -10.892  11.049  1.00  0.00     0.059 A 
ATOM     86  C   UNL     1      -4.391  -8.717  11.709  1.00  0.00     0.059 A 
ATOM     87  F   UNL     1      -5.529  -6.772  11.054  1.00  0.00    -0.206 F 
ATOM     88  C   UNL     1      -4.303 -10.110  11.714  1.00  0.00     0.060 A 
BRANCH  88  89
ATOM     89  S   UNL     1      -2.929 -10.931  12.549  1.00  0.00     0.124 S 
ATOM     90  O   UNL     1      -3.572 -11.412  13.766  1.00  0.00    -0.237 OA
ATOM     91  O   UNL     1      -2.545 -11.955  11.582  1.00  0.00    -0.237 OA
ATOM     92  O   UNL     1      -1.958  -9.856  12.728  1.00  0.00    -0.744 OA
ENDBRANCH  88  89
ENDBRANCH  56  81
BRANCH  68  93
ATOM     93  C   UNL     1     -13.284  -8.552  11.549  1.00  0.00     0.058 A 
ATOM     94  C   UNL     1     -13.325  -8.052  12.859  1.00  0.00     0.135 A 
ATOM     95  C   UNL     1     -14.121  -9.631  11.227  1.00  0.00     0.135 A 
ATOM     96  F   UNL     1     -12.539  -7.024  13.215  1.00  0.00    -0.206 F 
ATOM     97  C   UNL     1     -14.152  -8.617  13.823  1.00  0.00     0.059 A 
ATOM     98  C   UNL     1     -14.971 -10.199  12.169  1.00  0.00     0.059 A 
ATOM     99  F   UNL     1     -14.124 -10.137   9.983  1.00  0.00    -0.206 F 
ATOM    100  C   UNL     1     -14.969  -9.693  13.469  1.00  0.00     0.060 A 
BRANCH 100 101
ATOM    101  S   UNL     1     -16.060 -10.404  14.719  1.00  0.00     0.124 S 
ATOM    102  O   UNL     1     -15.131 -11.229  15.483  1.00  0.00    -0.237 OA
ATOM    103  O   UNL     1     -16.568  -9.220  15.406  1.00  0.00    -0.237 OA
ATOM    104  O   UNL     1     -17.048 -11.133  13.930  1.00  0.00    -0.744 OA
ENDBRANCH 100 101
ENDBRANCH  68  93
ENDBRANCH  42  43
ENDBRANCH  34  37
ENDBRANCH  32  33
ENDBRANCH   1  32
TORSDOF 15
