REMARK SMILES CC(C)[C@@H](NC(=O)N[C@H]1CCS(=O)(=O)C1)C(=O)NCCCCNC(=O)c1ccc(-c2c3nc(c(-c4c(F)cc(S(=O)(=O)[O-])cc4F)c4ccc([nH]4)c(-c4c(F)cc(S(=O)(=O)[O-])cc4F)c4nc(c(-c5c(F)cc(S(=O)(=O)[O-])cc5F)c5ccc2[nH]5)C=C4)C=C3)cc1
REMARK SMILES IDX 21 1 20 2 19 3 18 4 16 5 17 6 4 8 2 9 1 10 3 11 5 12 6 13
REMARK SMILES IDX 7 15 8 16 9 18 10 19 15 20 11 21 12 22 13 23 14 24 22 25
REMARK SMILES IDX 23 26 24 27 25 29 26 30 27 31 91 32 28 33 90 34 29 35 30 36
REMARK SMILES IDX 31 37 84 38 32 39 89 40 83 41 85 42 33 43 88 44 82 45 81 46
REMARK SMILES IDX 34 48 68 49 47 50 67 51 48 52 51 53 66 54 86 55 49 56 50 57
REMARK SMILES IDX 65 59 87 60 52 61 35 62 36 63 45 64 37 65 38 66 44 67 46 68
REMARK SMILES IDX 39 69 40 70 41 71 42 72 43 73 69 74 70 75 79 76 71 77 72 78
REMARK SMILES IDX 78 79 80 80 73 81 74 82 75 83 76 84 77 85 53 86 54 87 63 88
REMARK SMILES IDX 55 89 56 90 62 91 64 92 57 93 58 94 59 95 60 96 61 97
REMARK H PARENT 18 7 5 14 8 17 23 28 85 47 51 58
REMARK Flexibility Score: inf
ROOT
ATOM      1  C   UNL     1      -1.133  -6.060   5.226  1.00  0.00     0.023 C 
ENDROOT
BRANCH   1   2
ATOM      2  C   UNL     1      -2.336  -6.351   4.331  1.00  0.00     0.023 C 
BRANCH   2   3
ATOM      3  C   UNL     1      -2.900  -5.104   3.675  1.00  0.00     0.116 C 
BRANCH   3   4
ATOM      4  N   UNL     1      -2.011  -4.622   2.634  1.00  0.00    -0.354 N 
ATOM      5  C   UNL     1      -2.319  -3.913   1.516  1.00  0.00     0.242 C 
ATOM      6  O   UNL     1      -1.421  -3.641   0.714  1.00  0.00    -0.273 OA
ATOM      7  H   UNL     1      -1.058  -4.837   2.754  1.00  0.00     0.163 HD
BRANCH   5   8
ATOM      8  C   UNL     1      -3.772  -3.550   1.193  1.00  0.00     0.175 C 
BRANCH   8   9
ATOM      9  C   UNL     1      -4.407  -4.862   0.602  1.00  0.00     0.015 C 
ATOM     10  C   UNL     1      -5.801  -4.666   0.011  1.00  0.00     0.010 C 
ATOM     11  C   UNL     1      -3.513  -5.523  -0.467  1.00  0.00     0.010 C 
ENDBRANCH   8   9
BRANCH   8  12
ATOM     12  N   UNL     1      -4.520  -3.013   2.359  1.00  0.00    -0.326 N 
ATOM     13  C   UNL     1      -4.458  -1.929   3.148  1.00  0.00     0.315 C 
ATOM     14  H   UNL     1      -5.256  -3.611   2.622  1.00  0.00     0.166 HD
ATOM     15  O   UNL     1      -5.480  -1.651   3.783  1.00  0.00    -0.249 OA
ATOM     16  N   UNL     1      -3.387  -1.145   3.352  1.00  0.00    -0.334 N 
ATOM     17  H   UNL     1      -3.595  -0.326   3.857  1.00  0.00     0.165 HD
BRANCH  16  18
ATOM     18  C   UNL     1      -1.992  -1.250   2.986  1.00  0.00     0.099 C 
ATOM     19  C   UNL     1      -1.298   0.036   2.534  1.00  0.00     0.042 C 
ATOM     20  C   UNL     1      -1.084  -1.784   4.094  1.00  0.00     0.161 C 
ATOM     21  C   UNL     1       0.104  -0.449   2.129  1.00  0.00     0.139 C 
ATOM     22  S   UNL     1       0.541  -1.677   3.369  1.00  0.00     0.152 S 
ATOM     23  O   UNL     1       0.829  -2.945   2.742  1.00  0.00    -0.229 OA
ATOM     24  O   UNL     1       1.438  -1.073   4.336  1.00  0.00    -0.229 OA
ENDBRANCH  16  18
ENDBRANCH   8  12
ENDBRANCH   5   8
ENDBRANCH   3   4
ENDBRANCH   2   3
ENDBRANCH   1   2
BRANCH   1  25
ATOM     25  C   UNL     1      -1.449  -5.165   6.418  1.00  0.00     0.116 C 
BRANCH  25  26
ATOM     26  N   UNL     1      -2.434  -5.765   7.300  1.00  0.00    -0.352 N 
ATOM     27  C   UNL     1      -2.292  -6.165   8.603  1.00  0.00     0.251 C 
ATOM     28  H   UNL     1      -3.327  -5.904   6.907  1.00  0.00     0.163 HD
ATOM     29  O   UNL     1      -3.142  -6.886   9.116  1.00  0.00    -0.269 OA
BRANCH  27  30
ATOM     30  C   UNL     1      -1.112  -5.729   9.378  1.00  0.00     0.039 A 
ATOM     31  C   UNL     1      -0.467  -6.654  10.199  1.00  0.00     0.014 A 
ATOM     32  C   UNL     1      -0.663  -4.405   9.318  1.00  0.00     0.014 A 
ATOM     33  C   UNL     1       0.643  -6.255  10.945  1.00  0.00     0.010 A 
ATOM     34  C   UNL     1       0.494  -4.032   9.995  1.00  0.00     0.010 A 
ATOM     35  C   UNL     1       1.141  -4.945  10.840  1.00  0.00    -0.014 A 
BRANCH  35  36
ATOM     36  C   UNL     1       2.309  -4.514  11.649  1.00  0.00     0.031 A 
ATOM     37  C   UNL     1       2.147  -3.448  12.701  1.00  0.00     0.074 A 
ATOM     38  C   UNL     1       3.516  -5.072  11.427  1.00  0.00     0.049 A 
ATOM     39  N   UNL     1       3.042  -2.950  13.515  1.00  0.00    -0.248 NA
ATOM     40  C   UNL     1       0.812  -2.844  12.842  1.00  0.00     0.031 C 
ATOM     41  C   UNL     1       3.810  -6.072  10.399  1.00  0.00     0.029 A 
ATOM     42  N   UNL     1       4.721  -4.878  12.054  1.00  0.00    -0.354 N 
ATOM     43  C   UNL     1       2.384  -1.972  14.253  1.00  0.00     0.074 A 
ATOM     44  C   UNL     1       1.029  -1.906  13.752  1.00  0.00     0.031 C 
ATOM     45  C   UNL     1       5.103  -6.425  10.484  1.00  0.00     0.029 A 
ATOM     46  C   UNL     1       5.737  -5.655  11.551  1.00  0.00     0.049 A 
ATOM     47  H   UNL     1       4.846  -4.242  12.795  1.00  0.00     0.167 HD
ATOM     48  C   UNL     1       2.857  -1.216  15.272  1.00  0.00     0.037 A 
ATOM     49  C   UNL     1       7.032  -5.739  11.909  1.00  0.00     0.037 A 
ATOM     50  C   UNL     1       4.199  -1.308  15.785  1.00  0.00     0.049 A 
ATOM     51  C   UNL     1       7.526  -4.907  13.063  1.00  0.00     0.074 A 
ATOM     52  C   UNL     1       4.761  -0.628  16.852  1.00  0.00     0.029 A 
ATOM     53  N   UNL     1       5.191  -2.130  15.269  1.00  0.00    -0.354 N 
ATOM     54  N   UNL     1       6.870  -4.039  13.796  1.00  0.00    -0.248 NA
ATOM     55  C   UNL     1       8.931  -5.083  13.453  1.00  0.00     0.031 C 
ATOM     56  C   UNL     1       6.104  -1.004  16.952  1.00  0.00     0.029 A 
ATOM     57  C   UNL     1       6.364  -1.963  15.987  1.00  0.00     0.049 A 
ATOM     58  H   UNL     1       5.078  -2.741  14.506  1.00  0.00     0.167 HD
ATOM     59  C   UNL     1       7.773  -3.591  14.755  1.00  0.00     0.074 A 
ATOM     60  C   UNL     1       9.015  -4.297  14.517  1.00  0.00     0.031 C 
ATOM     61  C   UNL     1       7.591  -2.681  15.745  1.00  0.00     0.037 A 
BRANCH  48  62
ATOM     62  C   UNL     1       1.918  -0.227  15.909  1.00  0.00     0.058 A 
ATOM     63  C   UNL     1       0.831  -0.639  16.697  1.00  0.00     0.135 A 
ATOM     64  C   UNL     1       2.138   1.153  15.773  1.00  0.00     0.135 A 
ATOM     65  F   UNL     1       0.561  -1.946  16.848  1.00  0.00    -0.206 F 
ATOM     66  C   UNL     1      -0.015   0.280  17.310  1.00  0.00     0.059 A 
ATOM     67  C   UNL     1       1.322   2.090  16.401  1.00  0.00     0.059 A 
ATOM     68  F   UNL     1       3.160   1.605  15.028  1.00  0.00    -0.206 F 
ATOM     69  C   UNL     1       0.241   1.643  17.159  1.00  0.00     0.060 A 
BRANCH  69  70
ATOM     70  S   UNL     1      -0.851   2.822  17.982  1.00  0.00     0.124 S 
ATOM     71  O   UNL     1      -2.064   2.705  17.179  1.00  0.00    -0.237 OA
ATOM     72  O   UNL     1      -0.932   2.279  19.334  1.00  0.00    -0.237 OA
ATOM     73  O   UNL     1      -0.138   4.090  17.860  1.00  0.00    -0.744 OA
ENDBRANCH  69  70
ENDBRANCH  48  62
BRANCH  49  74
ATOM     74  C   UNL     1       7.949  -6.663  11.188  1.00  0.00     0.058 A 
ATOM     75  C   UNL     1       8.470  -7.806  11.813  1.00  0.00     0.135 A 
ATOM     76  C   UNL     1       8.329  -6.417   9.859  1.00  0.00     0.135 A 
ATOM     77  F   UNL     1       8.139  -8.085  13.083  1.00  0.00    -0.206 F 
ATOM     78  C   UNL     1       9.358  -8.655  11.160  1.00  0.00     0.059 A 
ATOM     79  C   UNL     1       9.191  -7.267   9.175  1.00  0.00     0.059 A 
ATOM     80  F   UNL     1       7.843  -5.348   9.208  1.00  0.00    -0.206 F 
ATOM     81  C   UNL     1       9.713  -8.375   9.839  1.00  0.00     0.060 A 
BRANCH  81  82
ATOM     82  S   UNL     1      10.846  -9.497   8.992  1.00  0.00     0.124 S 
ATOM     83  O   UNL     1      12.114  -9.175   9.636  1.00  0.00    -0.237 OA
ATOM     84  O   UNL     1      10.280 -10.804   9.311  1.00  0.00    -0.237 OA
ATOM     85  O   UNL     1      10.729  -9.097   7.592  1.00  0.00    -0.744 OA
ENDBRANCH  81  82
ENDBRANCH  49  74
BRANCH  61  86
ATOM     86  C   UNL     1       8.746  -2.440  16.680  1.00  0.00     0.058 A 
ATOM     87  C   UNL     1       9.916  -1.783  16.267  1.00  0.00     0.135 A 
ATOM     88  C   UNL     1       8.671  -2.864  18.017  1.00  0.00     0.135 A 
ATOM     89  F   UNL     1      10.040  -1.357  15.000  1.00  0.00    -0.206 F 
ATOM     90  C   UNL     1      10.990  -1.601  17.132  1.00  0.00     0.059 A 
ATOM     91  C   UNL     1       9.719  -2.661  18.908  1.00  0.00     0.059 A 
ATOM     92  F   UNL     1       7.569  -3.482  18.471  1.00  0.00    -0.206 F 
ATOM     93  C   UNL     1      10.884  -2.049  18.450  1.00  0.00     0.060 A 
BRANCH  93  94
ATOM     94  S   UNL     1      12.288  -1.818  19.560  1.00  0.00     0.124 S 
ATOM     95  O   UNL     1      13.212  -2.841  19.082  1.00  0.00    -0.237 OA
ATOM     96  O   UNL     1      12.677  -0.437  19.292  1.00  0.00    -0.237 OA
ATOM     97  O   UNL     1      11.718  -2.056  20.883  1.00  0.00    -0.744 OA
ENDBRANCH  93  94
ENDBRANCH  61  86
ENDBRANCH  35  36
ENDBRANCH  27  30
ENDBRANCH  25  26
ENDBRANCH   1  25
TORSDOF 17
