REMARK SMILES CCCc1ccc(Nc2ccc(C(=O)NCCCCNC(=O)c3ccc(-c4c5nc(c(-c6c(F)cc(S(=O)(=O)[O-])cc6F)c6ccc([nH]6)c(-c6c(F)cc(S(=O)(=O)[O-])cc6F)c6nc(c(-c7c(F)cc(S(=O)(=O)[O-])cc7F)c7ccc4[nH]7)C=C6)C=C5)cc3)cn2)cc1
REMARK SMILES IDX 17 1 16 2 15 3 13 4 14 5 12 7 9 8 10 9 90 10 11 11 89 12
REMARK SMILES IDX 8 13 7 15 4 16 5 17 92 18 6 19 91 20 3 21 2 22 1 23 18 24
REMARK SMILES IDX 19 25 20 26 21 27 22 29 23 30 24 31 88 32 25 33 87 34 26 35
REMARK SMILES IDX 27 36 28 37 81 38 29 39 86 40 80 41 82 42 30 43 85 44 79 45
REMARK SMILES IDX 78 46 31 48 65 49 44 50 64 51 45 52 48 53 63 54 83 55 46 56
REMARK SMILES IDX 47 57 62 59 84 60 49 61 32 62 33 63 42 64 34 65 35 66 41 67
REMARK SMILES IDX 43 68 36 69 37 70 38 71 39 72 40 73 66 74 67 75 76 76 68 77
REMARK SMILES IDX 69 78 75 79 77 80 70 81 71 82 72 83 73 84 74 85 50 86 51 87
REMARK SMILES IDX 60 88 52 89 53 90 59 91 61 92 54 93 55 94 56 95 57 96 58 97
REMARK H PARENT 15 6 8 14 20 28 82 47 48 58
REMARK Flexibility Score: inf
ROOT
ATOM      1  C   UNL     1      -7.501  -5.750   0.294  1.00  0.00     0.023 C 
ENDROOT
BRANCH   1   2
ATOM      2  C   UNL     1      -6.530  -5.242   1.361  1.00  0.00     0.116 C 
BRANCH   2   3
ATOM      3  N   UNL     1      -5.990  -6.343   2.135  1.00  0.00    -0.352 N 
ATOM      4  C   UNL     1      -4.827  -7.064   2.026  1.00  0.00     0.252 C 
ATOM      5  O   UNL     1      -4.607  -7.931   2.872  1.00  0.00    -0.269 OA
ATOM      6  H   UNL     1      -6.567  -6.628   2.881  1.00  0.00     0.163 HD
BRANCH   4   7
ATOM      7  C   UNL     1      -3.801  -6.813   0.986  1.00  0.00     0.058 A 
ATOM      8  C   UNL     1      -1.649  -6.264  -0.667  1.00  0.00     0.130 A 
ATOM      9  C   UNL     1      -2.938  -5.961  -1.093  1.00  0.00     0.048 A 
ATOM     10  N   UNL     1      -1.418  -6.929   0.480  1.00  0.00    -0.238 NA
ATOM     11  C   UNL     1      -4.022  -6.258  -0.269  1.00  0.00     0.019 A 
ATOM     12  C   UNL     1      -2.489  -7.171   1.283  1.00  0.00     0.127 A 
BRANCH   8  13
ATOM     13  N   UNL     1      -0.532  -5.796  -1.369  1.00  0.00    -0.340 N 
ATOM     14  H   UNL     1       0.123  -6.471  -1.662  1.00  0.00     0.168 HD
BRANCH  13  15
ATOM     15  C   UNL     1      -0.251  -4.451  -1.697  1.00  0.00     0.040 A 
ATOM     16  C   UNL     1       0.470  -1.761  -2.232  1.00  0.00    -0.048 A 
ATOM     17  C   UNL     1      -0.636  -2.059  -1.434  1.00  0.00     0.006 A 
ATOM     18  C   UNL     1       1.168  -2.827  -2.820  1.00  0.00     0.006 A 
ATOM     19  C   UNL     1      -0.979  -3.383  -1.159  1.00  0.00     0.026 A 
ATOM     20  C   UNL     1       0.812  -4.156  -2.554  1.00  0.00     0.026 A 
BRANCH  16  21
ATOM     21  C   UNL     1       0.913  -0.341  -2.501  1.00  0.00     0.035 C 
BRANCH  21  22
ATOM     22  C   UNL     1       0.584   0.710  -1.430  1.00  0.00     0.001 C 
ATOM     23  C   UNL     1       1.236   0.435  -0.080  1.00  0.00     0.004 C 
ENDBRANCH  21  22
ENDBRANCH  16  21
ENDBRANCH  13  15
ENDBRANCH   8  13
ENDBRANCH   4   7
ENDBRANCH   2   3
ENDBRANCH   1   2
BRANCH   1  24
ATOM     24  C   UNL     1      -8.883  -6.138   0.828  1.00  0.00     0.023 C 
BRANCH  24  25
ATOM     25  C   UNL     1      -9.689  -4.992   1.430  1.00  0.00     0.116 C 
BRANCH  25  26
ATOM     26  N   UNL     1      -9.902  -3.890   0.504  1.00  0.00    -0.352 N 
ATOM     27  C   UNL     1     -10.980  -3.040   0.417  1.00  0.00     0.251 C 
ATOM     28  H   UNL     1      -9.180  -3.732  -0.145  1.00  0.00     0.163 HD
ATOM     29  O   UNL     1     -11.047  -2.226  -0.494  1.00  0.00    -0.269 OA
BRANCH  27  30
ATOM     30  C   UNL     1     -12.073  -3.152   1.407  1.00  0.00     0.039 A 
ATOM     31  C   UNL     1     -13.391  -3.217   0.948  1.00  0.00     0.014 A 
ATOM     32  C   UNL     1     -11.796  -3.224   2.774  1.00  0.00     0.014 A 
ATOM     33  C   UNL     1     -14.429  -3.421   1.859  1.00  0.00     0.010 A 
ATOM     34  C   UNL     1     -12.824  -3.495   3.673  1.00  0.00     0.010 A 
ATOM     35  C   UNL     1     -14.149  -3.596   3.224  1.00  0.00    -0.014 A 
BRANCH  35  36
ATOM     36  C   UNL     1     -15.230  -3.895   4.197  1.00  0.00     0.031 A 
ATOM     37  C   UNL     1     -15.551  -2.918   5.293  1.00  0.00     0.074 A 
ATOM     38  C   UNL     1     -15.865  -5.081   4.139  1.00  0.00     0.049 A 
ATOM     39  N   UNL     1     -16.410  -3.030   6.273  1.00  0.00    -0.248 NA
ATOM     40  C   UNL     1     -14.782  -1.664   5.307  1.00  0.00     0.031 C 
ATOM     41  C   UNL     1     -15.592  -6.140   3.165  1.00  0.00     0.029 A 
ATOM     42  N   UNL     1     -16.858  -5.604   4.928  1.00  0.00    -0.354 N 
ATOM     43  C   UNL     1     -16.275  -1.871   7.028  1.00  0.00     0.074 A 
ATOM     44  C   UNL     1     -15.213  -1.097   6.424  1.00  0.00     0.031 C 
ATOM     45  C   UNL     1     -16.403  -7.182   3.409  1.00  0.00     0.029 A 
ATOM     46  C   UNL     1     -17.233  -6.877   4.571  1.00  0.00     0.049 A 
ATOM     47  H   UNL     1     -17.264  -5.114   5.679  1.00  0.00     0.167 HD
ATOM     48  C   UNL     1     -16.988  -1.476   8.110  1.00  0.00     0.037 A 
ATOM     49  C   UNL     1     -18.138  -7.710   5.121  1.00  0.00     0.037 A 
ATOM     50  C   UNL     1     -18.056  -2.244   8.695  1.00  0.00     0.049 A 
ATOM     51  C   UNL     1     -18.943  -7.242   6.301  1.00  0.00     0.074 A 
ATOM     52  C   UNL     1     -18.881  -1.908   9.753  1.00  0.00     0.029 A 
ATOM     53  N   UNL     1     -18.445  -3.508   8.271  1.00  0.00    -0.354 N 
ATOM     54  N   UNL     1     -18.858  -6.108   6.957  1.00  0.00    -0.248 NA
ATOM     55  C   UNL     1     -19.976  -8.155   6.807  1.00  0.00     0.031 C 
ATOM     56  C   UNL     1     -19.746  -2.983   9.992  1.00  0.00     0.029 A 
ATOM     57  C   UNL     1     -19.488  -3.972   9.056  1.00  0.00     0.049 A 
ATOM     58  H   UNL     1     -18.039  -4.002   7.523  1.00  0.00     0.167 HD
ATOM     59  C   UNL     1     -19.836  -6.165   7.943  1.00  0.00     0.074 A 
ATOM     60  C   UNL     1     -20.511  -7.438   7.787  1.00  0.00     0.031 C 
ATOM     61  C   UNL     1     -20.147  -5.245   8.890  1.00  0.00     0.037 A 
BRANCH  48  62
ATOM     62  C   UNL     1     -16.627  -0.151   8.723  1.00  0.00     0.058 A 
ATOM     63  C   UNL     1     -16.881   1.060   8.058  1.00  0.00     0.135 A 
ATOM     64  C   UNL     1     -16.006  -0.088   9.981  1.00  0.00     0.135 A 
ATOM     65  F   UNL     1     -17.460   1.058   6.847  1.00  0.00    -0.206 F 
ATOM     66  C   UNL     1     -16.486   2.282   8.593  1.00  0.00     0.059 A 
ATOM     67  C   UNL     1     -15.629   1.126  10.549  1.00  0.00     0.059 A 
ATOM     68  F   UNL     1     -15.743  -1.213  10.663  1.00  0.00    -0.206 F 
ATOM     69  C   UNL     1     -15.851   2.303   9.835  1.00  0.00     0.060 A 
BRANCH  69  70
ATOM     70  S   UNL     1     -15.308   3.891  10.501  1.00  0.00     0.124 S 
ATOM     71  O   UNL     1     -14.116   4.148   9.698  1.00  0.00    -0.237 OA
ATOM     72  O   UNL     1     -16.452   4.755  10.228  1.00  0.00    -0.237 OA
ATOM     73  O   UNL     1     -15.066   3.603  11.911  1.00  0.00    -0.744 OA
ENDBRANCH  69  70
ENDBRANCH  48  62
BRANCH  49  74
ATOM     74  C   UNL     1     -18.341  -9.059   4.532  1.00  0.00     0.058 A 
ATOM     75  C   UNL     1     -19.480  -9.351   3.769  1.00  0.00     0.135 A 
ATOM     76  C   UNL     1     -17.371 -10.064   4.674  1.00  0.00     0.135 A 
ATOM     77  F   UNL     1     -20.436  -8.423   3.610  1.00  0.00    -0.206 F 
ATOM     78  C   UNL     1     -19.653 -10.592   3.165  1.00  0.00     0.059 A 
ATOM     79  C   UNL     1     -17.512 -11.306   4.062  1.00  0.00     0.059 A 
ATOM     80  F   UNL     1     -16.255  -9.826   5.380  1.00  0.00    -0.206 F 
ATOM     81  C   UNL     1     -18.658 -11.561   3.311  1.00  0.00     0.060 A 
BRANCH  81  82
ATOM     82  S   UNL     1     -18.852 -13.138   2.451  1.00  0.00     0.124 S 
ATOM     83  O   UNL     1     -19.864 -13.796   3.268  1.00  0.00    -0.237 OA
ATOM     84  O   UNL     1     -19.280 -12.712   1.122  1.00  0.00    -0.237 OA
ATOM     85  O   UNL     1     -17.513 -13.718   2.513  1.00  0.00    -0.744 OA
ENDBRANCH  81  82
ENDBRANCH  49  74
BRANCH  61  86
ATOM     86  C   UNL     1     -21.279  -5.572   9.822  1.00  0.00     0.058 A 
ATOM     87  C   UNL     1     -21.136  -6.516  10.851  1.00  0.00     0.135 A 
ATOM     88  C   UNL     1     -22.506  -4.896   9.716  1.00  0.00     0.135 A 
ATOM     89  F   UNL     1     -19.986  -7.194  10.991  1.00  0.00    -0.206 F 
ATOM     90  C   UNL     1     -22.178  -6.793  11.731  1.00  0.00     0.059 A 
ATOM     91  C   UNL     1     -23.552  -5.141  10.600  1.00  0.00     0.059 A 
ATOM     92  F   UNL     1     -22.691  -3.977   8.755  1.00  0.00    -0.206 F 
ATOM     93  C   UNL     1     -23.382  -6.100  11.598  1.00  0.00     0.060 A 
BRANCH  93  94
ATOM     94  S   UNL     1     -24.715  -6.444  12.766  1.00  0.00     0.124 S 
ATOM     95  O   UNL     1     -25.208  -7.728  12.278  1.00  0.00    -0.237 OA
ATOM     96  O   UNL     1     -24.011  -6.479  14.044  1.00  0.00    -0.237 OA
ATOM     97  O   UNL     1     -25.622  -5.313  12.588  1.00  0.00    -0.744 OA
ENDBRANCH  93  94
ENDBRANCH  61  86
ENDBRANCH  35  36
ENDBRANCH  27  30
ENDBRANCH  25  26
ENDBRANCH  24  25
ENDBRANCH   1  24
TORSDOF 18
