REMARK SMILES COc1ccc(-c2sc(C(=O)NCCCCNC(=O)c3ccc(-c4c5nc(c(-c6c(F)cc(S(=O)(=O)[O-])cc6F)c6ccc([nH]6)c(-c6c(F)cc(S(=O)(=O)[O-])cc6F)c6nc(c(-c7c(F)cc(S(=O)(=O)[O-])cc7F)c7ccc4[nH]7)C=C6)C=C5)cc3)cc2C)c(OC)c1
REMARK SMILES IDX 15 1 14 2 13 3 12 4 10 5 11 6 9 8 7 9 8 10 87 11 86 12 88 13
REMARK SMILES IDX 6 14 3 15 4 16 92 17 5 18 89 19 2 20 1 21 90 22 91 23 16 24
REMARK SMILES IDX 17 25 18 26 19 28 20 29 21 30 85 31 22 32 84 33 23 34 24 35
REMARK SMILES IDX 25 36 78 37 26 38 83 39 77 40 79 41 27 42 82 43 76 44 75 45
REMARK SMILES IDX 28 47 62 48 41 49 61 50 42 51 45 52 60 53 80 54 43 55 44 56
REMARK SMILES IDX 59 58 81 59 46 60 29 61 30 62 39 63 31 64 32 65 38 66 40 67
REMARK SMILES IDX 33 68 34 69 35 70 36 71 37 72 63 73 64 74 73 75 65 76 66 77
REMARK SMILES IDX 72 78 74 79 67 80 68 81 69 82 70 83 71 84 47 85 48 86 57 87
REMARK SMILES IDX 49 88 50 89 56 90 58 91 51 92 52 93 53 94 54 95 55 96
REMARK H PARENT 12 7 17 27 79 46 45 57
REMARK Flexibility Score: inf
ROOT
ATOM      1  C   UNL     1       0.773   8.194   7.650  1.00  0.00     0.023 C 
ENDROOT
BRANCH   1   2
ATOM      2  C   UNL     1       0.768   7.519   6.272  1.00  0.00     0.023 C 
BRANCH   2   3
ATOM      3  C   UNL     1       0.408   8.455   5.119  1.00  0.00     0.116 C 
BRANCH   3   4
ATOM      4  N   UNL     1       1.527   9.306   4.760  1.00  0.00    -0.351 N 
ATOM      5  C   UNL     1       2.471   9.253   3.762  1.00  0.00     0.261 C 
ATOM      6  O   UNL     1       3.249  10.213   3.744  1.00  0.00    -0.268 OA
ATOM      7  H   UNL     1       1.632  10.083   5.355  1.00  0.00     0.163 HD
BRANCH   5   8
ATOM      8  C   UNL     1       2.564   8.196   2.760  1.00  0.00     0.093 A 
ATOM      9  C   UNL     1       2.382   6.187   1.305  1.00  0.00     0.042 A 
ATOM     10  S   UNL     1       1.822   6.668   2.846  1.00  0.00    -0.130 S 
ATOM     11  C   UNL     1       3.257   7.114   0.767  1.00  0.00    -0.031 A 
ATOM     12  C   UNL     1       3.348   8.267   1.617  1.00  0.00     0.029 A 
ATOM     13  C   UNL     1       4.017   6.975  -0.510  1.00  0.00     0.046 C 
BRANCH   9  14
ATOM     14  C   UNL     1       1.925   4.892   0.786  1.00  0.00     0.034 A 
ATOM     15  C   UNL     1       0.932   2.420  -0.099  1.00  0.00     0.122 A 
ATOM     16  C   UNL     1       0.112   3.547  -0.111  1.00  0.00     0.047 A 
ATOM     17  C   UNL     1       2.263   2.534   0.315  1.00  0.00     0.093 A 
ATOM     18  C   UNL     1       0.601   4.774   0.335  1.00  0.00     0.017 A 
ATOM     19  C   UNL     1       2.771   3.766   0.753  1.00  0.00     0.131 A 
BRANCH  15  20
ATOM     20  O   UNL     1       0.336   1.270  -0.542  1.00  0.00    -0.497 OA
ATOM     21  C   UNL     1       0.906   0.053  -0.074  1.00  0.00     0.278 C 
ENDBRANCH  15  20
BRANCH  19  22
ATOM     22  O   UNL     1       4.061   3.968   1.175  1.00  0.00    -0.496 OA
ATOM     23  C   UNL     1       4.967   2.879   1.097  1.00  0.00     0.278 C 
ENDBRANCH  19  22
ENDBRANCH   9  14
ENDBRANCH   5   8
ENDBRANCH   3   4
ENDBRANCH   2   3
ENDBRANCH   1   2
BRANCH   1  24
ATOM     24  C   UNL     1      -0.545   8.844   8.066  1.00  0.00     0.116 C 
BRANCH  24  25
ATOM     25  N   UNL     1      -1.680   7.934   8.023  1.00  0.00    -0.352 N 
ATOM     26  C   UNL     1      -2.797   7.920   8.823  1.00  0.00     0.251 C 
ATOM     27  H   UNL     1      -1.642   7.236   7.329  1.00  0.00     0.163 HD
ATOM     28  O   UNL     1      -3.621   7.016   8.718  1.00  0.00    -0.269 OA
BRANCH  26  29
ATOM     29  C   UNL     1      -2.975   8.979   9.838  1.00  0.00     0.039 A 
ATOM     30  C   UNL     1      -3.259   8.607  11.155  1.00  0.00     0.014 A 
ATOM     31  C   UNL     1      -2.827  10.327   9.500  1.00  0.00     0.014 A 
ATOM     32  C   UNL     1      -3.324   9.586  12.148  1.00  0.00     0.010 A 
ATOM     33  C   UNL     1      -2.831  11.293  10.501  1.00  0.00     0.010 A 
ATOM     34  C   UNL     1      -3.072  10.932  11.836  1.00  0.00    -0.014 A 
BRANCH  34  35
ATOM     35  C   UNL     1      -3.041  11.975  12.893  1.00  0.00     0.031 A 
ATOM     36  C   UNL     1      -4.062  13.078  12.895  1.00  0.00     0.074 A 
ATOM     37  C   UNL     1      -2.050  11.965  13.807  1.00  0.00     0.049 A 
ATOM     38  N   UNL     1      -4.151  14.119  13.681  1.00  0.00    -0.248 NA
ATOM     39  C   UNL     1      -5.107  13.016  11.859  1.00  0.00     0.031 C 
ATOM     40  C   UNL     1      -0.973  10.974  13.878  1.00  0.00     0.029 A 
ATOM     41  N   UNL     1      -1.780  12.821  14.845  1.00  0.00    -0.354 N 
ATOM     42  C   UNL     1      -5.248  14.843  13.230  1.00  0.00     0.074 A 
ATOM     43  C   UNL     1      -5.764  14.147  12.071  1.00  0.00     0.031 C 
ATOM     44  C   UNL     1      -0.172  11.268  14.915  1.00  0.00     0.029 A 
ATOM     45  C   UNL     1      -0.656  12.484  15.562  1.00  0.00     0.049 A 
ATOM     46  H   UNL     1      -2.339  13.603  15.056  1.00  0.00     0.167 HD
ATOM     47  C   UNL     1      -5.790  15.970  13.749  1.00  0.00     0.037 A 
ATOM     48  C   UNL     1      -0.078  13.089  16.617  1.00  0.00     0.037 A 
ATOM     49  C   UNL     1      -5.288  16.642  14.919  1.00  0.00     0.049 A 
ATOM     50  C   UNL     1      -0.704  14.337  17.179  1.00  0.00     0.074 A 
ATOM     51  C   UNL     1      -5.796  17.763  15.552  1.00  0.00     0.029 A 
ATOM     52  N   UNL     1      -4.165  16.253  15.635  1.00  0.00    -0.354 N 
ATOM     53  N   UNL     1      -1.773  14.978  16.772  1.00  0.00    -0.248 NA
ATOM     54  C   UNL     1      -0.049  14.941  18.348  1.00  0.00     0.031 C 
ATOM     55  C   UNL     1      -4.963  18.070  16.634  1.00  0.00     0.029 A 
ATOM     56  C   UNL     1      -3.958  17.118  16.697  1.00  0.00     0.049 A 
ATOM     57  H   UNL     1      -3.599  15.477  15.419  1.00  0.00     0.167 HD
ATOM     58  C   UNL     1      -1.935  16.044  17.650  1.00  0.00     0.074 A 
ATOM     59  C   UNL     1      -0.859  15.956  18.616  1.00  0.00     0.031 C 
ATOM     60  C   UNL     1      -2.888  17.007  17.657  1.00  0.00     0.037 A 
BRANCH  47  61
ATOM     61  C   UNL     1      -6.997  16.542  13.058  1.00  0.00     0.058 A 
ATOM     62  C   UNL     1      -8.248  15.908  13.126  1.00  0.00     0.135 A 
ATOM     63  C   UNL     1      -6.912  17.749  12.348  1.00  0.00     0.135 A 
ATOM     64  F   UNL     1      -8.381  14.742  13.779  1.00  0.00    -0.206 F 
ATOM     65  C   UNL     1      -9.366  16.435  12.489  1.00  0.00     0.059 A 
ATOM     66  C   UNL     1      -8.024  18.309  11.724  1.00  0.00     0.059 A 
ATOM     67  F   UNL     1      -5.740  18.397  12.251  1.00  0.00    -0.206 F 
ATOM     68  C   UNL     1      -9.243  17.636  11.788  1.00  0.00     0.060 A 
BRANCH  68  69
ATOM     69  S   UNL     1     -10.704  18.309  10.969  1.00  0.00     0.124 S 
ATOM     70  O   UNL     1     -10.822  17.425   9.814  1.00  0.00    -0.237 OA
ATOM     71  O   UNL     1     -11.735  18.157  11.991  1.00  0.00    -0.237 OA
ATOM     72  O   UNL     1     -10.322  19.686  10.670  1.00  0.00    -0.744 OA
ENDBRANCH  68  69
ENDBRANCH  47  61
BRANCH  48  73
ATOM     73  C   UNL     1       1.146  12.510  17.230  1.00  0.00     0.058 A 
ATOM     74  C   UNL     1       1.096  11.893  18.488  1.00  0.00     0.135 A 
ATOM     75  C   UNL     1       2.385  12.557  16.573  1.00  0.00     0.135 A 
ATOM     76  F   UNL     1      -0.066  11.829  19.157  1.00  0.00    -0.206 F 
ATOM     77  C   UNL     1       2.233  11.359  19.084  1.00  0.00     0.059 A 
ATOM     78  C   UNL     1       3.532  12.009  17.138  1.00  0.00     0.059 A 
ATOM     79  F   UNL     1       2.482  13.121  15.359  1.00  0.00    -0.206 F 
ATOM     80  C   UNL     1       3.449  11.423  18.401  1.00  0.00     0.060 A 
BRANCH  80  81
ATOM     81  S   UNL     1       4.913  10.691  19.165  1.00  0.00     0.124 S 
ATOM     82  O   UNL     1       5.240  11.685  20.180  1.00  0.00    -0.237 OA
ATOM     83  O   UNL     1       4.399   9.418  19.659  1.00  0.00    -0.237 OA
ATOM     84  O   UNL     1       5.853  10.589  18.053  1.00  0.00    -0.744 OA
ENDBRANCH  80  81
ENDBRANCH  48  73
BRANCH  60  85
ATOM     85  C   UNL     1      -2.836  18.023  18.762  1.00  0.00     0.058 A 
ATOM     86  C   UNL     1      -1.881  19.051  18.773  1.00  0.00     0.135 A 
ATOM     87  C   UNL     1      -3.786  17.996  19.796  1.00  0.00     0.135 A 
ATOM     88  F   UNL     1      -0.946  19.115  17.812  1.00  0.00    -0.206 F 
ATOM     89  C   UNL     1      -1.857  20.007  19.783  1.00  0.00     0.059 A 
ATOM     90  C   UNL     1      -3.796  18.957  20.802  1.00  0.00     0.059 A 
ATOM     91  F   UNL     1      -4.726  17.039  19.825  1.00  0.00    -0.206 F 
ATOM     92  C   UNL     1      -2.820  19.953  20.793  1.00  0.00     0.060 A 
BRANCH  92  93
ATOM     93  S   UNL     1      -2.803  21.221  22.077  1.00  0.00     0.124 S 
ATOM     94  O   UNL     1      -1.684  20.785  22.905  1.00  0.00    -0.237 OA
ATOM     95  O   UNL     1      -2.585  22.443  21.309  1.00  0.00    -0.237 OA
ATOM     96  O   UNL     1      -4.123  21.101  22.690  1.00  0.00    -0.744 OA
ENDBRANCH  92  93
ENDBRANCH  60  85
ENDBRANCH  34  35
ENDBRANCH  26  29
ENDBRANCH  24  25
ENDBRANCH   1  24
TORSDOF 17
