REMARK SMILES C[C@@H](CCCO)Nc1ccc(C(=O)NCCCCNC(=O)c2ccc(-c3c4nc(c(-c5c(F)cc(S(=O)(=O)[O-])cc5F)c5ccc([nH]5)c(-c5c(F)cc(S(=O)(=O)[O-])cc5F)c5nc(c(-c6c(F)cc(S(=O)(=O)[O-])cc6F)c6ccc3[nH]6)C=C5)C=C4)cc2)o1
REMARK SMILES IDX 15 1 14 2 12 3 13 4 11 6 8 7 9 8 88 9 10 10 7 11 2 13 1 14
REMARK SMILES IDX 3 15 4 16 5 17 6 18 16 20 17 21 18 22 19 23 20 24 21 26
REMARK SMILES IDX 22 27 23 28 87 29 24 30 86 31 25 32 26 33 27 34 80 35 28 36
REMARK SMILES IDX 85 37 79 38 81 39 29 40 84 41 78 42 77 43 30 45 64 46 43 47
REMARK SMILES IDX 63 48 44 49 47 50 62 51 82 52 45 53 46 54 61 56 83 57 48 58
REMARK SMILES IDX 31 59 32 60 41 61 33 62 34 63 40 64 42 65 35 66 36 67 37 68
REMARK SMILES IDX 38 69 39 70 65 71 66 72 75 73 67 74 68 75 74 76 76 77 69 78
REMARK SMILES IDX 70 79 71 80 72 81 73 82 49 83 50 84 59 85 51 86 52 87 58 88
REMARK SMILES IDX 60 89 53 90 54 91 55 92 56 93 57 94
REMARK H PARENT 14 5 7 12 6 19 19 25 81 44 47 55
REMARK Flexibility Score: inf
ROOT
ATOM      1  C   UNL     1      -3.678  -4.906   4.381  1.00  0.00     0.116 C 
ENDROOT
BRANCH   1   2
ATOM      2  N   UNL     1      -4.359  -4.357   3.229  1.00  0.00    -0.349 N 
ATOM      3  C   UNL     1      -4.057  -3.271   2.438  1.00  0.00     0.287 C 
ATOM      4  O   UNL     1      -4.794  -3.090   1.470  1.00  0.00    -0.266 OA
ATOM      5  H   UNL     1      -5.176  -4.841   2.966  1.00  0.00     0.163 HD
BRANCH   3   6
ATOM      6  C   UNL     1      -2.909  -2.427   2.725  1.00  0.00     0.194 A 
ATOM      7  C   UNL     1      -1.335  -1.010   2.095  1.00  0.00     0.194 A 
ATOM      8  C   UNL     1      -1.077  -1.301   3.410  1.00  0.00     0.070 A 
ATOM      9  O   UNL     1      -2.452  -1.652   1.685  1.00  0.00    -0.436 OA
ATOM     10  C   UNL     1      -2.112  -2.174   3.829  1.00  0.00     0.058 A 
BRANCH   7  11
ATOM     11  N   UNL     1      -0.739  -0.259   1.156  1.00  0.00    -0.354 N 
ATOM     12  H   UNL     1      -1.289   0.120   0.433  1.00  0.00     0.163 HD
BRANCH  11  13
ATOM     13  C   UNL     1       0.688   0.018   1.166  1.00  0.00     0.079 C 
ATOM     14  C   UNL     1       1.183   0.127  -0.277  1.00  0.00     0.031 C 
BRANCH  13  15
ATOM     15  C   UNL     1       1.038   1.257   2.006  1.00  0.00     0.027 C 
BRANCH  15  16
ATOM     16  C   UNL     1       0.558   2.620   1.491  1.00  0.00     0.030 C 
BRANCH  16  17
ATOM     17  C   UNL     1      -0.949   2.841   1.502  1.00  0.00     0.156 C 
BRANCH  17  18
ATOM     18  O   UNL     1      -1.493   2.553   2.780  1.00  0.00    -0.396 OA
ATOM     19  H   UNL     1      -1.320   1.625   3.003  1.00  0.00     0.210 HD
ENDBRANCH  17  18
ENDBRANCH  16  17
ENDBRANCH  15  16
ENDBRANCH  13  15
ENDBRANCH  11  13
ENDBRANCH   7  11
ENDBRANCH   3   6
ENDBRANCH   1   2
BRANCH   1  20
ATOM     20  C   UNL     1      -4.304  -4.402   5.680  1.00  0.00     0.023 C 
BRANCH  20  21
ATOM     21  C   UNL     1      -5.572  -5.156   6.094  1.00  0.00     0.023 C 
BRANCH  21  22
ATOM     22  C   UNL     1      -5.379  -6.646   6.371  1.00  0.00     0.116 C 
BRANCH  22  23
ATOM     23  N   UNL     1      -4.366  -6.920   7.380  1.00  0.00    -0.352 N 
ATOM     24  C   UNL     1      -4.325  -7.947   8.292  1.00  0.00     0.251 C 
ATOM     25  H   UNL     1      -3.612  -6.287   7.413  1.00  0.00     0.163 HD
ATOM     26  O   UNL     1      -3.447  -7.978   9.148  1.00  0.00    -0.269 OA
BRANCH  24  27
ATOM     27  C   UNL     1      -5.373  -8.988   8.254  1.00  0.00     0.039 A 
ATOM     28  C   UNL     1      -6.054  -9.302   9.432  1.00  0.00     0.014 A 
ATOM     29  C   UNL     1      -5.710  -9.616   7.052  1.00  0.00     0.014 A 
ATOM     30  C   UNL     1      -7.123 -10.198   9.391  1.00  0.00     0.010 A 
ATOM     31  C   UNL     1      -6.817 -10.457   7.001  1.00  0.00     0.010 A 
ATOM     32  C   UNL     1      -7.538 -10.753   8.168  1.00  0.00    -0.014 A 
BRANCH  32  33
ATOM     33  C   UNL     1      -8.728 -11.637   8.088  1.00  0.00     0.031 A 
ATOM     34  C   UNL     1      -8.572 -13.074   7.675  1.00  0.00     0.074 A 
ATOM     35  C   UNL     1      -9.953 -11.127   8.324  1.00  0.00     0.049 A 
ATOM     36  N   UNL     1      -9.494 -13.980   7.474  1.00  0.00    -0.248 NA
ATOM     37  C   UNL     1      -7.200 -13.548   7.428  1.00  0.00     0.031 C 
ATOM     38  C   UNL     1     -10.237  -9.736   8.687  1.00  0.00     0.029 A 
ATOM     39  N   UNL     1     -11.192 -11.716   8.284  1.00  0.00    -0.354 N 
ATOM     40  C   UNL     1      -8.818 -15.125   7.069  1.00  0.00     0.074 A 
ATOM     41  C   UNL     1      -7.413 -14.784   6.999  1.00  0.00     0.031 C 
ATOM     42  C   UNL     1     -11.560  -9.586   8.858  1.00  0.00     0.029 A 
ATOM     43  C   UNL     1     -12.223 -10.857   8.583  1.00  0.00     0.049 A 
ATOM     44  H   UNL     1     -11.329 -12.665   8.061  1.00  0.00     0.167 HD
ATOM     45  C   UNL     1      -9.318 -16.356   6.807  1.00  0.00     0.037 A 
ATOM     46  C   UNL     1     -13.553 -11.069   8.626  1.00  0.00     0.037 A 
ATOM     47  C   UNL     1     -10.714 -16.695   6.901  1.00  0.00     0.049 A 
ATOM     48  C   UNL     1     -14.085 -12.444   8.323  1.00  0.00     0.074 A 
ATOM     49  C   UNL     1     -11.317 -17.924   6.700  1.00  0.00     0.029 A 
ATOM     50  N   UNL     1     -11.726 -15.803   7.227  1.00  0.00    -0.354 N 
ATOM     51  N   UNL     1     -13.425 -13.529   7.995  1.00  0.00    -0.248 NA
ATOM     52  C   UNL     1     -15.541 -12.624   8.401  1.00  0.00     0.031 C 
ATOM     53  C   UNL     1     -12.697 -17.767   6.869  1.00  0.00     0.029 A 
ATOM     54  C   UNL     1     -12.950 -16.451   7.219  1.00  0.00     0.049 A 
ATOM     55  H   UNL     1     -11.593 -14.849   7.433  1.00  0.00     0.167 HD
ATOM     56  C   UNL     1     -14.383 -14.528   7.857  1.00  0.00     0.074 A 
ATOM     57  C   UNL     1     -15.665 -13.920   8.146  1.00  0.00     0.031 C 
ATOM     58  C   UNL     1     -14.216 -15.831   7.522  1.00  0.00     0.037 A 
BRANCH  45  59
ATOM     59  C   UNL     1      -8.345 -17.429   6.403  1.00  0.00     0.058 A 
ATOM     60  C   UNL     1      -7.434 -17.976   7.321  1.00  0.00     0.135 A 
ATOM     61  C   UNL     1      -8.340 -17.938   5.094  1.00  0.00     0.135 A 
ATOM     62  F   UNL     1      -7.385 -17.515   8.581  1.00  0.00    -0.206 F 
ATOM     63  C   UNL     1      -6.531 -18.966   6.948  1.00  0.00     0.059 A 
ATOM     64  C   UNL     1      -7.464 -18.948   4.707  1.00  0.00     0.059 A 
ATOM     65  F   UNL     1      -9.190 -17.451   4.176  1.00  0.00    -0.206 F 
ATOM     66  C   UNL     1      -6.553 -19.444   5.638  1.00  0.00     0.060 A 
BRANCH  66  67
ATOM     67  S   UNL     1      -5.374 -20.730   5.171  1.00  0.00     0.124 S 
ATOM     68  O   UNL     1      -4.130 -19.970   5.101  1.00  0.00    -0.237 OA
ATOM     69  O   UNL     1      -5.480 -21.670   6.282  1.00  0.00    -0.237 OA
ATOM     70  O   UNL     1      -5.887 -21.213   3.893  1.00  0.00    -0.744 OA
ENDBRANCH  66  67
ENDBRANCH  45  59
BRANCH  46  71
ATOM     71  C   UNL     1     -14.474  -9.961   8.994  1.00  0.00     0.058 A 
ATOM     72  C   UNL     1     -15.150  -9.967  10.224  1.00  0.00     0.135 A 
ATOM     73  C   UNL     1     -14.699  -8.878   8.131  1.00  0.00     0.135 A 
ATOM     74  F   UNL     1     -14.972 -10.984  11.081  1.00  0.00    -0.206 F 
ATOM     75  C   UNL     1     -16.032  -8.951  10.577  1.00  0.00     0.059 A 
ATOM     76  C   UNL     1     -15.557  -7.837   8.472  1.00  0.00     0.059 A 
ATOM     77  F   UNL     1     -14.063  -8.815   6.950  1.00  0.00    -0.206 F 
ATOM     78  C   UNL     1     -16.229  -7.890   9.693  1.00  0.00     0.060 A 
BRANCH  78  79
ATOM     79  S   UNL     1     -17.349  -6.557  10.176  1.00  0.00     0.124 S 
ATOM     80  O   UNL     1     -18.650  -7.193  10.008  1.00  0.00    -0.237 OA
ATOM     81  O   UNL     1     -16.938  -6.294  11.551  1.00  0.00    -0.237 OA
ATOM     82  O   UNL     1     -17.035  -5.496   9.223  1.00  0.00    -0.744 OA
ENDBRANCH  78  79
ENDBRANCH  46  71
BRANCH  58  83
ATOM     83  C   UNL     1     -15.443 -16.699   7.486  1.00  0.00     0.058 A 
ATOM     84  C   UNL     1     -16.388 -16.598   6.454  1.00  0.00     0.135 A 
ATOM     85  C   UNL     1     -15.648 -17.678   8.472  1.00  0.00     0.135 A 
ATOM     86  F   UNL     1     -16.242 -15.674   5.492  1.00  0.00    -0.206 F 
ATOM     87  C   UNL     1     -17.506 -17.425   6.411  1.00  0.00     0.059 A 
ATOM     88  C   UNL     1     -16.744 -18.532   8.435  1.00  0.00     0.059 A 
ATOM     89  F   UNL     1     -14.768 -17.821   9.476  1.00  0.00    -0.206 F 
ATOM     90  C   UNL     1     -17.675 -18.390   7.406  1.00  0.00     0.060 A 
BRANCH  90  91
ATOM     91  S   UNL     1     -19.110 -19.482   7.319  1.00  0.00     0.124 S 
ATOM     92  O   UNL     1     -20.183 -18.591   7.749  1.00  0.00    -0.237 OA
ATOM     93  O   UNL     1     -19.129 -19.863   5.910  1.00  0.00    -0.237 OA
ATOM     94  O   UNL     1     -18.776 -20.557   8.248  1.00  0.00    -0.744 OA
ENDBRANCH  90  91
ENDBRANCH  58  83
ENDBRANCH  32  33
ENDBRANCH  24  27
ENDBRANCH  22  23
ENDBRANCH  21  22
ENDBRANCH  20  21
ENDBRANCH   1  20
TORSDOF 20
