REMARK SMILES Cc1nsc(N(C)C(=O)[C@@H](C)CCC[C@H](C)[NH3+])c1C(=O)NCCCCNC(=O)c1ccc(-c2c3nc(c(-c4c(F)cc(S(=O)(=O)[O-])cc4F)c4ccc([nH]4)c(-c4c(F)cc(S(=O)(=O)[O-])cc4F)c4nc(c(-c5c(F)cc(S(=O)(=O)[O-])cc5F)c5ccc2[nH]5)C=C4)C=C3)cc1
REMARK SMILES IDX 19 1 20 2 21 3 18 5 1 6 2 7 3 8 4 9 5 10 6 11 7 12 8 13 9 14
REMARK SMILES IDX 10 15 11 16 12 17 13 18 14 19 15 20 16 21 17 22 22 26 23 27
REMARK SMILES IDX 24 28 25 29 26 30 27 31 28 33 29 34 30 35 94 36 31 37 93 38
REMARK SMILES IDX 32 39 33 40 34 41 87 42 35 43 92 44 86 45 88 46 36 47 91 48
REMARK SMILES IDX 85 49 84 50 37 52 71 53 50 54 70 55 51 56 54 57 69 58 89 59
REMARK SMILES IDX 52 60 53 61 68 63 90 64 55 65 38 66 39 67 48 68 40 69 41 70
REMARK SMILES IDX 47 71 49 72 42 73 43 74 44 75 45 76 46 77 72 78 73 79 82 80
REMARK SMILES IDX 74 81 75 82 81 83 83 84 76 85 77 86 78 87 79 88 80 89 56 90
REMARK SMILES IDX 57 91 66 92 58 93 59 94 65 95 67 96 60 97 61 98 62 99 63 100
REMARK SMILES IDX 64 101
REMARK H PARENT 21 4 17 23 17 24 17 25 26 32 88 51 54 62
REMARK Flexibility Score: inf
ROOT
ATOM      1  C   UNL     1      -6.629   9.025  -4.922  1.00  0.00     0.256 C 
ATOM      2  O   UNL     1      -5.718   9.320  -4.143  1.00  0.00    -0.269 OA
ATOM      3  N   UNL     1      -7.621   8.210  -4.393  1.00  0.00    -0.352 N 
ATOM      4  H   UNL     1      -7.320   7.617  -3.666  1.00  0.00     0.163 HD
ENDROOT
BRANCH   1   5
ATOM      5  C   UNL     1      -6.589   9.499  -6.321  1.00  0.00     0.097 A 
ATOM      6  C   UNL     1      -9.049  10.509  -6.817  1.00  0.00     0.069 C 
ATOM      7  C   UNL     1      -7.635  10.150  -7.133  1.00  0.00     0.066 A 
ATOM      8  N   UNL     1      -7.280  10.537  -8.357  1.00  0.00    -0.195 NA
ATOM      9  S   UNL     1      -5.681  10.345  -8.543  1.00  0.00    -0.017 S 
ATOM     10  C   UNL     1      -5.375   9.556  -7.049  1.00  0.00     0.131 A 
BRANCH  10  11
ATOM     11  N   UNL     1      -4.023   9.143  -6.832  1.00  0.00    -0.305 N 
ATOM     12  C   UNL     1      -2.913   9.714  -7.603  1.00  0.00     0.154 C 
BRANCH  11  13
ATOM     13  C   UNL     1      -3.798   8.096  -5.934  1.00  0.00     0.230 C 
ATOM     14  O   UNL     1      -4.658   7.222  -5.739  1.00  0.00    -0.274 OA
BRANCH  13  15
ATOM     15  C   UNL     1      -2.407   7.880  -5.276  1.00  0.00     0.076 C 
ATOM     16  C   UNL     1      -1.585   6.874  -6.093  1.00  0.00     0.018 C 
BRANCH  15  17
ATOM     17  C   UNL     1      -1.544   9.094  -4.872  1.00  0.00     0.013 C 
BRANCH  17  18
ATOM     18  C   UNL     1      -2.095   9.960  -3.729  1.00  0.00     0.007 C 
BRANCH  18  19
ATOM     19  C   UNL     1      -2.203   9.250  -2.372  1.00  0.00     0.064 C 
BRANCH  19  20
ATOM     20  C   UNL     1      -0.850   8.774  -1.804  1.00  0.00     0.177 C 
ATOM     21  C   UNL     1      -0.969   7.362  -1.230  1.00  0.00     0.075 C 
BRANCH  20  22
ATOM     22  N   UNL     1      -0.331   9.666  -0.775  1.00  0.00    -0.355 N 
ATOM     23  H   UNL     1      -0.972   9.680   0.018  1.00  0.00     0.344 HD
ATOM     24  H   UNL     1      -0.241  10.608  -1.155  1.00  0.00     0.344 HD
ATOM     25  H   UNL     1       0.583   9.335  -0.467  1.00  0.00     0.344 HD
ENDBRANCH  20  22
ENDBRANCH  19  20
ENDBRANCH  18  19
ENDBRANCH  17  18
ENDBRANCH  15  17
ENDBRANCH  13  15
ENDBRANCH  11  13
ENDBRANCH  10  11
ENDBRANCH   1   5
BRANCH   3  26
ATOM     26  C   UNL     1      -9.018   8.088  -4.730  1.00  0.00     0.116 C 
BRANCH  26  27
ATOM     27  C   UNL     1      -9.624   6.700  -4.914  1.00  0.00     0.023 C 
BRANCH  27  28
ATOM     28  C   UNL     1      -9.935   5.838  -3.690  1.00  0.00     0.023 C 
BRANCH  28  29
ATOM     29  C   UNL     1     -10.741   6.497  -2.579  1.00  0.00     0.116 C 
BRANCH  29  30
ATOM     30  N   UNL     1     -12.075   6.965  -2.974  1.00  0.00    -0.352 N 
ATOM     31  C   UNL     1     -12.987   7.671  -2.190  1.00  0.00     0.251 C 
ATOM     32  H   UNL     1     -12.357   6.756  -3.894  1.00  0.00     0.163 HD
ATOM     33  O   UNL     1     -14.176   7.675  -2.444  1.00  0.00    -0.269 OA
BRANCH  31  34
ATOM     34  C   UNL     1     -12.454   8.441  -1.048  1.00  0.00     0.039 A 
ATOM     35  C   UNL     1     -13.062   8.468   0.212  1.00  0.00     0.014 A 
ATOM     36  C   UNL     1     -11.252   9.097  -1.270  1.00  0.00     0.014 A 
ATOM     37  C   UNL     1     -12.390   9.091   1.264  1.00  0.00     0.010 A 
ATOM     38  C   UNL     1     -10.502   9.498  -0.205  1.00  0.00     0.010 A 
ATOM     39  C   UNL     1     -11.098   9.590   1.045  1.00  0.00    -0.014 A 
BRANCH  39  40
ATOM     40  C   UNL     1     -10.283  10.162   2.108  1.00  0.00     0.031 A 
ATOM     41  C   UNL     1      -9.993   9.244   3.241  1.00  0.00     0.074 A 
ATOM     42  C   UNL     1      -9.605  11.317   1.918  1.00  0.00     0.049 A 
ATOM     43  N   UNL     1     -10.410   9.341   4.459  1.00  0.00    -0.248 NA
ATOM     44  C   UNL     1      -9.283   7.984   2.960  1.00  0.00     0.031 C 
ATOM     45  C   UNL     1      -9.532  12.142   0.702  1.00  0.00     0.029 A 
ATOM     46  N   UNL     1      -8.705  11.924   2.730  1.00  0.00    -0.354 N 
ATOM     47  C   UNL     1      -9.803   8.298   5.153  1.00  0.00     0.074 A 
ATOM     48  C   UNL     1      -9.328   7.381   4.151  1.00  0.00     0.031 C 
ATOM     49  C   UNL     1      -8.458  12.956   0.771  1.00  0.00     0.029 A 
ATOM     50  C   UNL     1      -7.872  12.839   2.091  1.00  0.00     0.049 A 
ATOM     51  H   UNL     1      -8.644  11.733   3.694  1.00  0.00     0.167 HD
ATOM     52  C   UNL     1      -9.510   8.406   6.481  1.00  0.00     0.037 A 
ATOM     53  C   UNL     1      -6.749  13.400   2.608  1.00  0.00     0.037 A 
ATOM     54  C   UNL     1     -10.175   9.548   7.064  1.00  0.00     0.049 A 
ATOM     55  C   UNL     1      -6.857  13.266   4.091  1.00  0.00     0.074 A 
ATOM     56  C   UNL     1     -11.493   9.963   7.136  1.00  0.00     0.029 A 
ATOM     57  N   UNL     1      -9.419  10.671   7.315  1.00  0.00    -0.354 N 
ATOM     58  N   UNL     1      -7.775  13.866   4.805  1.00  0.00    -0.248 NA
ATOM     59  C   UNL     1      -6.277  12.079   4.704  1.00  0.00     0.031 C 
ATOM     60  C   UNL     1     -11.444  11.367   6.895  1.00  0.00     0.029 A 
ATOM     61  C   UNL     1     -10.103  11.741   6.793  1.00  0.00     0.049 A 
ATOM     62  H   UNL     1      -8.552  10.701   7.780  1.00  0.00     0.167 HD
ATOM     63  C   UNL     1      -8.191  12.915   5.729  1.00  0.00     0.074 A 
ATOM     64  C   UNL     1      -7.179  11.861   5.666  1.00  0.00     0.031 C 
ATOM     65  C   UNL     1      -9.463  12.913   6.234  1.00  0.00     0.037 A 
BRANCH  52  66
ATOM     66  C   UNL     1      -8.353   7.720   7.173  1.00  0.00     0.058 A 
ATOM     67  C   UNL     1      -8.265   7.776   8.581  1.00  0.00     0.135 A 
ATOM     68  C   UNL     1      -7.196   7.250   6.513  1.00  0.00     0.135 A 
ATOM     69  F   UNL     1      -9.302   8.212   9.315  1.00  0.00    -0.206 F 
ATOM     70  C   UNL     1      -7.093   7.464   9.271  1.00  0.00     0.059 A 
ATOM     71  C   UNL     1      -6.038   6.878   7.186  1.00  0.00     0.059 A 
ATOM     72  F   UNL     1      -7.091   7.222   5.180  1.00  0.00    -0.206 F 
ATOM     73  C   UNL     1      -5.979   7.030   8.561  1.00  0.00     0.060 A 
BRANCH  73  74
ATOM     74  S   UNL     1      -4.434   6.728   9.434  1.00  0.00     0.124 S 
ATOM     75  O   UNL     1      -4.047   8.082   9.813  1.00  0.00    -0.237 OA
ATOM     76  O   UNL     1      -4.867   5.858  10.522  1.00  0.00    -0.237 OA
ATOM     77  O   UNL     1      -3.597   6.089   8.423  1.00  0.00    -0.744 OA
ENDBRANCH  73  74
ENDBRANCH  52  66
BRANCH  53  78
ATOM     78  C   UNL     1      -5.467  13.673   1.893  1.00  0.00     0.058 A 
ATOM     79  C   UNL     1      -4.424  14.383   2.514  1.00  0.00     0.135 A 
ATOM     80  C   UNL     1      -5.129  13.020   0.687  1.00  0.00     0.135 A 
ATOM     81  F   UNL     1      -4.644  15.028   3.670  1.00  0.00    -0.206 F 
ATOM     82  C   UNL     1      -3.116  14.389   2.009  1.00  0.00     0.059 A 
ATOM     83  C   UNL     1      -3.839  13.025   0.156  1.00  0.00     0.059 A 
ATOM     84  F   UNL     1      -6.021  12.269   0.026  1.00  0.00    -0.206 F 
ATOM     85  C   UNL     1      -2.828  13.683   0.840  1.00  0.00     0.060 A 
BRANCH  85  86
ATOM     86  S   UNL     1      -1.110  13.508   0.297  1.00  0.00     0.124 S 
ATOM     87  O   UNL     1      -0.774  14.871  -0.095  1.00  0.00    -0.237 OA
ATOM     88  O   UNL     1      -0.463  13.009   1.504  1.00  0.00    -0.237 OA
ATOM     89  O   UNL     1      -1.191  12.543  -0.800  1.00  0.00    -0.744 OA
ENDBRANCH  85  86
ENDBRANCH  53  78
BRANCH  65  90
ATOM     90  C   UNL     1     -10.351  14.113   6.001  1.00  0.00     0.058 A 
ATOM     91  C   UNL     1     -10.758  14.580   4.737  1.00  0.00     0.135 A 
ATOM     92  C   UNL     1     -10.960  14.704   7.119  1.00  0.00     0.135 A 
ATOM     93  F   UNL     1     -10.320  14.001   3.612  1.00  0.00    -0.206 F 
ATOM     94  C   UNL     1     -11.686  15.614   4.594  1.00  0.00     0.059 A 
ATOM     95  C   UNL     1     -11.913  15.712   7.000  1.00  0.00     0.059 A 
ATOM     96  F   UNL     1     -10.670  14.263   8.354  1.00  0.00    -0.206 F 
ATOM     97  C   UNL     1     -12.260  16.175   5.734  1.00  0.00     0.060 A 
BRANCH  97  98
ATOM     98  S   UNL     1     -13.502  17.472   5.549  1.00  0.00     0.124 S 
ATOM     99  O   UNL     1     -12.701  18.598   5.083  1.00  0.00    -0.237 OA
ATOM    100  O   UNL     1     -14.419  16.897   4.569  1.00  0.00    -0.237 OA
ATOM    101  O   UNL     1     -14.052  17.613   6.896  1.00  0.00    -0.744 OA
ENDBRANCH  97  98
ENDBRANCH  65  90
ENDBRANCH  39  40
ENDBRANCH  31  34
ENDBRANCH  29  30
ENDBRANCH  28  29
ENDBRANCH  27  28
ENDBRANCH  26  27
ENDBRANCH   3  26
TORSDOF 22
