REMARK SMILES CS(=O)(=O)c1ccc(-c2cc(Cl)cc3c2O[C@H](C(F)(F)F)C(C(=O)NCCCCNC(=O)c2ccc(-c4c5nc(c(-c6c(F)cc(S(=O)(=O)[O-])cc6F)c6ccc([nH]6)c(-c6c(F)cc(S(=O)(=O)[O-])cc6F)c6nc(c(-c7c(F)cc(S(=O)(=O)[O-])cc7F)c7ccc4[nH]7)C=C6)C=C5)cc2)=C3)cc1
REMARK SMILES IDX 28 1 27 2 26 3 25 4 23 5 24 6 22 8 9 9 10 10 15 11 11 12
REMARK SMILES IDX 14 13 16 14 12 15 13 16 99 17 17 18 8 19 5 20 6 21 101 22
REMARK SMILES IDX 7 23 100 24 2 25 1 26 3 27 4 28 18 29 19 30 20 31 21 32
REMARK SMILES IDX 29 33 30 34 31 35 32 37 33 38 34 39 98 40 35 41 97 42 36 43
REMARK SMILES IDX 37 44 38 45 91 46 39 47 96 48 90 49 92 50 40 51 95 52 89 53
REMARK SMILES IDX 88 54 41 56 75 57 54 58 74 59 55 60 58 61 73 62 93 63 56 64
REMARK SMILES IDX 57 65 72 67 94 68 59 69 42 70 43 71 52 72 44 73 45 74 51 75
REMARK SMILES IDX 53 76 46 77 47 78 48 79 49 80 50 81 76 82 77 83 86 84 78 85
REMARK SMILES IDX 79 86 85 87 87 88 80 89 81 90 82 91 83 92 84 93 60 94 61 95
REMARK SMILES IDX 70 96 62 97 63 98 69 99 71 100 64 101 65 102 66 103 67 104
REMARK SMILES IDX 68 105
REMARK H PARENT 25 7 30 36 92 55 58 66
REMARK Flexibility Score: inf
ROOT
ATOM      1  C   UNL     1      -0.317 -10.367  12.154  1.00  0.00     0.023 C 
ENDROOT
BRANCH   1   2
ATOM      2  C   UNL     1      -1.019  -9.001  12.123  1.00  0.00     0.023 C 
BRANCH   2   3
ATOM      3  C   UNL     1      -0.087  -7.785  12.007  1.00  0.00     0.116 C 
BRANCH   3   4
ATOM      4  N   UNL     1       0.682  -7.876  10.784  1.00  0.00    -0.352 N 
ATOM      5  C   UNL     1       0.904  -6.947   9.827  1.00  0.00     0.251 C 
ATOM      6  O   UNL     1       1.092  -7.330   8.677  1.00  0.00    -0.270 OA
ATOM      7  H   UNL     1       1.111  -8.748  10.626  1.00  0.00     0.163 HD
BRANCH   5   8
ATOM      8  C   UNL     1       1.017  -5.511  10.226  1.00  0.00     0.067 C 
ATOM      9  C   UNL     1       1.372  -3.890   6.494  1.00  0.00     0.026 A 
ATOM     10  C   UNL     1       2.352  -4.655   5.807  1.00  0.00     0.033 A 
ATOM     11  C   UNL     1       1.300  -4.084   7.890  1.00  0.00     0.135 A 
ATOM     12  C   UNL     1       3.299  -5.438   6.464  1.00  0.00     0.042 A 
ATOM     13  C   UNL     1       2.345  -4.788   8.545  1.00  0.00     0.019 A 
ATOM     14  O   UNL     1       0.222  -3.674   8.666  1.00  0.00    -0.475 OA
ATOM     15  Cl  UNL     1       4.417  -6.368   5.550  1.00  0.00    -0.084 Cl
ATOM     16  C   UNL     1       3.348  -5.451   7.842  1.00  0.00     0.032 A 
ATOM     17  C   UNL     1       2.243  -4.996  10.006  1.00  0.00     0.025 C 
ATOM     18  C   UNL     1      -0.135  -4.624   9.770  1.00  0.00     0.314 C 
BRANCH   9  19
ATOM     19  C   UNL     1       0.695  -2.864   5.649  1.00  0.00    -0.015 A 
ATOM     20  C   UNL     1       0.363  -0.932   3.586  1.00  0.00     0.067 A 
ATOM     21  C   UNL     1       0.015  -2.260   3.352  1.00  0.00     0.021 A 
ATOM     22  C   UNL     1       0.782  -0.542   4.863  1.00  0.00     0.021 A 
ATOM     23  C   UNL     1       0.167  -3.208   4.381  1.00  0.00     0.010 A 
ATOM     24  C   UNL     1       0.935  -1.498   5.885  1.00  0.00     0.010 A 
BRANCH  20  25
ATOM     25  S   UNL     1       0.283   0.277   2.275  1.00  0.00     0.175 S 
ATOM     26  C   UNL     1       1.090  -0.425   0.859  1.00  0.00     0.163 C 
ATOM     27  O   UNL     1       1.084   1.415   2.682  1.00  0.00    -0.224 OA
ATOM     28  O   UNL     1      -1.123   0.438   1.949  1.00  0.00    -0.224 OA
ENDBRANCH  20  25
ENDBRANCH   9  19
BRANCH  18  29
ATOM     29  C   UNL     1      -0.684  -3.883  11.013  1.00  0.00     0.429 C 
ATOM     30  F   UNL     1      -0.364  -2.570  11.022  1.00  0.00    -0.167 F 
ATOM     31  F   UNL     1      -2.034  -3.977  11.086  1.00  0.00    -0.167 F 
ATOM     32  F   UNL     1      -0.210  -4.401  12.178  1.00  0.00    -0.167 F 
ENDBRANCH  18  29
ENDBRANCH   5   8
ENDBRANCH   3   4
ENDBRANCH   2   3
ENDBRANCH   1   2
BRANCH   1  33
ATOM     33  C   UNL     1       0.734 -10.527  13.246  1.00  0.00     0.116 C 
BRANCH  33  34
ATOM     34  N   UNL     1       0.149 -10.463  14.576  1.00  0.00    -0.352 N 
ATOM     35  C   UNL     1       0.190 -11.391  15.589  1.00  0.00     0.251 C 
ATOM     36  H   UNL     1      -0.347  -9.637  14.779  1.00  0.00     0.163 HD
ATOM     37  O   UNL     1      -0.534 -11.251  16.571  1.00  0.00    -0.269 OA
BRANCH  35  38
ATOM     38  C   UNL     1       1.083 -12.565  15.482  1.00  0.00     0.039 A 
ATOM     39  C   UNL     1       0.584 -13.827  15.813  1.00  0.00     0.014 A 
ATOM     40  C   UNL     1       2.406 -12.425  15.052  1.00  0.00     0.014 A 
ATOM     41  C   UNL     1       1.390 -14.956  15.646  1.00  0.00     0.010 A 
ATOM     42  C   UNL     1       3.181 -13.557  14.814  1.00  0.00     0.010 A 
ATOM     43  C   UNL     1       2.682 -14.836  15.107  1.00  0.00    -0.014 A 
BRANCH  43  44
ATOM     44  C   UNL     1       3.513 -16.037  14.822  1.00  0.00     0.031 A 
ATOM     45  C   UNL     1       4.825 -16.242  15.529  1.00  0.00     0.074 A 
ATOM     46  C   UNL     1       3.115 -16.909  13.873  1.00  0.00     0.049 A 
ATOM     47  N   UNL     1       5.707 -17.195  15.371  1.00  0.00    -0.248 NA
ATOM     48  C   UNL     1       5.208 -15.231  16.526  1.00  0.00     0.031 C 
ATOM     49  C   UNL     1       1.890 -16.791  13.078  1.00  0.00     0.029 A 
ATOM     50  N   UNL     1       3.701 -18.059  13.407  1.00  0.00    -0.354 N 
ATOM     51  C   UNL     1       6.753 -16.893  16.235  1.00  0.00     0.074 A 
ATOM     52  C   UNL     1       6.420 -15.638  16.874  1.00  0.00     0.031 C 
ATOM     53  C   UNL     1       1.806 -17.837  12.240  1.00  0.00     0.029 A 
ATOM     54  C   UNL     1       2.988 -18.677  12.406  1.00  0.00     0.049 A 
ATOM     55  H   UNL     1       4.553 -18.409  13.756  1.00  0.00     0.167 HD
ATOM     56  C   UNL     1       7.878 -17.605  16.488  1.00  0.00     0.037 A 
ATOM     57  C   UNL     1       3.258 -19.788  11.693  1.00  0.00     0.037 A 
ATOM     58  C   UNL     1       8.195 -18.861  15.857  1.00  0.00     0.049 A 
ATOM     59  C   UNL     1       4.515 -20.561  11.988  1.00  0.00     0.074 A 
ATOM     60  C   UNL     1       9.276 -19.693  16.093  1.00  0.00     0.029 A 
ATOM     61  N   UNL     1       7.440 -19.463  14.861  1.00  0.00    -0.354 N 
ATOM     62  N   UNL     1       5.456 -20.301  12.864  1.00  0.00    -0.248 NA
ATOM     63  C   UNL     1       4.744 -21.782  11.203  1.00  0.00     0.031 C 
ATOM     64  C   UNL     1       9.204 -20.768  15.201  1.00  0.00     0.029 A 
ATOM     65  C   UNL     1       8.047 -20.640  14.450  1.00  0.00     0.049 A 
ATOM     66  H   UNL     1       6.596 -19.107  14.499  1.00  0.00     0.167 HD
ATOM     67  C   UNL     1       6.377 -21.337  12.752  1.00  0.00     0.074 A 
ATOM     68  C   UNL     1       5.872 -22.235  11.735  1.00  0.00     0.031 C 
ATOM     69  C   UNL     1       7.535 -21.526  13.433  1.00  0.00     0.037 A 
BRANCH  56  70
ATOM     70  C   UNL     1       8.854 -17.038  17.485  1.00  0.00     0.058 A 
ATOM     71  C   UNL     1       8.549 -16.954  18.854  1.00  0.00     0.135 A 
ATOM     72  C   UNL     1      10.122 -16.598  17.073  1.00  0.00     0.135 A 
ATOM     73  F   UNL     1       7.347 -17.349  19.305  1.00  0.00    -0.206 F 
ATOM     74  C   UNL     1       9.449 -16.420  19.770  1.00  0.00     0.059 A 
ATOM     75  C   UNL     1      11.051 -16.090  17.977  1.00  0.00     0.059 A 
ATOM     76  F   UNL     1      10.470 -16.657  15.778  1.00  0.00    -0.206 F 
ATOM     77  C   UNL     1      10.698 -15.988  19.321  1.00  0.00     0.060 A 
BRANCH  77  78
ATOM     78  S   UNL     1      11.850 -15.289  20.522  1.00  0.00     0.124 S 
ATOM     79  O   UNL     1      11.225 -14.002  20.809  1.00  0.00    -0.237 OA
ATOM     80  O   UNL     1      11.807 -16.269  21.603  1.00  0.00    -0.237 OA
ATOM     81  O   UNL     1      13.110 -15.225  19.788  1.00  0.00    -0.744 OA
ENDBRANCH  77  78
ENDBRANCH  56  70
BRANCH  57  82
ATOM     82  C   UNL     1       2.305 -20.243  10.645  1.00  0.00     0.058 A 
ATOM     83  C   UNL     1       1.532 -21.400  10.822  1.00  0.00     0.135 A 
ATOM     84  C   UNL     1       2.124 -19.512   9.460  1.00  0.00     0.135 A 
ATOM     85  F   UNL     1       1.674 -22.137  11.934  1.00  0.00    -0.206 F 
ATOM     86  C   UNL     1       0.621 -21.823   9.859  1.00  0.00     0.059 A 
ATOM     87  C   UNL     1       1.199 -19.900   8.495  1.00  0.00     0.059 A 
ATOM     88  F   UNL     1       2.827 -18.389   9.248  1.00  0.00    -0.206 F 
ATOM     89  C   UNL     1       0.457 -21.061   8.701  1.00  0.00     0.060 A 
BRANCH  89  90
ATOM     90  S   UNL     1      -0.778 -21.583   7.490  1.00  0.00     0.124 S 
ATOM     91  O   UNL     1      -0.147 -22.766   6.918  1.00  0.00    -0.237 OA
ATOM     92  O   UNL     1      -1.946 -21.825   8.331  1.00  0.00    -0.237 OA
ATOM     93  O   UNL     1      -0.884 -20.430   6.601  1.00  0.00    -0.744 OA
ENDBRANCH  89  90
ENDBRANCH  57  82
BRANCH  69  94
ATOM     94  C   UNL     1       8.328 -22.767  13.122  1.00  0.00     0.058 A 
ATOM     95  C   UNL     1       9.024 -22.916  11.912  1.00  0.00     0.135 A 
ATOM     96  C   UNL     1       8.434 -23.799  14.069  1.00  0.00     0.135 A 
ATOM     97  F   UNL     1       8.952 -21.964  10.968  1.00  0.00    -0.206 F 
ATOM     98  C   UNL     1       9.778 -24.055  11.643  1.00  0.00     0.059 A 
ATOM     99  C   UNL     1       9.207 -24.931  13.834  1.00  0.00     0.059 A 
ATOM    100  F   UNL     1       7.796 -23.703  15.247  1.00  0.00    -0.206 F 
ATOM    101  C   UNL     1       9.866 -25.056  12.612  1.00  0.00     0.060 A 
BRANCH 101 102
ATOM    102  S   UNL     1      10.875 -26.512  12.263  1.00  0.00     0.124 S 
ATOM    103  O   UNL     1      10.053 -27.210  11.280  1.00  0.00    -0.237 OA
ATOM    104  O   UNL     1      12.108 -25.921  11.754  1.00  0.00    -0.237 OA
ATOM    105  O   UNL     1      10.990 -27.166  13.563  1.00  0.00    -0.744 OA
ENDBRANCH 101 102
ENDBRANCH  69  94
ENDBRANCH  43  44
ENDBRANCH  35  38
ENDBRANCH  33  34
ENDBRANCH   1  33
TORSDOF 17
