REMARK SMILES Cc1noc(C[N@H+]2CCC[C@@H](c3ccc(C(=O)NCCCCNC(=O)c4ccc(-c5c6nc(c(-c7c(F)cc(S(=O)(=O)[O-])cc7F)c7ccc([nH]7)c(-c7c(F)cc(S(=O)(=O)[O-])cc7F)c7nc(c(-c8c(F)cc(S(=O)(=O)[O-])cc8F)c8ccc5[nH]8)C=C7)C=C6)cc4)cc3)C2)n1
REMARK SMILES IDX 20 1 19 2 18 3 16 4 17 5 15 7 12 8 13 9 93 10 14 11 92 12
REMARK SMILES IDX 11 13 7 14 8 15 94 16 9 18 10 19 6 20 5 21 1 22 2 23 3 24
REMARK SMILES IDX 95 25 4 26 21 27 22 28 23 29 24 30 25 32 26 33 27 34 91 35
REMARK SMILES IDX 28 36 90 37 29 38 30 39 31 40 84 41 32 42 89 43 83 44 85 45
REMARK SMILES IDX 33 46 88 47 82 48 81 49 34 51 68 52 47 53 67 54 48 55 51 56
REMARK SMILES IDX 66 57 86 58 49 59 50 60 65 62 87 63 52 64 35 65 36 66 45 67
REMARK SMILES IDX 37 68 38 69 44 70 46 71 39 72 40 73 41 74 42 75 43 76 69 77
REMARK SMILES IDX 70 78 79 79 71 80 72 81 78 82 80 83 73 84 74 85 75 86 76 87
REMARK SMILES IDX 77 88 53 89 54 90 63 91 55 92 56 93 62 94 64 95 57 96 58 97
REMARK SMILES IDX 59 98 60 99 61 100
REMARK H PARENT 18 6 7 17 23 31 85 50 51 61
REMARK Flexibility Score: inf
ROOT
ATOM      1  C   UNL     1      -2.667  10.020  -3.479  1.00  0.00     0.023 C 
ENDROOT
BRANCH   1   2
ATOM      2  C   UNL     1      -3.047   9.207  -2.240  1.00  0.00     0.116 C 
BRANCH   2   3
ATOM      3  N   UNL     1      -4.043   8.210  -2.572  1.00  0.00    -0.352 N 
ATOM      4  C   UNL     1      -3.926   6.880  -2.882  1.00  0.00     0.251 C 
ATOM      5  O   UNL     1      -4.959   6.242  -3.089  1.00  0.00    -0.269 OA
ATOM      6  H   UNL     1      -4.968   8.546  -2.575  1.00  0.00     0.163 HD
BRANCH   4   7
ATOM      7  C   UNL     1      -2.619   6.165  -2.920  1.00  0.00     0.039 A 
ATOM      8  C   UNL     1      -0.224   4.656  -2.870  1.00  0.00    -0.039 A 
ATOM      9  C   UNL     1      -1.461   4.057  -2.584  1.00  0.00     0.005 A 
ATOM     10  C   UNL     1      -0.213   6.001  -3.248  1.00  0.00     0.005 A 
ATOM     11  C   UNL     1      -2.639   4.805  -2.595  1.00  0.00     0.014 A 
ATOM     12  C   UNL     1      -1.401   6.738  -3.293  1.00  0.00     0.014 A 
BRANCH   8  13
ATOM     13  C   UNL     1       1.083   3.881  -2.799  1.00  0.00     0.074 C 
ATOM     14  N   UNL     1       2.376   2.201  -1.406  1.00  0.00    -0.327 N 
ATOM     15  C   UNL     1       2.444   1.301  -2.566  1.00  0.00     0.262 C 
ATOM     16  C   UNL     1       1.200   3.089  -1.479  1.00  0.00     0.270 C 
ATOM     17  H   UNL     1       3.213   2.784  -1.430  1.00  0.00     0.348 HD
ATOM     18  C   UNL     1       2.467   2.085  -3.878  1.00  0.00     0.062 C 
ATOM     19  C   UNL     1       1.226   2.958  -4.015  1.00  0.00     0.020 C 
BRANCH  14  20
ATOM     20  C   UNL     1       2.383   1.440  -0.123  1.00  0.00     0.364 C 
BRANCH  20  21
ATOM     21  C   UNL     1       1.186   0.569   0.114  1.00  0.00     0.281 A 
ATOM     22  C   UNL     1      -2.198  -0.324   0.288  1.00  0.00     0.093 C 
ATOM     23  C   UNL     1      -0.726  -0.263   0.240  1.00  0.00     0.169 A 
ATOM     24  N   UNL     1       0.041  -1.317  -0.069  1.00  0.00    -0.063 NA
ATOM     25  N   UNL     1      -0.049   0.913   0.412  1.00  0.00    -0.191 NA
ATOM     26  O   UNL     1       1.324  -0.764  -0.152  1.00  0.00    -0.333 OA
ENDBRANCH  20  21
ENDBRANCH  14  20
ENDBRANCH   8  13
ENDBRANCH   4   7
ENDBRANCH   2   3
ENDBRANCH   1   2
BRANCH   1  27
ATOM     27  C   UNL     1      -3.693  11.080  -3.878  1.00  0.00     0.023 C 
BRANCH  27  28
ATOM     28  C   UNL     1      -3.907  12.182  -2.849  1.00  0.00     0.116 C 
BRANCH  28  29
ATOM     29  N   UNL     1      -2.683  12.892  -2.508  1.00  0.00    -0.352 N 
ATOM     30  C   UNL     1      -2.541  14.207  -2.130  1.00  0.00     0.251 C 
ATOM     31  H   UNL     1      -1.853  12.365  -2.554  1.00  0.00     0.163 HD
ATOM     32  O   UNL     1      -1.429  14.690  -1.978  1.00  0.00    -0.269 OA
BRANCH  30  33
ATOM     33  C   UNL     1      -3.755  15.032  -1.958  1.00  0.00     0.039 A 
ATOM     34  C   UNL     1      -3.834  16.256  -2.625  1.00  0.00     0.014 A 
ATOM     35  C   UNL     1      -4.824  14.572  -1.184  1.00  0.00     0.014 A 
ATOM     36  C   UNL     1      -5.019  16.991  -2.570  1.00  0.00     0.010 A 
ATOM     37  C   UNL     1      -6.024  15.274  -1.184  1.00  0.00     0.010 A 
ATOM     38  C   UNL     1      -6.134  16.488  -1.880  1.00  0.00    -0.014 A 
BRANCH  38  39
ATOM     39  C   UNL     1      -7.425  17.218  -1.871  1.00  0.00     0.031 A 
ATOM     40  C   UNL     1      -7.960  17.776  -0.581  1.00  0.00     0.074 A 
ATOM     41  C   UNL     1      -8.137  17.328  -3.010  1.00  0.00     0.049 A 
ATOM     42  N   UNL     1      -9.102  18.369  -0.350  1.00  0.00    -0.248 NA
ATOM     43  C   UNL     1      -7.109  17.627   0.611  1.00  0.00     0.031 C 
ATOM     44  C   UNL     1      -7.740  16.791  -4.315  1.00  0.00     0.029 A 
ATOM     45  N   UNL     1      -9.351  17.920  -3.254  1.00  0.00    -0.354 N 
ATOM     46  C   UNL     1      -9.109  18.660   1.009  1.00  0.00     0.074 A 
ATOM     47  C   UNL     1      -7.883  18.128   1.562  1.00  0.00     0.031 C 
ATOM     48  C   UNL     1      -8.681  17.097  -5.223  1.00  0.00     0.029 A 
ATOM     49  C   UNL     1      -9.763  17.819  -4.562  1.00  0.00     0.049 A 
ATOM     50  H   UNL     1      -9.877  18.374  -2.557  1.00  0.00     0.167 HD
ATOM     51  C   UNL     1     -10.039  19.335   1.724  1.00  0.00     0.037 A 
ATOM     52  C   UNL     1     -10.890  18.256  -5.157  1.00  0.00     0.037 A 
ATOM     53  C   UNL     1     -11.246  19.884   1.164  1.00  0.00     0.049 A 
ATOM     54  C   UNL     1     -11.913  18.993  -4.334  1.00  0.00     0.074 A 
ATOM     55  C   UNL     1     -12.241  20.604   1.801  1.00  0.00     0.029 A 
ATOM     56  N   UNL     1     -11.616  19.782  -0.169  1.00  0.00    -0.354 N 
ATOM     57  N   UNL     1     -11.885  19.291  -3.056  1.00  0.00    -0.248 NA
ATOM     58  C   UNL     1     -13.119  19.459  -5.033  1.00  0.00     0.031 C 
ATOM     59  C   UNL     1     -13.226  20.918   0.858  1.00  0.00     0.029 A 
ATOM     60  C   UNL     1     -12.825  20.424  -0.373  1.00  0.00     0.049 A 
ATOM     61  H   UNL     1     -11.095  19.322  -0.866  1.00  0.00     0.167 HD
ATOM     62  C   UNL     1     -13.051  20.006  -2.808  1.00  0.00     0.074 A 
ATOM     63  C   UNL     1     -13.758  20.105  -4.068  1.00  0.00     0.031 C 
ATOM     64  C   UNL     1     -13.499  20.532  -1.642  1.00  0.00     0.037 A 
BRANCH  51  65
ATOM     65  C   UNL     1      -9.775  19.544   3.189  1.00  0.00     0.058 A 
ATOM     66  C   UNL     1      -8.795  20.447   3.630  1.00  0.00     0.135 A 
ATOM     67  C   UNL     1     -10.537  18.877   4.161  1.00  0.00     0.135 A 
ATOM     68  F   UNL     1      -8.025  21.096   2.741  1.00  0.00    -0.206 F 
ATOM     69  C   UNL     1      -8.567  20.669   4.983  1.00  0.00     0.059 A 
ATOM     70  C   UNL     1     -10.343  19.102   5.521  1.00  0.00     0.059 A 
ATOM     71  F   UNL     1     -11.484  17.999   3.793  1.00  0.00    -0.206 F 
ATOM     72  C   UNL     1      -9.348  19.994   5.921  1.00  0.00     0.060 A 
BRANCH  72  73
ATOM     73  S   UNL     1      -9.056  20.314   7.674  1.00  0.00     0.124 S 
ATOM     74  O   UNL     1      -7.799  19.606   7.893  1.00  0.00    -0.237 OA
ATOM     75  O   UNL     1      -8.978  21.771   7.717  1.00  0.00    -0.237 OA
ATOM     76  O   UNL     1     -10.225  19.732   8.325  1.00  0.00    -0.744 OA
ENDBRANCH  72  73
ENDBRANCH  51  65
BRANCH  52  77
ATOM     77  C   UNL     1     -11.114  18.029  -6.609  1.00  0.00     0.058 A 
ATOM     78  C   UNL     1     -11.093  19.099  -7.516  1.00  0.00     0.135 A 
ATOM     79  C   UNL     1     -11.386  16.749  -7.115  1.00  0.00     0.135 A 
ATOM     80  F   UNL     1     -10.840  20.343  -7.079  1.00  0.00    -0.206 F 
ATOM     81  C   UNL     1     -11.370  18.917  -8.867  1.00  0.00     0.059 A 
ATOM     82  C   UNL     1     -11.642  16.537  -8.467  1.00  0.00     0.059 A 
ATOM     83  F   UNL     1     -11.399  15.688  -6.293  1.00  0.00    -0.206 F 
ATOM     84  C   UNL     1     -11.651  17.632  -9.331  1.00  0.00     0.060 A 
BRANCH  84  85
ATOM     85  S   UNL     1     -12.007  17.401 -11.087  1.00  0.00     0.124 S 
ATOM     86  O   UNL     1     -13.378  17.889 -11.173  1.00  0.00    -0.237 OA
ATOM     87  O   UNL     1     -10.990  18.233 -11.721  1.00  0.00    -0.237 OA
ATOM     88  O   UNL     1     -11.834  15.963 -11.275  1.00  0.00    -0.744 OA
ENDBRANCH  84  85
ENDBRANCH  52  77
BRANCH  64  89
ATOM     89  C   UNL     1     -14.788  21.302  -1.683  1.00  0.00     0.058 A 
ATOM     90  C   UNL     1     -16.028  20.656  -1.801  1.00  0.00     0.135 A 
ATOM     91  C   UNL     1     -14.783  22.700  -1.553  1.00  0.00     0.135 A 
ATOM     92  F   UNL     1     -16.086  19.322  -1.935  1.00  0.00    -0.206 F 
ATOM     93  C   UNL     1     -17.220  21.373  -1.811  1.00  0.00     0.059 A 
ATOM     94  C   UNL     1     -15.963  23.434  -1.535  1.00  0.00     0.059 A 
ATOM     95  F   UNL     1     -13.622  23.363  -1.427  1.00  0.00    -0.206 F 
ATOM     96  C   UNL     1     -17.177  22.763  -1.677  1.00  0.00     0.060 A 
BRANCH  96  97
ATOM     97  S   UNL     1     -18.732  23.680  -1.654  1.00  0.00     0.124 S 
ATOM     98  O   UNL     1     -19.098  23.672  -3.066  1.00  0.00    -0.237 OA
ATOM     99  O   UNL     1     -19.566  22.862  -0.778  1.00  0.00    -0.237 OA
ATOM    100  O   UNL     1     -18.351  24.980  -1.110  1.00  0.00    -0.744 OA
ENDBRANCH  96  97
ENDBRANCH  64  89
ENDBRANCH  38  39
ENDBRANCH  30  33
ENDBRANCH  28  29
ENDBRANCH  27  28
ENDBRANCH   1  27
TORSDOF 17
