REMARK SMILES CC[C@H](C)[C@H](NC(=O)[C@H](C)Oc1ccc2c(C)c(C)c(=O)oc2c1C)C(=O)NCCCCNC(=O)c1ccc(-c2c3nc(c(-c4c(F)cc(S(=O)(=O)[O-])cc4F)c4ccc([nH]4)c(-c4c(F)cc(S(=O)(=O)[O-])cc4F)c4nc(c(-c5c(F)cc(S(=O)(=O)[O-])cc5F)c5ccc2[nH]5)C=C4)C=C3)cc1
REMARK SMILES IDX 30 1 29 2 28 3 26 4 27 5 5 7 3 8 4 9 2 10 1 11 6 12 7 13
REMARK SMILES IDX 8 15 9 16 10 17 11 18 12 19 13 20 24 21 14 22 23 23 25 24
REMARK SMILES IDX 15 25 22 26 16 27 20 28 17 29 18 30 21 31 19 32 31 33 32 34
REMARK SMILES IDX 33 35 34 36 35 38 36 39 37 40 101 41 38 42 100 43 39 44
REMARK SMILES IDX 40 45 41 46 94 47 42 48 99 49 93 50 95 51 43 52 98 53 92 54
REMARK SMILES IDX 91 55 44 57 78 58 57 59 77 60 58 61 61 62 76 63 96 64 59 65
REMARK SMILES IDX 60 66 75 68 97 69 62 70 45 71 46 72 55 73 47 74 48 75 54 76
REMARK SMILES IDX 56 77 49 78 50 79 51 80 52 81 53 82 79 83 80 84 89 85 81 86
REMARK SMILES IDX 82 87 88 88 90 89 83 90 84 91 85 92 86 93 87 94 63 95 64 96
REMARK SMILES IDX 73 97 65 98 66 99 72 100 74 101 67 102 68 103 69 104 70 105
REMARK SMILES IDX 71 106
REMARK H PARENT 28 6 6 14 33 37 95 56 61 67
REMARK Flexibility Score: inf
ROOT
ATOM      1  C   UNL     1      -5.015  -0.465  -0.655  1.00  0.00     0.023 C 
ENDROOT
BRANCH   1   2
ATOM      2  C   UNL     1      -4.438   0.808  -1.257  1.00  0.00     0.116 C 
BRANCH   2   3
ATOM      3  N   UNL     1      -4.136   1.817  -0.266  1.00  0.00    -0.354 N 
ATOM      4  C   UNL     1      -2.944   2.312   0.164  1.00  0.00     0.242 C 
ATOM      5  O   UNL     1      -2.978   3.312   0.890  1.00  0.00    -0.273 OA
ATOM      6  H   UNL     1      -4.926   2.212   0.170  1.00  0.00     0.163 HD
BRANCH   4   7
ATOM      7  C   UNL     1      -1.577   1.779  -0.336  1.00  0.00     0.174 C 
BRANCH   7   8
ATOM      8  C   UNL     1      -1.110   2.506  -1.641  1.00  0.00     0.018 C 
ATOM      9  C   UNL     1       0.421   2.600  -1.645  1.00  0.00     0.010 C 
BRANCH   8  10
ATOM     10  C   UNL     1      -1.659   1.903  -2.956  1.00  0.00     0.002 C 
ATOM     11  C   UNL     1      -1.047   2.443  -4.241  1.00  0.00     0.004 C 
ENDBRANCH   8  10
ENDBRANCH   7   8
BRANCH   7  12
ATOM     12  N   UNL     1      -1.487   0.319  -0.408  1.00  0.00    -0.341 N 
ATOM     13  C   UNL     1      -1.161  -0.605   0.542  1.00  0.00     0.261 C 
ATOM     14  H   UNL     1      -1.697  -0.061  -1.292  1.00  0.00     0.164 HD
ATOM     15  O   UNL     1      -1.326  -1.783   0.217  1.00  0.00    -0.271 OA
BRANCH  13  16
ATOM     16  C   UNL     1      -0.525  -0.167   1.893  1.00  0.00     0.258 C 
ATOM     17  C   UNL     1       0.988  -0.052   1.672  1.00  0.00     0.064 C 
BRANCH  16  18
ATOM     18  O   UNL     1      -0.759  -0.840   3.130  1.00  0.00    -0.480 OA
BRANCH  18  19
ATOM     19  C   UNL     1      -1.088  -2.161   3.064  1.00  0.00     0.127 A 
ATOM     20  C   UNL     1      -0.117  -3.107   2.740  1.00  0.00     0.047 A 
ATOM     21  C   UNL     1      -2.372  -2.569   3.436  1.00  0.00     0.035 A 
ATOM     22  C   UNL     1      -0.433  -4.470   2.720  1.00  0.00     0.016 A 
ATOM     23  C   UNL     1      -2.661  -3.947   3.402  1.00  0.00     0.145 A 
ATOM     24  C   UNL     1      -3.429  -1.592   3.870  1.00  0.00     0.052 C 
ATOM     25  C   UNL     1      -1.720  -4.915   3.047  1.00  0.00     0.021 A 
ATOM     26  O   UNL     1      -3.973  -4.329   3.745  1.00  0.00    -0.422 OA
ATOM     27  C   UNL     1      -2.110  -6.339   3.047  1.00  0.00    -0.030 A 
ATOM     28  C   UNL     1      -4.397  -5.645   3.708  1.00  0.00     0.339 A 
ATOM     29  C   UNL     1      -1.053  -7.356   2.701  1.00  0.00     0.045 C 
ATOM     30  C   UNL     1      -3.381  -6.674   3.357  1.00  0.00     0.038 A 
ATOM     31  O   UNL     1      -5.558  -5.941   3.964  1.00  0.00    -0.246 OA
ATOM     32  C   UNL     1      -3.880  -8.095   3.370  1.00  0.00     0.052 C 
ENDBRANCH  18  19
ENDBRANCH  16  18
ENDBRANCH  13  16
ENDBRANCH   7  12
ENDBRANCH   4   7
ENDBRANCH   2   3
ENDBRANCH   1   2
BRANCH   1  33
ATOM     33  C   UNL     1      -6.509  -0.397  -0.351  1.00  0.00     0.023 C 
BRANCH  33  34
ATOM     34  C   UNL     1      -7.395   0.062  -1.506  1.00  0.00     0.116 C 
BRANCH  34  35
ATOM     35  N   UNL     1      -7.161  -0.655  -2.755  1.00  0.00    -0.352 N 
ATOM     36  C   UNL     1      -8.099  -1.066  -3.676  1.00  0.00     0.251 C 
ATOM     37  H   UNL     1      -6.223  -0.870  -2.964  1.00  0.00     0.163 HD
ATOM     38  O   UNL     1      -7.781  -1.681  -4.682  1.00  0.00    -0.269 OA
BRANCH  36  39
ATOM     39  C   UNL     1      -9.510  -0.771  -3.377  1.00  0.00     0.039 A 
ATOM     40  C   UNL     1     -10.358  -1.831  -3.055  1.00  0.00     0.014 A 
ATOM     41  C   UNL     1      -9.918   0.559  -3.236  1.00  0.00     0.014 A 
ATOM     42  C   UNL     1     -11.609  -1.552  -2.509  1.00  0.00     0.010 A 
ATOM     43  C   UNL     1     -11.142   0.830  -2.638  1.00  0.00     0.010 A 
ATOM     44  C   UNL     1     -11.989  -0.223  -2.258  1.00  0.00    -0.014 A 
BRANCH  44  45
ATOM     45  C   UNL     1     -13.267   0.074  -1.571  1.00  0.00     0.031 A 
ATOM     46  C   UNL     1     -14.380   0.738  -2.322  1.00  0.00     0.074 A 
ATOM     47  C   UNL     1     -13.399  -0.209  -0.261  1.00  0.00     0.049 A 
ATOM     48  N   UNL     1     -15.580   1.048  -1.907  1.00  0.00    -0.248 NA
ATOM     49  C   UNL     1     -14.102   1.129  -3.714  1.00  0.00     0.031 C 
ATOM     50  C   UNL     1     -12.354  -0.784   0.591  1.00  0.00     0.029 A 
ATOM     51  N   UNL     1     -14.465  -0.048   0.586  1.00  0.00    -0.354 N 
ATOM     52  C   UNL     1     -16.199   1.669  -2.982  1.00  0.00     0.074 A 
ATOM     53  C   UNL     1     -15.225   1.748  -4.049  1.00  0.00     0.031 C 
ATOM     54  C   UNL     1     -12.841  -0.949   1.832  1.00  0.00     0.029 A 
ATOM     55  C   UNL     1     -14.225  -0.484   1.867  1.00  0.00     0.049 A 
ATOM     56  H   UNL     1     -15.323   0.344   0.303  1.00  0.00     0.167 HD
ATOM     57  C   UNL     1     -17.476   2.104  -3.082  1.00  0.00     0.037 A 
ATOM     58  C   UNL     1     -15.034  -0.519   2.944  1.00  0.00     0.037 A 
ATOM     59  C   UNL     1     -18.446   1.994  -2.029  1.00  0.00     0.049 A 
ATOM     60  C   UNL     1     -16.457  -0.053   2.807  1.00  0.00     0.074 A 
ATOM     61  C   UNL     1     -19.790   2.316  -2.060  1.00  0.00     0.029 A 
ATOM     62  N   UNL     1     -18.172   1.528  -0.751  1.00  0.00    -0.354 N 
ATOM     63  N   UNL     1     -17.063   0.428   1.748  1.00  0.00    -0.248 NA
ATOM     64  C   UNL     1     -17.309  -0.143   4.000  1.00  0.00     0.031 C 
ATOM     65  C   UNL     1     -20.323   2.076  -0.789  1.00  0.00     0.029 A 
ATOM     66  C   UNL     1     -19.317   1.577   0.024  1.00  0.00     0.049 A 
ATOM     67  H   UNL     1     -17.293   1.211  -0.442  1.00  0.00     0.167 HD
ATOM     68  C   UNL     1     -18.372   0.683   2.141  1.00  0.00     0.074 A 
ATOM     69  C   UNL     1     -18.472   0.298   3.534  1.00  0.00     0.031 C 
ATOM     70  C   UNL     1     -19.396   1.186   1.410  1.00  0.00     0.037 A 
BRANCH  57  71
ATOM     71  C   UNL     1     -17.889   2.718  -4.387  1.00  0.00     0.058 A 
ATOM     72  C   UNL     1     -18.075   1.932  -5.535  1.00  0.00     0.135 A 
ATOM     73  C   UNL     1     -18.096   4.101  -4.495  1.00  0.00     0.135 A 
ATOM     74  F   UNL     1     -17.871   0.606  -5.487  1.00  0.00    -0.206 F 
ATOM     75  C   UNL     1     -18.417   2.501  -6.756  1.00  0.00     0.059 A 
ATOM     76  C   UNL     1     -18.460   4.690  -5.703  1.00  0.00     0.059 A 
ATOM     77  F   UNL     1     -17.927   4.896  -3.427  1.00  0.00    -0.206 F 
ATOM     78  C   UNL     1     -18.599   3.882  -6.832  1.00  0.00     0.060 A 
BRANCH  78  79
ATOM     79  S   UNL     1     -19.018   4.610  -8.430  1.00  0.00     0.124 S 
ATOM     80  O   UNL     1     -17.729   4.568  -9.113  1.00  0.00    -0.237 OA
ATOM     81  O   UNL     1     -20.034   3.693  -8.937  1.00  0.00    -0.237 OA
ATOM     82  O   UNL     1     -19.499   5.943  -8.079  1.00  0.00    -0.744 OA
ENDBRANCH  78  79
ENDBRANCH  57  71
BRANCH  58  83
ATOM     83  C   UNL     1     -14.523  -1.069   4.225  1.00  0.00     0.058 A 
ATOM     84  C   UNL     1     -14.874  -2.361   4.641  1.00  0.00     0.135 A 
ATOM     85  C   UNL     1     -13.629  -0.342   5.025  1.00  0.00     0.135 A 
ATOM     86  F   UNL     1     -15.728  -3.092   3.908  1.00  0.00    -0.206 F 
ATOM     87  C   UNL     1     -14.356  -2.917   5.806  1.00  0.00     0.059 A 
ATOM     88  C   UNL     1     -13.086  -0.881   6.188  1.00  0.00     0.059 A 
ATOM     89  F   UNL     1     -13.252   0.893   4.659  1.00  0.00    -0.206 F 
ATOM     90  C   UNL     1     -13.457  -2.170   6.570  1.00  0.00     0.060 A 
BRANCH  90  91
ATOM     91  S   UNL     1     -12.734  -2.929   8.042  1.00  0.00     0.124 S 
ATOM     92  O   UNL     1     -13.858  -2.900   8.970  1.00  0.00    -0.237 OA
ATOM     93  O   UNL     1     -12.350  -4.248   7.548  1.00  0.00    -0.237 OA
ATOM     94  O   UNL     1     -11.623  -2.040   8.366  1.00  0.00    -0.744 OA
ENDBRANCH  90  91
ENDBRANCH  58  83
BRANCH  70  95
ATOM     95  C   UNL     1     -20.724   1.355   2.088  1.00  0.00     0.058 A 
ATOM     96  C   UNL     1     -20.975   2.451   2.926  1.00  0.00     0.135 A 
ATOM     97  C   UNL     1     -21.789   0.489   1.795  1.00  0.00     0.135 A 
ATOM     98  F   UNL     1     -19.985   3.303   3.240  1.00  0.00    -0.206 F 
ATOM     99  C   UNL     1     -22.243   2.691   3.442  1.00  0.00     0.059 A 
ATOM    100  C   UNL     1     -23.069   0.719   2.287  1.00  0.00     0.059 A 
ATOM    101  F   UNL     1     -21.597  -0.570   0.992  1.00  0.00    -0.206 F 
ATOM    102  C   UNL     1     -23.287   1.826   3.107  1.00  0.00     0.060 A 
BRANCH 102 103
ATOM    103  S   UNL     1     -24.950   2.205   3.702  1.00  0.00     0.124 S 
ATOM    104  O   UNL     1     -24.853   1.825   5.107  1.00  0.00    -0.237 OA
ATOM    105  O   UNL     1     -25.057   3.637   3.438  1.00  0.00    -0.237 OA
ATOM    106  O   UNL     1     -25.807   1.358   2.878  1.00  0.00    -0.744 OA
ENDBRANCH 102 103
ENDBRANCH  70  95
ENDBRANCH  44  45
ENDBRANCH  36  39
ENDBRANCH  34  35
ENDBRANCH  33  34
ENDBRANCH   1  33
TORSDOF 20
