REMARK SMILES Cc1ccc(-c2cc(Cl)ccc2Cl)c(C(=O)NCCCCNC(=O)c2ccc(-c3c4nc(c(-c5c(F)cc(S(=O)(=O)[O-])cc5F)c5ccc([nH]5)c(-c5c(F)cc(S(=O)(=O)[O-])cc5F)c5nc(c(-c6c(F)cc(S(=O)(=O)[O-])cc6F)c6ccc3[nH]6)C=C5)C=C4)cc2)c1
REMARK SMILES IDX 20 1 19 2 18 3 17 4 15 5 16 6 14 8 1 9 2 10 3 11 91 12 4 13
REMARK SMILES IDX 5 14 6 15 7 16 12 17 8 18 11 19 13 20 9 21 10 22 21 23 22 24
REMARK SMILES IDX 23 25 24 27 25 28 26 29 90 30 27 31 89 32 28 33 29 34 30 35
REMARK SMILES IDX 83 36 31 37 88 38 82 39 84 40 32 41 87 42 81 43 80 44 33 46
REMARK SMILES IDX 67 47 46 48 66 49 47 50 50 51 65 52 85 53 48 54 49 55 64 57
REMARK SMILES IDX 86 58 51 59 34 60 35 61 44 62 36 63 37 64 43 65 45 66 38 67
REMARK SMILES IDX 39 68 40 69 41 70 42 71 68 72 69 73 78 74 70 75 71 76 77 77
REMARK SMILES IDX 79 78 72 79 73 80 74 81 75 82 76 83 52 84 53 85 62 86 54 87
REMARK SMILES IDX 55 88 61 89 63 90 56 91 57 92 58 93 59 94 60 95
REMARK H PARENT 17 7 22 26 84 45 50 56
REMARK Flexibility Score: inf
ROOT
ATOM      1  C   UNL     1       0.634   5.481  -1.907  1.00  0.00     0.023 C 
ENDROOT
BRANCH   1   2
ATOM      2  C   UNL     1       1.214   4.311  -1.100  1.00  0.00     0.023 C 
BRANCH   2   3
ATOM      3  C   UNL     1       0.498   4.029   0.232  1.00  0.00     0.116 C 
BRANCH   3   4
ATOM      4  N   UNL     1      -0.892   3.636   0.046  1.00  0.00    -0.352 N 
ATOM      5  C   UNL     1      -1.589   2.461  -0.080  1.00  0.00     0.251 C 
ATOM      6  O   UNL     1      -2.810   2.613  -0.160  1.00  0.00    -0.269 OA
ATOM      7  H   UNL     1      -1.488   4.419  -0.001  1.00  0.00     0.163 HD
BRANCH   5   8
ATOM      8  C   UNL     1      -0.990   1.073  -0.122  1.00  0.00     0.047 A 
ATOM      9  C   UNL     1       2.487  -0.533  -0.282  1.00  0.00     0.044 C 
ATOM     10  C   UNL     1       0.995  -0.390  -0.210  1.00  0.00    -0.050 A 
ATOM     11  C   UNL     1       0.186  -1.514  -0.121  1.00  0.00     0.004 A 
ATOM     12  C   UNL     1       0.397   0.880  -0.241  1.00  0.00     0.018 A 
ATOM     13  C   UNL     1      -1.196  -1.364  -0.065  1.00  0.00     0.010 A 
ATOM     14  C   UNL     1      -1.814  -0.089  -0.059  1.00  0.00    -0.004 A 
BRANCH  14  15
ATOM     15  C   UNL     1      -3.297  -0.086  -0.026  1.00  0.00     0.003 A 
ATOM     16  C   UNL     1      -4.010   0.255  -1.195  1.00  0.00     0.030 A 
ATOM     17  C   UNL     1      -4.045  -0.465   1.108  1.00  0.00     0.049 A 
ATOM     18  C   UNL     1      -5.405   0.256  -1.215  1.00  0.00     0.041 A 
ATOM     19  C   UNL     1      -5.446  -0.484   1.075  1.00  0.00     0.023 A 
ATOM     20  Cl  UNL     1      -3.288  -0.945   2.590  1.00  0.00    -0.084 Cl
ATOM     21  Cl  UNL     1      -6.242   0.714  -2.648  1.00  0.00    -0.084 Cl
ATOM     22  C   UNL     1      -6.127  -0.117  -0.085  1.00  0.00     0.022 A 
ENDBRANCH  14  15
ENDBRANCH   5   8
ENDBRANCH   3   4
ENDBRANCH   2   3
ENDBRANCH   1   2
BRANCH   1  23
ATOM     23  C   UNL     1       0.800   6.832  -1.220  1.00  0.00     0.116 C 
BRANCH  23  24
ATOM     24  N   UNL     1       1.815   7.692  -1.801  1.00  0.00    -0.352 N 
ATOM     25  C   UNL     1       2.160   8.971  -1.392  1.00  0.00     0.251 C 
ATOM     26  H   UNL     1       2.313   7.328  -2.568  1.00  0.00     0.163 HD
ATOM     27  O   UNL     1       2.791   9.733  -2.103  1.00  0.00    -0.269 OA
BRANCH  25  28
ATOM     28  C   UNL     1       1.849   9.330   0.012  1.00  0.00     0.039 A 
ATOM     29  C   UNL     1       2.937   9.460   0.883  1.00  0.00     0.014 A 
ATOM     30  C   UNL     1       0.546   9.250   0.499  1.00  0.00     0.014 A 
ATOM     31  C   UNL     1       2.738   9.320   2.254  1.00  0.00     0.010 A 
ATOM     32  C   UNL     1       0.360   9.042   1.855  1.00  0.00     0.010 A 
ATOM     33  C   UNL     1       1.462   9.018   2.726  1.00  0.00    -0.014 A 
BRANCH  33  34
ATOM     34  C   UNL     1       1.198   8.540   4.081  1.00  0.00     0.031 A 
ATOM     35  C   UNL     1       0.467   9.387   5.054  1.00  0.00     0.074 A 
ATOM     36  C   UNL     1       1.554   7.284   4.436  1.00  0.00     0.049 A 
ATOM     37  N   UNL     1       0.381   9.129   6.317  1.00  0.00    -0.248 NA
ATOM     38  C   UNL     1      -0.160  10.659   4.694  1.00  0.00     0.031 C 
ATOM     39  C   UNL     1       1.036   6.505   5.559  1.00  0.00     0.029 A 
ATOM     40  N   UNL     1       2.626   6.527   3.968  1.00  0.00    -0.354 N 
ATOM     41  C   UNL     1      -0.537   9.994   6.860  1.00  0.00     0.074 A 
ATOM     42  C   UNL     1      -0.732  11.005   5.854  1.00  0.00     0.031 C 
ATOM     43  C   UNL     1       1.892   5.513   5.840  1.00  0.00     0.029 A 
ATOM     44  C   UNL     1       3.073   5.710   5.019  1.00  0.00     0.049 A 
ATOM     45  H   UNL     1       3.003   6.559   3.059  1.00  0.00     0.167 HD
ATOM     46  C   UNL     1      -1.130   9.671   8.043  1.00  0.00     0.037 A 
ATOM     47  C   UNL     1       4.341   5.813   5.518  1.00  0.00     0.037 A 
ATOM     48  C   UNL     1      -0.382   8.621   8.735  1.00  0.00     0.049 A 
ATOM     49  C   UNL     1       4.417   6.229   6.970  1.00  0.00     0.074 A 
ATOM     50  C   UNL     1      -0.608   7.279   8.979  1.00  0.00     0.029 A 
ATOM     51  N   UNL     1       0.940   8.870   9.103  1.00  0.00    -0.354 N 
ATOM     52  N   UNL     1       3.405   6.683   7.657  1.00  0.00    -0.248 NA
ATOM     53  C   UNL     1       5.649   6.197   7.756  1.00  0.00     0.031 C 
ATOM     54  C   UNL     1       0.627   6.698   9.383  1.00  0.00     0.029 A 
ATOM     55  C   UNL     1       1.586   7.697   9.437  1.00  0.00     0.049 A 
ATOM     56  H   UNL     1       1.356   9.763   9.122  1.00  0.00     0.167 HD
ATOM     57  C   UNL     1       3.830   7.075   8.899  1.00  0.00     0.074 A 
ATOM     58  C   UNL     1       5.232   6.700   8.931  1.00  0.00     0.031 C 
ATOM     59  C   UNL     1       3.003   7.707   9.785  1.00  0.00     0.037 A 
BRANCH  46  60
ATOM     60  C   UNL     1      -2.495  10.167   8.495  1.00  0.00     0.058 A 
ATOM     61  C   UNL     1      -2.998   9.819   9.770  1.00  0.00     0.135 A 
ATOM     62  C   UNL     1      -3.419  10.854   7.674  1.00  0.00     0.135 A 
ATOM     63  F   UNL     1      -2.243   9.145  10.650  1.00  0.00    -0.206 F 
ATOM     64  C   UNL     1      -4.305  10.113  10.183  1.00  0.00     0.059 A 
ATOM     65  C   UNL     1      -4.707  11.203   8.084  1.00  0.00     0.059 A 
ATOM     66  F   UNL     1      -3.157  11.161   6.399  1.00  0.00    -0.206 F 
ATOM     67  C   UNL     1      -5.157  10.803   9.329  1.00  0.00     0.060 A 
BRANCH  67  68
ATOM     68  S   UNL     1      -6.855  11.146   9.827  1.00  0.00     0.124 S 
ATOM     69  O   UNL     1      -7.474   9.830   9.708  1.00  0.00    -0.237 OA
ATOM     70  O   UNL     1      -6.692  11.654  11.185  1.00  0.00    -0.237 OA
ATOM     71  O   UNL     1      -7.302  12.134   8.847  1.00  0.00    -0.744 OA
ENDBRANCH  67  68
ENDBRANCH  46  60
BRANCH  47  72
ATOM     72  C   UNL     1       5.357   6.122   4.476  1.00  0.00     0.058 A 
ATOM     73  C   UNL     1       5.647   5.109   3.544  1.00  0.00     0.135 A 
ATOM     74  C   UNL     1       5.647   7.446   4.115  1.00  0.00     0.135 A 
ATOM     75  F   UNL     1       5.412   3.824   3.854  1.00  0.00    -0.206 F 
ATOM     76  C   UNL     1       6.024   5.408   2.241  1.00  0.00     0.059 A 
ATOM     77  C   UNL     1       6.032   7.768   2.813  1.00  0.00     0.059 A 
ATOM     78  F   UNL     1       5.400   8.449   4.970  1.00  0.00    -0.206 F 
ATOM     79  C   UNL     1       6.134   6.746   1.868  1.00  0.00     0.060 A 
BRANCH  79  80
ATOM     80  S   UNL     1       6.192   7.117   0.099  1.00  0.00     0.124 S 
ATOM     81  O   UNL     1       7.341   6.334  -0.341  1.00  0.00    -0.237 OA
ATOM     82  O   UNL     1       4.886   6.623  -0.338  1.00  0.00    -0.237 OA
ATOM     83  O   UNL     1       6.362   8.564   0.068  1.00  0.00    -0.744 OA
ENDBRANCH  79  80
ENDBRANCH  47  72
BRANCH  59  84
ATOM     84  C   UNL     1       3.444   8.347  11.082  1.00  0.00     0.058 A 
ATOM     85  C   UNL     1       4.703   8.942  11.281  1.00  0.00     0.135 A 
ATOM     86  C   UNL     1       2.529   8.491  12.152  1.00  0.00     0.135 A 
ATOM     87  F   UNL     1       5.616   8.983  10.300  1.00  0.00    -0.206 F 
ATOM     88  C   UNL     1       5.062   9.560  12.481  1.00  0.00     0.059 A 
ATOM     89  C   UNL     1       2.847   9.152  13.338  1.00  0.00     0.059 A 
ATOM     90  F   UNL     1       1.285   7.995  12.074  1.00  0.00    -0.206 F 
ATOM     91  C   UNL     1       4.129   9.657  13.508  1.00  0.00     0.060 A 
BRANCH  91  92
ATOM     92  S   UNL     1       4.558  10.494  15.047  1.00  0.00     0.124 S 
ATOM     93  O   UNL     1       4.943   9.368  15.893  1.00  0.00    -0.237 OA
ATOM     94  O   UNL     1       5.647  11.381  14.648  1.00  0.00    -0.237 OA
ATOM     95  O   UNL     1       3.315  11.166  15.412  1.00  0.00    -0.744 OA
ENDBRANCH  91  92
ENDBRANCH  59  84
ENDBRANCH  33  34
ENDBRANCH  25  28
ENDBRANCH  23  24
ENDBRANCH   1  23
TORSDOF 15
