REMARK SMILES O=C(NCCCCNC(=O)[C@@H]1CN(C(=O)C[NH+]2CCOCC2)C[C@H]1c1ccc2c(c1)OCO2)c1ccc(-c2c3nc(c(-c4c(F)cc(S(=O)(=O)[O-])cc4F)c4ccc([nH]4)c(-c4c(F)cc(S(=O)(=O)[O-])cc4F)c4nc(c(-c5c(F)cc(S(=O)(=O)[O-])cc5F)c5ccc2[nH]5)C=C4)C=C3)cc1
REMARK SMILES IDX 5 1 4 2 3 3 1 4 2 5 34 7 35 8 99 9 36 10 98 11 37 12 38 13
REMARK SMILES IDX 39 14 92 15 40 16 97 17 91 18 93 19 41 20 96 21 90 22 89 23
REMARK SMILES IDX 42 25 76 26 55 27 75 28 56 29 59 30 74 31 94 32 57 33 58 34
REMARK SMILES IDX 73 36 95 37 60 38 43 39 44 40 53 41 45 42 46 43 52 44 54 45
REMARK SMILES IDX 47 46 48 47 49 48 50 49 51 50 77 51 78 52 87 53 79 54 80 55
REMARK SMILES IDX 86 56 88 57 81 58 82 59 83 60 84 61 85 62 61 63 62 64 71 65
REMARK SMILES IDX 63 66 64 67 70 68 72 69 65 70 66 71 67 72 68 73 69 74 6 75
REMARK SMILES IDX 7 76 8 77 9 78 10 80 11 81 12 82 24 83 13 84 23 85 25 86
REMARK SMILES IDX 26 87 30 88 27 89 29 90 28 91 31 92 33 93 32 94 14 95 15 96
REMARK SMILES IDX 16 97 17 98 18 99 22 100 19 102 21 103 20 104
REMARK H PARENT 3 6 93 24 59 35 8 79 17 101
REMARK Flexibility Score: inf
ROOT
ATOM      1  C   UNL     1       4.737  -2.563  -0.805  1.00  0.00     0.023 C 
ENDROOT
BRANCH   1   2
ATOM      2  C   UNL     1       4.470  -1.069  -0.677  1.00  0.00     0.116 C 
BRANCH   2   3
ATOM      3  N   UNL     1       3.062  -0.719  -0.811  1.00  0.00    -0.352 N 
ATOM      4  O   UNL     1       1.113   0.266  -0.233  1.00  0.00    -0.269 OA
ATOM      5  C   UNL     1       2.321   0.156  -0.051  1.00  0.00     0.251 C 
ATOM      6  H   UNL     1       2.578  -1.168  -1.541  1.00  0.00     0.163 HD
BRANCH   5   7
ATOM      7  C   UNL     1       2.997   0.924   1.014  1.00  0.00     0.039 A 
ATOM      8  C   UNL     1       4.192   1.594   0.744  1.00  0.00     0.014 A 
ATOM      9  C   UNL     1       2.468   0.909   2.307  1.00  0.00     0.014 A 
ATOM     10  C   UNL     1       4.943   2.100   1.797  1.00  0.00     0.010 A 
ATOM     11  C   UNL     1       3.184   1.500   3.351  1.00  0.00     0.010 A 
ATOM     12  C   UNL     1       4.450   2.058   3.112  1.00  0.00    -0.014 A 
BRANCH  12  13
ATOM     13  C   UNL     1       5.274   2.627   4.209  1.00  0.00     0.031 A 
ATOM     14  C   UNL     1       5.817   1.755   5.310  1.00  0.00     0.074 A 
ATOM     15  C   UNL     1       5.576   3.940   4.172  1.00  0.00     0.049 A 
ATOM     16  N   UNL     1       6.596   2.084   6.310  1.00  0.00    -0.248 NA
ATOM     17  C   UNL     1       5.431   0.336   5.297  1.00  0.00     0.031 C 
ATOM     18  C   UNL     1       5.096   4.885   3.160  1.00  0.00     0.029 A 
ATOM     19  N   UNL     1       6.378   4.701   4.981  1.00  0.00    -0.354 N 
ATOM     20  C   UNL     1       6.769   0.926   7.060  1.00  0.00     0.074 A 
ATOM     21  C   UNL     1       6.000  -0.113   6.408  1.00  0.00     0.031 C 
ATOM     22  C   UNL     1       5.662   6.081   3.372  1.00  0.00     0.029 A 
ATOM     23  C   UNL     1       6.496   6.005   4.565  1.00  0.00     0.049 A 
ATOM     24  H   UNL     1       6.827   4.347   5.783  1.00  0.00     0.167 HD
ATOM     25  C   UNL     1       7.505   0.747   8.184  1.00  0.00     0.037 A 
ATOM     26  C   UNL     1       7.194   7.030   5.087  1.00  0.00     0.037 A 
ATOM     27  C   UNL     1       8.294   1.779   8.807  1.00  0.00     0.049 A 
ATOM     28  C   UNL     1       8.014   6.800   6.322  1.00  0.00     0.074 A 
ATOM     29  C   UNL     1       9.110   1.685   9.922  1.00  0.00     0.029 A 
ATOM     30  N   UNL     1       8.369   3.093   8.369  1.00  0.00    -0.354 N 
ATOM     31  N   UNL     1       8.184   5.691   7.001  1.00  0.00    -0.248 NA
ATOM     32  C   UNL     1       8.732   7.959   6.865  1.00  0.00     0.031 C 
ATOM     33  C   UNL     1       9.649   2.951  10.179  1.00  0.00     0.029 A 
ATOM     34  C   UNL     1       9.203   3.824   9.200  1.00  0.00     0.049 A 
ATOM     35  H   UNL     1       7.899   3.454   7.583  1.00  0.00     0.167 HD
ATOM     36  C   UNL     1       9.042   6.015   8.044  1.00  0.00     0.074 A 
ATOM     37  C   UNL     1       9.369   7.419   7.895  1.00  0.00     0.031 C 
ATOM     38  C   UNL     1       9.516   5.222   9.036  1.00  0.00     0.037 A 
BRANCH  25  39
ATOM     39  C   UNL     1       7.477  -0.612   8.830  1.00  0.00     0.058 A 
ATOM     40  C   UNL     1       8.142  -1.714   8.271  1.00  0.00     0.135 A 
ATOM     41  C   UNL     1       6.804  -0.804  10.048  1.00  0.00     0.135 A 
ATOM     42  F   UNL     1       8.789  -1.591   7.101  1.00  0.00    -0.206 F 
ATOM     43  C   UNL     1       8.119  -2.965   8.882  1.00  0.00     0.059 A 
ATOM     44  C   UNL     1       6.786  -2.040  10.689  1.00  0.00     0.059 A 
ATOM     45  F   UNL     1       6.152   0.216  10.628  1.00  0.00    -0.206 F 
ATOM     46  C   UNL     1       7.434  -3.119  10.089  1.00  0.00     0.060 A 
BRANCH  46  47
ATOM     47  S   UNL     1       7.406  -4.748  10.868  1.00  0.00     0.124 S 
ATOM     48  O   UNL     1       6.446  -5.454  10.026  1.00  0.00    -0.237 OA
ATOM     49  O   UNL     1       8.794  -5.180  10.744  1.00  0.00    -0.237 OA
ATOM     50  O   UNL     1       6.960  -4.466  12.229  1.00  0.00    -0.744 OA
ENDBRANCH  46  47
ENDBRANCH  25  39
BRANCH  26  51
ATOM     51  C   UNL     1       7.152   8.359   4.426  1.00  0.00     0.058 A 
ATOM     52  C   UNL     1       8.268   8.857   3.738  1.00  0.00     0.135 A 
ATOM     53  C   UNL     1       5.985   9.139   4.435  1.00  0.00     0.135 A 
ATOM     54  F   UNL     1       9.406   8.147   3.703  1.00  0.00    -0.206 F 
ATOM     55  C   UNL     1       8.232  10.086   3.088  1.00  0.00     0.059 A 
ATOM     56  C   UNL     1       5.917  10.358   3.771  1.00  0.00     0.059 A 
ATOM     57  F   UNL     1       4.885   8.695   5.063  1.00  0.00    -0.206 F 
ATOM     58  C   UNL     1       7.050  10.828   3.108  1.00  0.00     0.060 A 
BRANCH  58  59
ATOM     59  S   UNL     1       6.990  12.393   2.210  1.00  0.00     0.124 S 
ATOM     60  O   UNL     1       7.718  13.276   3.113  1.00  0.00    -0.237 OA
ATOM     61  O   UNL     1       7.666  12.058   0.960  1.00  0.00    -0.237 OA
ATOM     62  O   UNL     1       5.559  12.652   2.088  1.00  0.00    -0.744 OA
ENDBRANCH  58  59
ENDBRANCH  26  51
BRANCH  38  63
ATOM     63  C   UNL     1      10.460   5.853  10.019  1.00  0.00     0.058 A 
ATOM     64  C   UNL     1      10.009   6.745  11.004  1.00  0.00     0.135 A 
ATOM     65  C   UNL     1      11.830   5.549   9.984  1.00  0.00     0.135 A 
ATOM     66  F   UNL     1       8.709   7.075  11.072  1.00  0.00    -0.206 F 
ATOM     67  C   UNL     1      10.889   7.340  11.902  1.00  0.00     0.059 A 
ATOM     68  C   UNL     1      12.725   6.113  10.887  1.00  0.00     0.059 A 
ATOM     69  F   UNL     1      12.310   4.694   9.066  1.00  0.00    -0.206 F 
ATOM     70  C   UNL     1      12.246   7.020  11.832  1.00  0.00     0.060 A 
BRANCH  70  71
ATOM     71  S   UNL     1      13.381   7.787  13.008  1.00  0.00     0.124 S 
ATOM     72  O   UNL     1      13.539   9.120  12.436  1.00  0.00    -0.237 OA
ATOM     73  O   UNL     1      12.633   7.719  14.260  1.00  0.00    -0.237 OA
ATOM     74  O   UNL     1      14.562   6.931  12.945  1.00  0.00    -0.744 OA
ENDBRANCH  70  71
ENDBRANCH  38  63
ENDBRANCH  12  13
ENDBRANCH   5   7
ENDBRANCH   2   3
ENDBRANCH   1   2
BRANCH   1  75
ATOM     75  C   UNL     1       4.232  -3.205  -2.096  1.00  0.00     0.023 C 
BRANCH  75  76
ATOM     76  C   UNL     1       4.628  -2.466  -3.368  1.00  0.00     0.116 C 
BRANCH  76  77
ATOM     77  N   UNL     1       6.067  -2.453  -3.562  1.00  0.00    -0.356 N 
ATOM     78  C   UNL     1       6.814  -2.971  -4.574  1.00  0.00     0.225 C 
ATOM     79  H   UNL     1       6.580  -2.002  -2.854  1.00  0.00     0.163 HD
ATOM     80  O   UNL     1       8.029  -2.776  -4.573  1.00  0.00    -0.275 OA
BRANCH  78  81
ATOM     81  C   UNL     1       6.144  -3.796  -5.645  1.00  0.00     0.107 C 
ATOM     82  C   UNL     1       6.593  -5.233  -5.456  1.00  0.00     0.133 C 
ATOM     83  C   UNL     1       6.577  -3.462  -7.088  1.00  0.00     0.053 C 
ATOM     84  N   UNL     1       6.383  -5.839  -6.754  1.00  0.00    -0.336 N 
ATOM     85  C   UNL     1       6.304  -4.815  -7.791  1.00  0.00     0.129 C 
BRANCH  83  86
ATOM     86  C   UNL     1       5.850  -2.228  -7.616  1.00  0.00    -0.038 A 
ATOM     87  C   UNL     1       6.003  -0.993  -6.928  1.00  0.00     0.008 A 
ATOM     88  C   UNL     1       5.005  -2.256  -8.737  1.00  0.00     0.054 A 
ATOM     89  C   UNL     1       5.274   0.149  -7.278  1.00  0.00     0.051 A 
ATOM     90  C   UNL     1       4.303  -1.111  -9.067  1.00  0.00     0.166 A 
ATOM     91  C   UNL     1       4.420   0.052  -8.348  1.00  0.00     0.165 A 
ATOM     92  O   UNL     1       3.421  -0.994 -10.097  1.00  0.00    -0.454 OA
ATOM     93  O   UNL     1       3.623   1.044  -8.823  1.00  0.00    -0.454 OA
ATOM     94  C   UNL     1       2.980   0.369  -9.922  1.00  0.00     0.468 C 
ENDBRANCH  83  86
BRANCH  84  95
ATOM     95  C   UNL     1       6.166  -7.174  -7.035  1.00  0.00     0.277 C 
ATOM     96  O   UNL     1       5.895  -7.544  -8.180  1.00  0.00    -0.268 OA
BRANCH  95  97
ATOM     97  C   UNL     1       6.270  -8.185  -5.885  1.00  0.00     0.363 C 
BRANCH  97  98
ATOM     98  N   UNL     1       7.544  -8.914  -5.771  1.00  0.00    -0.323 N 
ATOM     99  C   UNL     1       8.773  -8.109  -5.829  1.00  0.00     0.291 C 
ATOM    100  C   UNL     1       7.664 -10.089  -6.645  1.00  0.00     0.291 C 
ATOM    101  H   UNL     1       7.474  -9.243  -4.808  1.00  0.00     0.348 HD
ATOM    102  C   UNL     1       9.317  -7.867  -7.248  1.00  0.00     0.221 C 
ATOM    103  C   UNL     1       8.251  -9.812  -8.036  1.00  0.00     0.221 C 
ATOM    104  O   UNL     1       9.495  -9.104  -7.949  1.00  0.00    -0.370 OA
ENDBRANCH  97  98
ENDBRANCH  95  97
ENDBRANCH  84  95
ENDBRANCH  78  81
ENDBRANCH  76  77
ENDBRANCH  75  76
ENDBRANCH   1  75
TORSDOF 18
