REMARK SMILES Cc1c(C(=O)NCCCCNC(=O)c2ccc(-c3c4nc(c(-c5c(F)cc(S(=O)(=O)[O-])cc5F)c5ccc([nH]5)c(-c5c(F)cc(S(=O)(=O)[O-])cc5F)c5nc(c(-c6c(F)cc(S(=O)(=O)[O-])cc6F)c6ccc3[nH]6)C=C5)C=C4)cc2)oc2c1/C(=N/NC(=O)C(c1ccccc1)c1ccccc1)CCC2
REMARK SMILES IDX 8 1 7 2 6 3 4 4 5 5 3 7 1 8 2 9 82 10 80 11 81 12 83 13
REMARK SMILES IDX 103 14 84 15 101 16 102 17 85 18 86 19 87 21 88 22 89 23
REMARK SMILES IDX 90 24 94 25 91 26 93 27 92 28 95 29 96 30 100 31 97 32 99 33
REMARK SMILES IDX 98 34 9 35 10 36 11 37 12 38 13 40 14 41 15 42 79 43 16 44
REMARK SMILES IDX 78 45 17 46 18 47 19 48 72 49 20 50 77 51 71 52 73 53 21 54
REMARK SMILES IDX 76 55 70 56 69 57 22 59 56 60 35 61 55 62 36 63 39 64 54 65
REMARK SMILES IDX 74 66 37 67 38 68 53 70 75 71 40 72 23 73 24 74 33 75 25 76
REMARK SMILES IDX 26 77 32 78 34 79 27 80 28 81 29 82 30 83 31 84 57 85 58 86
REMARK SMILES IDX 67 87 59 88 60 89 66 90 68 91 61 92 62 93 63 94 64 95 65 96
REMARK SMILES IDX 41 97 42 98 51 99 43 100 44 101 50 102 52 103 45 104 46 105
REMARK SMILES IDX 47 106 48 107 49 108
REMARK H PARENT 6 6 85 20 11 39 73 58 39 69
REMARK Flexibility Score: inf
ROOT
ATOM      1  C   UNL     1      -0.222  -2.429  -6.125  1.00  0.00     0.023 C 
ENDROOT
BRANCH   1   2
ATOM      2  C   UNL     1      -1.234  -2.454  -4.969  1.00  0.00     0.116 C 
BRANCH   2   3
ATOM      3  N   UNL     1      -0.678  -3.041  -3.752  1.00  0.00    -0.349 N 
ATOM      4  C   UNL     1       0.020  -2.437  -2.719  1.00  0.00     0.287 C 
ATOM      5  O   UNL     1       0.340  -3.133  -1.756  1.00  0.00    -0.266 OA
ATOM      6  H   UNL     1      -0.821  -4.010  -3.652  1.00  0.00     0.163 HD
BRANCH   4   7
ATOM      7  C   UNL     1       0.297  -1.020  -2.803  1.00  0.00     0.195 A 
ATOM      8  C   UNL     1       0.914  -0.220  -0.410  1.00  0.00     0.049 C 
ATOM      9  C   UNL     1       0.634  -0.049  -1.860  1.00  0.00     0.010 A 
ATOM     10  C   UNL     1       0.508   1.195  -2.553  1.00  0.00     0.043 A 
ATOM     11  O   UNL     1       0.154  -0.433  -4.024  1.00  0.00    -0.455 OA
ATOM     12  C   UNL     1       0.153   0.882  -3.840  1.00  0.00     0.114 A 
ATOM     13  C   UNL     1       0.575   2.586  -2.139  1.00  0.00     0.072 C 
ATOM     14  C   UNL     1      -0.331   1.727  -4.943  1.00  0.00     0.076 C 
ATOM     15  N   UNL     1       1.248   2.730  -1.031  1.00  0.00    -0.177 NA
ATOM     16  C   UNL     1      -0.234   3.467  -3.120  1.00  0.00     0.059 C 
ATOM     17  C   UNL     1       0.017   3.164  -4.611  1.00  0.00     0.014 C 
BRANCH  15  18
ATOM     18  N   UNL     1       1.667   3.728  -0.189  1.00  0.00    -0.246 N 
ATOM     19  C   UNL     1       1.687   5.108  -0.209  1.00  0.00     0.252 C 
ATOM     20  H   UNL     1       2.052   3.368   0.643  1.00  0.00     0.193 HD
ATOM     21  O   UNL     1       2.244   5.715   0.713  1.00  0.00    -0.272 OA
BRANCH  19  22
ATOM     22  C   UNL     1       1.030   5.858  -1.353  1.00  0.00     0.140 C 
BRANCH  22  23
ATOM     23  C   UNL     1       1.901   5.599  -2.667  1.00  0.00    -0.031 A 
ATOM     24  C   UNL     1       2.892   4.571  -2.731  1.00  0.00     0.005 A 
ATOM     25  C   UNL     1       1.812   6.384  -3.824  1.00  0.00     0.005 A 
ATOM     26  C   UNL     1       3.604   4.223  -3.883  1.00  0.00     0.000 A 
ATOM     27  C   UNL     1       2.591   6.086  -4.974  1.00  0.00     0.000 A 
ATOM     28  C   UNL     1       3.452   4.987  -5.018  1.00  0.00     0.000 A 
ENDBRANCH  22  23
BRANCH  22  29
ATOM     29  C   UNL     1      -0.545   5.678  -1.180  1.00  0.00    -0.031 A 
ATOM     30  C   UNL     1      -1.488   6.537  -1.760  1.00  0.00     0.005 A 
ATOM     31  C   UNL     1      -1.110   4.637  -0.377  1.00  0.00     0.005 A 
ATOM     32  C   UNL     1      -2.879   6.303  -1.608  1.00  0.00     0.000 A 
ATOM     33  C   UNL     1      -2.476   4.359  -0.286  1.00  0.00     0.000 A 
ATOM     34  C   UNL     1      -3.371   5.198  -0.908  1.00  0.00     0.000 A 
ENDBRANCH  22  29
ENDBRANCH  19  22
ENDBRANCH  15  18
ENDBRANCH   4   7
ENDBRANCH   2   3
ENDBRANCH   1   2
BRANCH   1  35
ATOM     35  C   UNL     1      -0.004  -3.795  -6.786  1.00  0.00     0.023 C 
BRANCH  35  36
ATOM     36  C   UNL     1      -1.230  -4.334  -7.515  1.00  0.00     0.116 C 
BRANCH  36  37
ATOM     37  N   UNL     1      -1.595  -3.526  -8.676  1.00  0.00    -0.352 N 
ATOM     38  C   UNL     1      -2.765  -3.586  -9.416  1.00  0.00     0.251 C 
ATOM     39  H   UNL     1      -0.931  -2.860  -8.968  1.00  0.00     0.163 HD
ATOM     40  O   UNL     1      -2.807  -3.184 -10.560  1.00  0.00    -0.269 OA
BRANCH  38  41
ATOM     41  C   UNL     1      -3.966  -4.146  -8.765  1.00  0.00     0.039 A 
ATOM     42  C   UNL     1      -4.752  -5.105  -9.408  1.00  0.00     0.014 A 
ATOM     43  C   UNL     1      -4.258  -3.727  -7.469  1.00  0.00     0.014 A 
ATOM     44  C   UNL     1      -5.785  -5.715  -8.697  1.00  0.00     0.010 A 
ATOM     45  C   UNL     1      -5.199  -4.410  -6.735  1.00  0.00     0.010 A 
ATOM     46  C   UNL     1      -5.989  -5.384  -7.348  1.00  0.00    -0.014 A 
BRANCH  46  47
ATOM     47  C   UNL     1      -6.908  -6.172  -6.517  1.00  0.00     0.031 A 
ATOM     48  C   UNL     1      -6.604  -7.635  -6.480  1.00  0.00     0.074 A 
ATOM     49  C   UNL     1      -7.761  -5.597  -5.637  1.00  0.00     0.049 A 
ATOM     50  N   UNL     1      -7.356  -8.623  -6.840  1.00  0.00    -0.248 NA
ATOM     51  C   UNL     1      -5.237  -8.048  -6.106  1.00  0.00     0.031 C 
ATOM     52  C   UNL     1      -7.892  -4.159  -5.357  1.00  0.00     0.029 A 
ATOM     53  N   UNL     1      -8.584  -6.155  -4.700  1.00  0.00    -0.354 N 
ATOM     54  C   UNL     1      -6.655  -9.780  -6.491  1.00  0.00     0.074 A 
ATOM     55  C   UNL     1      -5.298  -9.373  -6.251  1.00  0.00     0.031 C 
ATOM     56  C   UNL     1      -8.515  -3.981  -4.173  1.00  0.00     0.029 A 
ATOM     57  C   UNL     1      -8.997  -5.267  -3.708  1.00  0.00     0.049 A 
ATOM     58  H   UNL     1      -8.861  -7.100  -4.724  1.00  0.00     0.167 HD
ATOM     59  C   UNL     1      -7.314 -10.915  -6.123  1.00  0.00     0.037 A 
ATOM     60  C   UNL     1      -9.683  -5.548  -2.573  1.00  0.00     0.037 A 
ATOM     61  C   UNL     1      -8.707 -10.834  -6.474  1.00  0.00     0.049 A 
ATOM     62  C   UNL     1     -10.371  -6.842  -2.779  1.00  0.00     0.074 A 
ATOM     63  C   UNL     1      -9.466 -10.937  -7.618  1.00  0.00     0.029 A 
ATOM     64  N   UNL     1      -9.479 -10.227  -5.520  1.00  0.00    -0.354 N 
ATOM     65  N   UNL     1     -11.311  -7.022  -3.665  1.00  0.00    -0.248 NA
ATOM     66  C   UNL     1      -9.794  -8.061  -2.223  1.00  0.00     0.031 C 
ATOM     67  C   UNL     1     -10.666 -10.208  -7.365  1.00  0.00     0.029 A 
ATOM     68  C   UNL     1     -10.625  -9.713  -6.064  1.00  0.00     0.049 A 
ATOM     69  H   UNL     1      -9.240 -10.168  -4.567  1.00  0.00     0.167 HD
ATOM     70  C   UNL     1     -11.139  -8.326  -4.082  1.00  0.00     0.074 A 
ATOM     71  C   UNL     1     -10.334  -8.961  -3.048  1.00  0.00     0.031 C 
ATOM     72  C   UNL     1     -11.367  -8.679  -5.378  1.00  0.00     0.037 A 
BRANCH  59  73
ATOM     73  C   UNL     1      -6.859 -11.874  -5.034  1.00  0.00     0.058 A 
ATOM     74  C   UNL     1      -7.571 -13.078  -4.830  1.00  0.00     0.135 A 
ATOM     75  C   UNL     1      -5.967 -11.521  -3.996  1.00  0.00     0.135 A 
ATOM     76  F   UNL     1      -8.457 -13.509  -5.742  1.00  0.00    -0.206 F 
ATOM     77  C   UNL     1      -7.453 -13.834  -3.660  1.00  0.00     0.059 A 
ATOM     78  C   UNL     1      -5.796 -12.287  -2.847  1.00  0.00     0.059 A 
ATOM     79  F   UNL     1      -5.293 -10.366  -3.994  1.00  0.00    -0.206 F 
ATOM     80  C   UNL     1      -6.570 -13.421  -2.667  1.00  0.00     0.060 A 
BRANCH  80  81
ATOM     81  S   UNL     1      -6.474 -14.338  -1.118  1.00  0.00     0.124 S 
ATOM     82  O   UNL     1      -7.762 -14.024  -0.512  1.00  0.00    -0.237 OA
ATOM     83  O   UNL     1      -6.303 -15.709  -1.588  1.00  0.00    -0.237 OA
ATOM     84  O   UNL     1      -5.306 -13.759  -0.460  1.00  0.00    -0.744 OA
ENDBRANCH  80  81
ENDBRANCH  59  73
BRANCH  60  85
ATOM     85  C   UNL     1      -9.629  -4.881  -1.247  1.00  0.00     0.058 A 
ATOM     86  C   UNL     1     -10.641  -5.080  -0.292  1.00  0.00     0.135 A 
ATOM     87  C   UNL     1      -8.445  -4.274  -0.784  1.00  0.00     0.135 A 
ATOM     88  F   UNL     1     -11.800  -5.657  -0.646  1.00  0.00    -0.206 F 
ATOM     89  C   UNL     1     -10.465  -4.763   1.058  1.00  0.00     0.059 A 
ATOM     90  C   UNL     1      -8.249  -3.940   0.556  1.00  0.00     0.059 A 
ATOM     91  F   UNL     1      -7.405  -4.074  -1.609  1.00  0.00    -0.206 F 
ATOM     92  C   UNL     1      -9.253  -4.217   1.478  1.00  0.00     0.060 A 
BRANCH  92  93
ATOM     93  S   UNL     1      -8.949  -3.999   3.248  1.00  0.00     0.124 S 
ATOM     94  O   UNL     1      -9.846  -2.897   3.574  1.00  0.00    -0.237 OA
ATOM     95  O   UNL     1      -9.319  -5.303   3.787  1.00  0.00    -0.237 OA
ATOM     96  O   UNL     1      -7.524  -3.683   3.309  1.00  0.00    -0.744 OA
ENDBRANCH  92  93
ENDBRANCH  60  85
BRANCH  72  97
ATOM     97  C   UNL     1     -12.328  -7.846  -6.170  1.00  0.00     0.058 A 
ATOM     98  C   UNL     1     -12.099  -6.526  -6.591  1.00  0.00     0.135 A 
ATOM     99  C   UNL     1     -13.517  -8.460  -6.590  1.00  0.00     0.135 A 
ATOM    100  F   UNL     1     -10.954  -5.896  -6.294  1.00  0.00    -0.206 F 
ATOM    101  C   UNL     1     -13.030  -5.837  -7.370  1.00  0.00     0.059 A 
ATOM    102  C   UNL     1     -14.444  -7.804  -7.390  1.00  0.00     0.059 A 
ATOM    103  F   UNL     1     -13.769  -9.737  -6.254  1.00  0.00    -0.206 F 
ATOM    104  C   UNL     1     -14.200  -6.487  -7.767  1.00  0.00     0.060 A 
BRANCH 104 105
ATOM    105  S   UNL     1     -15.372  -5.622  -8.833  1.00  0.00     0.124 S 
ATOM    106  O   UNL     1     -15.950  -4.640  -7.922  1.00  0.00    -0.237 OA
ATOM    107  O   UNL     1     -14.510  -5.085  -9.882  1.00  0.00    -0.237 OA
ATOM    108  O   UNL     1     -16.281  -6.680  -9.268  1.00  0.00    -0.744 OA
ENDBRANCH 104 105
ENDBRANCH  72  97
ENDBRANCH  46  47
ENDBRANCH  38  41
ENDBRANCH  36  37
ENDBRANCH  35  36
ENDBRANCH   1  35
TORSDOF 18
