REMARK SMILES O=C(CC1CCN(S(=O)(=O)c2cc[nH]c2)CC1)NCCCCNC(=O)c1ccc(-c2c3nc(c(-c4c(F)cc(S(=O)(=O)[O-])cc4F)c4ccc([nH]4)c(-c4c(F)cc(S(=O)(=O)[O-])cc4F)c4nc(c(-c5c(F)cc(S(=O)(=O)[O-])cc5F)c5ccc2[nH]5)C=C4)C=C3)cc1
REMARK SMILES IDX 20 1 19 2 18 3 1 4 2 5 3 7 4 8 5 9 17 10 6 11 16 12 7 13
REMARK SMILES IDX 8 14 9 15 10 16 11 17 12 18 15 19 13 20 14 21 21 23 22 24
REMARK SMILES IDX 23 25 24 26 25 28 26 29 27 30 91 31 28 32 90 33 29 34 30 35
REMARK SMILES IDX 31 36 84 37 32 38 89 39 83 40 85 41 33 42 88 43 82 44 81 45
REMARK SMILES IDX 34 47 68 48 47 49 67 50 48 51 51 52 66 53 86 54 49 55 50 56
REMARK SMILES IDX 65 58 87 59 52 60 35 61 36 62 45 63 37 64 38 65 44 66 46 67
REMARK SMILES IDX 39 68 40 69 41 70 42 71 43 72 69 73 70 74 79 75 71 76 72 77
REMARK SMILES IDX 78 78 80 79 73 80 74 81 75 82 76 83 77 84 53 85 54 86 63 87
REMARK SMILES IDX 55 88 56 89 62 90 64 91 57 92 58 93 59 94 60 95 61 96
REMARK H PARENT 18 6 14 22 23 27 85 46 51 57
REMARK Flexibility Score: inf
ROOT
ATOM      1  C   UNL     1       2.503   2.025   3.033  1.00  0.00     0.023 C 
ENDROOT
BRANCH   1   2
ATOM      2  C   UNL     1       2.116   1.813   1.569  1.00  0.00     0.116 C 
BRANCH   2   3
ATOM      3  N   UNL     1       2.878   0.751   0.939  1.00  0.00    -0.356 N 
ATOM      4  O   UNL     1       1.096  -0.346  -0.018  1.00  0.00    -0.275 OA
ATOM      5  C   UNL     1       2.304  -0.199   0.123  1.00  0.00     0.220 C 
ATOM      6  H   UNL     1       3.848   0.708   1.103  1.00  0.00     0.163 HD
BRANCH   5   7
ATOM      7  C   UNL     1       3.315  -1.071  -0.598  1.00  0.00     0.103 C 
BRANCH   7   8
ATOM      8  C   UNL     1       3.987  -0.508  -1.871  1.00  0.00     0.001 C 
ATOM      9  C   UNL     1       4.326   0.986  -1.889  1.00  0.00     0.021 C 
ATOM     10  C   UNL     1       3.228  -0.837  -3.159  1.00  0.00     0.021 C 
ATOM     11  C   UNL     1       3.139   1.907  -2.170  1.00  0.00     0.103 C 
ATOM     12  C   UNL     1       1.993   0.028  -3.357  1.00  0.00     0.103 C 
ATOM     13  N   UNL     1       2.324   1.474  -3.332  1.00  0.00    -0.198 NA
BRANCH  13  14
ATOM     14  S   UNL     1       0.949   2.491  -3.546  1.00  0.00     0.244 S 
ATOM     15  O   UNL     1      -0.123   1.989  -2.722  1.00  0.00    -0.207 OA
ATOM     16  O   UNL     1       1.375   3.878  -3.441  1.00  0.00    -0.207 OA
BRANCH  14  17
ATOM     17  C   UNL     1       0.354   2.332  -5.161  1.00  0.00     0.100 A 
ATOM     18  C   UNL     1      -0.348   1.212  -5.682  1.00  0.00     0.041 A 
ATOM     19  C   UNL     1       0.449   3.262  -6.176  1.00  0.00     0.104 A 
ATOM     20  C   UNL     1      -0.625   1.481  -7.005  1.00  0.00     0.083 A 
ATOM     21  N   UNL     1      -0.134   2.730  -7.295  1.00  0.00    -0.366 N 
ATOM     22  H   UNL     1      -0.192   3.175  -8.171  1.00  0.00     0.165 HD
ENDBRANCH  14  17
ENDBRANCH  13  14
ENDBRANCH   7   8
ENDBRANCH   5   7
ENDBRANCH   2   3
ENDBRANCH   1   2
BRANCH   1  23
ATOM     23  C   UNL     1       3.990   2.323   3.284  1.00  0.00     0.023 C 
BRANCH  23  24
ATOM     24  C   UNL     1       4.484   3.630   2.668  1.00  0.00     0.116 C 
BRANCH  24  25
ATOM     25  N   UNL     1       3.922   4.785   3.345  1.00  0.00    -0.352 N 
ATOM     26  C   UNL     1       4.264   6.109   3.212  1.00  0.00     0.251 C 
ATOM     27  H   UNL     1       3.199   4.595   3.986  1.00  0.00     0.163 HD
ATOM     28  O   UNL     1       3.935   6.908   4.084  1.00  0.00    -0.269 OA
BRANCH  26  29
ATOM     29  C   UNL     1       5.047   6.569   2.046  1.00  0.00     0.039 A 
ATOM     30  C   UNL     1       6.048   7.527   2.251  1.00  0.00     0.014 A 
ATOM     31  C   UNL     1       4.753   6.119   0.754  1.00  0.00     0.014 A 
ATOM     32  C   UNL     1       6.792   7.990   1.170  1.00  0.00     0.010 A 
ATOM     33  C   UNL     1       5.516   6.553  -0.322  1.00  0.00     0.010 A 
ATOM     34  C   UNL     1       6.536   7.487  -0.112  1.00  0.00    -0.014 A 
BRANCH  34  35
ATOM     35  C   UNL     1       7.393   7.911  -1.241  1.00  0.00     0.031 A 
ATOM     36  C   UNL     1       8.764   7.211  -1.225  1.00  0.00     0.074 A 
ATOM     37  C   UNL     1       6.851   8.837  -2.090  1.00  0.00     0.049 A 
ATOM     38  N   UNL     1       9.934   7.654  -1.573  1.00  0.00    -0.248 NA
ATOM     39  C   UNL     1       8.865   5.845  -0.641  1.00  0.00     0.031 C 
ATOM     40  C   UNL     1       5.494   9.408  -1.940  1.00  0.00     0.029 A 
ATOM     41  N   UNL     1       7.287   9.481  -3.232  1.00  0.00    -0.354 N 
ATOM     42  C   UNL     1      10.855   6.586  -1.446  1.00  0.00     0.074 A 
ATOM     43  C   UNL     1      10.165   5.548  -0.738  1.00  0.00     0.031 C 
ATOM     44  C   UNL     1       5.251  10.336  -2.887  1.00  0.00     0.029 A 
ATOM     45  C   UNL     1       6.402  10.464  -3.755  1.00  0.00     0.049 A 
ATOM     46  H   UNL     1       8.151   9.273  -3.655  1.00  0.00     0.167 HD
ATOM     47  C   UNL     1      12.077   6.563  -2.062  1.00  0.00     0.037 A 
ATOM     48  C   UNL     1       6.604  11.357  -4.777  1.00  0.00     0.037 A 
ATOM     49  C   UNL     1      12.208   7.704  -2.908  1.00  0.00     0.049 A 
ATOM     50  C   UNL     1       7.923  11.010  -5.338  1.00  0.00     0.074 A 
ATOM     51  C   UNL     1      12.407   9.036  -2.661  1.00  0.00     0.029 A 
ATOM     52  N   UNL     1      11.779   7.548  -4.206  1.00  0.00    -0.354 N 
ATOM     53  N   UNL     1       8.192   9.945  -6.034  1.00  0.00    -0.248 NA
ATOM     54  C   UNL     1       9.067  11.866  -4.994  1.00  0.00     0.031 C 
ATOM     55  C   UNL     1      11.635   9.672  -3.656  1.00  0.00     0.029 A 
ATOM     56  C   UNL     1      11.168   8.721  -4.573  1.00  0.00     0.049 A 
ATOM     57  H   UNL     1      11.890   6.745  -4.766  1.00  0.00     0.167 HD
ATOM     58  C   UNL     1       9.559   9.850  -5.921  1.00  0.00     0.074 A 
ATOM     59  C   UNL     1      10.042  11.166  -5.563  1.00  0.00     0.031 C 
ATOM     60  C   UNL     1      10.129   8.666  -5.582  1.00  0.00     0.037 A 
BRANCH  47  61
ATOM     61  C   UNL     1      13.132   5.499  -2.240  1.00  0.00     0.058 A 
ATOM     62  C   UNL     1      14.453   5.927  -2.538  1.00  0.00     0.135 A 
ATOM     63  C   UNL     1      12.855   4.147  -2.482  1.00  0.00     0.135 A 
ATOM     64  F   UNL     1      14.838   7.189  -2.282  1.00  0.00    -0.206 F 
ATOM     65  C   UNL     1      15.384   5.111  -3.173  1.00  0.00     0.059 A 
ATOM     66  C   UNL     1      13.792   3.296  -3.082  1.00  0.00     0.059 A 
ATOM     67  F   UNL     1      11.643   3.638  -2.222  1.00  0.00    -0.206 F 
ATOM     68  C   UNL     1      15.030   3.804  -3.478  1.00  0.00     0.060 A 
BRANCH  68  69
ATOM     69  S   UNL     1      16.193   2.805  -4.435  1.00  0.00     0.124 S 
ATOM     70  O   UNL     1      16.065   3.392  -5.764  1.00  0.00    -0.237 OA
ATOM     71  O   UNL     1      17.459   3.061  -3.752  1.00  0.00    -0.237 OA
ATOM     72  O   UNL     1      15.674   1.450  -4.285  1.00  0.00    -0.744 OA
ENDBRANCH  68  69
ENDBRANCH  47  61
BRANCH  48  73
ATOM     73  C   UNL     1       5.947  12.628  -5.294  1.00  0.00     0.058 A 
ATOM     74  C   UNL     1       4.719  13.163  -4.880  1.00  0.00     0.135 A 
ATOM     75  C   UNL     1       6.665  13.475  -6.188  1.00  0.00     0.135 A 
ATOM     76  F   UNL     1       3.836  12.431  -4.194  1.00  0.00    -0.206 F 
ATOM     77  C   UNL     1       4.336  14.489  -5.159  1.00  0.00     0.059 A 
ATOM     78  C   UNL     1       6.335  14.805  -6.440  1.00  0.00     0.059 A 
ATOM     79  F   UNL     1       7.757  13.049  -6.838  1.00  0.00    -0.206 F 
ATOM     80  C   UNL     1       5.182  15.322  -5.885  1.00  0.00     0.060 A 
BRANCH  80  81
ATOM     81  S   UNL     1       4.857  17.094  -6.009  1.00  0.00     0.124 S 
ATOM     82  O   UNL     1       3.973  17.161  -7.165  1.00  0.00    -0.237 OA
ATOM     83  O   UNL     1       4.244  17.394  -4.719  1.00  0.00    -0.237 OA
ATOM     84  O   UNL     1       6.191  17.661  -6.199  1.00  0.00    -0.744 OA
ENDBRANCH  80  81
ENDBRANCH  48  73
BRANCH  60  85
ATOM     85  C   UNL     1       9.346   7.429  -5.987  1.00  0.00     0.058 A 
ATOM     86  C   UNL     1       9.138   7.123  -7.340  1.00  0.00     0.135 A 
ATOM     87  C   UNL     1       8.739   6.557  -5.069  1.00  0.00     0.135 A 
ATOM     88  F   UNL     1       9.672   7.906  -8.291  1.00  0.00    -0.206 F 
ATOM     89  C   UNL     1       8.396   6.007  -7.750  1.00  0.00     0.059 A 
ATOM     90  C   UNL     1       8.003   5.431  -5.443  1.00  0.00     0.059 A 
ATOM     91  F   UNL     1       8.840   6.786  -3.764  1.00  0.00    -0.206 F 
ATOM     92  C   UNL     1       7.840   5.158  -6.793  1.00  0.00     0.060 A 
BRANCH  92  93
ATOM     93  S   UNL     1       6.938   3.685  -7.328  1.00  0.00     0.124 S 
ATOM     94  O   UNL     1       5.837   4.254  -8.100  1.00  0.00    -0.237 OA
ATOM     95  O   UNL     1       7.949   2.973  -8.102  1.00  0.00    -0.237 OA
ATOM     96  O   UNL     1       6.550   3.041  -6.075  1.00  0.00    -0.744 OA
ENDBRANCH  92  93
ENDBRANCH  60  85
ENDBRANCH  34  35
ENDBRANCH  26  29
ENDBRANCH  24  25
ENDBRANCH  23  24
ENDBRANCH   1  23
TORSDOF 17
