REMARK SMILES O=C(NCCCCNC(=O)c1ccccc1NS(=O)(=O)c1cccc([N+](=O)[O-])c1)c1ccc(-c2c3nc(c(-c4c(F)cc(S(=O)(=O)[O-])cc4F)c4ccc([nH]4)c(-c4c(F)cc(S(=O)(=O)[O-])cc4F)c4nc(c(-c5c(F)cc(S(=O)(=O)[O-])cc5F)c5ccc2[nH]5)C=C4)C=C3)cc1
REMARK SMILES IDX 6 1 5 2 4 3 3 4 1 5 2 6 30 8 31 9 95 10 32 11 94 12 33 13
REMARK SMILES IDX 34 14 35 15 88 16 36 17 93 18 87 19 89 20 37 21 92 22 86 23
REMARK SMILES IDX 85 24 38 26 72 27 51 28 71 29 52 30 55 31 70 32 90 33 53 34
REMARK SMILES IDX 54 35 69 37 91 38 56 39 39 40 40 41 49 42 41 43 42 44 48 45
REMARK SMILES IDX 50 46 43 47 44 48 45 49 46 50 47 51 73 52 74 53 83 54 75 55
REMARK SMILES IDX 76 56 82 57 84 58 77 59 78 60 79 61 80 62 81 63 57 64 58 65
REMARK SMILES IDX 67 66 59 67 60 68 66 69 68 70 61 71 62 72 63 73 64 74 65 75
REMARK SMILES IDX 7 76 8 77 9 78 10 80 11 81 12 82 16 83 13 84 15 85 14 86
REMARK SMILES IDX 17 87 18 89 19 90 20 91 21 92 22 93 29 94 23 95 25 96 24 97
REMARK SMILES IDX 26 98 27 99 28 100
REMARK H PARENT 3 7 89 25 55 36 8 79 17 88
REMARK Flexibility Score: inf
ROOT
ATOM      1  C   UNL     1       4.401  -3.532  -1.541  1.00  0.00     0.023 C 
ENDROOT
BRANCH   1   2
ATOM      2  C   UNL     1       4.837  -2.592  -0.420  1.00  0.00     0.023 C 
BRANCH   2   3
ATOM      3  C   UNL     1       4.529  -1.116  -0.644  1.00  0.00     0.116 C 
BRANCH   3   4
ATOM      4  N   UNL     1       3.104  -0.827  -0.740  1.00  0.00    -0.352 N 
ATOM      5  O   UNL     1       1.112   0.026  -0.083  1.00  0.00    -0.269 OA
ATOM      6  C   UNL     1       2.332  -0.001   0.049  1.00  0.00     0.251 C 
ATOM      7  H   UNL     1       2.626  -1.284  -1.469  1.00  0.00     0.163 HD
BRANCH   6   8
ATOM      8  C   UNL     1       2.989   0.825   1.085  1.00  0.00     0.039 A 
ATOM      9  C   UNL     1       4.147   1.539   0.778  1.00  0.00     0.014 A 
ATOM     10  C   UNL     1       2.485   0.831   2.388  1.00  0.00     0.014 A 
ATOM     11  C   UNL     1       4.913   2.073   1.805  1.00  0.00     0.010 A 
ATOM     12  C   UNL     1       3.200   1.477   3.402  1.00  0.00     0.010 A 
ATOM     13  C   UNL     1       4.450   2.055   3.131  1.00  0.00    -0.014 A 
BRANCH  13  14
ATOM     14  C   UNL     1       5.286   2.673   4.197  1.00  0.00     0.031 A 
ATOM     15  C   UNL     1       5.814   1.861   5.352  1.00  0.00     0.074 A 
ATOM     16  C   UNL     1       5.611   3.977   4.086  1.00  0.00     0.049 A 
ATOM     17  N   UNL     1       6.592   2.238   6.335  1.00  0.00    -0.248 NA
ATOM     18  C   UNL     1       5.412   0.447   5.422  1.00  0.00     0.031 C 
ATOM     19  C   UNL     1       5.154   4.870   3.017  1.00  0.00     0.029 A 
ATOM     20  N   UNL     1       6.419   4.773   4.856  1.00  0.00    -0.354 N 
ATOM     21  C   UNL     1       6.751   1.123   7.153  1.00  0.00     0.074 A 
ATOM     22  C   UNL     1       5.966   0.060   6.564  1.00  0.00     0.031 C 
ATOM     23  C   UNL     1       5.737   6.067   3.162  1.00  0.00     0.029 A 
ATOM     24  C   UNL     1       6.547   6.055   4.374  1.00  0.00     0.049 A 
ATOM     25  H   UNL     1       6.865   4.458   5.675  1.00  0.00     0.167 HD
ATOM     26  C   UNL     1       7.488   0.999   8.284  1.00  0.00     0.037 A 
ATOM     27  C   UNL     1       7.226   7.112   4.857  1.00  0.00     0.037 A 
ATOM     28  C   UNL     1       8.283   2.061   8.851  1.00  0.00     0.049 A 
ATOM     29  C   UNL     1       8.018   6.949   6.122  1.00  0.00     0.074 A 
ATOM     30  C   UNL     1       9.100   2.021   9.969  1.00  0.00     0.029 A 
ATOM     31  N   UNL     1       8.358   3.354   8.353  1.00  0.00    -0.354 N 
ATOM     32  N   UNL     1       8.183   5.877   6.860  1.00  0.00    -0.248 NA
ATOM     33  C   UNL     1       8.715   8.140   6.622  1.00  0.00     0.031 C 
ATOM     34  C   UNL     1       9.619   3.302  10.181  1.00  0.00     0.029 A 
ATOM     35  C   UNL     1       9.183   4.127   9.156  1.00  0.00     0.049 A 
ATOM     36  H   UNL     1       7.893   3.675   7.547  1.00  0.00     0.167 HD
ATOM     37  C   UNL     1       9.030   6.257   7.894  1.00  0.00     0.074 A 
ATOM     38  C   UNL     1       9.351   7.653   7.677  1.00  0.00     0.031 C 
ATOM     39  C   UNL     1       9.500   5.515   8.928  1.00  0.00     0.037 A 
BRANCH  26  40
ATOM     40  C   UNL     1       7.452  -0.323   9.009  1.00  0.00     0.058 A 
ATOM     41  C   UNL     1       8.050  -1.481   8.485  1.00  0.00     0.135 A 
ATOM     42  C   UNL     1       6.848  -0.421  10.275  1.00  0.00     0.135 A 
ATOM     43  F   UNL     1       8.633  -1.453   7.276  1.00  0.00    -0.206 F 
ATOM     44  C   UNL     1       8.024  -2.691   9.173  1.00  0.00     0.059 A 
ATOM     45  C   UNL     1       6.837  -1.613  10.994  1.00  0.00     0.059 A 
ATOM     46  F   UNL     1       6.264   0.653  10.829  1.00  0.00    -0.206 F 
ATOM     47  C   UNL     1       7.414  -2.748  10.428  1.00  0.00     0.060 A 
BRANCH  47  48
ATOM     48  S   UNL     1       7.386  -4.326  11.305  1.00  0.00     0.124 S 
ATOM     49  O   UNL     1       6.426  -5.084  10.509  1.00  0.00    -0.237 OA
ATOM     50  O   UNL     1       8.775  -4.762  11.206  1.00  0.00    -0.237 OA
ATOM     51  O   UNL     1       6.940  -3.963  12.646  1.00  0.00    -0.744 OA
ENDBRANCH  47  48
ENDBRANCH  26  40
BRANCH  27  52
ATOM     52  C   UNL     1       7.184   8.411   4.136  1.00  0.00     0.058 A 
ATOM     53  C   UNL     1       8.325   8.926   3.505  1.00  0.00     0.135 A 
ATOM     54  C   UNL     1       5.995   9.154   4.045  1.00  0.00     0.135 A 
ATOM     55  F   UNL     1       9.486   8.254   3.566  1.00  0.00    -0.206 F 
ATOM     56  C   UNL     1       8.298  10.140   2.827  1.00  0.00     0.059 A 
ATOM     57  C   UNL     1       5.934  10.354   3.344  1.00  0.00     0.059 A 
ATOM     58  F   UNL     1       4.870   8.696   4.614  1.00  0.00    -0.206 F 
ATOM     59  C   UNL     1       7.095  10.845   2.749  1.00  0.00     0.060 A 
BRANCH  59  60
ATOM     60  S   UNL     1       7.061  12.399   1.832  1.00  0.00     0.124 S 
ATOM     61  O   UNL     1       7.805  13.281   2.722  1.00  0.00    -0.237 OA
ATOM     62  O   UNL     1       7.730  12.033   0.587  1.00  0.00    -0.237 OA
ATOM     63  O   UNL     1       5.634  12.684   1.707  1.00  0.00    -0.744 OA
ENDBRANCH  59  60
ENDBRANCH  27  52
BRANCH  39  64
ATOM     64  C   UNL     1      10.457   6.187   9.876  1.00  0.00     0.058 A 
ATOM     65  C   UNL     1      10.044   7.192  10.766  1.00  0.00     0.135 A 
ATOM     66  C   UNL     1      11.808   5.802   9.907  1.00  0.00     0.135 A 
ATOM     67  F   UNL     1       8.766   7.604  10.774  1.00  0.00    -0.206 F 
ATOM     68  C   UNL     1      10.943   7.817  11.624  1.00  0.00     0.059 A 
ATOM     69  C   UNL     1      12.716   6.389  10.781  1.00  0.00     0.059 A 
ATOM     70  F   UNL     1      12.256   4.838   9.086  1.00  0.00    -0.206 F 
ATOM     71  C   UNL     1      12.278   7.409  11.623  1.00  0.00     0.060 A 
BRANCH  71  72
ATOM     72  S   UNL     1      13.432   8.219  12.750  1.00  0.00     0.124 S 
ATOM     73  O   UNL     1      13.598   9.522  12.113  1.00  0.00    -0.237 OA
ATOM     74  O   UNL     1      12.693   8.218  14.008  1.00  0.00    -0.237 OA
ATOM     75  O   UNL     1      14.605   7.351  12.718  1.00  0.00    -0.744 OA
ENDBRANCH  71  72
ENDBRANCH  39  64
ENDBRANCH  13  14
ENDBRANCH   6   8
ENDBRANCH   3   4
ENDBRANCH   2   3
ENDBRANCH   1   2
BRANCH   1  76
ATOM     76  C   UNL     1       4.838  -3.097  -2.932  1.00  0.00     0.116 C 
BRANCH  76  77
ATOM     77  N   UNL     1       6.271  -3.009  -3.087  1.00  0.00    -0.352 N 
ATOM     78  C   UNL     1       7.049  -3.473  -4.106  1.00  0.00     0.253 C 
ATOM     79  H   UNL     1       6.751  -2.552  -2.359  1.00  0.00     0.163 HD
ATOM     80  O   UNL     1       8.268  -3.333  -4.067  1.00  0.00    -0.269 OA
BRANCH  78  81
ATOM     81  C   UNL     1       6.457  -4.179  -5.255  1.00  0.00     0.063 A 
ATOM     82  C   UNL     1       6.793  -5.541  -5.351  1.00  0.00     0.016 A 
ATOM     83  C   UNL     1       5.809  -3.527  -6.318  1.00  0.00     0.062 A 
ATOM     84  C   UNL     1       6.509  -6.257  -6.511  1.00  0.00     0.001 A 
ATOM     85  C   UNL     1       5.645  -4.237  -7.515  1.00  0.00     0.027 A 
ATOM     86  C   UNL     1       5.962  -5.596  -7.605  1.00  0.00     0.002 A 
BRANCH  83  87
ATOM     87  N   UNL     1       5.365  -2.152  -6.290  1.00  0.00    -0.279 N 
ATOM     88  H   UNL     1       6.036  -1.431  -6.273  1.00  0.00     0.180 HD
BRANCH  87  89
ATOM     89  S   UNL     1       3.697  -1.744  -6.285  1.00  0.00     0.262 S 
ATOM     90  O   UNL     1       3.162  -1.979  -4.962  1.00  0.00    -0.201 OA
ATOM     91  O   UNL     1       3.612  -0.427  -6.875  1.00  0.00    -0.201 OA
BRANCH  89  92
ATOM     92  C   UNL     1       2.819  -2.870  -7.339  1.00  0.00     0.094 A 
ATOM     93  C   UNL     1       2.216  -2.401  -8.510  1.00  0.00     0.023 A 
ATOM     94  C   UNL     1       2.697  -4.212  -6.962  1.00  0.00     0.107 A 
ATOM     95  C   UNL     1       1.566  -3.297  -9.360  1.00  0.00     0.008 A 
ATOM     96  C   UNL     1       2.131  -5.112  -7.867  1.00  0.00     0.270 A 
ATOM     97  C   UNL     1       1.554  -4.662  -9.062  1.00  0.00     0.086 A 
BRANCH  96  98
ATOM     98  N   UNL     1       2.243  -6.551  -7.612  1.00  0.00     0.062 N 
ATOM     99  O   UNL     1       2.148  -7.312  -8.586  1.00  0.00    -0.258 OA
ATOM    100  O   UNL     1       2.466  -6.915  -6.450  1.00  0.00    -0.258 OA
ENDBRANCH  96  98
ENDBRANCH  89  92
ENDBRANCH  87  89
ENDBRANCH  83  87
ENDBRANCH  78  81
ENDBRANCH  76  77
ENDBRANCH   1  76
TORSDOF 18
