REMARK SMILES COc1c(N)cc(-c2ccccc2)cc1C(=O)NCCCCNC(=O)c1ccc(-c2c3nc(c(-c4c(F)cc(S(=O)(=O)[O-])cc4F)c4ccc([nH]4)c(-c4c(F)cc(S(=O)(=O)[O-])cc4F)c4nc(c(-c5c(F)cc(S(=O)(=O)[O-])cc5F)c5ccc2[nH]5)C=C4)C=C3)cc1
REMARK SMILES IDX 21 1 20 2 19 3 18 4 16 5 17 6 15 8 3 9 4 10 6 11 14 12 7 13
REMARK SMILES IDX 2 14 1 15 5 16 8 19 9 20 13 21 10 22 12 23 11 24 22 25 23 26
REMARK SMILES IDX 24 27 25 29 26 30 27 31 91 32 28 33 90 34 29 35 30 36 31 37
REMARK SMILES IDX 84 38 32 39 89 40 83 41 85 42 33 43 88 44 82 45 81 46 34 48
REMARK SMILES IDX 68 49 47 50 67 51 48 52 51 53 66 54 86 55 49 56 50 57 65 59
REMARK SMILES IDX 87 60 52 61 35 62 36 63 45 64 37 65 38 66 44 67 46 68 39 69
REMARK SMILES IDX 40 70 41 71 42 72 43 73 69 74 70 75 79 76 71 77 72 78 78 79
REMARK SMILES IDX 80 80 73 81 74 82 75 83 76 84 77 85 53 86 54 87 63 88 55 89
REMARK SMILES IDX 56 90 62 91 64 92 57 93 58 94 59 95 60 96 61 97
REMARK H PARENT 18 7 5 17 5 18 23 28 85 47 51 58
REMARK Flexibility Score: inf
ROOT
ATOM      1  C   UNL     1      -3.163   1.135  -0.631  1.00  0.00     0.023 C 
ENDROOT
BRANCH   1   2
ATOM      2  C   UNL     1      -2.139   0.005  -0.702  1.00  0.00     0.023 C 
BRANCH   2   3
ATOM      3  C   UNL     1      -1.131  -0.086   0.436  1.00  0.00     0.116 C 
BRANCH   3   4
ATOM      4  N   UNL     1      -1.653  -0.338   1.752  1.00  0.00    -0.352 N 
ATOM      5  C   UNL     1      -1.002  -0.858   2.850  1.00  0.00     0.255 C 
ATOM      6  O   UNL     1      -1.618  -0.877   3.918  1.00  0.00    -0.269 OA
ATOM      7  H   UNL     1      -2.601  -0.108   1.887  1.00  0.00     0.163 HD
BRANCH   5   8
ATOM      8  C   UNL     1       0.354  -1.498   2.803  1.00  0.00     0.084 A 
ATOM      9  C   UNL     1       1.510  -0.993   2.169  1.00  0.00     0.154 A 
ATOM     10  C   UNL     1       2.737  -1.685   2.303  1.00  0.00     0.076 A 
ATOM     11  C   UNL     1       2.772  -2.900   2.993  1.00  0.00     0.038 A 
ATOM     12  C   UNL     1       0.456  -2.688   3.568  1.00  0.00     0.026 A 
ATOM     13  C   UNL     1       1.661  -3.395   3.684  1.00  0.00    -0.015 A 
BRANCH   9  14
ATOM     14  O   UNL     1       1.476   0.233   1.541  1.00  0.00    -0.494 OA
ATOM     15  C   UNL     1       1.988   0.218   0.200  1.00  0.00     0.278 C 
ENDBRANCH   9  14
BRANCH  10  16
ATOM     16  N   UNL     1       3.934  -1.225   1.749  1.00  0.00    -0.396 N 
ATOM     17  H   UNL     1       3.953  -0.373   1.255  1.00  0.00     0.156 HD
ATOM     18  H   UNL     1       4.759  -1.752   1.853  1.00  0.00     0.156 HD
ENDBRANCH  10  16
BRANCH  13  19
ATOM     19  C   UNL     1       1.821  -4.582   4.544  1.00  0.00    -0.018 A 
ATOM     20  C   UNL     1       2.847  -4.615   5.510  1.00  0.00     0.009 A 
ATOM     21  C   UNL     1       1.018  -5.721   4.403  1.00  0.00     0.009 A 
ATOM     22  C   UNL     1       3.088  -5.755   6.278  1.00  0.00     0.001 A 
ATOM     23  C   UNL     1       1.258  -6.865   5.174  1.00  0.00     0.001 A 
ATOM     24  C   UNL     1       2.297  -6.885   6.103  1.00  0.00     0.000 A 
ENDBRANCH  13  19
ENDBRANCH   5   8
ENDBRANCH   3   4
ENDBRANCH   2   3
ENDBRANCH   1   2
BRANCH   1  25
ATOM     25  C   UNL     1      -2.655   2.512  -0.211  1.00  0.00     0.116 C 
BRANCH  25  26
ATOM     26  N   UNL     1      -1.631   3.073  -1.085  1.00  0.00    -0.352 N 
ATOM     27  C   UNL     1      -1.645   4.189  -1.892  1.00  0.00     0.251 C 
ATOM     28  H   UNL     1      -0.786   2.568  -1.101  1.00  0.00     0.163 HD
ATOM     29  O   UNL     1      -0.666   4.443  -2.590  1.00  0.00    -0.269 OA
BRANCH  27  30
ATOM     30  C   UNL     1      -2.846   5.053  -1.966  1.00  0.00     0.039 A 
ATOM     31  C   UNL     1      -3.316   5.450  -3.221  1.00  0.00     0.014 A 
ATOM     32  C   UNL     1      -3.528   5.447  -0.815  1.00  0.00     0.014 A 
ATOM     33  C   UNL     1      -4.531   6.135  -3.325  1.00  0.00     0.010 A 
ATOM     34  C   UNL     1      -4.784   6.038  -0.924  1.00  0.00     0.010 A 
ATOM     35  C   UNL     1      -5.308   6.377  -2.181  1.00  0.00    -0.014 A 
BRANCH  35  36
ATOM     36  C   UNL     1      -6.681   6.944  -2.273  1.00  0.00     0.031 A 
ATOM     37  C   UNL     1      -7.024   8.229  -1.570  1.00  0.00     0.074 A 
ATOM     38  C   UNL     1      -7.652   6.242  -2.893  1.00  0.00     0.049 A 
ATOM     39  N   UNL     1      -8.186   8.817  -1.440  1.00  0.00    -0.248 NA
ATOM     40  C   UNL     1      -5.921   8.923  -0.887  1.00  0.00     0.031 C 
ATOM     41  C   UNL     1      -7.474   4.941  -3.541  1.00  0.00     0.029 A 
ATOM     42  N   UNL     1      -8.989   6.512  -3.059  1.00  0.00    -0.354 N 
ATOM     43  C   UNL     1      -7.961   9.927  -0.633  1.00  0.00     0.074 A 
ATOM     44  C   UNL     1      -6.562   9.900  -0.264  1.00  0.00     0.031 C 
ATOM     45  C   UNL     1      -8.651   4.532  -4.042  1.00  0.00     0.029 A 
ATOM     46  C   UNL     1      -9.675   5.522  -3.722  1.00  0.00     0.049 A 
ATOM     47  H   UNL     1      -9.416   7.337  -2.732  1.00  0.00     0.167 HD
ATOM     48  C   UNL     1      -8.833  10.891  -0.252  1.00  0.00     0.037 A 
ATOM     49  C   UNL     1     -10.982   5.412  -4.031  1.00  0.00     0.037 A 
ATOM     50  C   UNL     1     -10.214  10.934  -0.654  1.00  0.00     0.049 A 
ATOM     51  C   UNL     1     -11.922   6.521  -3.653  1.00  0.00     0.074 A 
ATOM     52  C   UNL     1     -11.154  11.919  -0.403  1.00  0.00     0.029 A 
ATOM     53  N   UNL     1     -10.856   9.947  -1.389  1.00  0.00    -0.354 N 
ATOM     54  N   UNL     1     -11.673   7.613  -2.970  1.00  0.00    -0.248 NA
ATOM     55  C   UNL     1     -13.317   6.392  -4.096  1.00  0.00     0.031 C 
ATOM     56  C   UNL     1     -12.374  11.509  -0.955  1.00  0.00     0.029 A 
ATOM     57  C   UNL     1     -12.184  10.289  -1.585  1.00  0.00     0.049 A 
ATOM     58  H   UNL     1     -10.430   9.125  -1.721  1.00  0.00     0.167 HD
ATOM     59  C   UNL     1     -12.875   8.309  -2.913  1.00  0.00     0.074 A 
ATOM     60  C   UNL     1     -13.847   7.522  -3.644  1.00  0.00     0.031 C 
ATOM     61  C   UNL     1     -13.145   9.494  -2.311  1.00  0.00     0.037 A 
BRANCH  48  62
ATOM     62  C   UNL     1      -8.306  11.976   0.649  1.00  0.00     0.058 A 
ATOM     63  C   UNL     1      -7.378  12.928   0.195  1.00  0.00     0.135 A 
ATOM     64  C   UNL     1      -8.720  12.055   1.988  1.00  0.00     0.135 A 
ATOM     65  F   UNL     1      -6.940  12.893  -1.073  1.00  0.00    -0.206 F 
ATOM     66  C   UNL     1      -6.836  13.881   1.050  1.00  0.00     0.059 A 
ATOM     67  C   UNL     1      -8.214  13.020   2.854  1.00  0.00     0.059 A 
ATOM     68  F   UNL     1      -9.611  11.176   2.474  1.00  0.00    -0.206 F 
ATOM     69  C   UNL     1      -7.252  13.912   2.382  1.00  0.00     0.060 A 
BRANCH  69  70
ATOM     70  S   UNL     1      -6.507  15.124   3.493  1.00  0.00     0.124 S 
ATOM     71  O   UNL     1      -5.204  14.518   3.750  1.00  0.00    -0.237 OA
ATOM     72  O   UNL     1      -6.492  16.333   2.675  1.00  0.00    -0.237 OA
ATOM     73  O   UNL     1      -7.423  15.151   4.628  1.00  0.00    -0.744 OA
ENDBRANCH  69  70
ENDBRANCH  48  62
BRANCH  49  74
ATOM     74  C   UNL     1     -11.458   4.211  -4.766  1.00  0.00     0.058 A 
ATOM     75  C   UNL     1     -11.771   4.277  -6.131  1.00  0.00     0.135 A 
ATOM     76  C   UNL     1     -11.540   2.959  -4.135  1.00  0.00     0.135 A 
ATOM     77  F   UNL     1     -11.714   5.453  -6.775  1.00  0.00    -0.206 F 
ATOM     78  C   UNL     1     -12.142   3.145  -6.849  1.00  0.00     0.059 A 
ATOM     79  C   UNL     1     -11.889   1.809  -4.836  1.00  0.00     0.059 A 
ATOM     80  F   UNL     1     -11.233   2.841  -2.834  1.00  0.00    -0.206 F 
ATOM     81  C   UNL     1     -12.188   1.913  -6.194  1.00  0.00     0.060 A 
BRANCH  81  82
ATOM     82  S   UNL     1     -12.570   0.433  -7.159  1.00  0.00     0.124 S 
ATOM     83  O   UNL     1     -14.006   0.580  -7.367  1.00  0.00    -0.237 OA
ATOM     84  O   UNL     1     -11.732   0.613  -8.341  1.00  0.00    -0.237 OA
ATOM     85  O   UNL     1     -12.167  -0.656  -6.275  1.00  0.00    -0.744 OA
ENDBRANCH  81  82
ENDBRANCH  49  74
BRANCH  61  86
ATOM     86  C   UNL     1     -14.546  10.026  -2.428  1.00  0.00     0.058 A 
ATOM     87  C   UNL     1     -15.607   9.473  -1.695  1.00  0.00     0.135 A 
ATOM     88  C   UNL     1     -14.819  11.139  -3.239  1.00  0.00     0.135 A 
ATOM     89  F   UNL     1     -15.400   8.403  -0.910  1.00  0.00    -0.206 F 
ATOM     90  C   UNL     1     -16.894   9.994  -1.774  1.00  0.00     0.059 A 
ATOM     91  C   UNL     1     -16.093  11.692  -3.315  1.00  0.00     0.059 A 
ATOM     92  F   UNL     1     -13.837  11.712  -3.954  1.00  0.00    -0.206 F 
ATOM     93  C   UNL     1     -17.127  11.106  -2.587  1.00  0.00     0.060 A 
BRANCH  93  94
ATOM     94  S   UNL     1     -18.793  11.799  -2.652  1.00  0.00     0.124 S 
ATOM     95  O   UNL     1     -19.481  10.829  -3.498  1.00  0.00    -0.237 OA
ATOM     96  O   UNL     1     -19.186  11.806  -1.246  1.00  0.00    -0.237 OA
ATOM     97  O   UNL     1     -18.589  13.117  -3.246  1.00  0.00    -0.744 OA
ENDBRANCH  93  94
ENDBRANCH  61  86
ENDBRANCH  35  36
ENDBRANCH  27  30
ENDBRANCH  25  26
ENDBRANCH   1  25
TORSDOF 17
