REMARK SMILES O=C1C[C@H](C(=O)NCCCCNC(=O)c2ccc(-c3c4nc(c(-c5c(F)cc(S(=O)(=O)[O-])cc5F)c5ccc([nH]5)c(-c5c(F)cc(S(=O)(=O)[O-])cc5F)c5nc(c(-c6c(F)cc(S(=O)(=O)[O-])cc6F)c6ccc3[nH]6)C=C5)C=C4)cc2)c2c(nc(Nc3ccc(Oc4ccccc4)cc3)[nH]c2=O)N1
REMARK SMILES IDX 9 1 8 2 7 3 5 4 6 5 4 7 1 8 2 9 3 10 102 11 82 12 81 14
REMARK SMILES IDX 83 15 100 16 84 17 99 18 101 19 85 21 86 23 87 24 98 25
REMARK SMILES IDX 88 26 97 27 89 28 90 29 91 30 92 31 96 32 93 33 95 34 94 35
REMARK SMILES IDX 10 36 11 37 12 38 13 39 14 41 15 42 16 43 80 44 17 45 79 46
REMARK SMILES IDX 18 47 19 48 20 49 73 50 21 51 78 52 72 53 74 54 22 55 77 56
REMARK SMILES IDX 71 57 70 58 23 60 57 61 36 62 56 63 37 64 40 65 55 66 75 67
REMARK SMILES IDX 38 68 39 69 54 71 76 72 41 73 24 74 25 75 34 76 26 77 27 78
REMARK SMILES IDX 33 79 35 80 28 81 29 82 30 83 31 84 32 85 58 86 59 87 68 88
REMARK SMILES IDX 60 89 61 90 67 91 69 92 62 93 63 94 64 95 65 96 66 97 42 98
REMARK SMILES IDX 43 99 52 100 44 101 45 102 51 103 53 104 46 105 47 106
REMARK SMILES IDX 48 107 49 108 50 109
REMARK H PARENT 7 6 102 13 99 20 85 22 12 40 74 59 40 70
REMARK Flexibility Score: inf
ROOT
ATOM      1  C   UNL     1       6.062  -1.161   2.355  1.00  0.00     0.023 C 
ENDROOT
BRANCH   1   2
ATOM      2  C   UNL     1       6.102  -0.949   0.845  1.00  0.00     0.116 C 
BRANCH   2   3
ATOM      3  N   UNL     1       5.869  -2.186   0.124  1.00  0.00    -0.356 N 
ATOM      4  C   UNL     1       4.883  -2.540  -0.748  1.00  0.00     0.228 C 
ATOM      5  O   UNL     1       4.840  -3.714  -1.123  1.00  0.00    -0.274 OA
ATOM      6  H   UNL     1       6.537  -2.890   0.293  1.00  0.00     0.163 HD
BRANCH   4   7
ATOM      7  C   UNL     1       3.821  -1.541  -1.211  1.00  0.00     0.127 C 
ATOM      8  O   UNL     1       1.449   0.494   0.786  1.00  0.00    -0.275 OA
ATOM      9  C   UNL     1       2.391   0.179   0.062  1.00  0.00     0.226 C 
ATOM     10  C   UNL     1       2.857  -1.253  -0.053  1.00  0.00     0.119 C 
ATOM     11  N   UNL     1       3.099   1.126  -0.612  1.00  0.00    -0.310 N 
ATOM     12  C   UNL     1       4.101   0.909  -1.502  1.00  0.00     0.146 A 
ATOM     13  H   UNL     1       2.861   2.065  -0.435  1.00  0.00     0.171 HD
ATOM     14  C   UNL     1       4.448  -0.335  -1.836  1.00  0.00     0.073 A 
ATOM     15  N   UNL     1       4.666   2.042  -1.984  1.00  0.00    -0.196 NA
ATOM     16  C   UNL     1       5.500  -0.457  -2.861  1.00  0.00     0.258 A 
ATOM     17  C   UNL     1       5.622   1.941  -2.856  1.00  0.00     0.209 A 
ATOM     18  N   UNL     1       6.045   0.717  -3.292  1.00  0.00    -0.292 N 
ATOM     19  O   UNL     1       5.862  -1.534  -3.317  1.00  0.00    -0.269 OA
ATOM     20  H   UNL     1       6.778   0.680  -3.948  1.00  0.00     0.173 HD
BRANCH  17  21
ATOM     21  N   UNL     1       6.238   3.032  -3.414  1.00  0.00    -0.326 N 
ATOM     22  H   UNL     1       6.849   2.892  -4.173  1.00  0.00     0.170 HD
BRANCH  21  23
ATOM     23  C   UNL     1       6.034   4.340  -2.945  1.00  0.00     0.041 A 
ATOM     24  C   UNL     1       5.494   5.315  -3.788  1.00  0.00     0.030 A 
ATOM     25  C   UNL     1       6.230   4.649  -1.594  1.00  0.00     0.030 A 
ATOM     26  C   UNL     1       5.139   6.571  -3.282  1.00  0.00     0.049 A 
ATOM     27  C   UNL     1       5.890   5.904  -1.090  1.00  0.00     0.049 A 
ATOM     28  C   UNL     1       5.339   6.872  -1.933  1.00  0.00     0.127 A 
BRANCH  28  29
ATOM     29  O   UNL     1       4.924   8.126  -1.527  1.00  0.00    -0.457 OA
BRANCH  29  30
ATOM     30  C   UNL     1       5.299   8.524  -0.267  1.00  0.00     0.127 A 
ATOM     31  C   UNL     1       4.345   8.526   0.750  1.00  0.00     0.047 A 
ATOM     32  C   UNL     1       6.617   8.905  -0.013  1.00  0.00     0.047 A 
ATOM     33  C   UNL     1       4.732   8.850   2.050  1.00  0.00     0.004 A 
ATOM     34  C   UNL     1       7.001   9.222   1.288  1.00  0.00     0.004 A 
ATOM     35  C   UNL     1       6.061   9.185   2.320  1.00  0.00     0.000 A 
ENDBRANCH  29  30
ENDBRANCH  28  29
ENDBRANCH  21  23
ENDBRANCH  17  21
ENDBRANCH   4   7
ENDBRANCH   2   3
ENDBRANCH   1   2
BRANCH   1  36
ATOM     36  C   UNL     1       7.189  -2.037   2.898  1.00  0.00     0.023 C 
BRANCH  36  37
ATOM     37  C   UNL     1       8.591  -1.551   2.556  1.00  0.00     0.116 C 
BRANCH  37  38
ATOM     38  N   UNL     1       8.867  -0.223   3.087  1.00  0.00    -0.352 N 
ATOM     39  C   UNL     1       9.909   0.167   3.893  1.00  0.00     0.251 C 
ATOM     40  H   UNL     1       8.227   0.483   2.838  1.00  0.00     0.163 HD
ATOM     41  O   UNL     1       9.937   1.288   4.388  1.00  0.00    -0.269 OA
BRANCH  39  42
ATOM     42  C   UNL     1      10.981  -0.807   4.169  1.00  0.00     0.039 A 
ATOM     43  C   UNL     1      11.276  -1.138   5.492  1.00  0.00     0.014 A 
ATOM     44  C   UNL     1      11.626  -1.446   3.106  1.00  0.00     0.014 A 
ATOM     45  C   UNL     1      12.186  -2.163   5.750  1.00  0.00     0.010 A 
ATOM     46  C   UNL     1      12.481  -2.510   3.365  1.00  0.00     0.010 A 
ATOM     47  C   UNL     1      12.773  -2.872   4.689  1.00  0.00    -0.014 A 
BRANCH  47  48
ATOM     48  C   UNL     1      13.737  -3.968   4.943  1.00  0.00     0.031 A 
ATOM     49  C   UNL     1      15.181  -3.774   4.581  1.00  0.00     0.074 A 
ATOM     50  C   UNL     1      13.312  -5.136   5.462  1.00  0.00     0.049 A 
ATOM     51  N   UNL     1      16.180  -4.609   4.695  1.00  0.00    -0.248 NA
ATOM     52  C   UNL     1      15.548  -2.472   3.998  1.00  0.00     0.031 C 
ATOM     53  C   UNL     1      11.929  -5.444   5.832  1.00  0.00     0.029 A 
ATOM     54  N   UNL     1      14.002  -6.281   5.769  1.00  0.00    -0.354 N 
ATOM     55  C   UNL     1      17.292  -3.930   4.214  1.00  0.00     0.074 A 
ATOM     56  C   UNL     1      16.834  -2.646   3.735  1.00  0.00     0.031 C 
ATOM     57  C   UNL     1      11.879  -6.685   6.344  1.00  0.00     0.029 A 
ATOM     58  C   UNL     1      13.217  -7.272   6.309  1.00  0.00     0.049 A 
ATOM     59  H   UNL     1      14.969  -6.384   5.617  1.00  0.00     0.167 HD
ATOM     60  C   UNL     1      18.586  -4.328   4.207  1.00  0.00     0.037 A 
ATOM     61  C   UNL     1      13.543  -8.509   6.732  1.00  0.00     0.037 A 
ATOM     62  C   UNL     1      19.034  -5.609   4.683  1.00  0.00     0.049 A 
ATOM     63  C   UNL     1      14.979  -8.957   6.650  1.00  0.00     0.074 A 
ATOM     64  C   UNL     1      20.324  -6.105   4.730  1.00  0.00     0.029 A 
ATOM     65  N   UNL     1      18.205  -6.598   5.193  1.00  0.00    -0.354 N 
ATOM     66  N   UNL     1      16.027  -8.289   6.230  1.00  0.00    -0.248 NA
ATOM     67  C   UNL     1      15.277 -10.323   7.101  1.00  0.00     0.031 C 
ATOM     68  C   UNL     1      20.270  -7.411   5.225  1.00  0.00     0.029 A 
ATOM     69  C   UNL     1      18.953  -7.711   5.537  1.00  0.00     0.049 A 
ATOM     70  H   UNL     1      17.229  -6.520   5.295  1.00  0.00     0.167 HD
ATOM     71  C   UNL     1      17.114  -9.142   6.393  1.00  0.00     0.074 A 
ATOM     72  C   UNL     1      16.596 -10.372   6.958  1.00  0.00     0.031 C 
ATOM     73  C   UNL     1      18.421  -8.926   6.105  1.00  0.00     0.037 A 
BRANCH  60  74
ATOM     74  C   UNL     1      19.604  -3.356   3.681  1.00  0.00     0.058 A 
ATOM     75  C   UNL     1      19.927  -2.184   4.386  1.00  0.00     0.135 A 
ATOM     76  C   UNL     1      20.284  -3.605   2.478  1.00  0.00     0.135 A 
ATOM     77  F   UNL     1      19.293  -1.887   5.531  1.00  0.00    -0.206 F 
ATOM     78  C   UNL     1      20.866  -1.281   3.903  1.00  0.00     0.059 A 
ATOM     79  C   UNL     1      21.250  -2.729   1.991  1.00  0.00     0.059 A 
ATOM     80  F   UNL     1      20.011  -4.706   1.762  1.00  0.00    -0.206 F 
ATOM     81  C   UNL     1      21.524  -1.563   2.705  1.00  0.00     0.060 A 
BRANCH  81  82
ATOM     82  S   UNL     1      22.742  -0.377   2.098  1.00  0.00     0.124 S 
ATOM     83  O   UNL     1      21.892   0.749   1.724  1.00  0.00    -0.237 OA
ATOM     84  O   UNL     1      23.585  -0.172   3.271  1.00  0.00    -0.237 OA
ATOM     85  O   UNL     1      23.377  -1.079   0.987  1.00  0.00    -0.744 OA
ENDBRANCH  81  82
ENDBRANCH  60  74
BRANCH  61  86
ATOM     86  C   UNL     1      12.498  -9.393   7.316  1.00  0.00     0.058 A 
ATOM     87  C   UNL     1      12.494  -9.685   8.688  1.00  0.00     0.135 A 
ATOM     88  C   UNL     1      11.473  -9.941   6.529  1.00  0.00     0.135 A 
ATOM     89  F   UNL     1      13.458  -9.193   9.481  1.00  0.00    -0.206 F 
ATOM     90  C   UNL     1      11.515 -10.491   9.260  1.00  0.00     0.059 A 
ATOM     91  C   UNL     1      10.469 -10.731   7.082  1.00  0.00     0.059 A 
ATOM     92  F   UNL     1      11.425  -9.684   5.213  1.00  0.00    -0.206 F 
ATOM     93  C   UNL     1      10.501 -11.003   8.449  1.00  0.00     0.060 A 
BRANCH  93  94
ATOM     94  S   UNL     1       9.202 -11.995   9.219  1.00  0.00     0.124 S 
ATOM     95  O   UNL     1       9.935 -13.196   9.600  1.00  0.00    -0.237 OA
ATOM     96  O   UNL     1       8.773 -11.132  10.316  1.00  0.00    -0.237 OA
ATOM     97  O   UNL     1       8.227 -12.164   8.145  1.00  0.00    -0.744 OA
ENDBRANCH  93  94
ENDBRANCH  61  86
BRANCH  73  98
ATOM     98  C   UNL     1      19.398 -10.027   6.412  1.00  0.00     0.058 A 
ATOM     99  C   UNL     1      19.461 -11.194   5.634  1.00  0.00     0.135 A 
ATOM    100  C   UNL     1      20.343  -9.873   7.440  1.00  0.00     0.135 A 
ATOM    101  F   UNL     1      18.577 -11.393   4.643  1.00  0.00    -0.206 F 
ATOM    102  C   UNL     1      20.419 -12.174   5.872  1.00  0.00     0.059 A 
ATOM    103  C   UNL     1      21.329 -10.826   7.676  1.00  0.00     0.059 A 
ATOM    104  F   UNL     1      20.335  -8.771   8.207  1.00  0.00    -0.206 F 
ATOM    105  C   UNL     1      21.355 -11.977   6.889  1.00  0.00     0.060 A 
BRANCH 105 106
ATOM    106  S   UNL     1      22.625 -13.233   7.145  1.00  0.00     0.124 S 
ATOM    107  O   UNL     1      21.843 -14.339   7.687  1.00  0.00    -0.237 OA
ATOM    108  O   UNL     1      23.146 -13.425   5.795  1.00  0.00    -0.237 OA
ATOM    109  O   UNL     1      23.548 -12.600   8.083  1.00  0.00    -0.744 OA
ENDBRANCH 105 106
ENDBRANCH  73  98
ENDBRANCH  47  48
ENDBRANCH  39  42
ENDBRANCH  37  38
ENDBRANCH  36  37
ENDBRANCH   1  36
TORSDOF 18
