REMARK SMILES C[C@H]1CC[C@H]([NH2+]Cc2c(C(=O)NCCCCNC(=O)c3ccc(-c4c5nc(c(-c6c(F)cc(S(=O)(=O)[O-])cc6F)c6ccc([nH]6)c(-c6c(F)cc(S(=O)(=O)[O-])cc6F)c6nc(c(-c7c(F)cc(S(=O)(=O)[O-])cc7F)c7ccc4[nH]7)C=C6)C=C5)cc3)n(Cc3ccccc3F)c3ccccc23)CC1
REMARK SMILES IDX 14 1 13 2 12 3 10 4 11 5 9 7 8 8 100 9 86 10 95 11 99 12
REMARK SMILES IDX 96 13 98 14 97 15 7 16 6 17 5 20 1 21 2 22 3 23 102 24 4 25
REMARK SMILES IDX 101 26 87 27 88 28 89 29 93 30 90 31 92 32 94 33 91 34 15 35
REMARK SMILES IDX 16 36 17 37 18 38 19 40 20 41 21 42 85 43 22 44 84 45 23 46
REMARK SMILES IDX 24 47 25 48 78 49 26 50 83 51 77 52 79 53 27 54 82 55 76 56
REMARK SMILES IDX 75 57 28 59 62 60 41 61 61 62 42 63 45 64 60 65 80 66 43 67
REMARK SMILES IDX 44 68 59 70 81 71 46 72 29 73 30 74 39 75 31 76 32 77 38 78
REMARK SMILES IDX 40 79 33 80 34 81 35 82 36 83 37 84 63 85 64 86 73 87 65 88
REMARK SMILES IDX 66 89 72 90 74 91 67 92 68 93 69 94 70 95 71 96 47 97 48 98
REMARK SMILES IDX 57 99 49 100 50 101 56 102 58 103 51 104 52 105 53 106
REMARK SMILES IDX 54 107 55 108
REMARK H PARENT 12 6 6 18 6 19 17 39 79 58 45 69
REMARK Flexibility Score: inf
ROOT
ATOM      1  C   UNL     1      -4.500   1.649   2.160  1.00  0.00     0.023 C 
ENDROOT
BRANCH   1   2
ATOM      2  C   UNL     1      -3.842   0.358   1.687  1.00  0.00     0.116 C 
BRANCH   2   3
ATOM      3  N   UNL     1      -2.878  -0.290   2.532  1.00  0.00    -0.351 N 
ATOM      4  C   UNL     1      -2.255  -1.513   2.351  1.00  0.00     0.268 C 
ATOM      5  O   UNL     1      -1.333  -1.729   3.138  1.00  0.00    -0.268 OA
ATOM      6  H   UNL     1      -2.628   0.200   3.349  1.00  0.00     0.163 HD
BRANCH   4   7
ATOM      7  C   UNL     1      -2.677  -2.516   1.349  1.00  0.00     0.117 A 
ATOM      8  C   UNL     1      -3.327  -2.443   0.099  1.00  0.00     0.045 A 
ATOM      9  C   UNL     1      -3.856  -3.753  -0.141  1.00  0.00     0.009 A 
ATOM     10  N   UNL     1      -2.287  -3.882   1.419  1.00  0.00    -0.331 N 
ATOM     11  C   UNL     1      -3.000  -4.634   0.493  1.00  0.00     0.049 A 
ATOM     12  C   UNL     1      -4.866  -4.262  -0.986  1.00  0.00     0.011 A 
ATOM     13  C   UNL     1      -2.976  -5.995   0.136  1.00  0.00     0.027 A 
ATOM     14  C   UNL     1      -4.969  -5.638  -1.193  1.00  0.00     0.001 A 
ATOM     15  C   UNL     1      -4.002  -6.488  -0.676  1.00  0.00     0.002 A 
BRANCH   8  16
ATOM     16  C   UNL     1      -3.573  -1.383  -0.941  1.00  0.00     0.300 C 
BRANCH  16  17
ATOM     17  N   UNL     1      -2.655  -0.262  -1.004  1.00  0.00    -0.340 N 
ATOM     18  H   UNL     1      -3.055   0.382  -1.687  1.00  0.00     0.346 HD
ATOM     19  H   UNL     1      -2.590  -0.016  -0.016  1.00  0.00     0.346 HD
BRANCH  17  20
ATOM     20  C   UNL     1      -1.238  -0.368  -1.349  1.00  0.00     0.182 C 
ATOM     21  C   UNL     1       3.051  -0.043  -0.279  1.00  0.00     0.007 C 
ATOM     22  C   UNL     1       1.533  -0.140  -0.254  1.00  0.00    -0.014 C 
ATOM     23  C   UNL     1       1.040  -1.428  -0.921  1.00  0.00     0.009 C 
ATOM     24  C   UNL     1       0.887   1.059  -0.947  1.00  0.00     0.009 C 
ATOM     25  C   UNL     1      -0.470  -1.549  -0.757  1.00  0.00     0.065 C 
ATOM     26  C   UNL     1      -0.629   0.968  -0.862  1.00  0.00     0.065 C 
ENDBRANCH  17  20
ENDBRANCH  16  17
ENDBRANCH   8  16
BRANCH  10  27
ATOM     27  C   UNL     1      -1.211  -4.465   2.242  1.00  0.00     0.161 C 
BRANCH  27  28
ATOM     28  C   UNL     1      -1.678  -5.185   3.487  1.00  0.00     0.008 A 
ATOM     29  C   UNL     1      -2.462  -6.351   3.441  1.00  0.00     0.008 A 
ATOM     30  C   UNL     1      -1.276  -4.746   4.751  1.00  0.00     0.128 A 
ATOM     31  C   UNL     1      -2.873  -7.011   4.601  1.00  0.00     0.001 A 
ATOM     32  C   UNL     1      -1.692  -5.390   5.918  1.00  0.00     0.039 A 
ATOM     33  F   UNL     1      -0.432  -3.713   4.869  1.00  0.00    -0.207 F 
ATOM     34  C   UNL     1      -2.501  -6.520   5.845  1.00  0.00     0.003 A 
ENDBRANCH  27  28
ENDBRANCH  10  27
ENDBRANCH   4   7
ENDBRANCH   2   3
ENDBRANCH   1   2
BRANCH   1  35
ATOM     35  C   UNL     1      -3.718   2.953   1.908  1.00  0.00     0.023 C 
BRANCH  35  36
ATOM     36  C   UNL     1      -3.157   3.203   0.498  1.00  0.00     0.116 C 
BRANCH  36  37
ATOM     37  N   UNL     1      -4.093   3.332  -0.603  1.00  0.00    -0.352 N 
ATOM     38  C   UNL     1      -4.508   4.456  -1.279  1.00  0.00     0.251 C 
ATOM     39  H   UNL     1      -4.491   2.487  -0.914  1.00  0.00     0.163 HD
ATOM     40  O   UNL     1      -4.748   4.360  -2.483  1.00  0.00    -0.269 OA
BRANCH  38  41
ATOM     41  C   UNL     1      -4.871   5.696  -0.554  1.00  0.00     0.039 A 
ATOM     42  C   UNL     1      -4.340   6.049   0.682  1.00  0.00     0.014 A 
ATOM     43  C   UNL     1      -5.939   6.438  -1.089  1.00  0.00     0.014 A 
ATOM     44  C   UNL     1      -5.005   6.958   1.477  1.00  0.00     0.010 A 
ATOM     45  C   UNL     1      -6.576   7.397  -0.316  1.00  0.00     0.010 A 
ATOM     46  C   UNL     1      -6.153   7.587   0.995  1.00  0.00    -0.014 A 
BRANCH  46  47
ATOM     47  C   UNL     1      -6.796   8.530   1.896  1.00  0.00     0.031 A 
ATOM     48  C   UNL     1      -5.911   9.655   2.301  1.00  0.00     0.074 A 
ATOM     49  C   UNL     1      -8.082   8.417   2.276  1.00  0.00     0.049 A 
ATOM     50  N   UNL     1      -5.477   9.950   3.483  1.00  0.00    -0.248 NA
ATOM     51  C   UNL     1      -5.285  10.439   1.222  1.00  0.00     0.031 C 
ATOM     52  C   UNL     1      -9.102   7.504   1.757  1.00  0.00     0.029 A 
ATOM     53  N   UNL     1      -8.781   9.181   3.158  1.00  0.00    -0.354 N 
ATOM     54  C   UNL     1      -4.692  11.090   3.323  1.00  0.00     0.074 A 
ATOM     55  C   UNL     1      -4.465  11.232   1.910  1.00  0.00     0.031 C 
ATOM     56  C   UNL     1     -10.322   7.933   2.149  1.00  0.00     0.029 A 
ATOM     57  C   UNL     1     -10.160   9.066   3.043  1.00  0.00     0.049 A 
ATOM     58  H   UNL     1      -8.347   9.765   3.821  1.00  0.00     0.167 HD
ATOM     59  C   UNL     1      -4.480  11.959   4.349  1.00  0.00     0.037 A 
ATOM     60  C   UNL     1     -11.085   9.909   3.571  1.00  0.00     0.037 A 
ATOM     61  C   UNL     1      -4.724  11.333   5.621  1.00  0.00     0.049 A 
ATOM     62  C   UNL     1     -10.419  10.642   4.684  1.00  0.00     0.074 A 
ATOM     63  C   UNL     1      -4.165  10.262   6.292  1.00  0.00     0.029 A 
ATOM     64  N   UNL     1      -5.922  11.585   6.245  1.00  0.00    -0.354 N 
ATOM     65  N   UNL     1     -10.002  10.072   5.784  1.00  0.00    -0.248 NA
ATOM     66  C   UNL     1      -9.793  11.919   4.373  1.00  0.00     0.031 C 
ATOM     67  C   UNL     1      -5.256   9.633   6.956  1.00  0.00     0.029 A 
ATOM     68  C   UNL     1      -6.404  10.386   6.704  1.00  0.00     0.049 A 
ATOM     69  H   UNL     1      -6.354  12.464   6.345  1.00  0.00     0.167 HD
ATOM     70  C   UNL     1      -8.793  10.691   6.074  1.00  0.00     0.074 A 
ATOM     71  C   UNL     1      -8.756  11.872   5.214  1.00  0.00     0.031 C 
ATOM     72  C   UNL     1      -7.811  10.048   6.772  1.00  0.00     0.037 A 
BRANCH  59  73
ATOM     73  C   UNL     1      -4.408  13.460   4.177  1.00  0.00     0.058 A 
ATOM     74  C   UNL     1      -4.101  14.269   5.291  1.00  0.00     0.135 A 
ATOM     75  C   UNL     1      -4.904  14.149   3.047  1.00  0.00     0.135 A 
ATOM     76  F   UNL     1      -3.625  13.726   6.423  1.00  0.00    -0.206 F 
ATOM     77  C   UNL     1      -4.348  15.643   5.308  1.00  0.00     0.059 A 
ATOM     78  C   UNL     1      -5.106  15.523   3.025  1.00  0.00     0.059 A 
ATOM     79  F   UNL     1      -5.311  13.520   1.939  1.00  0.00    -0.206 F 
ATOM     80  C   UNL     1      -4.869  16.256   4.173  1.00  0.00     0.060 A 
BRANCH  80  81
ATOM     81  S   UNL     1      -5.300  18.003   4.227  1.00  0.00     0.124 S 
ATOM     82  O   UNL     1      -6.416  17.998   5.166  1.00  0.00    -0.237 OA
ATOM     83  O   UNL     1      -4.060  18.603   4.707  1.00  0.00    -0.237 OA
ATOM     84  O   UNL     1      -5.642  18.307   2.840  1.00  0.00    -0.744 OA
ENDBRANCH  80  81
ENDBRANCH  59  73
BRANCH  60  85
ATOM     85  C   UNL     1     -12.341  10.379   2.917  1.00  0.00     0.058 A 
ATOM     86  C   UNL     1     -13.320  11.098   3.628  1.00  0.00     0.135 A 
ATOM     87  C   UNL     1     -12.498  10.354   1.514  1.00  0.00     0.135 A 
ATOM     88  F   UNL     1     -13.238  11.208   4.963  1.00  0.00    -0.206 F 
ATOM     89  C   UNL     1     -14.369  11.772   2.986  1.00  0.00     0.059 A 
ATOM     90  C   UNL     1     -13.540  11.004   0.856  1.00  0.00     0.059 A 
ATOM     91  F   UNL     1     -11.589   9.768   0.722  1.00  0.00    -0.206 F 
ATOM     92  C   UNL     1     -14.461  11.731   1.595  1.00  0.00     0.060 A 
BRANCH  92  93
ATOM     93  S   UNL     1     -15.724  12.710   0.748  1.00  0.00     0.124 S 
ATOM     94  O   UNL     1     -16.956  12.067   1.193  1.00  0.00    -0.237 OA
ATOM     95  O   UNL     1     -15.477  14.049   1.272  1.00  0.00    -0.237 OA
ATOM     96  O   UNL     1     -15.404  12.529  -0.666  1.00  0.00    -0.744 OA
ENDBRANCH  92  93
ENDBRANCH  60  85
BRANCH  72  97
ATOM     97  C   UNL     1      -8.141   8.752   7.470  1.00  0.00     0.058 A 
ATOM     98  C   UNL     1      -8.479   7.561   6.804  1.00  0.00     0.135 A 
ATOM     99  C   UNL     1      -7.883   8.664   8.848  1.00  0.00     0.135 A 
ATOM    100  F   UNL     1      -8.649   7.539   5.475  1.00  0.00    -0.206 F 
ATOM    101  C   UNL     1      -8.565   6.341   7.478  1.00  0.00     0.059 A 
ATOM    102  C   UNL     1      -7.931   7.454   9.534  1.00  0.00     0.059 A 
ATOM    103  F   UNL     1      -7.498   9.756   9.530  1.00  0.00    -0.206 F 
ATOM    104  C   UNL     1      -8.274   6.295   8.842  1.00  0.00     0.060 A 
BRANCH 104 105
ATOM    105  S   UNL     1      -8.254   4.696   9.683  1.00  0.00     0.124 S 
ATOM    106  O   UNL     1      -9.668   4.335   9.691  1.00  0.00    -0.237 OA
ATOM    107  O   UNL     1      -7.399   3.893   8.812  1.00  0.00    -0.237 OA
ATOM    108  O   UNL     1      -7.682   5.004  10.991  1.00  0.00    -0.744 OA
ENDBRANCH 104 105
ENDBRANCH  72  97
ENDBRANCH  46  47
ENDBRANCH  38  41
ENDBRANCH  36  37
ENDBRANCH  35  36
ENDBRANCH   1  35
TORSDOF 19
