REMARK SMILES Nc1nccc(N2CCC[C@@](Cc3ccc(F)cc3F)(C(=O)NCCCCNC(=O)c3ccc(-c4c5nc(c(-c6c(F)cc(S(=O)(=O)[O-])cc6F)c6ccc([nH]6)c(-c6c(F)cc(S(=O)(=O)[O-])cc6F)c6nc(c(-c7c(F)cc(S(=O)(=O)[O-])cc7F)c7ccc4[nH]7)C=C6)C=C5)cc3)C2)n1
REMARK SMILES IDX 26 1 25 2 24 3 23 4 21 5 22 6 11 8 7 9 8 10 97 11 9 12 10 13
REMARK SMILES IDX 6 14 2 15 3 16 98 17 4 18 5 19 1 20 12 23 13 24 14 25 19 26
REMARK SMILES IDX 15 27 18 28 20 29 16 30 17 31 27 32 28 33 29 34 30 36 31 37
REMARK SMILES IDX 32 38 96 39 33 40 95 41 34 42 35 43 36 44 89 45 37 46 94 47
REMARK SMILES IDX 88 48 90 49 38 50 93 51 87 52 86 53 39 55 73 56 52 57 72 58
REMARK SMILES IDX 53 59 56 60 71 61 91 62 54 63 55 64 70 66 92 67 57 68 40 69
REMARK SMILES IDX 41 70 50 71 42 72 43 73 49 74 51 75 44 76 45 77 46 78 47 79
REMARK SMILES IDX 48 80 74 81 75 82 84 83 76 84 77 85 83 86 85 87 78 88 79 89
REMARK SMILES IDX 80 90 81 91 82 92 58 93 59 94 68 95 60 96 61 97 67 98 69 99
REMARK SMILES IDX 62 100 63 101 64 102 65 103 66 104
REMARK H PARENT 23 7 1 21 1 22 28 35 90 54 56 65
REMARK Flexibility Score: inf
ROOT
ATOM      1  C   UNL     1       5.481  -8.299  -3.752  1.00  0.00     0.023 C 
ENDROOT
BRANCH   1   2
ATOM      2  C   UNL     1       5.453  -7.295  -2.600  1.00  0.00     0.023 C 
BRANCH   2   3
ATOM      3  C   UNL     1       4.970  -5.901  -2.977  1.00  0.00     0.116 C 
BRANCH   3   4
ATOM      4  N   UNL     1       3.531  -5.791  -3.104  1.00  0.00    -0.356 N 
ATOM      5  C   UNL     1       2.641  -4.862  -2.656  1.00  0.00     0.228 C 
ATOM      6  O   UNL     1       1.509  -4.938  -3.149  1.00  0.00    -0.274 OA
ATOM      7  H   UNL     1       3.118  -6.526  -3.612  1.00  0.00     0.163 HD
BRANCH   5   8
ATOM      8  C   UNL     1       2.978  -3.765  -1.618  1.00  0.00     0.071 C 
ATOM      9  N   UNL     1       1.829  -2.264  -0.033  1.00  0.00    -0.355 N 
ATOM     10  C   UNL     1       2.355  -2.837   1.192  1.00  0.00     0.118 C 
ATOM     11  C   UNL     1       1.586  -3.205  -1.128  1.00  0.00     0.135 C 
ATOM     12  C   UNL     1       3.711  -3.445   0.869  1.00  0.00     0.023 C 
ATOM     13  C   UNL     1       3.671  -4.364  -0.359  1.00  0.00     0.021 C 
BRANCH   9  14
ATOM     14  C   UNL     1       1.059  -1.121   0.068  1.00  0.00     0.134 A 
ATOM     15  C   UNL     1      -0.958  -0.045   0.005  1.00  0.00     0.221 A 
ATOM     16  N   UNL     1      -0.425   1.160   0.227  1.00  0.00    -0.222 NA
ATOM     17  N   UNL     1      -0.269  -1.187  -0.102  1.00  0.00    -0.196 NA
ATOM     18  C   UNL     1       0.908   1.197   0.367  1.00  0.00     0.119 A 
ATOM     19  C   UNL     1       1.698   0.079   0.314  1.00  0.00     0.067 A 
BRANCH  15  20
ATOM     20  N   UNL     1      -2.315  -0.110  -0.115  1.00  0.00    -0.368 N 
ATOM     21  H   UNL     1      -2.855   0.709  -0.043  1.00  0.00     0.159 HD
ATOM     22  H   UNL     1      -2.754  -0.977  -0.274  1.00  0.00     0.159 HD
ENDBRANCH  15  20
ENDBRANCH   9  14
BRANCH   8  23
ATOM     23  C   UNL     1       3.694  -2.541  -2.276  1.00  0.00     0.057 C 
BRANCH  23  24
ATOM     24  C   UNL     1       5.023  -2.697  -2.970  1.00  0.00    -0.011 A 
ATOM     25  C   UNL     1       5.081  -2.874  -4.363  1.00  0.00     0.010 A 
ATOM     26  C   UNL     1       6.225  -2.635  -2.254  1.00  0.00     0.129 A 
ATOM     27  C   UNL     1       6.314  -3.027  -5.002  1.00  0.00     0.040 A 
ATOM     28  C   UNL     1       7.455  -2.791  -2.883  1.00  0.00     0.078 A 
ATOM     29  F   UNL     1       6.205  -2.441  -0.929  1.00  0.00    -0.207 F 
ATOM     30  C   UNL     1       7.486  -2.991  -4.255  1.00  0.00     0.126 A 
ATOM     31  F   UNL     1       8.664  -3.153  -4.868  1.00  0.00    -0.207 F 
ENDBRANCH  23  24
ENDBRANCH   8  23
ENDBRANCH   5   8
ENDBRANCH   3   4
ENDBRANCH   2   3
ENDBRANCH   1   2
BRANCH   1  32
ATOM     32  C   UNL     1       6.196  -7.845  -5.024  1.00  0.00     0.116 C 
BRANCH  32  33
ATOM     33  N   UNL     1       7.555  -7.363  -4.808  1.00  0.00    -0.352 N 
ATOM     34  C   UNL     1       8.643  -7.515  -5.639  1.00  0.00     0.251 C 
ATOM     35  H   UNL     1       7.713  -6.872  -3.969  1.00  0.00     0.163 HD
ATOM     36  O   UNL     1       9.753  -7.111  -5.308  1.00  0.00    -0.269 OA
BRANCH  34  37
ATOM     37  C   UNL     1       8.450  -8.223  -6.918  1.00  0.00     0.039 A 
ATOM     38  C   UNL     1       9.141  -9.417  -7.139  1.00  0.00     0.014 A 
ATOM     39  C   UNL     1       7.493  -7.768  -7.829  1.00  0.00     0.014 A 
ATOM     40  C   UNL     1       8.798 -10.214  -8.233  1.00  0.00     0.010 A 
ATOM     41  C   UNL     1       7.120  -8.588  -8.889  1.00  0.00     0.010 A 
ATOM     42  C   UNL     1       7.748  -9.830  -9.083  1.00  0.00    -0.014 A 
BRANCH  42  43
ATOM     43  C   UNL     1       7.244 -10.722 -10.156  1.00  0.00     0.031 A 
ATOM     44  C   UNL     1       7.368 -10.301 -11.592  1.00  0.00     0.074 A 
ATOM     45  C   UNL     1       6.567 -11.842  -9.829  1.00  0.00     0.049 A 
ATOM     46  N   UNL     1       6.815 -10.825 -12.653  1.00  0.00    -0.248 NA
ATOM     47  C   UNL     1       8.200  -9.118 -11.865  1.00  0.00     0.031 C 
ATOM     48  C   UNL     1       6.346 -12.333  -8.466  1.00  0.00     0.029 A 
ATOM     49  N   UNL     1       5.910 -12.755 -10.618  1.00  0.00    -0.354 N 
ATOM     50  C   UNL     1       7.198 -10.016 -13.715  1.00  0.00     0.074 A 
ATOM     51  C   UNL     1       8.021  -8.958 -13.170  1.00  0.00     0.031 C 
ATOM     52  C   UNL     1       5.600 -13.450  -8.515  1.00  0.00     0.029 A 
ATOM     53  C   UNL     1       5.255 -13.733  -9.905  1.00  0.00     0.049 A 
ATOM     54  H   UNL     1       5.907 -12.713 -11.602  1.00  0.00     0.167 HD
ATOM     55  C   UNL     1       6.895 -10.152 -15.027  1.00  0.00     0.037 A 
ATOM     56  C   UNL     1       4.447 -14.728 -10.320  1.00  0.00     0.037 A 
ATOM     57  C   UNL     1       6.122 -11.236 -15.569  1.00  0.00     0.049 A 
ATOM     58  C   UNL     1       4.159 -14.877 -11.790  1.00  0.00     0.074 A 
ATOM     59  C   UNL     1       5.820 -11.493 -16.895  1.00  0.00     0.029 A 
ATOM     60  N   UNL     1       5.540 -12.246 -14.820  1.00  0.00    -0.354 N 
ATOM     61  N   UNL     1       4.565 -14.126 -12.785  1.00  0.00    -0.248 NA
ATOM     62  C   UNL     1       3.304 -16.003 -12.196  1.00  0.00     0.031 C 
ATOM     63  C   UNL     1       5.036 -12.650 -16.946  1.00  0.00     0.029 A 
ATOM     64  C   UNL     1       4.876 -13.127 -15.655  1.00  0.00     0.049 A 
ATOM     65  H   UNL     1       5.592 -12.325 -13.840  1.00  0.00     0.167 HD
ATOM     66  C   UNL     1       4.035 -14.701 -13.934  1.00  0.00     0.074 A 
ATOM     67  C   UNL     1       3.283 -15.864 -13.515  1.00  0.00     0.031 C 
ATOM     68  C   UNL     1       4.160 -14.298 -15.221  1.00  0.00     0.037 A 
BRANCH  55  69
ATOM     69  C   UNL     1       7.407  -9.113 -15.980  1.00  0.00     0.058 A 
ATOM     70  C   UNL     1       6.529  -8.181 -16.555  1.00  0.00     0.135 A 
ATOM     71  C   UNL     1       8.748  -9.097 -16.391  1.00  0.00     0.135 A 
ATOM     72  F   UNL     1       5.238  -8.155 -16.188  1.00  0.00    -0.206 F 
ATOM     73  C   UNL     1       6.958  -7.276 -17.520  1.00  0.00     0.059 A 
ATOM     74  C   UNL     1       9.203  -8.190 -17.341  1.00  0.00     0.059 A 
ATOM     75  F   UNL     1       9.629  -9.957 -15.856  1.00  0.00    -0.206 F 
ATOM     76  C   UNL     1       8.298  -7.287 -17.905  1.00  0.00     0.060 A 
BRANCH  76  77
ATOM     77  S   UNL     1       8.897  -6.147 -19.170  1.00  0.00     0.124 S 
ATOM     78  O   UNL     1       9.692  -5.218 -18.371  1.00  0.00    -0.237 OA
ATOM     79  O   UNL     1       9.652  -7.030 -20.053  1.00  0.00    -0.237 OA
ATOM     80  O   UNL     1       7.671  -5.594 -19.738  1.00  0.00    -0.744 OA
ENDBRANCH  76  77
ENDBRANCH  55  69
BRANCH  56  81
ATOM     81  C   UNL     1       3.840 -15.659  -9.334  1.00  0.00     0.058 A 
ATOM     82  C   UNL     1       2.804 -15.245  -8.482  1.00  0.00     0.135 A 
ATOM     83  C   UNL     1       4.282 -16.986  -9.229  1.00  0.00     0.135 A 
ATOM     84  F   UNL     1       2.358 -13.980  -8.531  1.00  0.00    -0.206 F 
ATOM     85  C   UNL     1       2.226 -16.111  -7.560  1.00  0.00     0.059 A 
ATOM     86  C   UNL     1       3.706 -17.877  -8.330  1.00  0.00     0.059 A 
ATOM     87  F   UNL     1       5.265 -17.429 -10.027  1.00  0.00    -0.206 F 
ATOM     88  C   UNL     1       2.675 -17.430  -7.500  1.00  0.00     0.060 A 
BRANCH  88  89
ATOM     89  S   UNL     1       1.953 -18.585  -6.314  1.00  0.00     0.124 S 
ATOM     90  O   UNL     1       1.117 -19.409  -7.179  1.00  0.00    -0.237 OA
ATOM     91  O   UNL     1       3.136 -19.236  -5.759  1.00  0.00    -0.237 OA
ATOM     92  O   UNL     1       1.239 -17.710  -5.389  1.00  0.00    -0.744 OA
ENDBRANCH  88  89
ENDBRANCH  56  81
BRANCH  68  93
ATOM     93  C   UNL     1       3.512 -15.132 -16.286  1.00  0.00     0.058 A 
ATOM     94  C   UNL     1       4.295 -15.948 -17.118  1.00  0.00     0.135 A 
ATOM     95  C   UNL     1       2.142 -15.026 -16.562  1.00  0.00     0.135 A 
ATOM     96  F   UNL     1       5.613 -16.074 -16.894  1.00  0.00    -0.206 F 
ATOM     97  C   UNL     1       3.747 -16.612 -18.209  1.00  0.00     0.059 A 
ATOM     98  C   UNL     1       1.569 -15.694 -17.639  1.00  0.00     0.059 A 
ATOM     99  F   UNL     1       1.354 -14.263 -15.789  1.00  0.00    -0.206 F 
ATOM    100  C   UNL     1       2.382 -16.475 -18.464  1.00  0.00     0.060 A 
BRANCH 100 101
ATOM    101  S   UNL     1       1.642 -17.261 -19.912  1.00  0.00     0.124 S 
ATOM    102  O   UNL     1       0.879 -18.345 -19.301  1.00  0.00    -0.237 OA
ATOM    103  O   UNL     1       0.854 -16.176 -20.487  1.00  0.00    -0.237 OA
ATOM    104  O   UNL     1       2.798 -17.675 -20.702  1.00  0.00    -0.744 OA
ENDBRANCH 100 101
ENDBRANCH  68  93
ENDBRANCH  42  43
ENDBRANCH  34  37
ENDBRANCH  32  33
ENDBRANCH   1  32
TORSDOF 18
