REMARK SMILES CCN(CC)c1ccc([C@@H]2c3[nH]c4ccccc4c3C[C@@H](C(=O)NCCCCNC(=O)c3ccc(-c4c5nc(c(-c6c(F)cc(S(=O)(=O)[O-])cc6F)c6ccc([nH]6)c(-c6c(F)cc(S(=O)(=O)[O-])cc6F)c6nc(c(-c7c(F)cc(S(=O)(=O)[O-])cc7F)c7ccc4[nH]7)C=C6)C=C5)cc3)N2C(C)=O)cc1
REMARK SMILES IDX 26 1 25 2 24 3 22 4 23 5 21 7 10 8 11 9 98 10 12 11 19 12
REMARK SMILES IDX 13 13 18 15 20 16 14 17 17 18 15 19 16 20 9 21 6 22 7 23
REMARK SMILES IDX 103 24 8 25 102 26 3 27 2 28 1 29 4 30 5 31 99 32 100 33
REMARK SMILES IDX 101 34 27 35 28 36 29 37 30 38 31 40 32 41 33 42 97 43 34 44
REMARK SMILES IDX 96 45 35 46 36 47 37 48 90 49 38 50 95 51 89 52 91 53 39 54
REMARK SMILES IDX 94 55 88 56 87 57 40 59 74 60 53 61 73 62 54 63 57 64 72 65
REMARK SMILES IDX 92 66 55 67 56 68 71 70 93 71 58 72 41 73 42 74 51 75 43 76
REMARK SMILES IDX 44 77 50 78 52 79 45 80 46 81 47 82 48 83 49 84 75 85 76 86
REMARK SMILES IDX 85 87 77 88 78 89 84 90 86 91 79 92 80 93 81 94 82 95 83 96
REMARK SMILES IDX 59 97 60 98 69 99 61 100 62 101 68 102 70 103 63 104 64 105
REMARK SMILES IDX 65 106 66 107 67 108
REMARK H PARENT 24 6 12 14 29 39 91 58 57 69
REMARK Flexibility Score: inf
ROOT
ATOM      1  C   UNL     1       6.485   6.188  -0.285  1.00  0.00     0.023 C 
ENDROOT
BRANCH   1   2
ATOM      2  C   UNL     1       7.904   5.695   0.046  1.00  0.00     0.116 C 
BRANCH   2   3
ATOM      3  N   UNL     1       8.051   4.218   0.205  1.00  0.00    -0.354 N 
ATOM      4  C   UNL     1       8.380   3.105  -0.530  1.00  0.00     0.243 C 
ATOM      5  O   UNL     1       8.482   2.067   0.146  1.00  0.00    -0.273 OA
ATOM      6  H   UNL     1       7.848   3.959   1.133  1.00  0.00     0.163 HD
BRANCH   4   7
ATOM      7  C   UNL     1       8.442   2.958  -2.107  1.00  0.00     0.179 C 
ATOM      8  C   UNL     1       6.015   3.229  -2.229  1.00  0.00     0.163 C 
ATOM      9  C   UNL     1       6.330   4.568  -2.884  1.00  0.00     0.047 A 
ATOM     10  N   UNL     1       7.148   2.449  -2.713  1.00  0.00    -0.318 N 
ATOM     11  N   UNL     1       5.471   5.541  -3.304  1.00  0.00    -0.356 N 
ATOM     12  C   UNL     1       7.623   5.023  -3.166  1.00  0.00    -0.014 A 
ATOM     13  C   UNL     1       6.150   6.432  -4.105  1.00  0.00     0.046 A 
ATOM     14  H   UNL     1       4.516   5.598  -3.071  1.00  0.00     0.166 HD
ATOM     15  C   UNL     1       7.511   6.160  -3.985  1.00  0.00     0.003 A 
ATOM     16  C   UNL     1       8.857   4.269  -2.784  1.00  0.00     0.073 C 
ATOM     17  C   UNL     1       5.660   7.445  -4.924  1.00  0.00     0.026 A 
ATOM     18  C   UNL     1       8.443   6.945  -4.679  1.00  0.00     0.010 A 
ATOM     19  C   UNL     1       6.599   8.173  -5.660  1.00  0.00     0.002 A 
ATOM     20  C   UNL     1       7.968   7.937  -5.534  1.00  0.00     0.001 A 
BRANCH   8  21
ATOM     21  C   UNL     1       4.641   2.605  -2.268  1.00  0.00    -0.019 A 
ATOM     22  C   UNL     1       1.941   1.731  -1.927  1.00  0.00     0.037 A 
ATOM     23  C   UNL     1       2.301   2.718  -2.843  1.00  0.00     0.026 A 
ATOM     24  C   UNL     1       3.005   1.073  -1.299  1.00  0.00     0.026 A 
ATOM     25  C   UNL     1       3.614   3.119  -3.040  1.00  0.00     0.008 A 
ATOM     26  C   UNL     1       4.334   1.505  -1.451  1.00  0.00     0.008 A 
BRANCH  22  27
ATOM     27  N   UNL     1       0.610   1.443  -1.655  1.00  0.00    -0.372 N 
BRANCH  27  28
ATOM     28  C   UNL     1       0.173   1.359  -0.252  1.00  0.00     0.113 C 
ATOM     29  C   UNL     1       0.330  -0.036   0.335  1.00  0.00     0.027 C 
ENDBRANCH  27  28
BRANCH  27  30
ATOM     30  C   UNL     1      -0.435   1.621  -2.678  1.00  0.00     0.113 C 
ATOM     31  C   UNL     1      -0.822   3.076  -2.941  1.00  0.00     0.027 C 
ENDBRANCH  27  30
ENDBRANCH  22  27
ENDBRANCH   8  21
BRANCH  10  32
ATOM     32  C   UNL     1       6.987   1.995  -4.036  1.00  0.00     0.220 C 
ATOM     33  C   UNL     1       8.169   1.805  -4.947  1.00  0.00     0.114 C 
ATOM     34  O   UNL     1       5.883   1.794  -4.554  1.00  0.00    -0.275 OA
ENDBRANCH  10  32
ENDBRANCH   4   7
ENDBRANCH   2   3
ENDBRANCH   1   2
BRANCH   1  35
ATOM     35  C   UNL     1       5.864   7.354   0.483  1.00  0.00     0.023 C 
BRANCH  35  36
ATOM     36  C   UNL     1       6.484   8.736   0.288  1.00  0.00     0.116 C 
BRANCH  36  37
ATOM     37  N   UNL     1       6.408   9.312  -1.054  1.00  0.00    -0.352 N 
ATOM     38  C   UNL     1       6.202  10.632  -1.430  1.00  0.00     0.251 C 
ATOM     39  H   UNL     1       6.519   8.674  -1.796  1.00  0.00     0.163 HD
ATOM     40  O   UNL     1       6.193  10.937  -2.623  1.00  0.00    -0.269 OA
BRANCH  38  41
ATOM     41  C   UNL     1       5.924  11.678  -0.409  1.00  0.00     0.039 A 
ATOM     42  C   UNL     1       4.928  12.632  -0.650  1.00  0.00     0.014 A 
ATOM     43  C   UNL     1       6.586  11.684   0.817  1.00  0.00     0.014 A 
ATOM     44  C   UNL     1       4.516  13.488   0.380  1.00  0.00     0.010 A 
ATOM     45  C   UNL     1       6.083  12.434   1.875  1.00  0.00     0.010 A 
ATOM     46  C   UNL     1       5.040  13.349   1.676  1.00  0.00    -0.014 A 
BRANCH  46  47
ATOM     47  C   UNL     1       4.510  14.136   2.827  1.00  0.00     0.031 A 
ATOM     48  C   UNL     1       5.431  14.998   3.657  1.00  0.00     0.074 A 
ATOM     49  C   UNL     1       3.211  14.019   3.178  1.00  0.00     0.049 A 
ATOM     50  N   UNL     1       5.156  15.732   4.706  1.00  0.00    -0.248 NA
ATOM     51  C   UNL     1       6.857  15.004   3.289  1.00  0.00     0.031 C 
ATOM     52  C   UNL     1       2.232  13.140   2.530  1.00  0.00     0.029 A 
ATOM     53  N   UNL     1       2.485  14.641   4.165  1.00  0.00    -0.354 N 
ATOM     54  C   UNL     1       6.370  16.265   5.127  1.00  0.00     0.074 A 
ATOM     55  C   UNL     1       7.394  15.704   4.275  1.00  0.00     0.031 C 
ATOM     56  C   UNL     1       1.028  13.320   3.098  1.00  0.00     0.029 A 
ATOM     57  C   UNL     1       1.151  14.300   4.172  1.00  0.00     0.049 A 
ATOM     58  H   UNL     1       2.882  15.272   4.807  1.00  0.00     0.167 HD
ATOM     59  C   UNL     1       6.612  17.173   6.103  1.00  0.00     0.037 A 
ATOM     60  C   UNL     1       0.137  14.737   4.946  1.00  0.00     0.037 A 
ATOM     61  C   UNL     1       5.585  17.762   6.922  1.00  0.00     0.049 A 
ATOM     62  C   UNL     1       0.418  15.787   5.988  1.00  0.00     0.074 A 
ATOM     63  C   UNL     1       5.710  18.744   7.889  1.00  0.00     0.029 A 
ATOM     64  N   UNL     1       4.240  17.426   6.866  1.00  0.00    -0.354 N 
ATOM     65  N   UNL     1       1.561  16.345   6.310  1.00  0.00    -0.248 NA
ATOM     66  C   UNL     1      -0.732  16.280   6.757  1.00  0.00     0.031 C 
ATOM     67  C   UNL     1       4.447  18.971   8.447  1.00  0.00     0.029 A 
ATOM     68  C   UNL     1       3.527  18.170   7.790  1.00  0.00     0.049 A 
ATOM     69  H   UNL     1       3.850  16.756   6.258  1.00  0.00     0.167 HD
ATOM     70  C   UNL     1       1.264  17.273   7.303  1.00  0.00     0.074 A 
ATOM     71  C   UNL     1      -0.169  17.218   7.507  1.00  0.00     0.031 C 
ATOM     72  C   UNL     1       2.100  18.097   7.984  1.00  0.00     0.037 A 
BRANCH  59  73
ATOM     73  C   UNL     1       8.041  17.601   6.318  1.00  0.00     0.058 A 
ATOM     74  C   UNL     1       8.737  18.355   5.358  1.00  0.00     0.135 A 
ATOM     75  C   UNL     1       8.718  17.273   7.504  1.00  0.00     0.135 A 
ATOM     76  F   UNL     1       8.147  18.683   4.197  1.00  0.00    -0.206 F 
ATOM     77  C   UNL     1      10.062  18.733   5.547  1.00  0.00     0.059 A 
ATOM     78  C   UNL     1      10.033  17.671   7.729  1.00  0.00     0.059 A 
ATOM     79  F   UNL     1       8.104  16.555   8.457  1.00  0.00    -0.206 F 
ATOM     80  C   UNL     1      10.702  18.386   6.737  1.00  0.00     0.060 A 
BRANCH  80  81
ATOM     81  S   UNL     1      12.420  18.890   6.968  1.00  0.00     0.124 S 
ATOM     82  O   UNL     1      13.113  17.991   6.051  1.00  0.00    -0.237 OA
ATOM     83  O   UNL     1      12.389  20.295   6.574  1.00  0.00    -0.237 OA
ATOM     84  O   UNL     1      12.659  18.645   8.387  1.00  0.00    -0.744 OA
ENDBRANCH  80  81
ENDBRANCH  59  73
BRANCH  60  85
ATOM     85  C   UNL     1      -1.246  14.227   4.729  1.00  0.00     0.058 A 
ATOM     86  C   UNL     1      -2.246  15.054   4.192  1.00  0.00     0.135 A 
ATOM     87  C   UNL     1      -1.598  12.906   5.046  1.00  0.00     0.135 A 
ATOM     88  F   UNL     1      -1.964  16.327   3.877  1.00  0.00    -0.206 F 
ATOM     89  C   UNL     1      -3.546  14.599   3.997  1.00  0.00     0.059 A 
ATOM     90  C   UNL     1      -2.885  12.418   4.835  1.00  0.00     0.059 A 
ATOM     91  F   UNL     1      -0.677  12.066   5.545  1.00  0.00    -0.206 F 
ATOM     92  C   UNL     1      -3.856  13.277   4.320  1.00  0.00     0.060 A 
BRANCH  92  93
ATOM     93  S   UNL     1      -5.534  12.681   4.018  1.00  0.00     0.124 S 
ATOM     94  O   UNL     1      -6.279  13.348   5.079  1.00  0.00    -0.237 OA
ATOM     95  O   UNL     1      -5.789  13.157   2.662  1.00  0.00    -0.237 OA
ATOM     96  O   UNL     1      -5.405  11.233   4.151  1.00  0.00    -0.744 OA
ENDBRANCH  92  93
ENDBRANCH  60  85
BRANCH  72  97
ATOM     97  C   UNL     1       1.475  19.023   8.992  1.00  0.00     0.058 A 
ATOM     98  C   UNL     1       0.918  18.547  10.190  1.00  0.00     0.135 A 
ATOM     99  C   UNL     1       1.436  20.407   8.755  1.00  0.00     0.135 A 
ATOM    100  F   UNL     1       0.930  17.233  10.466  1.00  0.00    -0.206 F 
ATOM    101  C   UNL     1       0.296  19.404  11.092  1.00  0.00     0.059 A 
ATOM    102  C   UNL     1       0.849  21.286   9.660  1.00  0.00     0.059 A 
ATOM    103  F   UNL     1       1.970  20.918   7.635  1.00  0.00    -0.206 F 
ATOM    104  C   UNL     1       0.260  20.771  10.813  1.00  0.00     0.060 A 
BRANCH 104 105
ATOM    105  S   UNL     1      -0.570  21.871  11.979  1.00  0.00     0.124 S 
ATOM    106  O   UNL     1      -1.974  21.587  11.700  1.00  0.00    -0.237 OA
ATOM    107  O   UNL     1      -0.071  21.397  13.267  1.00  0.00    -0.237 OA
ATOM    108  O   UNL     1      -0.105  23.197  11.584  1.00  0.00    -0.744 OA
ENDBRANCH 104 105
ENDBRANCH  72  97
ENDBRANCH  46  47
ENDBRANCH  38  41
ENDBRANCH  36  37
ENDBRANCH  35  36
ENDBRANCH   1  35
TORSDOF 19
