REMARK SMILES CSc1ccc(/C=C2\C(C)=C(CC(=O)NCCCCNC(=O)c3ccc(-c4c5nc(c(-c6c(F)cc(S(=O)(=O)[O-])cc6F)c6ccc([nH]6)c(-c6c(F)cc(S(=O)(=O)[O-])cc6F)c6nc(c(-c7c(F)cc(S(=O)(=O)[O-])cc7F)c7ccc4[nH]7)C=C6)C=C5)cc3)c3cc(F)ccc32)cc1
REMARK SMILES IDX 17 1 16 2 15 3 13 4 14 5 12 7 11 8 7 9 8 10 9 11 95 12 10 13
REMARK SMILES IDX 89 14 94 15 90 16 93 17 91 18 92 19 6 20 3 21 4 22 97 23
REMARK SMILES IDX 5 24 96 25 2 26 1 27 18 28 19 29 20 30 21 31 22 33 23 34
REMARK SMILES IDX 24 35 88 36 25 37 87 38 26 39 27 40 28 41 81 42 29 43 86 44
REMARK SMILES IDX 80 45 82 46 30 47 85 48 79 49 78 50 31 52 65 53 44 54 64 55
REMARK SMILES IDX 45 56 48 57 63 58 83 59 46 60 47 61 62 63 84 64 49 65 32 66
REMARK SMILES IDX 33 67 42 68 34 69 35 70 41 71 43 72 36 73 37 74 38 75 39 76
REMARK SMILES IDX 40 77 66 78 67 79 76 80 68 81 69 82 75 83 77 84 70 85 71 86
REMARK SMILES IDX 72 87 73 88 74 89 50 90 51 91 60 92 52 93 53 94 59 95 61 96
REMARK SMILES IDX 54 97 55 98 56 99 57 100 58 101
REMARK H PARENT 15 6 20 32 82 51 48 62
REMARK Flexibility Score: inf
ROOT
ATOM      1  C   UNL     1       6.706   5.236  -2.788  1.00  0.00     0.023 C 
ENDROOT
BRANCH   1   2
ATOM      2  C   UNL     1       6.197   6.527  -3.425  1.00  0.00     0.116 C 
BRANCH   2   3
ATOM      3  N   UNL     1       6.978   6.893  -4.587  1.00  0.00    -0.356 N 
ATOM      4  C   UNL     1       6.771   6.502  -5.880  1.00  0.00     0.224 C 
ATOM      5  O   UNL     1       7.580   6.835  -6.747  1.00  0.00    -0.275 OA
ATOM      6  H   UNL     1       7.744   7.491  -4.428  1.00  0.00     0.163 HD
BRANCH   4   7
ATOM      7  C   UNL     1       5.546   5.672  -6.211  1.00  0.00     0.136 C 
BRANCH   7   8
ATOM      8  C   UNL     1       5.785   4.223  -5.836  1.00  0.00    -0.027 C 
ATOM      9  C   UNL     1       2.575   3.006  -5.572  1.00  0.00     0.017 C 
ATOM     10  C   UNL     1       3.886   3.046  -5.858  1.00  0.00    -0.014 C 
ATOM     11  C   UNL     1       4.974   3.530  -4.986  1.00  0.00    -0.039 C 
ATOM     12  C   UNL     1       4.597   2.639  -7.095  1.00  0.00    -0.010 A 
ATOM     13  C   UNL     1       5.576   2.315  -4.238  1.00  0.00     0.045 C 
ATOM     14  C   UNL     1       5.831   3.323  -7.007  1.00  0.00    -0.011 A 
ATOM     15  C   UNL     1       4.513   1.442  -7.786  1.00  0.00     0.012 A 
ATOM     16  C   UNL     1       6.997   2.846  -7.582  1.00  0.00     0.048 A 
ATOM     17  C   UNL     1       5.695   0.932  -8.347  1.00  0.00     0.040 A 
ATOM     18  C   UNL     1       6.913   1.625  -8.232  1.00  0.00     0.123 A 
ATOM     19  F   UNL     1       8.041   1.034  -8.651  1.00  0.00    -0.207 F 
BRANCH   9  20
ATOM     20  C   UNL     1       1.904   3.114  -4.245  1.00  0.00    -0.025 A 
ATOM     21  C   UNL     1       0.508   2.118  -1.992  1.00  0.00     0.007 A 
ATOM     22  C   UNL     1       1.883   2.292  -1.945  1.00  0.00     0.015 A 
ATOM     23  C   UNL     1      -0.181   2.668  -3.080  1.00  0.00     0.015 A 
ATOM     24  C   UNL     1       2.561   2.816  -3.047  1.00  0.00     0.009 A 
ATOM     25  C   UNL     1       0.509   3.165  -4.199  1.00  0.00     0.009 A 
BRANCH  21  26
ATOM     26  S   UNL     1      -0.413   1.163  -0.796  1.00  0.00    -0.130 SA
ATOM     27  C   UNL     1       0.888   0.262   0.110  1.00  0.00     0.091 C 
ENDBRANCH  21  26
ENDBRANCH   9  20
ENDBRANCH   7   8
ENDBRANCH   4   7
ENDBRANCH   2   3
ENDBRANCH   1   2
BRANCH   1  28
ATOM     28  C   UNL     1       8.031   5.322  -2.053  1.00  0.00     0.023 C 
BRANCH  28  29
ATOM     29  C   UNL     1       8.113   6.464  -1.068  1.00  0.00     0.116 C 
BRANCH  29  30
ATOM     30  N   UNL     1       6.984   6.510  -0.148  1.00  0.00    -0.352 N 
ATOM     31  C   UNL     1       6.987   6.958   1.148  1.00  0.00     0.251 C 
ATOM     32  H   UNL     1       6.123   6.182  -0.495  1.00  0.00     0.163 HD
ATOM     33  O   UNL     1       5.988   6.861   1.853  1.00  0.00    -0.269 OA
BRANCH  31  34
ATOM     34  C   UNL     1       8.246   7.508   1.677  1.00  0.00     0.039 A 
ATOM     35  C   UNL     1       8.793   6.946   2.830  1.00  0.00     0.014 A 
ATOM     36  C   UNL     1       8.941   8.477   0.946  1.00  0.00     0.014 A 
ATOM     37  C   UNL     1      10.077   7.318   3.220  1.00  0.00     0.010 A 
ATOM     38  C   UNL     1      10.254   8.768   1.280  1.00  0.00     0.010 A 
ATOM     39  C   UNL     1      10.829   8.201   2.427  1.00  0.00    -0.014 A 
BRANCH  39  40
ATOM     40  C   UNL     1      12.214   8.573   2.795  1.00  0.00     0.031 A 
ATOM     41  C   UNL     1      12.532  10.006   3.118  1.00  0.00     0.074 A 
ATOM     42  C   UNL     1      13.185   7.639   2.776  1.00  0.00     0.049 A 
ATOM     43  N   UNL     1      13.685  10.552   3.400  1.00  0.00    -0.248 NA
ATOM     44  C   UNL     1      11.409  10.960   3.085  1.00  0.00     0.031 C 
ATOM     45  C   UNL     1      13.001   6.230   2.418  1.00  0.00     0.029 A 
ATOM     46  N   UNL     1      14.523   7.737   3.058  1.00  0.00    -0.354 N 
ATOM     47  C   UNL     1      13.430  11.908   3.561  1.00  0.00     0.074 A 
ATOM     48  C   UNL     1      12.027  12.114   3.281  1.00  0.00     0.031 C 
ATOM     49  C   UNL     1      14.177   5.591   2.530  1.00  0.00     0.029 A 
ATOM     50  C   UNL     1      15.203   6.549   2.931  1.00  0.00     0.049 A 
ATOM     51  H   UNL     1      14.957   8.579   3.325  1.00  0.00     0.167 HD
ATOM     52  C   UNL     1      14.282  12.888   3.939  1.00  0.00     0.037 A 
ATOM     53  C   UNL     1      16.507   6.268   3.116  1.00  0.00     0.037 A 
ATOM     54  C   UNL     1      15.668  12.664   4.249  1.00  0.00     0.049 A 
ATOM     55  C   UNL     1      17.433   7.371   3.552  1.00  0.00     0.074 A 
ATOM     56  C   UNL     1      16.607  13.574   4.701  1.00  0.00     0.029 A 
ATOM     57  N   UNL     1      16.315  11.441   4.140  1.00  0.00    -0.354 N 
ATOM     58  N   UNL     1      17.162   8.637   3.767  1.00  0.00    -0.248 NA
ATOM     59  C   UNL     1      18.838   7.009   3.779  1.00  0.00     0.031 C 
ATOM     60  C   UNL     1      17.831  12.909   4.828  1.00  0.00     0.029 A 
ATOM     61  C   UNL     1      17.644  11.575   4.501  1.00  0.00     0.049 A 
ATOM     62  H   UNL     1      15.890  10.602   3.849  1.00  0.00     0.167 HD
ATOM     63  C   UNL     1      18.356   9.217   4.181  1.00  0.00     0.074 A 
ATOM     64  C   UNL     1      19.347   8.160   4.197  1.00  0.00     0.031 C 
ATOM     65  C   UNL     1      18.610  10.505   4.519  1.00  0.00     0.037 A 
BRANCH  52  66
ATOM     66  C   UNL     1      13.732  14.282   4.049  1.00  0.00     0.058 A 
ATOM     67  C   UNL     1      12.823  14.638   5.059  1.00  0.00     0.135 A 
ATOM     68  C   UNL     1      14.131  15.281   3.147  1.00  0.00     0.135 A 
ATOM     69  F   UNL     1      12.391  13.717   5.936  1.00  0.00    -0.206 F 
ATOM     70  C   UNL     1      12.305  15.925   5.152  1.00  0.00     0.059 A 
ATOM     71  C   UNL     1      13.649  16.584   3.239  1.00  0.00     0.059 A 
ATOM     72  F   UNL     1      14.993  14.995   2.159  1.00  0.00    -0.206 F 
ATOM     73  C   UNL     1      12.724  16.891   4.237  1.00  0.00     0.060 A 
BRANCH  73  74
ATOM     74  S   UNL     1      12.047  18.559   4.375  1.00  0.00     0.124 S 
ATOM     75  O   UNL     1      10.688  18.362   3.882  1.00  0.00    -0.237 OA
ATOM     76  O   UNL     1      12.169  18.827   5.805  1.00  0.00    -0.237 OA
ATOM     77  O   UNL     1      12.919  19.352   3.515  1.00  0.00    -0.744 OA
ENDBRANCH  73  74
ENDBRANCH  52  66
BRANCH  53  78
ATOM     78  C   UNL     1      17.005   4.880   2.923  1.00  0.00     0.058 A 
ATOM     79  C   UNL     1      17.404   4.098   4.016  1.00  0.00     0.135 A 
ATOM     80  C   UNL     1      17.077   4.302   1.646  1.00  0.00     0.135 A 
ATOM     81  F   UNL     1      17.355   4.607   5.257  1.00  0.00    -0.206 F 
ATOM     82  C   UNL     1      17.874   2.799   3.852  1.00  0.00     0.059 A 
ATOM     83  C   UNL     1      17.521   2.997   1.458  1.00  0.00     0.059 A 
ATOM     84  F   UNL     1      16.689   5.002   0.568  1.00  0.00    -0.206 F 
ATOM     85  C   UNL     1      17.928   2.256   2.567  1.00  0.00     0.060 A 
BRANCH  85  86
ATOM     86  S   UNL     1      18.496   0.554   2.369  1.00  0.00     0.124 S 
ATOM     87  O   UNL     1      19.929   0.694   2.597  1.00  0.00    -0.237 OA
ATOM     88  O   UNL     1      17.748  -0.142   3.412  1.00  0.00    -0.237 OA
ATOM     89  O   UNL     1      18.102   0.226   1.002  1.00  0.00    -0.744 OA
ENDBRANCH  85  86
ENDBRANCH  53  78
BRANCH  65  90
ATOM     90  C   UNL     1      20.005  10.839   4.970  1.00  0.00     0.058 A 
ATOM     91  C   UNL     1      21.077  10.902   4.067  1.00  0.00     0.135 A 
ATOM     92  C   UNL     1      20.257  11.155   6.314  1.00  0.00     0.135 A 
ATOM     93  F   UNL     1      20.888  10.604   2.772  1.00  0.00    -0.206 F 
ATOM     94  C   UNL     1      22.357  11.246   4.486  1.00  0.00     0.059 A 
ATOM     95  C   UNL     1      21.523  11.529   6.750  1.00  0.00     0.059 A 
ATOM     96  F   UNL     1      19.262  11.121   7.216  1.00  0.00    -0.206 F 
ATOM     97  C   UNL     1      22.570  11.560   5.830  1.00  0.00     0.060 A 
BRANCH  97  98
ATOM     98  S   UNL     1      24.229  12.039   6.354  1.00  0.00     0.124 S 
ATOM     99  O   UNL     1      24.922  10.755   6.345  1.00  0.00    -0.237 OA
ATOM    100  O   UNL     1      24.627  12.982   5.313  1.00  0.00    -0.237 OA
ATOM    101  O   UNL     1      24.012  12.626   7.673  1.00  0.00    -0.744 OA
ENDBRANCH  97  98
ENDBRANCH  65  90
ENDBRANCH  39  40
ENDBRANCH  31  34
ENDBRANCH  29  30
ENDBRANCH  28  29
ENDBRANCH   1  28
TORSDOF 17
