REMARK SMILES O=C(NCCCCNC(=O)[C@H]1CC=CC[C@@H]1C(=O)Nc1nn(Cc2ccccc2F)cc1Br)c1ccc(-c2c3nc(c(-c4c(F)cc(S(=O)(=O)[O-])cc4F)c4ccc([nH]4)c(-c4c(F)cc(S(=O)(=O)[O-])cc4F)c4nc(c(-c5c(F)cc(S(=O)(=O)[O-])cc5F)c5ccc2[nH]5)C=C4)C=C3)cc1
REMARK SMILES IDX 6 1 5 2 4 3 3 4 1 5 2 6 34 8 35 9 99 10 36 11 98 12 37 13
REMARK SMILES IDX 38 14 39 15 92 16 40 17 97 18 91 19 93 20 41 21 96 22 90 23
REMARK SMILES IDX 89 24 42 26 76 27 55 28 75 29 56 30 59 31 74 32 94 33 57 34
REMARK SMILES IDX 58 35 73 37 95 38 60 39 43 40 44 41 53 42 45 43 46 44 52 45
REMARK SMILES IDX 54 46 47 47 48 48 49 49 50 50 51 51 77 52 78 53 87 54 79 55
REMARK SMILES IDX 80 56 86 57 88 58 81 59 82 60 83 61 84 62 85 63 61 64 62 65
REMARK SMILES IDX 71 66 63 67 64 68 70 69 72 70 65 71 66 72 67 73 68 74 69 75
REMARK SMILES IDX 7 76 8 77 9 78 10 80 11 81 12 82 16 83 13 84 15 85 14 86
REMARK SMILES IDX 17 87 18 88 19 89 20 91 21 92 32 93 22 94 31 95 33 96 23 97
REMARK SMILES IDX 24 98 25 99 29 100 26 101 28 102 30 103 27 104
REMARK H PARENT 3 7 93 25 59 36 8 79 19 90
REMARK Flexibility Score: inf
ROOT
ATOM      1  C   UNL     1       4.965   2.122   1.113  1.00  0.00     0.023 C 
ENDROOT
BRANCH   1   2
ATOM      2  C   UNL     1       5.371   1.009   0.158  1.00  0.00     0.023 C 
BRANCH   2   3
ATOM      3  C   UNL     1       4.845  -0.358   0.574  1.00  0.00     0.116 C 
BRANCH   3   4
ATOM      4  N   UNL     1       3.425  -0.324   0.867  1.00  0.00    -0.352 N 
ATOM      5  O   UNL     1       1.224  -0.283   0.732  1.00  0.00    -0.269 OA
ATOM      6  C   UNL     1       2.285  -0.409   0.115  1.00  0.00     0.251 C 
ATOM      7  H   UNL     1       3.238  -0.215   1.827  1.00  0.00     0.163 HD
BRANCH   6   8
ATOM      8  C   UNL     1       2.244  -0.657  -1.352  1.00  0.00     0.039 A 
ATOM      9  C   UNL     1       3.349  -0.658  -2.202  1.00  0.00     0.014 A 
ATOM     10  C   UNL     1       0.974  -0.909  -1.905  1.00  0.00     0.014 A 
ATOM     11  C   UNL     1       3.202  -0.926  -3.557  1.00  0.00     0.010 A 
ATOM     12  C   UNL     1       0.819  -1.185  -3.261  1.00  0.00     0.010 A 
ATOM     13  C   UNL     1       1.940  -1.195  -4.086  1.00  0.00    -0.014 A 
BRANCH  13  14
ATOM     14  C   UNL     1       1.889  -1.593  -5.488  1.00  0.00     0.031 A 
ATOM     15  C   UNL     1       2.616  -2.858  -5.830  1.00  0.00     0.074 A 
ATOM     16  C   UNL     1       1.161  -0.954  -6.420  1.00  0.00     0.049 A 
ATOM     17  N   UNL     1       3.595  -3.039  -6.658  1.00  0.00    -0.248 NA
ATOM     18  C   UNL     1       2.240  -4.068  -5.079  1.00  0.00     0.031 C 
ATOM     19  C   UNL     1       0.155   0.093  -6.239  1.00  0.00     0.029 A 
ATOM     20  N   UNL     1       1.119  -1.201  -7.757  1.00  0.00    -0.354 N 
ATOM     21  C   UNL     1       3.869  -4.408  -6.649  1.00  0.00     0.074 A 
ATOM     22  C   UNL     1       3.070  -4.976  -5.592  1.00  0.00     0.031 C 
ATOM     23  C   UNL     1      -0.545   0.234  -7.387  1.00  0.00     0.029 A 
ATOM     24  C   UNL     1       0.055  -0.604  -8.412  1.00  0.00     0.049 A 
ATOM     25  H   UNL     1       1.788  -1.756  -8.220  1.00  0.00     0.167 HD
ATOM     26  C   UNL     1       4.640  -5.027  -7.588  1.00  0.00     0.037 A 
ATOM     27  C   UNL     1      -0.342  -0.859  -9.681  1.00  0.00     0.037 A 
ATOM     28  C   UNL     1       5.442  -4.097  -8.331  1.00  0.00     0.049 A 
ATOM     29  C   UNL     1       0.815  -1.456 -10.401  1.00  0.00     0.074 A 
ATOM     30  C   UNL     1       6.481  -3.245  -8.013  1.00  0.00     0.029 A 
ATOM     31  N   UNL     1       5.004  -3.697  -9.569  1.00  0.00    -0.354 N 
ATOM     32  N   UNL     1       1.921  -0.821 -10.676  1.00  0.00    -0.248 NA
ATOM     33  C   UNL     1       0.898  -2.907 -10.468  1.00  0.00     0.031 C 
ATOM     34  C   UNL     1       6.282  -2.096  -8.833  1.00  0.00     0.029 A 
ATOM     35  C   UNL     1       5.153  -2.333  -9.619  1.00  0.00     0.049 A 
ATOM     36  H   UNL     1       4.652  -4.277 -10.283  1.00  0.00     0.167 HD
ATOM     37  C   UNL     1       2.923  -1.774 -10.560  1.00  0.00     0.074 A 
ATOM     38  C   UNL     1       2.223  -3.055 -10.527  1.00  0.00     0.031 C 
ATOM     39  C   UNL     1       4.207  -1.432 -10.242  1.00  0.00     0.037 A 
BRANCH  26  40
ATOM     40  C   UNL     1       4.502  -6.475  -7.981  1.00  0.00     0.058 A 
ATOM     41  C   UNL     1       3.275  -7.169  -7.898  1.00  0.00     0.135 A 
ATOM     42  C   UNL     1       5.533  -7.137  -8.677  1.00  0.00     0.135 A 
ATOM     43  F   UNL     1       2.184  -6.604  -7.364  1.00  0.00    -0.206 F 
ATOM     44  C   UNL     1       3.089  -8.436  -8.438  1.00  0.00     0.059 A 
ATOM     45  C   UNL     1       5.353  -8.390  -9.271  1.00  0.00     0.059 A 
ATOM     46  F   UNL     1       6.730  -6.552  -8.843  1.00  0.00    -0.206 F 
ATOM     47  C   UNL     1       4.124  -9.031  -9.144  1.00  0.00     0.060 A 
BRANCH  47  48
ATOM     48  S   UNL     1       3.792 -10.596  -9.977  1.00  0.00     0.124 S 
ATOM     49  O   UNL     1       3.655 -11.507  -8.841  1.00  0.00    -0.237 OA
ATOM     50  O   UNL     1       2.555 -10.296 -10.698  1.00  0.00    -0.237 OA
ATOM     51  O   UNL     1       4.966 -10.796 -10.807  1.00  0.00    -0.744 OA
ENDBRANCH  47  48
ENDBRANCH  26  40
BRANCH  27  52
ATOM     52  C   UNL     1      -1.740  -0.995 -10.164  1.00  0.00     0.058 A 
ATOM     53  C   UNL     1      -2.779  -1.393  -9.297  1.00  0.00     0.135 A 
ATOM     54  C   UNL     1      -2.030  -1.020 -11.539  1.00  0.00     0.135 A 
ATOM     55  F   UNL     1      -2.591  -1.462  -7.971  1.00  0.00    -0.206 F 
ATOM     56  C   UNL     1      -4.015  -1.828  -9.764  1.00  0.00     0.059 A 
ATOM     57  C   UNL     1      -3.262  -1.463 -12.032  1.00  0.00     0.059 A 
ATOM     58  F   UNL     1      -1.088  -0.681 -12.432  1.00  0.00    -0.206 F 
ATOM     59  C   UNL     1      -4.238  -1.891 -11.135  1.00  0.00     0.060 A 
BRANCH  59  60
ATOM     60  S   UNL     1      -5.784  -2.633 -11.703  1.00  0.00     0.124 S 
ATOM     61  O   UNL     1      -5.674  -3.989 -11.176  1.00  0.00    -0.237 OA
ATOM     62  O   UNL     1      -6.782  -1.784 -11.059  1.00  0.00    -0.237 OA
ATOM     63  O   UNL     1      -5.705  -2.515 -13.156  1.00  0.00    -0.744 OA
ENDBRANCH  59  60
ENDBRANCH  27  52
BRANCH  39  64
ATOM     64  C   UNL     1       4.591   0.027 -10.274  1.00  0.00     0.058 A 
ATOM     65  C   UNL     1       5.673   0.419 -11.078  1.00  0.00     0.135 A 
ATOM     66  C   UNL     1       4.053   0.998  -9.409  1.00  0.00     0.135 A 
ATOM     67  F   UNL     1       6.271  -0.474 -11.885  1.00  0.00    -0.206 F 
ATOM     68  C   UNL     1       6.207   1.704 -11.021  1.00  0.00     0.059 A 
ATOM     69  C   UNL     1       4.550   2.303  -9.360  1.00  0.00     0.059 A 
ATOM     70  F   UNL     1       3.086   0.681  -8.538  1.00  0.00    -0.206 F 
ATOM     71  C   UNL     1       5.642   2.641 -10.155  1.00  0.00     0.060 A 
BRANCH  71  72
ATOM     72  S   UNL     1       6.392   4.280 -10.057  1.00  0.00     0.124 S 
ATOM     73  O   UNL     1       7.675   3.991  -9.431  1.00  0.00    -0.237 OA
ATOM     74  O   UNL     1       6.450   4.683 -11.460  1.00  0.00    -0.237 OA
ATOM     75  O   UNL     1       5.455   5.045  -9.233  1.00  0.00    -0.744 OA
ENDBRANCH  71  72
ENDBRANCH  39  64
ENDBRANCH  13  14
ENDBRANCH   6   8
ENDBRANCH   3   4
ENDBRANCH   2   3
ENDBRANCH   1   2
BRANCH   1  76
ATOM     76  C   UNL     1       5.436   2.018   2.580  1.00  0.00     0.116 C 
BRANCH  76  77
ATOM     77  N   UNL     1       6.699   2.645   2.983  1.00  0.00    -0.356 N 
ATOM     78  C   UNL     1       6.915   3.793   3.721  1.00  0.00     0.224 C 
ATOM     79  H   UNL     1       7.513   2.179   2.684  1.00  0.00     0.163 HD
ATOM     80  O   UNL     1       7.857   3.779   4.521  1.00  0.00    -0.275 OA
BRANCH  78  81
ATOM     81  C   UNL     1       6.141   5.111   3.478  1.00  0.00     0.095 C 
ATOM     82  C   UNL     1       5.508   5.062   2.124  1.00  0.00     0.041 C 
ATOM     83  C   UNL     1       5.159   5.609   4.534  1.00  0.00     0.095 C 
ATOM     84  C   UNL     1       4.012   4.874   2.109  1.00  0.00    -0.030 C 
ATOM     85  C   UNL     1       3.908   4.721   4.577  1.00  0.00     0.041 C 
ATOM     86  C   UNL     1       3.285   4.659   3.217  1.00  0.00    -0.030 C 
BRANCH  83  87
ATOM     87  C   UNL     1       4.665   7.096   4.528  1.00  0.00     0.229 C 
ATOM     88  O   UNL     1       4.378   7.571   5.648  1.00  0.00    -0.274 OA
ATOM     89  N   UNL     1       4.310   7.923   3.495  1.00  0.00    -0.308 N 
ATOM     90  H   UNL     1       3.443   8.374   3.611  1.00  0.00     0.171 HD
BRANCH  89  91
ATOM     91  C   UNL     1       4.970   8.233   2.310  1.00  0.00     0.168 A 
ATOM     92  N   UNL     1       4.809   7.593   1.143  1.00  0.00    -0.153 NA
ATOM     93  C   UNL     1       5.636   9.450   2.019  1.00  0.00     0.080 A 
ATOM     94  N   UNL     1       5.808   8.070   0.355  1.00  0.00    -0.265 N 
ATOM     95  C   UNL     1       6.189   9.317   0.767  1.00  0.00     0.127 A 
ATOM     96  Br  UNL     1       5.769  10.923   3.163  1.00  0.00    -0.045 Br
BRANCH  94  97
ATOM     97  C   UNL     1       6.288   7.310  -0.814  1.00  0.00     0.182 C 
BRANCH  97  98
ATOM     98  C   UNL     1       7.549   6.501  -0.548  1.00  0.00     0.009 A 
ATOM     99  C   UNL     1       8.798   7.101  -0.329  1.00  0.00     0.008 A 
ATOM    100  C   UNL     1       7.509   5.100  -0.556  1.00  0.00     0.128 A 
ATOM    101  C   UNL     1       9.937   6.321  -0.067  1.00  0.00     0.001 A 
ATOM    102  C   UNL     1       8.626   4.317  -0.252  1.00  0.00     0.039 A 
ATOM    103  F   UNL     1       6.363   4.472  -0.849  1.00  0.00    -0.207 F 
ATOM    104  C   UNL     1       9.847   4.931  -0.002  1.00  0.00     0.003 A 
ENDBRANCH  97  98
ENDBRANCH  94  97
ENDBRANCH  89  91
ENDBRANCH  83  87
ENDBRANCH  78  81
ENDBRANCH  76  77
ENDBRANCH   1  76
TORSDOF 18
