REMARK SMILES O=C(CCc1cncc([C@@H]2CN(c3ccccc3)CCO2)n1)NCCCCNC(=O)c1ccc(-c2c3nc(c(-c4c(F)cc(S(=O)(=O)[O-])cc4F)c4ccc([nH]4)c(-c4c(F)cc(S(=O)(=O)[O-])cc4F)c4nc(c(-c5c(F)cc(S(=O)(=O)[O-])cc5F)c5ccc2[nH]5)C=C4)C=C3)cc1
REMARK SMILES IDX 25 1 24 2 23 3 1 4 2 5 3 7 4 8 5 9 6 10 22 11 7 12 9 13 8 14
REMARK SMILES IDX 10 15 11 16 21 17 12 18 20 19 19 20 13 21 14 22 18 23 15 24
REMARK SMILES IDX 17 25 16 26 26 27 27 28 28 29 29 30 30 32 31 33 32 34 96 35
REMARK SMILES IDX 33 36 95 37 34 38 35 39 36 40 89 41 37 42 94 43 88 44 90 45
REMARK SMILES IDX 38 46 93 47 87 48 86 49 39 51 73 52 52 53 72 54 53 55 56 56
REMARK SMILES IDX 71 57 91 58 54 59 55 60 70 62 92 63 57 64 40 65 41 66 50 67
REMARK SMILES IDX 42 68 43 69 49 70 51 71 44 72 45 73 46 74 47 75 48 76 74 77
REMARK SMILES IDX 75 78 84 79 76 80 77 81 83 82 85 83 78 84 79 85 80 86 81 87
REMARK SMILES IDX 82 88 58 89 59 90 68 91 60 92 61 93 67 94 69 95 62 96 63 97
REMARK SMILES IDX 64 98 65 99 66 100
REMARK H PARENT 23 6 28 31 90 50 56 61
REMARK Flexibility Score: inf
ROOT
ATOM      1  C   UNL     1       2.236   0.731   3.513  1.00  0.00     0.023 C 
ENDROOT
BRANCH   1   2
ATOM      2  C   UNL     1       1.935   1.299   2.126  1.00  0.00     0.116 C 
BRANCH   2   3
ATOM      3  N   UNL     1       2.635   0.576   1.087  1.00  0.00    -0.356 N 
ATOM      4  O   UNL     1       0.824   0.202  -0.279  1.00  0.00    -0.275 OA
ATOM      5  C   UNL     1       2.026   0.101  -0.050  1.00  0.00     0.220 C 
ATOM      6  H   UNL     1       3.600   0.415   1.200  1.00  0.00     0.163 HD
BRANCH   5   7
ATOM      7  C   UNL     1       2.961  -0.620  -1.003  1.00  0.00     0.106 C 
BRANCH   7   8
ATOM      8  C   UNL     1       3.843   0.327  -1.814  1.00  0.00     0.068 C 
BRANCH   8   9
ATOM      9  C   UNL     1       4.887   1.028  -0.988  1.00  0.00     0.060 A 
ATOM     10  C   UNL     1       5.962   0.344  -0.439  1.00  0.00     0.134 A 
ATOM     11  N   UNL     1       4.688   2.343  -0.722  1.00  0.00    -0.252 NA
ATOM     12  N   UNL     1       6.859   0.936   0.380  1.00  0.00    -0.261 NA
ATOM     13  C   UNL     1       5.615   2.973   0.051  1.00  0.00     0.090 A 
ATOM     14  C   UNL     1       6.685   2.264   0.582  1.00  0.00     0.137 A 
BRANCH  13  15
ATOM     15  C   UNL     1       5.476   4.461   0.303  1.00  0.00     0.188 C 
ATOM     16  C   UNL     1       4.021   4.831   0.682  1.00  0.00     0.155 C 
ATOM     17  O   UNL     1       5.909   5.169  -0.879  1.00  0.00    -0.368 OA
ATOM     18  N   UNL     1       3.852   6.290   0.762  1.00  0.00    -0.366 N 
ATOM     19  C   UNL     1       5.806   6.592  -0.691  1.00  0.00     0.182 C 
ATOM     20  C   UNL     1       4.359   7.030  -0.400  1.00  0.00     0.145 C 
BRANCH  18  21
ATOM     21  C   UNL     1       3.635   6.954   1.950  1.00  0.00     0.037 A 
ATOM     22  C   UNL     1       2.679   7.975   2.022  1.00  0.00     0.026 A 
ATOM     23  C   UNL     1       4.343   6.653   3.116  1.00  0.00     0.026 A 
ATOM     24  C   UNL     1       2.423   8.654   3.219  1.00  0.00     0.002 A 
ATOM     25  C   UNL     1       4.104   7.333   4.315  1.00  0.00     0.002 A 
ATOM     26  C   UNL     1       3.138   8.332   4.367  1.00  0.00     0.000 A 
ENDBRANCH  18  21
ENDBRANCH  13  15
ENDBRANCH   8   9
ENDBRANCH   7   8
ENDBRANCH   5   7
ENDBRANCH   2   3
ENDBRANCH   1   2
BRANCH   1  27
ATOM     27  C   UNL     1       3.717   0.696   3.912  1.00  0.00     0.023 C 
BRANCH  27  28
ATOM     28  C   UNL     1       4.453   2.032   3.874  1.00  0.00     0.116 C 
BRANCH  28  29
ATOM     29  N   UNL     1       3.897   3.015   4.786  1.00  0.00    -0.352 N 
ATOM     30  C   UNL     1       4.527   3.846   5.678  1.00  0.00     0.251 C 
ATOM     31  H   UNL     1       2.916   3.099   4.761  1.00  0.00     0.163 HD
ATOM     32  O   UNL     1       3.849   4.488   6.484  1.00  0.00    -0.269 OA
BRANCH  30  33
ATOM     33  C   UNL     1       6.003   3.986   5.700  1.00  0.00     0.039 A 
ATOM     34  C   UNL     1       6.643   4.137   6.935  1.00  0.00     0.014 A 
ATOM     35  C   UNL     1       6.758   4.029   4.523  1.00  0.00     0.014 A 
ATOM     36  C   UNL     1       8.034   4.264   6.993  1.00  0.00     0.010 A 
ATOM     37  C   UNL     1       8.147   4.120   4.580  1.00  0.00     0.010 A 
ATOM     38  C   UNL     1       8.797   4.227   5.817  1.00  0.00    -0.014 A 
BRANCH  38  39
ATOM     39  C   UNL     1      10.280   4.228   5.858  1.00  0.00     0.031 A 
ATOM     40  C   UNL     1      11.061   5.401   5.339  1.00  0.00     0.074 A 
ATOM     41  C   UNL     1      10.915   3.117   6.278  1.00  0.00     0.049 A 
ATOM     42  N   UNL     1      12.357   5.544   5.231  1.00  0.00    -0.248 NA
ATOM     43  C   UNL     1      10.286   6.555   4.858  1.00  0.00     0.031 C 
ATOM     44  C   UNL     1      10.255   1.897   6.750  1.00  0.00     0.029 A 
ATOM     45  N   UNL     1      12.252   2.823   6.358  1.00  0.00    -0.354 N 
ATOM     46  C   UNL     1      12.556   6.798   4.665  1.00  0.00     0.074 A 
ATOM     47  C   UNL     1      11.245   7.358   4.414  1.00  0.00     0.031 C 
ATOM     48  C   UNL     1      11.189   0.990   7.075  1.00  0.00     0.029 A 
ATOM     49  C   UNL     1      12.510   1.550   6.809  1.00  0.00     0.049 A 
ATOM     50  H   UNL     1      12.960   3.463   6.115  1.00  0.00     0.167 HD
ATOM     51  C   UNL     1      13.727   7.426   4.397  1.00  0.00     0.037 A 
ATOM     52  C   UNL     1      13.679   0.904   6.981  1.00  0.00     0.037 A 
ATOM     53  C   UNL     1      15.025   6.860   4.663  1.00  0.00     0.049 A 
ATOM     54  C   UNL     1      14.963   1.624   6.675  1.00  0.00     0.074 A 
ATOM     55  C   UNL     1      16.270   7.442   4.491  1.00  0.00     0.029 A 
ATOM     56  N   UNL     1      15.249   5.579   5.147  1.00  0.00    -0.354 N 
ATOM     57  N   UNL     1      15.136   2.842   6.218  1.00  0.00    -0.248 NA
ATOM     58  C   UNL     1      16.211   0.888   6.917  1.00  0.00     0.031 C 
ATOM     59  C   UNL     1      17.246   6.498   4.829  1.00  0.00     0.029 A 
ATOM     60  C   UNL     1      16.610   5.344   5.258  1.00  0.00     0.049 A 
ATOM     61  H   UNL     1      14.544   4.932   5.379  1.00  0.00     0.167 HD
ATOM     62  C   UNL     1      16.511   3.028   6.146  1.00  0.00     0.074 A 
ATOM     63  C   UNL     1      17.123   1.802   6.614  1.00  0.00     0.031 C 
ATOM     64  C   UNL     1      17.204   4.118   5.732  1.00  0.00     0.037 A 
BRANCH  51  65
ATOM     65  C   UNL     1      13.661   8.800   3.788  1.00  0.00     0.058 A 
ATOM     66  C   UNL     1      13.227   9.913   4.526  1.00  0.00     0.135 A 
ATOM     67  C   UNL     1      14.084   9.018   2.466  1.00  0.00     0.135 A 
ATOM     68  F   UNL     1      12.800   9.762   5.790  1.00  0.00    -0.206 F 
ATOM     69  C   UNL     1      13.188  11.187   3.967  1.00  0.00     0.059 A 
ATOM     70  C   UNL     1      14.079  10.288   1.896  1.00  0.00     0.059 A 
ATOM     71  F   UNL     1      14.511   7.991   1.715  1.00  0.00    -0.206 F 
ATOM     72  C   UNL     1      13.615  11.365   2.651  1.00  0.00     0.060 A 
BRANCH  72  73
ATOM     73  S   UNL     1      13.562  13.025   1.943  1.00  0.00     0.124 S 
ATOM     74  O   UNL     1      12.128  13.206   1.737  1.00  0.00    -0.237 OA
ATOM     75  O   UNL     1      14.158  13.835   3.001  1.00  0.00    -0.237 OA
ATOM     76  O   UNL     1      14.360  12.902   0.727  1.00  0.00    -0.744 OA
ENDBRANCH  72  73
ENDBRANCH  51  65
BRANCH  52  77
ATOM     77  C   UNL     1      13.685  -0.489   7.496  1.00  0.00     0.058 A 
ATOM     78  C   UNL     1      14.125  -0.771   8.797  1.00  0.00     0.135 A 
ATOM     79  C   UNL     1      13.234  -1.561   6.710  1.00  0.00     0.135 A 
ATOM     80  F   UNL     1      14.568   0.221   9.584  1.00  0.00    -0.206 F 
ATOM     81  C   UNL     1      14.134  -2.068   9.298  1.00  0.00     0.059 A 
ATOM     82  C   UNL     1      13.210  -2.864   7.198  1.00  0.00     0.059 A 
ATOM     83  F   UNL     1      12.784  -1.341   5.465  1.00  0.00    -0.206 F 
ATOM     84  C   UNL     1      13.672  -3.109   8.491  1.00  0.00     0.060 A 
BRANCH  84  85
ATOM     85  S   UNL     1      13.643  -4.782   9.168  1.00  0.00     0.124 S 
ATOM     86  O   UNL     1      15.059  -5.129   9.154  1.00  0.00    -0.237 OA
ATOM     87  O   UNL     1      13.049  -4.570  10.485  1.00  0.00    -0.237 OA
ATOM     88  O   UNL     1      12.804  -5.512   8.222  1.00  0.00    -0.744 OA
ENDBRANCH  84  85
ENDBRANCH  52  77
BRANCH  64  89
ATOM     89  C   UNL     1      18.704   4.047   5.799  1.00  0.00     0.058 A 
ATOM     90  C   UNL     1      19.448   3.273   4.895  1.00  0.00     0.135 A 
ATOM     91  C   UNL     1      19.408   4.799   6.754  1.00  0.00     0.135 A 
ATOM     92  F   UNL     1      18.823   2.529   3.969  1.00  0.00    -0.206 F 
ATOM     93  C   UNL     1      20.838   3.229   4.949  1.00  0.00     0.059 A 
ATOM     94  C   UNL     1      20.798   4.791   6.809  1.00  0.00     0.059 A 
ATOM     95  F   UNL     1      18.745   5.562   7.636  1.00  0.00    -0.206 F 
ATOM     96  C   UNL     1      21.504   3.993   5.909  1.00  0.00     0.060 A 
BRANCH  96  97
ATOM     97  S   UNL     1      23.308   3.954   5.948  1.00  0.00     0.124 S 
ATOM     98  O   UNL     1      23.561   2.647   6.545  1.00  0.00    -0.237 OA
ATOM     99  O   UNL     1      23.655   4.084   4.536  1.00  0.00    -0.237 OA
ATOM    100  O   UNL     1      23.655   5.103   6.779  1.00  0.00    -0.744 OA
ENDBRANCH  96  97
ENDBRANCH  64  89
ENDBRANCH  38  39
ENDBRANCH  30  33
ENDBRANCH  28  29
ENDBRANCH  27  28
ENDBRANCH   1  27
TORSDOF 18
