REMARK SMILES CC[C@](C)(NC(=O)[C@H]1C[NH2+]Cc2ccccc21)C(=O)NCCCCNC(=O)c1ccc(-c2c3nc(c(-c4c(F)cc(S(=O)(=O)[O-])cc4F)c4ccc([nH]4)c(-c4c(F)cc(S(=O)(=O)[O-])cc4F)c4nc(c(-c5c(F)cc(S(=O)(=O)[O-])cc5F)c5ccc2[nH]5)C=C4)C=C3)cc1
REMARK SMILES IDX 23 1 22 2 21 3 20 4 18 5 19 6 3 8 4 9 2 10 1 11 5 12 6 13
REMARK SMILES IDX 7 15 8 16 9 17 17 18 10 19 12 20 16 21 11 22 13 25 15 26
REMARK SMILES IDX 14 27 24 28 25 29 26 30 27 32 28 33 29 34 93 35 30 36 92 37
REMARK SMILES IDX 31 38 32 39 33 40 86 41 34 42 91 43 85 44 87 45 35 46 90 47
REMARK SMILES IDX 84 48 83 49 36 51 70 52 49 53 69 54 50 55 53 56 68 57 88 58
REMARK SMILES IDX 51 59 52 60 67 62 89 63 54 64 37 65 38 66 47 67 39 68 40 69
REMARK SMILES IDX 46 70 48 71 41 72 42 73 43 74 44 75 45 76 71 77 72 78 81 79
REMARK SMILES IDX 73 80 74 81 80 82 82 83 75 84 76 85 77 86 78 87 79 88 55 89
REMARK SMILES IDX 56 90 65 91 57 92 58 93 64 94 66 95 59 96 60 97 61 98 62 99
REMARK SMILES IDX 63 100
REMARK H PARENT 20 7 5 14 10 23 10 24 25 31 87 50 53 61
REMARK Flexibility Score: inf
ROOT
ATOM      1  C   UNL     1       0.573   3.149   1.855  1.00  0.00     0.023 C 
ENDROOT
BRANCH   1   2
ATOM      2  C   UNL     1       0.732   3.042   0.346  1.00  0.00     0.023 C 
BRANCH   2   3
ATOM      3  C   UNL     1       0.199   4.212  -0.475  1.00  0.00     0.116 C 
BRANCH   3   4
ATOM      4  N   UNL     1       0.576   5.550  -0.047  1.00  0.00    -0.354 N 
ATOM      5  C   UNL     1       1.323   6.514  -0.672  1.00  0.00     0.245 C 
ATOM      6  O   UNL     1       1.132   7.677  -0.303  1.00  0.00    -0.272 OA
ATOM      7  H   UNL     1       0.238   5.807   0.841  1.00  0.00     0.163 HD
BRANCH   5   8
ATOM      8  C   UNL     1       2.246   6.196  -1.881  1.00  0.00     0.116 C 
ATOM      9  C   UNL     1       3.385   7.237  -2.024  1.00  0.00     0.045 C 
BRANCH   8  10
ATOM     10  C   UNL     1       1.396   6.405  -3.187  1.00  0.00     0.035 C 
ATOM     11  C   UNL     1       0.134   5.585  -3.403  1.00  0.00     0.007 C 
ENDBRANCH   8  10
BRANCH   8  12
ATOM     12  N   UNL     1       2.869   4.860  -1.830  1.00  0.00    -0.341 N 
ATOM     13  C   UNL     1       3.736   4.310  -0.916  1.00  0.00     0.234 C 
ATOM     14  H   UNL     1       2.623   4.264  -2.574  1.00  0.00     0.164 HD
ATOM     15  O   UNL     1       4.436   3.393  -1.365  1.00  0.00    -0.274 OA
BRANCH  13  16
ATOM     16  C   UNL     1       3.739   4.669   0.592  1.00  0.00     0.164 C 
ATOM     17  C   UNL     1       4.307   3.478   1.418  1.00  0.00     0.279 C 
ATOM     18  C   UNL     1       4.497   5.904   1.017  1.00  0.00    -0.021 A 
ATOM     19  N   UNL     1       5.771   3.370   1.568  1.00  0.00    -0.342 N 
ATOM     20  C   UNL     1       5.889   5.802   1.150  1.00  0.00     0.010 A 
ATOM     21  C   UNL     1       3.854   7.085   1.408  1.00  0.00     0.005 A 
ATOM     22  C   UNL     1       6.523   4.453   0.925  1.00  0.00     0.297 C 
ATOM     23  H   UNL     1       6.070   2.486   1.158  1.00  0.00     0.346 HD
ATOM     24  H   UNL     1       5.967   3.431   2.567  1.00  0.00     0.346 HD
ATOM     25  C   UNL     1       6.632   6.928   1.520  1.00  0.00     0.010 A 
ATOM     26  C   UNL     1       4.596   8.200   1.788  1.00  0.00     0.000 A 
ATOM     27  C   UNL     1       5.985   8.128   1.820  1.00  0.00     0.001 A 
ENDBRANCH  13  16
ENDBRANCH   8  12
ENDBRANCH   5   8
ENDBRANCH   3   4
ENDBRANCH   2   3
ENDBRANCH   1   2
BRANCH   1  28
ATOM     28  C   UNL     1      -0.841   3.463   2.305  1.00  0.00     0.116 C 
BRANCH  28  29
ATOM     29  N   UNL     1      -1.811   2.527   1.756  1.00  0.00    -0.352 N 
ATOM     30  C   UNL     1      -2.688   1.707   2.416  1.00  0.00     0.251 C 
ATOM     31  H   UNL     1      -1.841   2.476   0.773  1.00  0.00     0.163 HD
ATOM     32  O   UNL     1      -3.282   0.822   1.804  1.00  0.00    -0.269 OA
BRANCH  30  33
ATOM     33  C   UNL     1      -2.889   1.891   3.864  1.00  0.00     0.039 A 
ATOM     34  C   UNL     1      -2.922   0.772   4.696  1.00  0.00     0.014 A 
ATOM     35  C   UNL     1      -3.008   3.178   4.396  1.00  0.00     0.014 A 
ATOM     36  C   UNL     1      -3.018   0.951   6.075  1.00  0.00     0.010 A 
ATOM     37  C   UNL     1      -2.991   3.356   5.771  1.00  0.00     0.010 A 
ATOM     38  C   UNL     1      -3.018   2.245   6.624  1.00  0.00    -0.014 A 
BRANCH  38  39
ATOM     39  C   UNL     1      -3.077   2.462   8.089  1.00  0.00     0.031 A 
ATOM     40  C   UNL     1      -4.239   3.212   8.683  1.00  0.00     0.074 A 
ATOM     41  C   UNL     1      -2.060   2.042   8.867  1.00  0.00     0.049 A 
ATOM     42  N   UNL     1      -4.443   3.569   9.923  1.00  0.00    -0.248 NA
ATOM     43  C   UNL     1      -5.296   3.649   7.754  1.00  0.00     0.031 C 
ATOM     44  C   UNL     1      -0.856   1.358   8.390  1.00  0.00     0.029 A 
ATOM     45  N   UNL     1      -1.872   2.137  10.221  1.00  0.00    -0.354 N 
ATOM     46  C   UNL     1      -5.638   4.278   9.920  1.00  0.00     0.074 A 
ATOM     47  C   UNL     1      -6.078   4.364   8.547  1.00  0.00     0.031 C 
ATOM     48  C   UNL     1      -0.068   1.071   9.439  1.00  0.00     0.029 A 
ATOM     49  C   UNL     1      -0.688   1.588  10.654  1.00  0.00     0.049 A 
ATOM     50  H   UNL     1      -2.523   2.559  10.827  1.00  0.00     0.167 HD
ATOM     51  C   UNL     1      -6.325   4.782  10.972  1.00  0.00     0.037 A 
ATOM     52  C   UNL     1      -0.160   1.519  11.891  1.00  0.00     0.037 A 
ATOM     53  C   UNL     1      -5.887   4.667  12.338  1.00  0.00     0.049 A 
ATOM     54  C   UNL     1      -0.939   2.090  13.045  1.00  0.00     0.074 A 
ATOM     55  C   UNL     1      -6.529   5.095  13.486  1.00  0.00     0.029 A 
ATOM     56  N   UNL     1      -4.695   4.081  12.740  1.00  0.00    -0.354 N 
ATOM     57  N   UNL     1      -2.102   2.699  13.034  1.00  0.00    -0.248 NA
ATOM     58  C   UNL     1      -0.342   1.958  14.380  1.00  0.00     0.031 C 
ATOM     59  C   UNL     1      -5.702   4.815  14.577  1.00  0.00     0.029 A 
ATOM     60  C   UNL     1      -4.572   4.156  14.117  1.00  0.00     0.049 A 
ATOM     61  H   UNL     1      -4.034   3.672  12.136  1.00  0.00     0.167 HD
ATOM     62  C   UNL     1      -2.388   2.997  14.361  1.00  0.00     0.074 A 
ATOM     63  C   UNL     1      -1.284   2.488  15.149  1.00  0.00     0.031 C 
ATOM     64  C   UNL     1      -3.466   3.634  14.882  1.00  0.00     0.037 A 
BRANCH  51  65
ATOM     65  C   UNL     1      -7.621   5.490  10.686  1.00  0.00     0.058 A 
ATOM     66  C   UNL     1      -8.751   4.801  10.215  1.00  0.00     0.135 A 
ATOM     67  C   UNL     1      -7.747   6.870  10.913  1.00  0.00     0.135 A 
ATOM     68  F   UNL     1      -8.684   3.484   9.962  1.00  0.00    -0.206 F 
ATOM     69  C   UNL     1      -9.948   5.457   9.952  1.00  0.00     0.059 A 
ATOM     70  C   UNL     1      -8.946   7.542  10.688  1.00  0.00     0.059 A 
ATOM     71  F   UNL     1      -6.700   7.581  11.358  1.00  0.00    -0.206 F 
ATOM     72  C   UNL     1     -10.037   6.829  10.194  1.00  0.00     0.060 A 
BRANCH  72  73
ATOM     73  S   UNL     1     -11.603   7.661   9.858  1.00  0.00     0.124 S 
ATOM     74  O   UNL     1     -11.634   7.643   8.398  1.00  0.00    -0.237 OA
ATOM     75  O   UNL     1     -12.566   6.790  10.523  1.00  0.00    -0.237 OA
ATOM     76  O   UNL     1     -11.427   8.976  10.465  1.00  0.00    -0.744 OA
ENDBRANCH  72  73
ENDBRANCH  51  65
BRANCH  52  77
ATOM     77  C   UNL     1       1.163   0.871  12.100  1.00  0.00     0.058 A 
ATOM     78  C   UNL     1       1.273  -0.349  12.785  1.00  0.00     0.135 A 
ATOM     79  C   UNL     1       2.344   1.450  11.608  1.00  0.00     0.135 A 
ATOM     80  F   UNL     1       0.175  -0.942  13.278  1.00  0.00    -0.206 F 
ATOM     81  C   UNL     1       2.505  -0.961  12.994  1.00  0.00     0.059 A 
ATOM     82  C   UNL     1       3.584   0.843  11.778  1.00  0.00     0.059 A 
ATOM     83  F   UNL     1       2.293   2.606  10.928  1.00  0.00    -0.206 F 
ATOM     84  C   UNL     1       3.656  -0.357  12.484  1.00  0.00     0.060 A 
BRANCH  84  85
ATOM     85  S   UNL     1       5.244  -1.181  12.727  1.00  0.00     0.124 S 
ATOM     86  O   UNL     1       5.464  -0.980  14.155  1.00  0.00    -0.237 OA
ATOM     87  O   UNL     1       4.946  -2.548  12.313  1.00  0.00    -0.237 OA
ATOM     88  O   UNL     1       6.143  -0.447  11.840  1.00  0.00    -0.744 OA
ENDBRANCH  84  85
ENDBRANCH  52  77
BRANCH  64  89
ATOM     89  C   UNL     1      -3.526   3.784  16.378  1.00  0.00     0.058 A 
ATOM     90  C   UNL     1      -2.683   4.667  17.068  1.00  0.00     0.135 A 
ATOM     91  C   UNL     1      -4.483   3.073  17.122  1.00  0.00     0.135 A 
ATOM     92  F   UNL     1      -1.747   5.366  16.405  1.00  0.00    -0.206 F 
ATOM     93  C   UNL     1      -2.767   4.823  18.448  1.00  0.00     0.059 A 
ATOM     94  C   UNL     1      -4.607   3.238  18.497  1.00  0.00     0.059 A 
ATOM     95  F   UNL     1      -5.323   2.224  16.509  1.00  0.00    -0.206 F 
ATOM     96  C   UNL     1      -3.736   4.106  19.153  1.00  0.00     0.060 A 
BRANCH  96  97
ATOM     97  S   UNL     1      -3.859   4.346  20.937  1.00  0.00     0.124 S 
ATOM     98  O   UNL     1      -2.662   3.658  21.409  1.00  0.00    -0.237 OA
ATOM     99  O   UNL     1      -3.844   5.800  21.058  1.00  0.00    -0.237 OA
ATOM    100  O   UNL     1      -5.126   3.707  21.281  1.00  0.00    -0.744 OA
ENDBRANCH  96  97
ENDBRANCH  64  89
ENDBRANCH  38  39
ENDBRANCH  30  33
ENDBRANCH  28  29
ENDBRANCH   1  28
TORSDOF 17
