REMARK SMILES O=C(NCCCCNC(=O)[C@H](O)Cc1ccc(O)cc1)c1ccc(-c2c3nc(c(-c4c(F)cc(S(=O)(=O)[O-])cc4F)c4ccc([nH]4)c(-c4c(F)cc(S(=O)(=O)[O-])cc4F)c4nc(c(-c5c(F)cc(S(=O)(=O)[O-])cc5F)c5ccc2[nH]5)C=C4)C=C3)cc1
REMARK SMILES IDX 5 1 4 2 3 3 1 4 2 5 21 7 22 8 86 9 23 10 85 11 24 12 25 13
REMARK SMILES IDX 26 14 79 15 27 16 84 17 78 18 80 19 28 20 83 21 77 22 76 23
REMARK SMILES IDX 29 25 63 26 42 27 62 28 43 29 46 30 61 31 81 32 44 33 45 34
REMARK SMILES IDX 60 36 82 37 47 38 30 39 31 40 40 41 32 42 33 43 39 44 41 45
REMARK SMILES IDX 34 46 35 47 36 48 37 49 38 50 64 51 65 52 74 53 66 54 67 55
REMARK SMILES IDX 73 56 75 57 68 58 69 59 70 60 71 61 72 62 48 63 49 64 58 65
REMARK SMILES IDX 50 66 51 67 57 68 59 69 52 70 53 71 54 72 55 73 56 74 6 75
REMARK SMILES IDX 7 76 8 77 9 78 10 80 11 81 13 82 14 83 15 84 20 85 16 86
REMARK SMILES IDX 19 87 17 88 18 89 12 91
REMARK H PARENT 3 6 80 24 46 35 8 79 18 90 12 92
REMARK Flexibility Score: inf
ROOT
ATOM      1  C   UNL     1       6.141  10.513  -3.169  1.00  0.00     0.023 C 
ENDROOT
BRANCH   1   2
ATOM      2  C   UNL     1       4.853  11.327  -3.092  1.00  0.00     0.116 C 
BRANCH   2   3
ATOM      3  N   UNL     1       5.032  12.609  -2.431  1.00  0.00    -0.352 N 
ATOM      4  O   UNL     1       4.984  14.850  -2.214  1.00  0.00    -0.269 OA
ATOM      5  C   UNL     1       4.621  13.856  -2.838  1.00  0.00     0.251 C 
ATOM      6  H   UNL     1       5.514  12.580  -1.574  1.00  0.00     0.163 HD
BRANCH   5   7
ATOM      7  C   UNL     1       3.768  14.001  -4.039  1.00  0.00     0.039 A 
ATOM      8  C   UNL     1       2.662  13.170  -4.238  1.00  0.00     0.014 A 
ATOM      9  C   UNL     1       4.077  14.992  -4.977  1.00  0.00     0.014 A 
ATOM     10  C   UNL     1       1.945  13.245  -5.429  1.00  0.00     0.010 A 
ATOM     11  C   UNL     1       3.310  15.113  -6.140  1.00  0.00     0.010 A 
ATOM     12  C   UNL     1       2.255  14.222  -6.389  1.00  0.00    -0.014 A 
BRANCH  12  13
ATOM     13  C   UNL     1       1.425  14.330  -7.616  1.00  0.00     0.031 A 
ATOM     14  C   UNL     1       1.998  14.032  -8.975  1.00  0.00     0.074 A 
ATOM     15  C   UNL     1       0.130  14.682  -7.491  1.00  0.00     0.049 A 
ATOM     16  N   UNL     1       1.407  14.064 -10.142  1.00  0.00    -0.248 NA
ATOM     17  C   UNL     1       3.419  13.654  -9.034  1.00  0.00     0.031 C 
ATOM     18  C   UNL     1      -0.533  15.012  -6.227  1.00  0.00     0.029 A 
ATOM     19  N   UNL     1      -0.863  14.809  -8.428  1.00  0.00    -0.354 N 
ATOM     20  C   UNL     1       2.381  13.729 -11.075  1.00  0.00     0.074 A 
ATOM     21  C   UNL     1       3.610  13.517 -10.340  1.00  0.00     0.031 C 
ATOM     22  C   UNL     1      -1.829  15.267  -6.463  1.00  0.00     0.029 A 
ATOM     23  C   UNL     1      -2.078  15.170  -7.896  1.00  0.00     0.049 A 
ATOM     24  H   UNL     1      -0.719  14.656  -9.390  1.00  0.00     0.167 HD
ATOM     25  C   UNL     1       2.257  13.603 -12.419  1.00  0.00     0.037 A 
ATOM     26  C   UNL     1      -3.259  15.412  -8.495  1.00  0.00     0.037 A 
ATOM     27  C   UNL     1       1.025  13.799 -13.142  1.00  0.00     0.049 A 
ATOM     28  C   UNL     1      -3.367  15.270  -9.985  1.00  0.00     0.074 A 
ATOM     29  C   UNL     1       0.793  13.660 -14.500  1.00  0.00     0.029 A 
ATOM     30  N   UNL     1      -0.180  14.177 -12.569  1.00  0.00    -0.354 N 
ATOM     31  N   UNL     1      -2.441  14.922 -10.846  1.00  0.00    -0.248 NA
ATOM     32  C   UNL     1      -4.676  15.555 -10.586  1.00  0.00     0.031 C 
ATOM     33  C   UNL     1      -0.544  13.988 -14.752  1.00  0.00     0.029 A 
ATOM     34  C   UNL     1      -1.155  14.293 -13.547  1.00  0.00     0.049 A 
ATOM     35  H   UNL     1      -0.323  14.340 -11.608  1.00  0.00     0.167 HD
ATOM     36  C   UNL     1      -3.059  14.935 -12.091  1.00  0.00     0.074 A 
ATOM     37  C   UNL     1      -4.441  15.307 -11.868  1.00  0.00     0.031 C 
ATOM     38  C   UNL     1      -2.527  14.665 -13.308  1.00  0.00     0.037 A 
BRANCH  25  39
ATOM     39  C   UNL     1       3.487  13.245 -13.206  1.00  0.00     0.058 A 
ATOM     40  C   UNL     1       4.022  11.948 -13.190  1.00  0.00     0.135 A 
ATOM     41  C   UNL     1       4.107  14.198 -14.032  1.00  0.00     0.135 A 
ATOM     42  F   UNL     1       3.477  11.002 -12.408  1.00  0.00    -0.206 F 
ATOM     43  C   UNL     1       5.139  11.611 -13.948  1.00  0.00     0.059 A 
ATOM     44  C   UNL     1       5.213  13.878 -14.816  1.00  0.00     0.059 A 
ATOM     45  F   UNL     1       3.636  15.454 -14.086  1.00  0.00    -0.206 F 
ATOM     46  C   UNL     1       5.729  12.584 -14.758  1.00  0.00     0.060 A 
BRANCH  46  47
ATOM     47  S   UNL     1       7.173  12.131 -15.743  1.00  0.00     0.124 S 
ATOM     48  O   UNL     1       8.214  12.074 -14.722  1.00  0.00    -0.237 OA
ATOM     49  O   UNL     1       6.774  10.848 -16.312  1.00  0.00    -0.237 OA
ATOM     50  O   UNL     1       7.290  13.228 -16.699  1.00  0.00    -0.744 OA
ENDBRANCH  46  47
ENDBRANCH  25  39
BRANCH  26  51
ATOM     51  C   UNL     1      -4.429  15.814  -7.673  1.00  0.00     0.058 A 
ATOM     52  C   UNL     1      -5.502  14.936  -7.463  1.00  0.00     0.135 A 
ATOM     53  C   UNL     1      -4.480  17.073  -7.055  1.00  0.00     0.135 A 
ATOM     54  F   UNL     1      -5.498  13.723  -8.037  1.00  0.00    -0.206 F 
ATOM     55  C   UNL     1      -6.591  15.294  -6.676  1.00  0.00     0.059 A 
ATOM     56  C   UNL     1      -5.546  17.444  -6.243  1.00  0.00     0.059 A 
ATOM     57  F   UNL     1      -3.468  17.940  -7.211  1.00  0.00    -0.206 F 
ATOM     58  C   UNL     1      -6.602  16.551  -6.067  1.00  0.00     0.060 A 
BRANCH  58  59
ATOM     59  S   UNL     1      -7.989  16.988  -4.997  1.00  0.00     0.124 S 
ATOM     60  O   UNL     1      -9.021  17.313  -5.975  1.00  0.00    -0.237 OA
ATOM     61  O   UNL     1      -8.194  15.758  -4.238  1.00  0.00    -0.237 OA
ATOM     62  O   UNL     1      -7.472  18.112  -4.223  1.00  0.00    -0.744 OA
ENDBRANCH  58  59
ENDBRANCH  26  51
BRANCH  38  63
ATOM     63  C   UNL     1      -3.451  14.741 -14.490  1.00  0.00     0.058 A 
ATOM     64  C   UNL     1      -3.872  15.973 -15.013  1.00  0.00     0.135 A 
ATOM     65  C   UNL     1      -3.890  13.570 -15.127  1.00  0.00     0.135 A 
ATOM     66  F   UNL     1      -3.487  17.121 -14.433  1.00  0.00    -0.206 F 
ATOM     67  C   UNL     1      -4.716  16.041 -16.116  1.00  0.00     0.059 A 
ATOM     68  C   UNL     1      -4.716  13.615 -16.245  1.00  0.00     0.059 A 
ATOM     69  F   UNL     1      -3.508  12.367 -14.669  1.00  0.00    -0.206 F 
ATOM     70  C   UNL     1      -5.134  14.856 -16.725  1.00  0.00     0.060 A 
BRANCH  70  71
ATOM     71  S   UNL     1      -6.207  14.955 -18.173  1.00  0.00     0.124 S 
ATOM     72  O   UNL     1      -7.497  15.258 -17.562  1.00  0.00    -0.237 OA
ATOM     73  O   UNL     1      -5.600  16.037 -18.942  1.00  0.00    -0.237 OA
ATOM     74  O   UNL     1      -6.091  13.629 -18.772  1.00  0.00    -0.744 OA
ENDBRANCH  70  71
ENDBRANCH  38  63
ENDBRANCH  12  13
ENDBRANCH   5   7
ENDBRANCH   2   3
ENDBRANCH   1   2
BRANCH   1  75
ATOM     75  C   UNL     1       6.753  10.116  -1.822  1.00  0.00     0.023 C 
BRANCH  75  76
ATOM     76  C   UNL     1       5.810   9.370  -0.879  1.00  0.00     0.116 C 
BRANCH  76  77
ATOM     77  N   UNL     1       5.322   8.136  -1.465  1.00  0.00    -0.354 N 
ATOM     78  C   UNL     1       5.620   6.851  -1.128  1.00  0.00     0.249 C 
ATOM     79  H   UNL     1       4.687   8.242  -2.210  1.00  0.00     0.163 HD
ATOM     80  O   UNL     1       5.167   5.929  -1.812  1.00  0.00    -0.272 OA
BRANCH  78  81
ATOM     81  C   UNL     1       6.499   6.546   0.091  1.00  0.00     0.207 C 
BRANCH  81  82
ATOM     82  C   UNL     1       5.657   6.693   1.364  1.00  0.00     0.077 C 
BRANCH  82  83
ATOM     83  C   UNL     1       6.495   6.699   2.622  1.00  0.00    -0.045 A 
ATOM     84  C   UNL     1       6.883   5.488   3.213  1.00  0.00     0.007 A 
ATOM     85  C   UNL     1       6.912   7.905   3.203  1.00  0.00     0.007 A 
ATOM     86  C   UNL     1       7.668   5.478   4.366  1.00  0.00     0.046 A 
ATOM     87  C   UNL     1       7.699   7.896   4.356  1.00  0.00     0.046 A 
ATOM     88  C   UNL     1       8.070   6.685   4.928  1.00  0.00     0.115 A 
BRANCH  88  89
ATOM     89  O   UNL     1       8.843   6.720   6.051  1.00  0.00    -0.508 OA
ATOM     90  H   UNL     1       9.111   5.921   6.461  1.00  0.00     0.293 HD
ENDBRANCH  88  89
ENDBRANCH  82  83
ENDBRANCH  81  82
BRANCH  81  91
ATOM     91  O   UNL     1       6.981   5.198  -0.017  1.00  0.00    -0.383 OA
ATOM     92  H   UNL     1       6.229   4.588  -0.056  1.00  0.00     0.211 HD
ENDBRANCH  81  91
ENDBRANCH  78  81
ENDBRANCH  76  77
ENDBRANCH  75  76
ENDBRANCH   1  75
TORSDOF 18
