REMARK SMILES C[C@@H]1CN(S(=O)(=O)[C@@H](C)C(=O)NCCCCNC(=O)c2ccc(-c3c4nc(c(-c5c(F)cc(S(=O)(=O)[O-])cc5F)c5ccc([nH]5)c(-c5c(F)cc(S(=O)(=O)[O-])cc5F)c5nc(c(-c6c(F)cc(S(=O)(=O)[O-])cc6F)c6ccc3[nH]6)C=C5)C=C4)cc2)CC[C@@H]1[NH3+]
REMARK SMILES IDX 14 1 13 2 12 3 10 4 11 5 8 7 9 8 5 9 6 10 7 11 4 12 1 13
REMARK SMILES IDX 2 14 3 15 88 16 87 17 86 18 89 19 15 23 16 24 17 25 18 26
REMARK SMILES IDX 19 28 20 29 21 30 85 31 22 32 84 33 23 34 24 35 25 36 78 37
REMARK SMILES IDX 26 38 83 39 77 40 79 41 27 42 82 43 76 44 75 45 28 47 62 48
REMARK SMILES IDX 41 49 61 50 42 51 45 52 60 53 80 54 43 55 44 56 59 58 81 59
REMARK SMILES IDX 46 60 29 61 30 62 39 63 31 64 32 65 38 66 40 67 33 68 34 69
REMARK SMILES IDX 35 70 36 71 37 72 63 73 64 74 73 75 65 76 66 77 72 78 74 79
REMARK SMILES IDX 67 80 68 81 69 82 70 83 71 84 47 85 48 86 57 87 49 88 50 89
REMARK SMILES IDX 56 90 58 91 51 92 52 93 53 94 54 95 55 96
REMARK H PARENT 12 6 89 20 89 21 89 22 17 27 79 46 45 57
REMARK Flexibility Score: inf
ROOT
ATOM      1  C   UNL     1       2.199   0.624  -0.367  1.00  0.00     0.023 C 
ENDROOT
BRANCH   1   2
ATOM      2  C   UNL     1       2.364  -0.793  -0.907  1.00  0.00     0.116 C 
BRANCH   2   3
ATOM      3  N   UNL     1       1.145  -1.579  -0.797  1.00  0.00    -0.355 N 
ATOM      4  C   UNL     1       0.176  -1.953  -1.677  1.00  0.00     0.239 C 
ATOM      5  O   UNL     1      -0.811  -2.499  -1.164  1.00  0.00    -0.274 OA
ATOM      6  H   UNL     1       0.986  -1.916   0.115  1.00  0.00     0.163 HD
BRANCH   4   7
ATOM      7  C   UNL     1       0.257  -1.853  -3.179  1.00  0.00     0.210 C 
ATOM      8  C   UNL     1       1.594  -2.163  -3.836  1.00  0.00     0.037 C 
BRANCH   7   9
ATOM      9  S   UNL     1      -0.605  -0.463  -3.920  1.00  0.00     0.225 S 
ATOM     10  O   UNL     1      -1.952  -0.884  -4.262  1.00  0.00    -0.211 OA
ATOM     11  O   UNL     1       0.251   0.051  -4.972  1.00  0.00    -0.211 OA
BRANCH   9  12
ATOM     12  N   UNL     1      -0.731   0.757  -2.741  1.00  0.00    -0.200 NA
ATOM     13  C   UNL     1      -1.481   0.509   0.282  1.00  0.00     0.015 C 
ATOM     14  C   UNL     1      -1.926   1.562  -0.730  1.00  0.00     0.059 C 
ATOM     15  C   UNL     1      -2.076   0.878  -2.091  1.00  0.00     0.111 C 
ATOM     16  C   UNL     1      -1.098   2.879  -0.841  1.00  0.00     0.186 C 
ATOM     17  C   UNL     1      -0.030   2.979  -1.950  1.00  0.00     0.082 C 
ATOM     18  C   UNL     1      -0.299   2.115  -3.174  1.00  0.00     0.108 C 
BRANCH  16  19
ATOM     19  N   UNL     1      -0.571   3.376   0.435  1.00  0.00    -0.355 N 
ATOM     20  H   UNL     1       0.170   2.756   0.762  1.00  0.00     0.344 HD
ATOM     21  H   UNL     1      -1.321   3.401   1.126  1.00  0.00     0.344 HD
ATOM     22  H   UNL     1      -0.196   4.316   0.306  1.00  0.00     0.344 HD
ENDBRANCH  16  19
ENDBRANCH   9  12
ENDBRANCH   7   9
ENDBRANCH   4   7
ENDBRANCH   2   3
ENDBRANCH   1   2
BRANCH   1  23
ATOM     23  C   UNL     1       1.922   0.802   1.124  1.00  0.00     0.023 C 
BRANCH  23  24
ATOM     24  C   UNL     1       3.021   0.324   2.047  1.00  0.00     0.116 C 
BRANCH  24  25
ATOM     25  N   UNL     1       3.951   1.402   2.327  1.00  0.00    -0.352 N 
ATOM     26  C   UNL     1       3.898   2.354   3.320  1.00  0.00     0.251 C 
ATOM     27  H   UNL     1       4.726   1.460   1.724  1.00  0.00     0.163 HD
ATOM     28  O   UNL     1       4.476   3.424   3.139  1.00  0.00    -0.269 OA
BRANCH  26  29
ATOM     29  C   UNL     1       3.175   2.106   4.596  1.00  0.00     0.039 A 
ATOM     30  C   UNL     1       2.720   3.193   5.351  1.00  0.00     0.014 A 
ATOM     31  C   UNL     1       3.035   0.818   5.116  1.00  0.00     0.014 A 
ATOM     32  C   UNL     1       2.156   2.982   6.616  1.00  0.00     0.010 A 
ATOM     33  C   UNL     1       2.339   0.598   6.297  1.00  0.00     0.010 A 
ATOM     34  C   UNL     1       1.967   1.679   7.102  1.00  0.00    -0.014 A 
BRANCH  34  35
ATOM     35  C   UNL     1       1.516   1.411   8.494  1.00  0.00     0.031 A 
ATOM     36  C   UNL     1       2.418   0.631   9.427  1.00  0.00     0.074 A 
ATOM     37  C   UNL     1       0.301   1.819   8.904  1.00  0.00     0.049 A 
ATOM     38  N   UNL     1       2.192   0.214  10.646  1.00  0.00    -0.248 NA
ATOM     39  C   UNL     1       3.734   0.222   8.900  1.00  0.00     0.031 C 
ATOM     40  C   UNL     1      -0.678   2.528   8.078  1.00  0.00     0.029 A 
ATOM     41  N   UNL     1      -0.321   1.692  10.120  1.00  0.00    -0.354 N 
ATOM     42  C   UNL     1       3.314  -0.526  11.009  1.00  0.00     0.074 A 
ATOM     43  C   UNL     1       4.183  -0.574   9.857  1.00  0.00     0.031 C 
ATOM     44  C   UNL     1      -1.761   2.808   8.822  1.00  0.00     0.029 A 
ATOM     45  C   UNL     1      -1.570   2.266  10.163  1.00  0.00     0.049 A 
ATOM     46  H   UNL     1       0.088   1.234  10.889  1.00  0.00     0.167 HD
ATOM     47  C   UNL     1       3.617  -1.082  12.207  1.00  0.00     0.037 A 
ATOM     48  C   UNL     1      -2.457   2.345  11.174  1.00  0.00     0.037 A 
ATOM     49  C   UNL     1       2.770  -0.974  13.364  1.00  0.00     0.049 A 
ATOM     50  C   UNL     1      -2.086   1.753  12.508  1.00  0.00     0.074 A 
ATOM     51  C   UNL     1       3.001  -1.433  14.648  1.00  0.00     0.029 A 
ATOM     52  N   UNL     1       1.531  -0.349  13.377  1.00  0.00    -0.354 N 
ATOM     53  N   UNL     1      -0.995   1.109  12.850  1.00  0.00    -0.248 NA
ATOM     54  C   UNL     1      -3.059   1.910  13.596  1.00  0.00     0.031 C 
ATOM     55  C   UNL     1       1.881  -1.125  15.426  1.00  0.00     0.029 A 
ATOM     56  C   UNL     1       0.977  -0.424  14.642  1.00  0.00     0.049 A 
ATOM     57  H   UNL     1       1.109   0.084  12.600  1.00  0.00     0.167 HD
ATOM     58  C   UNL     1      -1.137   0.808  14.201  1.00  0.00     0.074 A 
ATOM     59  C   UNL     1      -2.413   1.357  14.614  1.00  0.00     0.031 C 
ATOM     60  C   UNL     1      -0.293   0.140  15.026  1.00  0.00     0.037 A 
BRANCH  47  61
ATOM     61  C   UNL     1       4.918  -1.834  12.326  1.00  0.00     0.058 A 
ATOM     62  C   UNL     1       6.162  -1.184  12.246  1.00  0.00     0.135 A 
ATOM     63  C   UNL     1       4.925  -3.222  12.544  1.00  0.00     0.135 A 
ATOM     64  F   UNL     1       6.221   0.139  12.021  1.00  0.00    -0.206 F 
ATOM     65  C   UNL     1       7.360  -1.885  12.338  1.00  0.00     0.059 A 
ATOM     66  C   UNL     1       6.112  -3.938  12.675  1.00  0.00     0.059 A 
ATOM     67  F   UNL     1       3.769  -3.899  12.629  1.00  0.00    -0.206 F 
ATOM     68  C   UNL     1       7.325  -3.263  12.553  1.00  0.00     0.060 A 
BRANCH  68  69
ATOM     69  S   UNL     1       8.891  -4.154  12.676  1.00  0.00     0.124 S 
ATOM     70  O   UNL     1       9.351  -4.127  11.290  1.00  0.00    -0.237 OA
ATOM     71  O   UNL     1       9.648  -3.328  13.611  1.00  0.00    -0.237 OA
ATOM     72  O   UNL     1       8.497  -5.466  13.179  1.00  0.00    -0.744 OA
ENDBRANCH  68  69
ENDBRANCH  47  61
BRANCH  48  73
ATOM     73  C   UNL     1      -3.754   3.047  10.973  1.00  0.00     0.058 A 
ATOM     74  C   UNL     1      -4.015   4.275  11.600  1.00  0.00     0.135 A 
ATOM     75  C   UNL     1      -4.748   2.520  10.135  1.00  0.00     0.135 A 
ATOM     76  F   UNL     1      -3.098   4.821  12.413  1.00  0.00    -0.206 F 
ATOM     77  C   UNL     1      -5.221   4.945  11.420  1.00  0.00     0.059 A 
ATOM     78  C   UNL     1      -5.951   3.185   9.916  1.00  0.00     0.059 A 
ATOM     79  F   UNL     1      -4.542   1.358   9.494  1.00  0.00    -0.206 F 
ATOM     80  C   UNL     1      -6.183   4.393  10.572  1.00  0.00     0.060 A 
BRANCH  80  81
ATOM     81  S   UNL     1      -7.726   5.294  10.311  1.00  0.00     0.124 S 
ATOM     82  O   UNL     1      -8.394   5.110  11.594  1.00  0.00    -0.237 OA
ATOM     83  O   UNL     1      -7.247   6.644  10.028  1.00  0.00    -0.237 OA
ATOM     84  O   UNL     1      -8.332   4.601   9.178  1.00  0.00    -0.744 OA
ENDBRANCH  80  81
ENDBRANCH  48  73
BRANCH  60  85
ATOM     85  C   UNL     1      -0.705   0.001  16.465  1.00  0.00     0.058 A 
ATOM     86  C   UNL     1      -1.751  -0.850  16.855  1.00  0.00     0.135 A 
ATOM     87  C   UNL     1      -0.010   0.694  17.470  1.00  0.00     0.135 A 
ATOM     88  F   UNL     1      -2.448  -1.532  15.933  1.00  0.00    -0.206 F 
ATOM     89  C   UNL     1      -2.117  -0.982  18.190  1.00  0.00     0.059 A 
ATOM     90  C   UNL     1      -0.338   0.551  18.813  1.00  0.00     0.059 A 
ATOM     91  F   UNL     1       1.009   1.507  17.151  1.00  0.00    -0.206 F 
ATOM     92  C   UNL     1      -1.404  -0.277  19.162  1.00  0.00     0.060 A 
BRANCH  92  93
ATOM     93  S   UNL     1      -1.876  -0.474  20.892  1.00  0.00     0.124 S 
ATOM     94  O   UNL     1      -3.123   0.283  20.943  1.00  0.00    -0.237 OA
ATOM     95  O   UNL     1      -2.008  -1.922  21.016  1.00  0.00    -0.237 OA
ATOM     96  O   UNL     1      -0.755   0.112  21.620  1.00  0.00    -0.744 OA
ENDBRANCH  92  93
ENDBRANCH  60  85
ENDBRANCH  34  35
ENDBRANCH  26  29
ENDBRANCH  24  25
ENDBRANCH  23  24
ENDBRANCH   1  23
TORSDOF 17
