REMARK SMILES Cc1c(C#N)c2ccccc2n1CC(=O)N1CC[C@H](O)C[C@@H]1C(=O)NCCCCNC(=O)c1ccc(-c2c3nc(c(-c4c(F)cc(S(=O)(=O)[O-])cc4F)c4ccc([nH]4)c(-c4c(F)cc(S(=O)(=O)[O-])cc4F)c4nc(c(-c5c(F)cc(S(=O)(=O)[O-])cc5F)c5ccc2[nH]5)C=C4)C=C3)cc1
REMARK SMILES IDX 27 1 26 2 25 3 23 4 24 5 22 7 16 8 17 9 18 10 21 11 19 12
REMARK SMILES IDX 14 13 15 14 13 15 12 16 1 17 2 18 3 19 6 20 11 21 7 22 10 23
REMARK SMILES IDX 8 24 9 25 4 26 5 27 20 28 28 30 29 31 30 32 31 33 32 35
REMARK SMILES IDX 33 36 34 37 98 38 35 39 97 40 36 41 37 42 38 43 91 44 39 45
REMARK SMILES IDX 96 46 90 47 92 48 40 49 95 50 89 51 88 52 41 54 75 55 54 56
REMARK SMILES IDX 74 57 55 58 58 59 73 60 93 61 56 62 57 63 72 65 94 66 59 67
REMARK SMILES IDX 42 68 43 69 52 70 44 71 45 72 51 73 53 74 46 75 47 76 48 77
REMARK SMILES IDX 49 78 50 79 76 80 77 81 86 82 78 83 79 84 85 85 87 86 80 87
REMARK SMILES IDX 81 88 82 89 83 90 84 91 60 92 61 93 70 94 62 95 63 96 69 97
REMARK SMILES IDX 71 98 64 99 65 100 66 101 67 102 68 103
REMARK H PARENT 25 6 20 29 30 34 92 53 58 64
REMARK Flexibility Score: inf
ROOT
ATOM      1  C   UNL     1       1.418   6.103   6.253  1.00  0.00     0.023 C 
ENDROOT
BRANCH   1   2
ATOM      2  C   UNL     1       2.663   5.415   5.694  1.00  0.00     0.116 C 
BRANCH   2   3
ATOM      3  N   UNL     1       2.754   4.043   6.155  1.00  0.00    -0.354 N 
ATOM      4  C   UNL     1       2.718   2.878   5.457  1.00  0.00     0.242 C 
ATOM      5  O   UNL     1       2.792   1.833   6.113  1.00  0.00    -0.273 OA
ATOM      6  H   UNL     1       2.859   3.939   7.129  1.00  0.00     0.163 HD
BRANCH   4   7
ATOM      7  C   UNL     1       2.741   2.881   3.910  1.00  0.00     0.177 C 
ATOM      8  N   UNL     1       1.998   1.741   3.338  1.00  0.00    -0.329 N 
ATOM      9  C   UNL     1       2.603   0.421   3.534  1.00  0.00     0.123 C 
ATOM     10  C   UNL     1       4.045   0.396   3.035  1.00  0.00     0.053 C 
ATOM     11  C   UNL     1       4.188   2.898   3.413  1.00  0.00     0.067 C 
ATOM     12  C   UNL     1       4.883   1.545   3.581  1.00  0.00     0.118 C 
BRANCH   8  13
ATOM     13  C   UNL     1       0.907   2.021   2.525  1.00  0.00     0.243 C 
ATOM     14  O   UNL     1       0.843   3.102   1.925  1.00  0.00    -0.273 OA
BRANCH  13  15
ATOM     15  C   UNL     1      -0.322   1.124   2.522  1.00  0.00     0.222 C 
BRANCH  15  16
ATOM     16  N   UNL     1      -0.121  -0.282   2.205  1.00  0.00    -0.334 N 
ATOM     17  C   UNL     1       0.778   0.074  -0.141  1.00  0.00     0.066 C 
ATOM     18  C   UNL     1       0.384  -0.780   1.018  1.00  0.00     0.034 A 
ATOM     19  C   UNL     1       0.533  -2.148   1.188  1.00  0.00     0.080 A 
ATOM     20  C   UNL     1       0.105  -2.491   2.501  1.00  0.00     0.018 A 
ATOM     21  C   UNL     1      -0.330  -1.312   3.112  1.00  0.00     0.050 A 
ATOM     22  C   UNL     1       0.082  -3.691   3.247  1.00  0.00     0.012 A 
ATOM     23  C   UNL     1      -0.800  -1.296   4.438  1.00  0.00     0.027 A 
ATOM     24  C   UNL     1      -0.367  -3.677   4.571  1.00  0.00     0.001 A 
ATOM     25  C   UNL     1      -0.806  -2.494   5.155  1.00  0.00     0.002 A 
BRANCH  19  26
ATOM     26  C   UNL     1       1.104  -3.045   0.223  1.00  0.00     0.102 C 
ATOM     27  N   UNL     1       1.584  -3.757  -0.549  1.00  0.00    -0.192 NA
ENDBRANCH  19  26
ENDBRANCH  15  16
ENDBRANCH  13  15
ENDBRANCH   8  13
BRANCH  12  28
ATOM     28  O   UNL     1       5.246   1.307   4.938  1.00  0.00    -0.393 OA
ATOM     29  H   UNL     1       4.445   1.262   5.483  1.00  0.00     0.210 HD
ENDBRANCH  12  28
ENDBRANCH   4   7
ENDBRANCH   2   3
ENDBRANCH   1   2
BRANCH   1  30
ATOM     30  C   UNL     1       1.363   6.197   7.787  1.00  0.00     0.023 C 
BRANCH  30  31
ATOM     31  C   UNL     1       2.602   6.806   8.441  1.00  0.00     0.116 C 
BRANCH  31  32
ATOM     32  N   UNL     1       2.924   8.134   7.968  1.00  0.00    -0.352 N 
ATOM     33  C   UNL     1       2.674   9.398   8.422  1.00  0.00     0.251 C 
ATOM     34  H   UNL     1       3.440   8.125   7.129  1.00  0.00     0.163 HD
ATOM     35  O   UNL     1       3.336  10.293   7.888  1.00  0.00    -0.269 OA
BRANCH  33  36
ATOM     36  C   UNL     1       1.613   9.770   9.396  1.00  0.00     0.039 A 
ATOM     37  C   UNL     1       0.836   8.892  10.150  1.00  0.00     0.014 A 
ATOM     38  C   UNL     1       1.323  11.147   9.463  1.00  0.00     0.014 A 
ATOM     39  C   UNL     1      -0.309   9.358  10.797  1.00  0.00     0.010 A 
ATOM     40  C   UNL     1       0.201  11.619  10.128  1.00  0.00     0.010 A 
ATOM     41  C   UNL     1      -0.665  10.712  10.719  1.00  0.00    -0.014 A 
BRANCH  41  42
ATOM     42  C   UNL     1      -1.827  11.198  11.465  1.00  0.00     0.031 A 
ATOM     43  C   UNL     1      -1.669  10.953  12.925  1.00  0.00     0.074 A 
ATOM     44  C   UNL     1      -2.870  11.872  10.919  1.00  0.00     0.049 A 
ATOM     45  N   UNL     1      -2.316  10.090  13.635  1.00  0.00    -0.248 NA
ATOM     46  C   UNL     1      -0.506  11.531  13.625  1.00  0.00     0.031 C 
ATOM     47  C   UNL     1      -3.048  12.309   9.532  1.00  0.00     0.029 A 
ATOM     48  N   UNL     1      -4.002  12.364  11.523  1.00  0.00    -0.354 N 
ATOM     49  C   UNL     1      -1.835  10.226  14.934  1.00  0.00     0.074 A 
ATOM     50  C   UNL     1      -0.598  10.948  14.823  1.00  0.00     0.031 C 
ATOM     51  C   UNL     1      -4.081  13.184   9.450  1.00  0.00     0.029 A 
ATOM     52  C   UNL     1      -4.735  13.278  10.742  1.00  0.00     0.049 A 
ATOM     53  H   UNL     1      -4.279  12.097  12.429  1.00  0.00     0.167 HD
ATOM     54  C   UNL     1      -2.654   9.972  15.992  1.00  0.00     0.037 A 
ATOM     55  C   UNL     1      -5.803  14.037  11.139  1.00  0.00     0.037 A 
ATOM     56  C   UNL     1      -3.773   9.162  15.569  1.00  0.00     0.049 A 
ATOM     57  C   UNL     1      -6.392  13.338  12.315  1.00  0.00     0.074 A 
ATOM     58  C   UNL     1      -3.901   7.906  15.008  1.00  0.00     0.029 A 
ATOM     59  N   UNL     1      -4.957   9.814  15.317  1.00  0.00    -0.354 N 
ATOM     60  N   UNL     1      -6.959  12.163  12.226  1.00  0.00    -0.248 NA
ATOM     61  C   UNL     1      -5.847  13.685  13.618  1.00  0.00     0.031 C 
ATOM     62  C   UNL     1      -4.940   8.040  14.043  1.00  0.00     0.029 A 
ATOM     63  C   UNL     1      -5.471   9.326  14.144  1.00  0.00     0.049 A 
ATOM     64  H   UNL     1      -5.365  10.510  15.881  1.00  0.00     0.167 HD
ATOM     65  C   UNL     1      -6.445  11.452  13.300  1.00  0.00     0.074 A 
ATOM     66  C   UNL     1      -5.775  12.454  14.134  1.00  0.00     0.031 C 
ATOM     67  C   UNL     1      -6.328  10.092  13.266  1.00  0.00     0.037 A 
BRANCH  54  68
ATOM     68  C   UNL     1      -2.696  10.800  17.261  1.00  0.00     0.058 A 
ATOM     69  C   UNL     1      -3.639  10.457  18.255  1.00  0.00     0.135 A 
ATOM     70  C   UNL     1      -2.090  12.066  17.419  1.00  0.00     0.135 A 
ATOM     71  F   UNL     1      -4.269   9.272  18.225  1.00  0.00    -0.206 F 
ATOM     72  C   UNL     1      -4.029  11.344  19.258  1.00  0.00     0.059 A 
ATOM     73  C   UNL     1      -2.433  12.949  18.438  1.00  0.00     0.059 A 
ATOM     74  F   UNL     1      -1.191  12.552  16.557  1.00  0.00    -0.206 F 
ATOM     75  C   UNL     1      -3.431  12.596  19.330  1.00  0.00     0.060 A 
BRANCH  75  76
ATOM     76  S   UNL     1      -3.987  13.763  20.580  1.00  0.00     0.124 S 
ATOM     77  O   UNL     1      -5.361  14.010  20.160  1.00  0.00    -0.237 OA
ATOM     78  O   UNL     1      -3.821  12.986  21.804  1.00  0.00    -0.237 OA
ATOM     79  O   UNL     1      -3.066  14.885  20.426  1.00  0.00    -0.744 OA
ENDBRANCH  75  76
ENDBRANCH  54  68
BRANCH  55  80
ATOM     80  C   UNL     1      -6.094  15.485  10.853  1.00  0.00     0.058 A 
ATOM     81  C   UNL     1      -7.270  16.129  11.308  1.00  0.00     0.135 A 
ATOM     82  C   UNL     1      -5.086  16.347  10.384  1.00  0.00     0.135 A 
ATOM     83  F   UNL     1      -8.295  15.405  11.785  1.00  0.00    -0.206 F 
ATOM     84  C   UNL     1      -7.405  17.531  11.352  1.00  0.00     0.059 A 
ATOM     85  C   UNL     1      -5.197  17.740  10.416  1.00  0.00     0.059 A 
ATOM     86  F   UNL     1      -3.913  15.862   9.955  1.00  0.00    -0.206 F 
ATOM     87  C   UNL     1      -6.345  18.331  10.928  1.00  0.00     0.060 A 
BRANCH  87  88
ATOM     88  S   UNL     1      -6.412  20.131  11.146  1.00  0.00     0.124 S 
ATOM     89  O   UNL     1      -7.479  20.514  10.227  1.00  0.00    -0.237 OA
ATOM     90  O   UNL     1      -6.718  20.263  12.566  1.00  0.00    -0.237 OA
ATOM     91  O   UNL     1      -5.073  20.570  10.759  1.00  0.00    -0.744 OA
ENDBRANCH  87  88
ENDBRANCH  55  80
BRANCH  67  92
ATOM     92  C   UNL     1      -6.966   9.321  12.136  1.00  0.00     0.058 A 
ATOM     93  C   UNL     1      -6.539   9.368  10.796  1.00  0.00     0.135 A 
ATOM     94  C   UNL     1      -7.881   8.315  12.479  1.00  0.00     0.135 A 
ATOM     95  F   UNL     1      -5.601  10.241  10.402  1.00  0.00    -0.206 F 
ATOM     96  C   UNL     1      -7.003   8.455   9.843  1.00  0.00     0.059 A 
ATOM     97  C   UNL     1      -8.333   7.377  11.555  1.00  0.00     0.059 A 
ATOM     98  F   UNL     1      -8.282   8.180  13.754  1.00  0.00    -0.206 F 
ATOM     99  C   UNL     1      -7.891   7.453  10.237  1.00  0.00     0.060 A 
BRANCH  99 100
ATOM    100  S   UNL     1      -8.409   6.204   9.037  1.00  0.00     0.124 S 
ATOM    101  O   UNL     1      -9.202   6.989   8.098  1.00  0.00    -0.237 OA
ATOM    102  O   UNL     1      -7.133   5.706   8.530  1.00  0.00    -0.237 OA
ATOM    103  O   UNL     1      -9.164   5.247   9.843  1.00  0.00    -0.744 OA
ENDBRANCH  99 100
ENDBRANCH  67  92
ENDBRANCH  41  42
ENDBRANCH  33  36
ENDBRANCH  31  32
ENDBRANCH  30  31
ENDBRANCH   1  30
TORSDOF 19
