REMARK SMILES O=C1CC[C@@H](CC(=O)N2CCC(Oc3ccccc3)(C(=O)NCCCCNC(=O)c3ccc(-c4c5nc(c(-c6c(F)cc(S(=O)(=O)[O-])cc6F)c6ccc([nH]6)c(-c6c(F)cc(S(=O)(=O)[O-])cc6F)c6nc(c(-c7c(F)cc(S(=O)(=O)[O-])cc7F)c7ccc4[nH]7)C=C6)C=C5)cc3)CC2)N1
REMARK SMILES IDX 25 1 24 2 23 3 22 4 20 5 21 6 12 8 7 9 8 10 9 11 10 12 97 13
REMARK SMILES IDX 11 14 96 15 6 16 5 17 1 18 2 19 3 20 98 21 4 22 13 24 14 25
REMARK SMILES IDX 15 26 19 27 16 28 18 29 17 30 26 31 27 32 28 33 29 35 30 36
REMARK SMILES IDX 31 37 95 38 32 39 94 40 33 41 34 42 35 43 88 44 36 45 93 46
REMARK SMILES IDX 87 47 89 48 37 49 92 50 86 51 85 52 38 54 72 55 51 56 71 57
REMARK SMILES IDX 52 58 55 59 70 60 90 61 53 62 54 63 69 65 91 66 56 67 39 68
REMARK SMILES IDX 40 69 49 70 41 71 42 72 48 73 50 74 43 75 44 76 45 77 46 78
REMARK SMILES IDX 47 79 73 80 74 81 83 82 75 83 76 84 82 85 84 86 77 87 78 88
REMARK SMILES IDX 79 89 80 90 81 91 57 92 58 93 67 94 59 95 60 96 66 97 68 98
REMARK SMILES IDX 61 99 62 100 63 101 64 102 65 103
REMARK H PARENT 22 7 98 23 27 34 89 53 55 64
REMARK Flexibility Score: inf
ROOT
ATOM      1  C   UNL     1      -0.071   2.781  -8.400  1.00  0.00     0.023 C 
ENDROOT
BRANCH   1   2
ATOM      2  C   UNL     1       0.523   1.458  -7.916  1.00  0.00     0.023 C 
BRANCH   2   3
ATOM      3  C   UNL     1       1.730   1.621  -6.999  1.00  0.00     0.116 C 
BRANCH   3   4
ATOM      4  N   UNL     1       1.346   2.294  -5.782  1.00  0.00    -0.353 N 
ATOM      5  C   UNL     1       1.255   1.816  -4.515  1.00  0.00     0.264 C 
ATOM      6  O   UNL     1       0.943   2.648  -3.657  1.00  0.00    -0.270 OA
ATOM      7  H   UNL     1       1.115   3.245  -5.887  1.00  0.00     0.163 HD
BRANCH   5   8
ATOM      8  C   UNL     1       1.554   0.325  -4.175  1.00  0.00     0.190 C 
ATOM      9  C   UNL     1      -1.561  -1.655  -2.249  1.00  0.00     0.224 C 
ATOM     10  O   UNL     1      -1.801  -2.706  -2.859  1.00  0.00    -0.275 OA
ATOM     11  N   UNL     1      -0.897  -0.627  -2.889  1.00  0.00    -0.342 N 
ATOM     12  C   UNL     1      -0.842  -0.573  -4.348  1.00  0.00     0.124 C 
ATOM     13  C   UNL     1      -0.041   0.333  -2.236  1.00  0.00     0.124 C 
ATOM     14  C   UNL     1       0.593  -0.677  -4.856  1.00  0.00     0.080 C 
ATOM     15  C   UNL     1       1.416   0.171  -2.655  1.00  0.00     0.080 C 
BRANCH   9  16
ATOM     16  C   UNL     1      -2.237  -1.469  -0.877  1.00  0.00     0.125 C 
BRANCH  16  17
ATOM     17  C   UNL     1      -1.647  -0.856   0.395  1.00  0.00     0.091 C 
ATOM     18  O   UNL     1       1.611  -0.172   1.514  1.00  0.00    -0.275 OA
ATOM     19  C   UNL     1       0.444  -0.114   1.160  1.00  0.00     0.220 C 
ATOM     20  C   UNL     1      -0.409   1.129   1.105  1.00  0.00     0.102 C 
ATOM     21  N   UNL     1      -0.287  -1.185   0.698  1.00  0.00    -0.353 N 
ATOM     22  C   UNL     1      -1.745   0.667   0.514  1.00  0.00     0.035 C 
ATOM     23  H   UNL     1       0.088  -2.088   0.587  1.00  0.00     0.163 HD
ENDBRANCH  16  17
ENDBRANCH   9  16
BRANCH   8  24
ATOM     24  O   UNL     1       2.939   0.227  -4.600  1.00  0.00    -0.477 OA
BRANCH  24  25
ATOM     25  C   UNL     1       3.597  -0.946  -4.397  1.00  0.00     0.120 A 
ATOM     26  C   UNL     1       4.579  -0.988  -3.410  1.00  0.00     0.046 A 
ATOM     27  C   UNL     1       3.422  -2.029  -5.255  1.00  0.00     0.046 A 
ATOM     28  C   UNL     1       5.331  -2.149  -3.229  1.00  0.00     0.004 A 
ATOM     29  C   UNL     1       4.156  -3.198  -5.061  1.00  0.00     0.004 A 
ATOM     30  C   UNL     1       5.108  -3.260  -4.044  1.00  0.00     0.000 A 
ENDBRANCH  24  25
ENDBRANCH   8  24
ENDBRANCH   5   8
ENDBRANCH   3   4
ENDBRANCH   2   3
ENDBRANCH   1   2
BRANCH   1  31
ATOM     31  C   UNL     1       0.940   3.740  -9.014  1.00  0.00     0.116 C 
BRANCH  31  32
ATOM     32  N   UNL     1       1.703   3.127 -10.090  1.00  0.00    -0.352 N 
ATOM     33  C   UNL     1       1.986   3.632 -11.334  1.00  0.00     0.251 C 
ATOM     34  H   UNL     1       2.064   2.231  -9.901  1.00  0.00     0.163 HD
ATOM     35  O   UNL     1       2.500   2.918 -12.188  1.00  0.00    -0.269 OA
BRANCH  33  36
ATOM     36  C   UNL     1       1.635   5.034 -11.631  1.00  0.00     0.039 A 
ATOM     37  C   UNL     1       0.946   5.323 -12.808  1.00  0.00     0.014 A 
ATOM     38  C   UNL     1       1.950   6.048 -10.722  1.00  0.00     0.014 A 
ATOM     39  C   UNL     1       0.521   6.630 -13.048  1.00  0.00     0.010 A 
ATOM     40  C   UNL     1       1.451   7.329 -10.922  1.00  0.00     0.010 A 
ATOM     41  C   UNL     1       0.740   7.636 -12.092  1.00  0.00    -0.014 A 
BRANCH  41  42
ATOM     42  C   UNL     1       0.257   9.023 -12.308  1.00  0.00     0.031 A 
ATOM     43  C   UNL     1       1.248  10.152 -12.399  1.00  0.00     0.074 A 
ATOM     44  C   UNL     1      -1.067   9.269 -12.373  1.00  0.00     0.049 A 
ATOM     45  N   UNL     1       1.027  11.436 -12.505  1.00  0.00    -0.248 NA
ATOM     46  C   UNL     1       2.676   9.794 -12.337  1.00  0.00     0.031 C 
ATOM     47  C   UNL     1      -2.125   8.262 -12.256  1.00  0.00     0.029 A 
ATOM     48  N   UNL     1      -1.752  10.446 -12.545  1.00  0.00    -0.354 N 
ATOM     49  C   UNL     1       2.281  12.036 -12.521  1.00  0.00     0.074 A 
ATOM     50  C   UNL     1       3.257  10.984 -12.344  1.00  0.00     0.031 C 
ATOM     51  C   UNL     1      -3.321   8.861 -12.381  1.00  0.00     0.029 A 
ATOM     52  C   UNL     1      -3.120  10.297 -12.543  1.00  0.00     0.049 A 
ATOM     53  H   UNL     1      -1.306  11.316 -12.658  1.00  0.00     0.167 HD
ATOM     54  C   UNL     1       2.593  13.340 -12.700  1.00  0.00     0.037 A 
ATOM     55  C   UNL     1      -4.099  11.217 -12.648  1.00  0.00     0.037 A 
ATOM     56  C   UNL     1       1.618  14.379 -12.900  1.00  0.00     0.049 A 
ATOM     57  C   UNL     1      -3.722  12.667 -12.819  1.00  0.00     0.074 A 
ATOM     58  C   UNL     1       1.833  15.728 -13.120  1.00  0.00     0.029 A 
ATOM     59  N   UNL     1       0.244  14.186 -12.912  1.00  0.00    -0.354 N 
ATOM     60  N   UNL     1      -2.528  13.208 -12.880  1.00  0.00    -0.248 NA
ATOM     61  C   UNL     1      -4.824  13.631 -12.943  1.00  0.00     0.031 C 
ATOM     62  C   UNL     1       0.589  16.358 -13.222  1.00  0.00     0.029 A 
ATOM     63  C   UNL     1      -0.400  15.393 -13.124  1.00  0.00     0.049 A 
ATOM     64  H   UNL     1      -0.205  13.319 -12.788  1.00  0.00     0.167 HD
ATOM     65  C   UNL     1      -2.738  14.567 -13.092  1.00  0.00     0.074 A 
ATOM     66  C   UNL     1      -4.170  14.763 -13.160  1.00  0.00     0.031 C 
ATOM     67  C   UNL     1      -1.827  15.564 -13.219  1.00  0.00     0.037 A 
BRANCH  54  68
ATOM     68  C   UNL     1       4.048  13.721 -12.718  1.00  0.00     0.058 A 
ATOM     69  C   UNL     1       4.885  13.361 -13.787  1.00  0.00     0.135 A 
ATOM     70  C   UNL     1       4.595  14.514 -11.697  1.00  0.00     0.135 A 
ATOM     71  F   UNL     1       4.420  12.585 -14.779  1.00  0.00    -0.206 F 
ATOM     72  C   UNL     1       6.214  13.766 -13.839  1.00  0.00     0.059 A 
ATOM     73  C   UNL     1       5.914  14.956 -11.743  1.00  0.00     0.059 A 
ATOM     74  F   UNL     1       3.841  14.882 -10.649  1.00  0.00    -0.206 F 
ATOM     75  C   UNL     1       6.717  14.572 -12.817  1.00  0.00     0.060 A 
BRANCH  75  76
ATOM     76  S   UNL     1       8.430  15.128 -12.929  1.00  0.00     0.124 S 
ATOM     77  O   UNL     1       9.157  13.884 -12.696  1.00  0.00    -0.237 OA
ATOM     78  O   UNL     1       8.496  15.655 -14.288  1.00  0.00    -0.237 OA
ATOM     79  O   UNL     1       8.536  16.124 -11.867  1.00  0.00    -0.744 OA
ENDBRANCH  75  76
ENDBRANCH  54  68
BRANCH  55  80
ATOM     80  C   UNL     1      -5.531  10.810 -12.597  1.00  0.00     0.058 A 
ATOM     81  C   UNL     1      -6.368  10.959 -13.714  1.00  0.00     0.135 A 
ATOM     82  C   UNL     1      -6.104  10.308 -11.418  1.00  0.00     0.135 A 
ATOM     83  F   UNL     1      -5.870  11.436 -14.865  1.00  0.00    -0.206 F 
ATOM     84  C   UNL     1      -7.728  10.672 -13.652  1.00  0.00     0.059 A 
ATOM     85  C   UNL     1      -7.455   9.981 -11.341  1.00  0.00     0.059 A 
ATOM     86  F   UNL     1      -5.346  10.124 -10.325  1.00  0.00    -0.206 F 
ATOM     87  C   UNL     1      -8.263  10.189 -12.457  1.00  0.00     0.060 A 
BRANCH  87  88
ATOM     88  S   UNL     1     -10.031   9.829 -12.382  1.00  0.00     0.124 S 
ATOM     89  O   UNL     1     -10.602  11.171 -12.367  1.00  0.00    -0.237 OA
ATOM     90  O   UNL     1     -10.239   9.058 -13.603  1.00  0.00    -0.237 OA
ATOM     91  O   UNL     1     -10.165   9.072 -11.140  1.00  0.00    -0.744 OA
ENDBRANCH  87  88
ENDBRANCH  55  80
BRANCH  67  92
ATOM     92  C   UNL     1      -2.345  16.947 -13.508  1.00  0.00     0.058 A 
ATOM     93  C   UNL     1      -3.023  17.704 -12.540  1.00  0.00     0.135 A 
ATOM     94  C   UNL     1      -2.108  17.541 -14.758  1.00  0.00     0.135 A 
ATOM     95  F   UNL     1      -3.280  17.182 -11.331  1.00  0.00    -0.206 F 
ATOM     96  C   UNL     1      -3.472  18.992 -12.812  1.00  0.00     0.059 A 
ATOM     97  C   UNL     1      -2.518  18.840 -15.040  1.00  0.00     0.059 A 
ATOM     98  F   UNL     1      -1.453  16.865 -15.716  1.00  0.00    -0.206 F 
ATOM     99  C   UNL     1      -3.212  19.553 -14.064  1.00  0.00     0.060 A 
BRANCH  99 100
ATOM    100  S   UNL     1      -3.771  21.238 -14.390  1.00  0.00     0.124 S 
ATOM    101  O   UNL     1      -5.213  21.052 -14.509  1.00  0.00    -0.237 OA
ATOM    102  O   UNL     1      -3.319  21.951 -13.199  1.00  0.00    -0.237 OA
ATOM    103  O   UNL     1      -3.079  21.593 -15.625  1.00  0.00    -0.744 OA
ENDBRANCH  99 100
ENDBRANCH  67  92
ENDBRANCH  41  42
ENDBRANCH  33  36
ENDBRANCH  31  32
ENDBRANCH   1  31
TORSDOF 18
