REMARK SMILES Cn1c(C[NH+]2CCC3(CC2)NC(=O)C[C@@H]3C(=O)NCCCCNC(=O)c2ccc(-c3c4nc(c(-c5c(F)cc(S(=O)(=O)[O-])cc5F)c5ccc([nH]5)c(-c5c(F)cc(S(=O)(=O)[O-])cc5F)c5nc(c(-c6c(F)cc(S(=O)(=O)[O-])cc6F)c6ccc3[nH]6)C=C5)C=C4)cc2)nc2ccccc21
REMARK SMILES IDX 21 1 20 2 19 3 18 4 16 5 17 6 15 8 5 9 6 10 10 11 7 13 9 14
REMARK SMILES IDX 8 15 11 16 12 17 14 19 13 20 4 21 3 22 1 23 2 24 98 25 92 26
REMARK SMILES IDX 93 27 97 28 94 29 96 30 95 31 22 32 23 33 24 34 25 36 26 37
REMARK SMILES IDX 27 38 91 39 28 40 90 41 29 42 30 43 31 44 84 45 32 46 89 47
REMARK SMILES IDX 83 48 85 49 33 50 88 51 82 52 81 53 34 55 68 56 47 57 67 58
REMARK SMILES IDX 48 59 51 60 66 61 86 62 49 63 50 64 65 66 87 67 52 68 35 69
REMARK SMILES IDX 36 70 45 71 37 72 38 73 44 74 46 75 39 76 40 77 41 78 42 79
REMARK SMILES IDX 43 80 69 81 70 82 79 83 71 84 72 85 78 86 80 87 73 88 74 89
REMARK SMILES IDX 75 90 76 91 77 92 53 93 54 94 63 95 55 96 56 97 62 98 64 99
REMARK SMILES IDX 57 100 58 101 59 102 60 103 61 104
REMARK H PARENT 18 7 5 12 11 18 23 35 85 54 51 65
REMARK Flexibility Score: inf
ROOT
ATOM      1  C   UNL     1      -5.770  -5.308  -3.139  1.00  0.00     0.023 C 
ENDROOT
BRANCH   1   2
ATOM      2  C   UNL     1      -4.361  -5.299  -2.578  1.00  0.00     0.023 C 
BRANCH   2   3
ATOM      3  C   UNL     1      -3.227  -5.145  -3.599  1.00  0.00     0.116 C 
BRANCH   3   4
ATOM      4  N   UNL     1      -3.304  -3.902  -4.343  1.00  0.00    -0.356 N 
ATOM      5  C   UNL     1      -2.358  -2.965  -4.620  1.00  0.00     0.226 C 
ATOM      6  O   UNL     1      -2.679  -2.055  -5.386  1.00  0.00    -0.275 OA
ATOM      7  H   UNL     1      -4.195  -3.702  -4.710  1.00  0.00     0.163 HD
BRANCH   5   8
ATOM      8  C   UNL     1      -0.979  -3.024  -3.981  1.00  0.00     0.114 C 
ATOM      9  N   UNL     1      -3.111  -1.957  -0.774  1.00  0.00    -0.328 N 
ATOM     10  C   UNL     1      -3.088  -1.183  -2.008  1.00  0.00     0.265 C 
ATOM     11  C   UNL     1      -2.236  -3.122  -0.764  1.00  0.00     0.265 C 
ATOM     12  H   UNL     1      -4.054  -2.345  -0.792  1.00  0.00     0.348 HD
ATOM     13  C   UNL     1      -1.698  -0.921  -2.593  1.00  0.00     0.091 C 
ATOM     14  C   UNL     1      -0.863  -3.007  -1.403  1.00  0.00     0.091 C 
ATOM     15  C   UNL     1      -0.801  -2.169  -2.687  1.00  0.00     0.063 C 
ATOM     16  N   UNL     1       0.585  -1.723  -2.816  1.00  0.00    -0.349 N 
ATOM     17  C   UNL     1       1.127  -1.877  -4.062  1.00  0.00     0.221 C 
ATOM     18  H   UNL     1       1.090  -1.341  -2.062  1.00  0.00     0.164 HD
ATOM     19  C   UNL     1       0.076  -2.458  -4.958  1.00  0.00     0.116 C 
ATOM     20  O   UNL     1       2.259  -1.563  -4.376  1.00  0.00    -0.275 OA
BRANCH   9  21
ATOM     21  C   UNL     1      -3.110  -1.188   0.481  1.00  0.00     0.339 C 
BRANCH  21  22
ATOM     22  C   UNL     1      -1.789  -0.557   0.795  1.00  0.00     0.165 A 
ATOM     23  C   UNL     1      -2.327   1.833   0.155  1.00  0.00     0.152 C 
ATOM     24  N   UNL     1      -1.450   0.753   0.536  1.00  0.00    -0.326 N 
ATOM     25  C   UNL     1      -0.072   0.819   0.492  1.00  0.00     0.068 A 
ATOM     26  N   UNL     1      -0.729  -1.232   1.203  1.00  0.00    -0.227 NA
ATOM     27  C   UNL     1       0.342  -0.444   0.896  1.00  0.00     0.089 A 
ATOM     28  C   UNL     1       0.827   1.809   0.084  1.00  0.00     0.028 A 
ATOM     29  C   UNL     1       1.701  -0.782   0.855  1.00  0.00     0.030 A 
ATOM     30  C   UNL     1       2.179   1.448   0.028  1.00  0.00     0.002 A 
ATOM     31  C   UNL     1       2.611   0.171   0.392  1.00  0.00     0.002 A 
ENDBRANCH  21  22
ENDBRANCH   9  21
ENDBRANCH   5   8
ENDBRANCH   3   4
ENDBRANCH   2   3
ENDBRANCH   1   2
BRANCH   1  32
ATOM     32  C   UNL     1      -6.013  -6.384  -4.171  1.00  0.00     0.116 C 
BRANCH  32  33
ATOM     33  N   UNL     1      -5.751  -7.719  -3.648  1.00  0.00    -0.352 N 
ATOM     34  C   UNL     1      -6.613  -8.780  -3.516  1.00  0.00     0.251 C 
ATOM     35  H   UNL     1      -4.828  -7.883  -3.347  1.00  0.00     0.163 HD
ATOM     36  O   UNL     1      -6.283  -9.768  -2.869  1.00  0.00    -0.269 OA
BRANCH  34  37
ATOM     37  C   UNL     1      -7.948  -8.695  -4.140  1.00  0.00     0.039 A 
ATOM     38  C   UNL     1      -9.071  -9.098  -3.418  1.00  0.00     0.014 A 
ATOM     39  C   UNL     1      -8.085  -8.153  -5.420  1.00  0.00     0.014 A 
ATOM     40  C   UNL     1     -10.340  -8.886  -3.957  1.00  0.00     0.010 A 
ATOM     41  C   UNL     1      -9.345  -7.824  -5.893  1.00  0.00     0.010 A 
ATOM     42  C   UNL     1     -10.488  -8.207  -5.179  1.00  0.00    -0.014 A 
BRANCH  42  43
ATOM     43  C   UNL     1     -11.825  -7.912  -5.748  1.00  0.00     0.031 A 
ATOM     44  C   UNL     1     -12.195  -8.463  -7.100  1.00  0.00     0.074 A 
ATOM     45  C   UNL     1     -12.672  -7.100  -5.085  1.00  0.00     0.049 A 
ATOM     46  N   UNL     1     -13.280  -8.268  -7.801  1.00  0.00    -0.248 NA
ATOM     47  C   UNL     1     -11.198  -9.317  -7.770  1.00  0.00     0.031 C 
ATOM     48  C   UNL     1     -12.397  -6.457  -3.797  1.00  0.00     0.029 A 
ATOM     49  N   UNL     1     -13.935  -6.671  -5.404  1.00  0.00    -0.354 N 
ATOM     50  C   UNL     1     -13.090  -8.959  -8.992  1.00  0.00     0.074 A 
ATOM     51  C   UNL     1     -11.758  -9.516  -8.953  1.00  0.00     0.031 C 
ATOM     52  C   UNL     1     -13.472  -5.746  -3.420  1.00  0.00     0.029 A 
ATOM     53  C   UNL     1     -14.494  -5.844  -4.457  1.00  0.00     0.049 A 
ATOM     54  H   UNL     1     -14.398  -6.931  -6.232  1.00  0.00     0.167 HD
ATOM     55  C   UNL     1     -13.960  -9.143 -10.012  1.00  0.00     0.037 A 
ATOM     56  C   UNL     1     -15.693  -5.231  -4.433  1.00  0.00     0.037 A 
ATOM     57  C   UNL     1     -15.295  -8.609 -10.027  1.00  0.00     0.049 A 
ATOM     58  C   UNL     1     -16.643  -5.449  -5.580  1.00  0.00     0.074 A 
ATOM     59  C   UNL     1     -16.279  -8.783 -10.983  1.00  0.00     0.029 A 
ATOM     60  N   UNL     1     -15.833  -7.795  -9.040  1.00  0.00    -0.354 N 
ATOM     61  N   UNL     1     -16.474  -6.166  -6.667  1.00  0.00    -0.248 NA
ATOM     62  C   UNL     1     -17.951  -4.785  -5.495  1.00  0.00     0.031 C 
ATOM     63  C   UNL     1     -17.394  -8.031 -10.601  1.00  0.00     0.029 A 
ATOM     64  C   UNL     1     -17.128  -7.440  -9.376  1.00  0.00     0.049 A 
ATOM     65  H   UNL     1     -15.363  -7.513  -8.222  1.00  0.00     0.167 HD
ATOM     66  C   UNL     1     -17.664  -6.065  -7.378  1.00  0.00     0.074 A 
ATOM     67  C   UNL     1     -18.548  -5.229  -6.593  1.00  0.00     0.031 C 
ATOM     68  C   UNL     1     -17.997  -6.615  -8.573  1.00  0.00     0.037 A 
BRANCH  55  69
ATOM     69  C   UNL     1     -13.497  -9.960 -11.188  1.00  0.00     0.058 A 
ATOM     70  C   UNL     1     -13.258 -11.341 -11.081  1.00  0.00     0.135 A 
ATOM     71  C   UNL     1     -13.324  -9.364 -12.448  1.00  0.00     0.135 A 
ATOM     72  F   UNL     1     -13.389 -11.961  -9.897  1.00  0.00    -0.206 F 
ATOM     73  C   UNL     1     -12.838 -12.094 -12.171  1.00  0.00     0.059 A 
ATOM     74  C   UNL     1     -12.936 -10.105 -13.560  1.00  0.00     0.059 A 
ATOM     75  F   UNL     1     -13.533  -8.048 -12.608  1.00  0.00    -0.206 F 
ATOM     76  C   UNL     1     -12.683 -11.468 -13.409  1.00  0.00     0.060 A 
BRANCH  76  77
ATOM     77  S   UNL     1     -12.154 -12.466 -14.816  1.00  0.00     0.124 S 
ATOM     78  O   UNL     1     -10.761 -12.736 -14.474  1.00  0.00    -0.237 OA
ATOM     79  O   UNL     1     -13.058 -13.609 -14.743  1.00  0.00    -0.237 OA
ATOM     80  O   UNL     1     -12.358 -11.579 -15.958  1.00  0.00    -0.744 OA
ENDBRANCH  76  77
ENDBRANCH  55  69
BRANCH  56  81
ATOM     81  C   UNL     1     -16.071  -4.375  -3.276  1.00  0.00     0.058 A 
ATOM     82  C   UNL     1     -17.085  -4.764  -2.387  1.00  0.00     0.135 A 
ATOM     83  C   UNL     1     -15.424  -3.153  -3.030  1.00  0.00     0.135 A 
ATOM     84  F   UNL     1     -17.737  -5.921  -2.580  1.00  0.00    -0.206 F 
ATOM     85  C   UNL     1     -17.460  -3.965  -1.312  1.00  0.00     0.059 A 
ATOM     86  C   UNL     1     -15.761  -2.351  -1.944  1.00  0.00     0.059 A 
ATOM     87  F   UNL     1     -14.434  -2.741  -3.838  1.00  0.00    -0.206 F 
ATOM     88  C   UNL     1     -16.790  -2.760  -1.098  1.00  0.00     0.060 A 
BRANCH  88  89
ATOM     89  S   UNL     1     -17.260  -1.748   0.323  1.00  0.00     0.124 S 
ATOM     90  O   UNL     1     -18.563  -1.244  -0.094  1.00  0.00    -0.237 OA
ATOM     91  O   UNL     1     -17.269  -2.727   1.405  1.00  0.00    -0.237 OA
ATOM     92  O   UNL     1     -16.193  -0.755   0.395  1.00  0.00    -0.744 OA
ENDBRANCH  88  89
ENDBRANCH  56  81
BRANCH  68  93
ATOM     93  C   UNL     1     -19.390  -6.372  -9.085  1.00  0.00     0.058 A 
ATOM     94  C   UNL     1     -19.798  -5.116  -9.559  1.00  0.00     0.135 A 
ATOM     95  C   UNL     1     -20.312  -7.430  -9.154  1.00  0.00     0.135 A 
ATOM     96  F   UNL     1     -18.959  -4.069  -9.510  1.00  0.00    -0.206 F 
ATOM     97  C   UNL     1     -21.080  -4.910 -10.058  1.00  0.00     0.059 A 
ATOM     98  C   UNL     1     -21.587  -7.255  -9.681  1.00  0.00     0.059 A 
ATOM     99  F   UNL     1     -19.969  -8.656  -8.726  1.00  0.00    -0.206 F 
ATOM    100  C   UNL     1     -21.966  -5.988 -10.119  1.00  0.00     0.060 A 
BRANCH 100 101
ATOM    101  S   UNL     1     -23.614  -5.714 -10.801  1.00  0.00     0.124 S 
ATOM    102  O   UNL     1     -24.247  -4.940  -9.738  1.00  0.00    -0.237 OA
ATOM    103  O   UNL     1     -23.324  -4.983 -12.031  1.00  0.00    -0.237 OA
ATOM    104  O   UNL     1     -24.134  -7.065 -10.989  1.00  0.00    -0.744 OA
ENDBRANCH 100 101
ENDBRANCH  68  93
ENDBRANCH  42  43
ENDBRANCH  34  37
ENDBRANCH  32  33
ENDBRANCH   1  32
TORSDOF 16
