REMARK SMILES C[C@@H](CC(=O)NCCCCNC(=O)c1ccc(-c2c3nc(c(-c4c(F)cc(S(=O)(=O)[O-])cc4F)c4ccc([nH]4)c(-c4c(F)cc(S(=O)(=O)[O-])cc4F)c4nc(c(-c5c(F)cc(S(=O)(=O)[O-])cc5F)c5ccc2[nH]5)C=C4)C=C3)cc1)CC(=O)N1C[C@H](C)[C@@H](C)C1
REMARK SMILES IDX 8 1 7 2 6 3 4 4 5 5 3 7 2 8 1 9 80 10 81 11 82 12 83 13
REMARK SMILES IDX 84 14 89 15 85 16 87 17 86 18 88 19 9 20 10 21 11 22 12 23
REMARK SMILES IDX 13 25 14 26 15 27 79 28 16 29 78 30 17 31 18 32 19 33 72 34
REMARK SMILES IDX 20 35 77 36 71 37 73 38 21 39 76 40 70 41 69 42 22 44 56 45
REMARK SMILES IDX 35 46 55 47 36 48 39 49 54 50 74 51 37 52 38 53 53 55 75 56
REMARK SMILES IDX 40 57 23 58 24 59 33 60 25 61 26 62 32 63 34 64 27 65 28 66
REMARK SMILES IDX 29 67 30 68 31 69 57 70 58 71 67 72 59 73 60 74 66 75 68 76
REMARK SMILES IDX 61 77 62 78 63 79 64 80 65 81 41 82 42 83 51 84 43 85 44 86
REMARK SMILES IDX 50 87 52 88 45 89 46 90 47 91 48 92 49 93
REMARK H PARENT 6 6 11 24 73 43 39 54
REMARK Flexibility Score: inf
ROOT
ATOM      1  C   UNL     1       1.246  -1.102  -2.042  1.00  0.00     0.023 C 
ENDROOT
BRANCH   1   2
ATOM      2  C   UNL     1       1.801   0.261  -2.449  1.00  0.00     0.116 C 
BRANCH   2   3
ATOM      3  N   UNL     1       0.739   1.212  -2.707  1.00  0.00    -0.356 N 
ATOM      4  C   UNL     1       0.232   2.197  -1.915  1.00  0.00     0.220 C 
ATOM      5  O   UNL     1      -0.726   2.849  -2.333  1.00  0.00    -0.275 OA
ATOM      6  H   UNL     1       0.317   1.134  -3.593  1.00  0.00     0.163 HD
BRANCH   4   7
ATOM      7  C   UNL     1       0.835   2.494  -0.552  1.00  0.00     0.103 C 
BRANCH   7   8
ATOM      8  C   UNL     1       0.391   1.618   0.646  1.00  0.00     0.004 C 
ATOM      9  C   UNL     1       1.566   0.780   1.151  1.00  0.00     0.009 C 
BRANCH   8  10
ATOM     10  C   UNL     1      -0.905   0.831   0.391  1.00  0.00     0.104 C 
BRANCH  10  11
ATOM     11  C   UNL     1      -1.327  -0.158   1.467  1.00  0.00     0.222 C 
ATOM     12  O   UNL     1      -1.832   0.200   2.527  1.00  0.00    -0.275 OA
ATOM     13  N   UNL     1      -1.176  -1.490   1.107  1.00  0.00    -0.342 N 
ATOM     14  C   UNL     1      -2.298  -2.407   1.243  1.00  0.00     0.123 C 
ATOM     15  C   UNL     1       0.074  -2.181   1.380  1.00  0.00     0.123 C 
ATOM     16  C   UNL     1      -1.717  -3.707   1.809  1.00  0.00     0.010 C 
ATOM     17  C   UNL     1      -0.251  -3.673   1.347  1.00  0.00     0.010 C 
ATOM     18  C   UNL     1      -1.825  -3.736   3.333  1.00  0.00     0.010 C 
ATOM     19  C   UNL     1      -0.072  -4.259  -0.054  1.00  0.00     0.010 C 
ENDBRANCH  10  11
ENDBRANCH   8  10
ENDBRANCH   7   8
ENDBRANCH   4   7
ENDBRANCH   2   3
ENDBRANCH   1   2
BRANCH   1  20
ATOM     20  C   UNL     1       0.629  -1.915  -3.177  1.00  0.00     0.023 C 
BRANCH  20  21
ATOM     21  C   UNL     1       1.647  -2.497  -4.143  1.00  0.00     0.116 C 
BRANCH  21  22
ATOM     22  N   UNL     1       2.577  -3.422  -3.507  1.00  0.00    -0.352 N 
ATOM     23  C   UNL     1       3.109  -4.588  -4.012  1.00  0.00     0.251 C 
ATOM     24  H   UNL     1       2.863  -3.182  -2.596  1.00  0.00     0.163 HD
ATOM     25  O   UNL     1       3.805  -5.305  -3.308  1.00  0.00    -0.269 OA
BRANCH  23  26
ATOM     26  C   UNL     1       2.780  -4.977  -5.400  1.00  0.00     0.039 A 
ATOM     27  C   UNL     1       2.316  -6.271  -5.647  1.00  0.00     0.014 A 
ATOM     28  C   UNL     1       2.853  -4.040  -6.432  1.00  0.00     0.014 A 
ATOM     29  C   UNL     1       1.837  -6.596  -6.917  1.00  0.00     0.010 A 
ATOM     30  C   UNL     1       2.297  -4.338  -7.669  1.00  0.00     0.010 A 
ATOM     31  C   UNL     1       1.778  -5.617  -7.923  1.00  0.00    -0.014 A 
BRANCH  31  32
ATOM     32  C   UNL     1       1.171  -5.895  -9.249  1.00  0.00     0.031 A 
ATOM     33  C   UNL     1       2.011  -5.778 -10.491  1.00  0.00     0.074 A 
ATOM     34  C   UNL     1      -0.149  -6.151  -9.341  1.00  0.00     0.049 A 
ATOM     35  N   UNL     1       1.645  -5.845 -11.744  1.00  0.00    -0.248 NA
ATOM     36  C   UNL     1       3.446  -5.512 -10.297  1.00  0.00     0.031 C 
ATOM     37  C   UNL     1      -1.080  -6.229  -8.213  1.00  0.00     0.029 A 
ATOM     38  N   UNL     1      -0.942  -6.374 -10.438  1.00  0.00    -0.354 N 
ATOM     39  C   UNL     1       2.795  -5.600 -12.486  1.00  0.00     0.074 A 
ATOM     40  C   UNL     1       3.859  -5.335 -11.543  1.00  0.00     0.031 C 
ATOM     41  C   UNL     1      -2.312  -6.502  -8.675  1.00  0.00     0.029 A 
ATOM     42  C   UNL     1      -2.267  -6.580 -10.131  1.00  0.00     0.049 A 
ATOM     43  H   UNL     1      -0.595  -6.386 -11.360  1.00  0.00     0.167 HD
ATOM     44  C   UNL     1       2.954  -5.619 -13.830  1.00  0.00     0.037 A 
ATOM     45  C   UNL     1      -3.326  -6.799 -10.934  1.00  0.00     0.037 A 
ATOM     46  C   UNL     1       1.901  -5.932 -14.759  1.00  0.00     0.049 A 
ATOM     47  C   UNL     1      -3.118  -6.850 -12.423  1.00  0.00     0.074 A 
ATOM     48  C   UNL     1       1.975  -6.049 -16.136  1.00  0.00     0.029 A 
ATOM     49  N   UNL     1       0.585  -6.187 -14.405  1.00  0.00    -0.354 N 
ATOM     50  N   UNL     1      -2.011  -6.674 -13.105  1.00  0.00    -0.248 NA
ATOM     51  C   UNL     1      -4.298  -7.134 -13.251  1.00  0.00     0.031 C 
ATOM     52  C   UNL     1       0.696  -6.346 -16.617  1.00  0.00     0.029 A 
ATOM     53  C   UNL     1      -0.166  -6.451 -15.538  1.00  0.00     0.049 A 
ATOM     54  H   UNL     1       0.236  -6.180 -13.485  1.00  0.00     0.167 HD
ATOM     55  C   UNL     1      -2.357  -6.851 -14.440  1.00  0.00     0.074 A 
ATOM     56  C   UNL     1      -3.772  -7.156 -14.469  1.00  0.00     0.031 C 
ATOM     57  C   UNL     1      -1.572  -6.768 -15.543  1.00  0.00     0.037 A 
BRANCH  44  58
ATOM     58  C   UNL     1       4.321  -5.307 -14.371  1.00  0.00     0.058 A 
ATOM     59  C   UNL     1       5.392  -6.202 -14.221  1.00  0.00     0.135 A 
ATOM     60  C   UNL     1       4.559  -4.109 -15.063  1.00  0.00     0.135 A 
ATOM     61  F   UNL     1       5.223  -7.353 -13.552  1.00  0.00    -0.206 F 
ATOM     62  C   UNL     1       6.660  -5.906 -14.708  1.00  0.00     0.059 A 
ATOM     63  C   UNL     1       5.814  -3.804 -15.583  1.00  0.00     0.059 A 
ATOM     64  F   UNL     1       3.570  -3.217 -15.233  1.00  0.00    -0.206 F 
ATOM     65  C   UNL     1       6.862  -4.702 -15.385  1.00  0.00     0.060 A 
BRANCH  65  66
ATOM     66  S   UNL     1       8.515  -4.330 -16.008  1.00  0.00     0.124 S 
ATOM     67  O   UNL     1       9.211  -3.961 -14.779  1.00  0.00    -0.237 OA
ATOM     68  O   UNL     1       8.918  -5.598 -16.607  1.00  0.00    -0.237 OA
ATOM     69  O   UNL     1       8.284  -3.240 -16.951  1.00  0.00    -0.744 OA
ENDBRANCH  65  66
ENDBRANCH  44  58
BRANCH  45  70
ATOM     70  C   UNL     1      -4.674  -7.014 -10.345  1.00  0.00     0.058 A 
ATOM     71  C   UNL     1      -5.262  -8.287 -10.346  1.00  0.00     0.135 A 
ATOM     72  C   UNL     1      -5.393  -5.962  -9.758  1.00  0.00     0.135 A 
ATOM     73  F   UNL     1      -4.614  -9.324 -10.900  1.00  0.00    -0.206 F 
ATOM     74  C   UNL     1      -6.522  -8.509  -9.800  1.00  0.00     0.059 A 
ATOM     75  C   UNL     1      -6.646  -6.163  -9.186  1.00  0.00     0.059 A 
ATOM     76  F   UNL     1      -4.865  -4.728  -9.715  1.00  0.00    -0.206 F 
ATOM     77  C   UNL     1      -7.206  -7.440  -9.221  1.00  0.00     0.060 A 
BRANCH  77  78
ATOM     78  S   UNL     1      -8.820  -7.748  -8.470  1.00  0.00     0.124 S 
ATOM     79  O   UNL     1      -9.671  -7.874  -9.647  1.00  0.00    -0.237 OA
ATOM     80  O   UNL     1      -8.580  -8.977  -7.720  1.00  0.00    -0.237 OA
ATOM     81  O   UNL     1      -9.040  -6.558  -7.653  1.00  0.00    -0.744 OA
ENDBRANCH  77  78
ENDBRANCH  45  70
BRANCH  57  82
ATOM     82  C   UNL     1      -2.215  -7.045 -16.871  1.00  0.00     0.058 A 
ATOM     83  C   UNL     1      -3.054  -6.108 -17.491  1.00  0.00     0.135 A 
ATOM     84  C   UNL     1      -1.932  -8.235 -17.561  1.00  0.00     0.135 A 
ATOM     85  F   UNL     1      -3.359  -4.958 -16.869  1.00  0.00    -0.206 F 
ATOM     86  C   UNL     1      -3.603  -6.346 -18.747  1.00  0.00     0.059 A 
ATOM     87  C   UNL     1      -2.452  -8.485 -18.826  1.00  0.00     0.059 A 
ATOM     88  F   UNL     1      -1.127  -9.159 -17.012  1.00  0.00    -0.206 F 
ATOM     89  C   UNL     1      -3.293  -7.537 -19.408  1.00  0.00     0.060 A 
BRANCH  89  90
ATOM     90  S   UNL     1      -3.971  -7.814 -21.058  1.00  0.00     0.124 S 
ATOM     91  O   UNL     1      -5.354  -8.162 -20.753  1.00  0.00    -0.237 OA
ATOM     92  O   UNL     1      -3.770  -6.519 -21.702  1.00  0.00    -0.237 OA
ATOM     93  O   UNL     1      -3.150  -8.901 -21.583  1.00  0.00    -0.744 OA
ENDBRANCH  89  90
ENDBRANCH  57  82
ENDBRANCH  31  32
ENDBRANCH  23  26
ENDBRANCH  21  22
ENDBRANCH  20  21
ENDBRANCH   1  20
TORSDOF 17
