REMARK SMILES C[C@@]1(CN2C[C@H](C(=O)NCCCCNC(=O)c3ccc(-c4c5nc(c(-c6c(F)cc(S(=O)(=O)[O-])cc6F)c6ccc([nH]6)c(-c6c(F)cc(S(=O)(=O)[O-])cc6F)c6nc(c(-c7c(F)cc(S(=O)(=O)[O-])cc7F)c7ccc4[nH]7)C=C6)C=C5)cc3)CCC2=O)CCCO1
REMARK SMILES IDX 12 1 11 2 10 3 9 4 7 5 8 6 6 8 4 9 5 10 85 11 84 12 86 13
REMARK SMILES IDX 83 14 3 15 2 16 1 17 87 18 90 19 88 20 89 21 13 22 14 23
REMARK SMILES IDX 15 24 16 26 17 27 18 28 82 29 19 30 81 31 20 32 21 33 22 34
REMARK SMILES IDX 75 35 23 36 80 37 74 38 76 39 24 40 79 41 73 42 72 43 25 45
REMARK SMILES IDX 59 46 38 47 58 48 39 49 42 50 57 51 77 52 40 53 41 54 56 56
REMARK SMILES IDX 78 57 43 58 26 59 27 60 36 61 28 62 29 63 35 64 37 65 30 66
REMARK SMILES IDX 31 67 32 68 33 69 34 70 60 71 61 72 70 73 62 74 63 75 69 76
REMARK SMILES IDX 71 77 64 78 65 79 66 80 67 81 68 82 44 83 45 84 54 85 46 86
REMARK SMILES IDX 47 87 53 88 55 89 48 90 49 91 50 92 51 93 52 94
REMARK H PARENT 9 7 14 25 76 44 42 55
REMARK Flexibility Score: inf
ROOT
ATOM      1  C   UNL     1       6.762  -3.624  -0.549  1.00  0.00     0.023 C 
ENDROOT
BRANCH   1   2
ATOM      2  C   UNL     1       6.373  -2.162  -0.741  1.00  0.00     0.023 C 
BRANCH   2   3
ATOM      3  C   UNL     1       6.896  -1.504  -2.018  1.00  0.00     0.116 C 
BRANCH   3   4
ATOM      4  N   UNL     1       6.003  -1.713  -3.139  1.00  0.00    -0.356 N 
ATOM      5  C   UNL     1       5.031  -0.983  -3.733  1.00  0.00     0.224 C 
ATOM      6  O   UNL     1       4.486  -1.533  -4.700  1.00  0.00    -0.275 OA
ATOM      7  H   UNL     1       6.132  -2.590  -3.568  1.00  0.00     0.163 HD
BRANCH   5   8
ATOM      8  C   UNL     1       4.627   0.458  -3.385  1.00  0.00     0.098 C 
ATOM      9  N   UNL     1       2.475  -0.023  -2.223  1.00  0.00    -0.339 N 
ATOM     10  C   UNL     1       3.090   0.564  -3.412  1.00  0.00     0.133 C 
ATOM     11  C   UNL     1       3.191  -0.251  -1.066  1.00  0.00     0.222 C 
ATOM     12  C   UNL     1       4.407   0.630  -0.857  1.00  0.00     0.101 C 
ATOM     13  O   UNL     1       2.819  -1.022  -0.183  1.00  0.00    -0.275 OA
ATOM     14  C   UNL     1       5.064   1.168  -2.116  1.00  0.00     0.025 C 
BRANCH   9  15
ATOM     15  C   UNL     1       1.033  -0.286  -2.237  1.00  0.00     0.154 C 
BRANCH  15  16
ATOM     16  C   UNL     1       0.194   0.745  -1.415  1.00  0.00     0.083 C 
ATOM     17  C   UNL     1       0.356   0.578   0.099  1.00  0.00     0.044 C 
ATOM     18  C   UNL     1      -1.294   0.658  -1.792  1.00  0.00     0.039 C 
ATOM     19  O   UNL     1       0.616   2.090  -1.762  1.00  0.00    -0.373 OA
ATOM     20  C   UNL     1      -1.459   1.763  -2.807  1.00  0.00     0.031 C 
ATOM     21  C   UNL     1      -0.501   2.807  -2.289  1.00  0.00     0.161 C 
ENDBRANCH  15  16
ENDBRANCH   9  15
ENDBRANCH   5   8
ENDBRANCH   3   4
ENDBRANCH   2   3
ENDBRANCH   1   2
BRANCH   1  22
ATOM     22  C   UNL     1       8.258  -3.898  -0.493  1.00  0.00     0.116 C 
BRANCH  22  23
ATOM     23  N   UNL     1       8.977  -3.109   0.500  1.00  0.00    -0.352 N 
ATOM     24  C   UNL     1      10.124  -3.462   1.177  1.00  0.00     0.251 C 
ATOM     25  H   UNL     1       8.600  -2.224   0.711  1.00  0.00     0.163 HD
ATOM     26  O   UNL     1      10.609  -2.731   2.029  1.00  0.00    -0.269 OA
BRANCH  24  27
ATOM     27  C   UNL     1      10.722  -4.779   0.878  1.00  0.00     0.039 A 
ATOM     28  C   UNL     1      10.836  -5.717   1.905  1.00  0.00     0.014 A 
ATOM     29  C   UNL     1      11.027  -5.117  -0.442  1.00  0.00     0.014 A 
ATOM     30  C   UNL     1      11.172  -7.035   1.591  1.00  0.00     0.010 A 
ATOM     31  C   UNL     1      11.289  -6.442  -0.759  1.00  0.00     0.010 A 
ATOM     32  C   UNL     1      11.349  -7.417   0.251  1.00  0.00    -0.014 A 
BRANCH  32  33
ATOM     33  C   UNL     1      11.596  -8.827  -0.138  1.00  0.00     0.031 A 
ATOM     34  C   UNL     1      12.882  -9.183  -0.829  1.00  0.00     0.074 A 
ATOM     35  C   UNL     1      10.629  -9.751   0.022  1.00  0.00     0.049 A 
ATOM     36  N   UNL     1      13.219 -10.295  -1.426  1.00  0.00    -0.248 NA
ATOM     37  C   UNL     1      13.909  -8.130  -0.890  1.00  0.00     0.031 C 
ATOM     38  C   UNL     1       9.319  -9.516   0.637  1.00  0.00     0.029 A 
ATOM     39  N   UNL     1      10.589 -11.075  -0.340  1.00  0.00    -0.354 N 
ATOM     40  C   UNL     1      14.475 -10.062  -1.972  1.00  0.00     0.074 A 
ATOM     41  C   UNL     1      14.826  -8.693  -1.662  1.00  0.00     0.031 C 
ATOM     42  C   UNL     1       8.613 -10.659   0.622  1.00  0.00     0.029 A 
ATOM     43  C   UNL     1       9.400 -11.696  -0.038  1.00  0.00     0.049 A 
ATOM     44  H   UNL     1      11.342 -11.536  -0.776  1.00  0.00     0.167 HD
ATOM     45  C   UNL     1      15.271 -10.917  -2.655  1.00  0.00     0.037 A 
ATOM     46  C   UNL     1       8.989 -12.957  -0.278  1.00  0.00     0.037 A 
ATOM     47  C   UNL     1      14.940 -12.293  -2.909  1.00  0.00     0.049 A 
ATOM     48  C   UNL     1       9.914 -13.905  -0.991  1.00  0.00     0.074 A 
ATOM     49  C   UNL     1      15.700 -13.259  -3.543  1.00  0.00     0.029 A 
ATOM     50  N   UNL     1      13.756 -12.903  -2.520  1.00  0.00    -0.354 N 
ATOM     51  N   UNL     1      11.110 -13.677  -1.478  1.00  0.00    -0.248 NA
ATOM     52  C   UNL     1       9.436 -15.281  -1.189  1.00  0.00     0.031 C 
ATOM     53  C   UNL     1      14.969 -14.452  -3.550  1.00  0.00     0.029 A 
ATOM     54  C   UNL     1      13.766 -14.234  -2.897  1.00  0.00     0.049 A 
ATOM     55  H   UNL     1      13.018 -12.455  -2.047  1.00  0.00     0.167 HD
ATOM     56  C   UNL     1      11.539 -14.885  -2.014  1.00  0.00     0.074 A 
ATOM     57  C   UNL     1      10.476 -15.844  -1.792  1.00  0.00     0.031 C 
ATOM     58  C   UNL     1      12.707 -15.175  -2.637  1.00  0.00     0.037 A 
BRANCH  45  59
ATOM     59  C   UNL     1      16.578 -10.383  -3.165  1.00  0.00     0.058 A 
ATOM     60  C   UNL     1      17.645 -10.106  -2.297  1.00  0.00     0.135 A 
ATOM     61  C   UNL     1      16.768 -10.148  -4.536  1.00  0.00     0.135 A 
ATOM     62  F   UNL     1      17.507 -10.295  -0.975  1.00  0.00    -0.206 F 
ATOM     63  C   UNL     1      18.844  -9.580  -2.764  1.00  0.00     0.059 A 
ATOM     64  C   UNL     1      17.968  -9.646  -5.029  1.00  0.00     0.059 A 
ATOM     65  F   UNL     1      15.778 -10.395  -5.408  1.00  0.00    -0.206 F 
ATOM     66  C   UNL     1      18.994  -9.347  -4.133  1.00  0.00     0.060 A 
BRANCH  66  67
ATOM     67  S   UNL     1      20.549  -8.650  -4.728  1.00  0.00     0.124 S 
ATOM     68  O   UNL     1      20.381  -7.239  -4.391  1.00  0.00    -0.237 OA
ATOM     69  O   UNL     1      21.542  -9.374  -3.941  1.00  0.00    -0.237 OA
ATOM     70  O   UNL     1      20.535  -8.962  -6.153  1.00  0.00    -0.744 OA
ENDBRANCH  66  67
ENDBRANCH  45  59
BRANCH  46  71
ATOM     71  C   UNL     1       7.650 -13.405   0.183  1.00  0.00     0.058 A 
ATOM     72  C   UNL     1       7.524 -14.261   1.287  1.00  0.00     0.135 A 
ATOM     73  C   UNL     1       6.474 -12.983  -0.456  1.00  0.00     0.135 A 
ATOM     74  F   UNL     1       8.621 -14.694   1.927  1.00  0.00    -0.206 F 
ATOM     75  C   UNL     1       6.282 -14.700   1.732  1.00  0.00     0.059 A 
ATOM     76  C   UNL     1       5.218 -13.393  -0.018  1.00  0.00     0.059 A 
ATOM     77  F   UNL     1       6.541 -12.150  -1.506  1.00  0.00    -0.206 F 
ATOM     78  C   UNL     1       5.133 -14.261   1.071  1.00  0.00     0.060 A 
BRANCH  78  79
ATOM     79  S   UNL     1       3.521 -14.802   1.681  1.00  0.00     0.124 S 
ATOM     80  O   UNL     1       3.452 -16.162   1.160  1.00  0.00    -0.237 OA
ATOM     81  O   UNL     1       3.679 -14.679   3.127  1.00  0.00    -0.237 OA
ATOM     82  O   UNL     1       2.599 -13.844   1.077  1.00  0.00    -0.744 OA
ENDBRANCH  78  79
ENDBRANCH  46  71
BRANCH  58  83
ATOM     83  C   UNL     1      12.923 -16.591  -3.082  1.00  0.00     0.058 A 
ATOM     84  C   UNL     1      12.338 -17.088  -4.255  1.00  0.00     0.135 A 
ATOM     85  C   UNL     1      13.800 -17.428  -2.374  1.00  0.00     0.135 A 
ATOM     86  F   UNL     1      11.488 -16.326  -4.961  1.00  0.00    -0.206 F 
ATOM     87  C   UNL     1      12.614 -18.371  -4.713  1.00  0.00     0.059 A 
ATOM     88  C   UNL     1      14.103 -18.708  -2.822  1.00  0.00     0.059 A 
ATOM     89  F   UNL     1      14.389 -16.992  -1.249  1.00  0.00    -0.206 F 
ATOM     90  C   UNL     1      13.503 -19.172  -3.992  1.00  0.00     0.060 A 
BRANCH  90  91
ATOM     91  S   UNL     1      13.911 -20.810  -4.633  1.00  0.00     0.124 S 
ATOM     92  O   UNL     1      12.732 -21.578  -4.249  1.00  0.00    -0.237 OA
ATOM     93  O   UNL     1      14.068 -20.560  -6.062  1.00  0.00    -0.237 OA
ATOM     94  O   UNL     1      15.142 -21.152  -3.926  1.00  0.00    -0.744 OA
ENDBRANCH  90  91
ENDBRANCH  58  83
ENDBRANCH  32  33
ENDBRANCH  24  27
ENDBRANCH  22  23
ENDBRANCH   1  22
TORSDOF 16
