REMARK SMILES O=C(CCc1ccc(S(=O)(=O)Nc2cccc(I)c2)cc1)NCCCCNC(=O)c1ccc(-c2c3nc(c(-c4c(F)cc(S(=O)(=O)[O-])cc4F)c4ccc([nH]4)c(-c4c(F)cc(S(=O)(=O)[O-])cc4F)c4nc(c(-c5c(F)cc(S(=O)(=O)[O-])cc5F)c5ccc2[nH]5)C=C4)C=C3)cc1
REMARK SMILES IDX 23 1 22 2 1 3 2 4 3 6 4 7 5 8 6 9 21 10 7 11 20 12 8 13 9 14
REMARK SMILES IDX 10 15 11 16 12 17 13 19 14 20 19 21 15 22 17 23 16 24 18 25
REMARK SMILES IDX 24 26 25 27 26 28 27 29 28 30 29 32 30 33 31 34 95 35 32 36
REMARK SMILES IDX 94 37 33 38 34 39 35 40 88 41 36 42 93 43 87 44 89 45 37 46
REMARK SMILES IDX 92 47 86 48 85 49 38 51 72 52 51 53 71 54 52 55 55 56 70 57
REMARK SMILES IDX 90 58 53 59 54 60 69 62 91 63 56 64 39 65 40 66 49 67 41 68
REMARK SMILES IDX 42 69 48 70 50 71 43 72 44 73 45 74 46 75 47 76 73 77 74 78
REMARK SMILES IDX 83 79 75 80 76 81 82 82 84 83 77 84 78 85 79 86 80 87 81 88
REMARK SMILES IDX 57 89 58 90 67 91 59 92 60 93 66 94 68 95 61 96 62 97 63 98
REMARK SMILES IDX 64 99 65 100
REMARK H PARENT 22 5 12 18 27 31 89 50 55 61
REMARK Flexibility Score: inf
ROOT
ATOM      1  C   UNL     1       2.022   0.482   2.478  1.00  0.00     0.116 C 
ENDROOT
BRANCH   1   2
ATOM      2  N   UNL     1       2.665   0.189   1.215  1.00  0.00    -0.356 N 
ATOM      3  O   UNL     1       0.806   0.317  -0.121  1.00  0.00    -0.275 OA
ATOM      4  C   UNL     1       2.007   0.105   0.012  1.00  0.00     0.220 C 
ATOM      5  H   UNL     1       3.638   0.040   1.219  1.00  0.00     0.163 HD
BRANCH   4   6
ATOM      6  C   UNL     1       2.873  -0.342  -1.155  1.00  0.00     0.105 C 
BRANCH   6   7
ATOM      7  C   UNL     1       3.854   0.718  -1.659  1.00  0.00     0.045 C 
BRANCH   7   8
ATOM      8  C   UNL     1       5.040   1.042  -0.777  1.00  0.00    -0.047 A 
ATOM      9  C   UNL     1       5.697   0.080   0.006  1.00  0.00     0.005 A 
ATOM     10  C   UNL     1       5.536   2.352  -0.779  1.00  0.00     0.005 A 
ATOM     11  C   UNL     1       6.705   0.455   0.899  1.00  0.00     0.022 A 
ATOM     12  C   UNL     1       6.602   2.710   0.043  1.00  0.00     0.022 A 
ATOM     13  C   UNL     1       7.130   1.784   0.941  1.00  0.00     0.087 A 
BRANCH  13  14
ATOM     14  S   UNL     1       8.421   2.269   2.059  1.00  0.00     0.261 S 
ATOM     15  O   UNL     1       8.709   1.130   2.906  1.00  0.00    -0.201 OA
ATOM     16  O   UNL     1       9.456   2.913   1.285  1.00  0.00    -0.201 OA
BRANCH  14  17
ATOM     17  N   UNL     1       7.742   3.435   3.116  1.00  0.00    -0.280 N 
ATOM     18  H   UNL     1       7.758   3.304   4.091  1.00  0.00     0.180 HD
BRANCH  17  19
ATOM     19  C   UNL     1       7.152   4.602   2.542  1.00  0.00     0.050 A 
ATOM     20  C   UNL     1       7.946   5.602   1.981  1.00  0.00     0.027 A 
ATOM     21  C   UNL     1       5.760   4.685   2.493  1.00  0.00     0.041 A 
ATOM     22  C   UNL     1       7.342   6.677   1.331  1.00  0.00     0.003 A 
ATOM     23  C   UNL     1       5.164   5.758   1.833  1.00  0.00     0.015 A 
ATOM     24  C   UNL     1       5.950   6.752   1.247  1.00  0.00     0.015 A 
ATOM     25  I   UNL     1       3.095   5.843   1.676  1.00  0.00    -0.044 I 
ENDBRANCH  17  19
ENDBRANCH  14  17
ENDBRANCH  13  14
ENDBRANCH   7   8
ENDBRANCH   6   7
ENDBRANCH   4   6
ENDBRANCH   1   2
BRANCH   1  26
ATOM     26  C   UNL     1       2.399  -0.545   3.549  1.00  0.00     0.023 C 
BRANCH  26  27
ATOM     27  C   UNL     1       3.891  -0.618   3.905  1.00  0.00     0.023 C 
BRANCH  27  28
ATOM     28  C   UNL     1       4.502   0.655   4.491  1.00  0.00     0.116 C 
BRANCH  28  29
ATOM     29  N   UNL     1       3.928   1.006   5.781  1.00  0.00    -0.352 N 
ATOM     30  C   UNL     1       4.539   1.249   6.991  1.00  0.00     0.251 C 
ATOM     31  H   UNL     1       2.946   1.082   5.790  1.00  0.00     0.163 HD
ATOM     32  O   UNL     1       3.846   1.363   7.999  1.00  0.00    -0.269 OA
BRANCH  30  33
ATOM     33  C   UNL     1       6.013   1.365   7.098  1.00  0.00     0.039 A 
ATOM     34  C   UNL     1       6.673   0.769   8.180  1.00  0.00     0.014 A 
ATOM     35  C   UNL     1       6.751   2.085   6.161  1.00  0.00     0.014 A 
ATOM     36  C   UNL     1       8.072   0.834   8.278  1.00  0.00     0.010 A 
ATOM     37  C   UNL     1       8.145   2.087   6.229  1.00  0.00     0.010 A 
ATOM     38  C   UNL     1       8.828   1.463   7.278  1.00  0.00    -0.014 A 
BRANCH  38  39
ATOM     39  C   UNL     1      10.320   1.437   7.255  1.00  0.00     0.031 A 
ATOM     40  C   UNL     1      11.125   2.716   7.255  1.00  0.00     0.074 A 
ATOM     41  C   UNL     1      10.960   0.260   7.101  1.00  0.00     0.049 A 
ATOM     42  N   UNL     1      12.420   2.879   7.138  1.00  0.00    -0.248 NA
ATOM     43  C   UNL     1      10.376   3.978   7.357  1.00  0.00     0.031 C 
ATOM     44  C   UNL     1      10.309  -1.046   6.979  1.00  0.00     0.029 A 
ATOM     45  N   UNL     1      12.299  -0.030   7.001  1.00  0.00    -0.354 N 
ATOM     46  C   UNL     1      12.638   4.252   7.128  1.00  0.00     0.074 A 
ATOM     47  C   UNL     1      11.335   4.880   7.200  1.00  0.00     0.031 C 
ATOM     48  C   UNL     1      11.248  -1.998   6.856  1.00  0.00     0.029 A 
ATOM     49  C   UNL     1      12.566  -1.371   6.853  1.00  0.00     0.049 A 
ATOM     50  H   UNL     1      13.003   0.659   7.033  1.00  0.00     0.167 HD
ATOM     51  C   UNL     1      13.813   4.930   7.088  1.00  0.00     0.037 A 
ATOM     52  C   UNL     1      13.736  -2.027   6.728  1.00  0.00     0.037 A 
ATOM     53  C   UNL     1      15.113   4.307   7.072  1.00  0.00     0.049 A 
ATOM     54  C   UNL     1      15.028  -1.258   6.743  1.00  0.00     0.074 A 
ATOM     55  C   UNL     1      16.357   4.912   7.142  1.00  0.00     0.029 A 
ATOM     56  N   UNL     1      15.341   2.942   6.982  1.00  0.00    -0.354 N 
ATOM     57  N   UNL     1      15.216   0.036   6.832  1.00  0.00    -0.248 NA
ATOM     58  C   UNL     1      16.269  -2.041   6.649  1.00  0.00     0.031 C 
ATOM     59  C   UNL     1      17.337   3.917   7.059  1.00  0.00     0.029 A 
ATOM     60  C   UNL     1      16.704   2.688   6.981  1.00  0.00     0.049 A 
ATOM     61  H   UNL     1      14.638   2.255   6.927  1.00  0.00     0.167 HD
ATOM     62  C   UNL     1      16.594   0.220   6.836  1.00  0.00     0.074 A 
ATOM     63  C   UNL     1      17.193  -1.095   6.748  1.00  0.00     0.031 C 
ATOM     64  C   UNL     1      17.297   1.377   6.907  1.00  0.00     0.037 A 
BRANCH  51  65
ATOM     65  C   UNL     1      13.758   6.435   7.089  1.00  0.00     0.058 A 
ATOM     66  C   UNL     1      13.368   7.156   8.229  1.00  0.00     0.135 A 
ATOM     67  C   UNL     1      14.157   7.167   5.958  1.00  0.00     0.135 A 
ATOM     68  F   UNL     1      12.971   6.508   9.335  1.00  0.00    -0.206 F 
ATOM     69  C   UNL     1      13.344   8.547   8.238  1.00  0.00     0.059 A 
ATOM     70  C   UNL     1      14.168   8.560   5.955  1.00  0.00     0.059 A 
ATOM     71  F   UNL     1      14.546   6.531   4.842  1.00  0.00    -0.206 F 
ATOM     72  C   UNL     1      13.743   9.240   7.095  1.00  0.00     0.060 A 
BRANCH  72  73
ATOM     73  S   UNL     1      13.706  11.045   7.124  1.00  0.00     0.124 S 
ATOM     74  O   UNL     1      12.273  11.305   7.016  1.00  0.00    -0.237 OA
ATOM     75  O   UNL     1      14.310  11.352   8.416  1.00  0.00    -0.237 OA
ATOM     76  O   UNL     1      14.500  11.420   5.958  1.00  0.00    -0.744 OA
ENDBRANCH  72  73
ENDBRANCH  51  65
BRANCH  52  77
ATOM     77  C   UNL     1      13.743  -3.511   6.634  1.00  0.00     0.058 A 
ATOM     78  C   UNL     1      14.169  -4.289   7.721  1.00  0.00     0.135 A 
ATOM     79  C   UNL     1      13.317  -4.178   5.476  1.00  0.00     0.135 A 
ATOM     80  F   UNL     1      14.591  -3.694   8.847  1.00  0.00    -0.206 F 
ATOM     81  C   UNL     1      14.190  -5.677   7.659  1.00  0.00     0.059 A 
ATOM     82  C   UNL     1      13.306  -5.567   5.398  1.00  0.00     0.059 A 
ATOM     83  F   UNL     1      12.883  -3.477   4.417  1.00  0.00    -0.206 F 
ATOM     84  C   UNL     1      13.755  -6.308   6.492  1.00  0.00     0.060 A 
BRANCH  84  85
ATOM     85  S   UNL     1      13.741  -8.113   6.439  1.00  0.00     0.124 S 
ATOM     86  O   UNL     1      15.161  -8.413   6.297  1.00  0.00    -0.237 OA
ATOM     87  O   UNL     1      13.142  -8.454   7.725  1.00  0.00    -0.237 OA
ATOM     88  O   UNL     1      12.913  -8.407   5.273  1.00  0.00    -0.744 OA
ENDBRANCH  84  85
ENDBRANCH  52  77
BRANCH  64  89
ATOM     89  C   UNL     1      18.798   1.279   6.939  1.00  0.00     0.058 A 
ATOM     90  C   UNL     1      19.542   0.953   5.794  1.00  0.00     0.135 A 
ATOM     91  C   UNL     1      19.503   1.563   8.119  1.00  0.00     0.135 A 
ATOM     92  F   UNL     1      18.916   0.665   4.641  1.00  0.00    -0.206 F 
ATOM     93  C   UNL     1      20.932   0.892   5.824  1.00  0.00     0.059 A 
ATOM     94  C   UNL     1      20.894   1.532   8.165  1.00  0.00     0.059 A 
ATOM     95  F   UNL     1      18.841   1.889   9.241  1.00  0.00    -0.206 F 
ATOM     96  C   UNL     1      21.600   1.185   7.014  1.00  0.00     0.060 A 
BRANCH  96  97
ATOM     97  S   UNL     1      23.405   1.140   7.031  1.00  0.00     0.124 S 
ATOM     98  O   UNL     1      23.663  -0.296   7.037  1.00  0.00    -0.237 OA
ATOM     99  O   UNL     1      23.748   1.841   5.797  1.00  0.00    -0.237 OA
ATOM    100  O   UNL     1      23.751   1.846   8.261  1.00  0.00    -0.744 OA
ENDBRANCH  96  97
ENDBRANCH  64  89
ENDBRANCH  38  39
ENDBRANCH  30  33
ENDBRANCH  28  29
ENDBRANCH  27  28
ENDBRANCH  26  27
ENDBRANCH   1  26
TORSDOF 19
