REMARK SMILES NC(=O)[C@@H]1CCCCN1c1cncc(C(=O)NCCCCNC(=O)c2ccc(-c3c4nc(c(-c5c(F)cc(S(=O)(=O)[O-])cc5F)c5ccc([nH]5)c(-c5c(F)cc(S(=O)(=O)[O-])cc5F)c5nc(c(-c6c(F)cc(S(=O)(=O)[O-])cc6F)c6ccc3[nH]6)C=C5)C=C4)cc2)n1
REMARK SMILES IDX 20 1 19 2 18 3 17 4 15 5 16 6 14 8 10 9 11 10 91 11 12 12
REMARK SMILES IDX 13 13 9 14 4 15 5 16 6 17 8 18 7 19 2 20 1 21 3 24 21 25
REMARK SMILES IDX 22 26 23 27 24 29 25 30 26 31 90 32 27 33 89 34 28 35 29 36
REMARK SMILES IDX 30 37 83 38 31 39 88 40 82 41 84 42 32 43 87 44 81 45 80 46
REMARK SMILES IDX 33 48 67 49 46 50 66 51 47 52 50 53 65 54 85 55 48 56 49 57
REMARK SMILES IDX 64 59 86 60 51 61 34 62 35 63 44 64 36 65 37 66 43 67 45 68
REMARK SMILES IDX 38 69 39 70 40 71 41 72 42 73 68 74 69 75 78 76 70 77 71 78
REMARK SMILES IDX 77 79 79 80 72 81 73 82 74 83 75 84 76 85 52 86 53 87 62 88
REMARK SMILES IDX 54 89 55 90 61 91 63 92 56 93 57 94 58 95 59 96 60 97
REMARK H PARENT 17 7 1 22 1 23 22 28 84 47 50 58
REMARK Flexibility Score: inf
ROOT
ATOM      1  C   UNL     1       3.968  -4.304   2.936  1.00  0.00     0.023 C 
ENDROOT
BRANCH   1   2
ATOM      2  C   UNL     1       3.727  -3.500   1.659  1.00  0.00     0.023 C 
BRANCH   2   3
ATOM      3  C   UNL     1       2.927  -2.222   1.879  1.00  0.00     0.116 C 
BRANCH   3   4
ATOM      4  N   UNL     1       3.736  -1.157   2.441  1.00  0.00    -0.351 N 
ATOM      5  C   UNL     1       4.310  -0.047   1.865  1.00  0.00     0.271 C 
ATOM      6  O   UNL     1       4.996   0.679   2.587  1.00  0.00    -0.267 OA
ATOM      7  H   UNL     1       3.904  -1.244   3.407  1.00  0.00     0.163 HD
BRANCH   5   8
ATOM      8  C   UNL     1       4.133   0.325   0.428  1.00  0.00     0.148 A 
ATOM      9  C   UNL     1       3.174  -0.023  -1.655  1.00  0.00     0.148 A 
ATOM     10  C   UNL     1       3.862   1.112  -2.103  1.00  0.00     0.157 A 
ATOM     11  N   UNL     1       3.305  -0.411  -0.368  1.00  0.00    -0.222 NA
ATOM     12  N   UNL     1       4.673   1.874  -1.327  1.00  0.00    -0.258 NA
ATOM     13  C   UNL     1       4.790   1.452  -0.047  1.00  0.00     0.145 A 
BRANCH   9  14
ATOM     14  N   UNL     1       2.383  -0.752  -2.521  1.00  0.00    -0.343 N 
ATOM     15  C   UNL     1       1.034  -1.288  -2.201  1.00  0.00     0.172 C 
ATOM     16  C   UNL     1       1.113  -2.754  -1.765  1.00  0.00     0.035 C 
ATOM     17  C   UNL     1       1.837  -3.587  -2.823  1.00  0.00     0.004 C 
ATOM     18  C   UNL     1       3.122  -1.522  -3.531  1.00  0.00     0.119 C 
ATOM     19  C   UNL     1       3.215  -2.997  -3.122  1.00  0.00     0.022 C 
BRANCH  15  20
ATOM     20  C   UNL     1       0.128  -0.457  -1.272  1.00  0.00     0.240 C 
ATOM     21  N   UNL     1       0.586  -0.132  -0.035  1.00  0.00    -0.368 N 
ATOM     22  H   UNL     1       0.023   0.399   0.575  1.00  0.00     0.159 HD
ATOM     23  H   UNL     1       1.480  -0.428   0.253  1.00  0.00     0.159 HD
ATOM     24  O   UNL     1      -1.024  -0.153  -1.582  1.00  0.00    -0.273 OA
ENDBRANCH  15  20
ENDBRANCH   9  14
ENDBRANCH   5   8
ENDBRANCH   3   4
ENDBRANCH   2   3
ENDBRANCH   1   2
BRANCH   1  25
ATOM     25  C   UNL     1       2.709  -4.676   3.716  1.00  0.00     0.116 C 
BRANCH  25  26
ATOM     26  N   UNL     1       1.722  -5.386   2.915  1.00  0.00    -0.352 N 
ATOM     27  C   UNL     1       0.908  -6.430   3.284  1.00  0.00     0.251 C 
ATOM     28  H   UNL     1       1.624  -5.076   1.986  1.00  0.00     0.163 HD
ATOM     29  O   UNL     1       0.217  -6.996   2.443  1.00  0.00    -0.269 OA
BRANCH  27  30
ATOM     30  C   UNL     1       0.903  -6.886   4.690  1.00  0.00     0.039 A 
ATOM     31  C   UNL     1       1.003  -8.254   4.955  1.00  0.00     0.014 A 
ATOM     32  C   UNL     1       0.828  -5.968   5.742  1.00  0.00     0.014 A 
ATOM     33  C   UNL     1       1.091  -8.694   6.277  1.00  0.00     0.010 A 
ATOM     34  C   UNL     1       0.996  -6.403   7.053  1.00  0.00     0.010 A 
ATOM     35  C   UNL     1       1.124  -7.770   7.336  1.00  0.00    -0.014 A 
BRANCH  35  36
ATOM     36  C   UNL     1       1.290  -8.223   8.741  1.00  0.00     0.031 A 
ATOM     37  C   UNL     1       0.199  -7.980   9.749  1.00  0.00     0.074 A 
ATOM     38  C   UNL     1       2.443  -8.809   9.120  1.00  0.00     0.049 A 
ATOM     39  N   UNL     1       0.171  -8.278  11.023  1.00  0.00    -0.248 NA
ATOM     40  C   UNL     1      -1.008  -7.286   9.271  1.00  0.00     0.031 C 
ATOM     41  C   UNL     1       3.598  -9.047   8.250  1.00  0.00     0.029 A 
ATOM     42  N   UNL     1       2.838  -9.310  10.335  1.00  0.00    -0.354 N 
ATOM     43  C   UNL     1      -1.046  -7.802  11.497  1.00  0.00     0.074 A 
ATOM     44  C   UNL     1      -1.701  -7.141  10.390  1.00  0.00     0.031 C 
ATOM     45  C   UNL     1       4.556  -9.674   8.950  1.00  0.00     0.029 A 
ATOM     46  C   UNL     1       4.101  -9.854  10.326  1.00  0.00     0.049 A 
ATOM     47  H   UNL     1       2.270  -9.283  11.139  1.00  0.00     0.167 HD
ATOM     48  C   UNL     1      -1.582  -7.929  12.735  1.00  0.00     0.037 A 
ATOM     49  C   UNL     1       4.813 -10.432  11.313  1.00  0.00     0.037 A 
ATOM     50  C   UNL     1      -0.934  -8.609  13.826  1.00  0.00     0.049 A 
ATOM     51  C   UNL     1       4.192 -10.571  12.677  1.00  0.00     0.074 A 
ATOM     52  C   UNL     1      -1.414  -8.839  15.104  1.00  0.00     0.029 A 
ATOM     53  N   UNL     1       0.335  -9.167  13.771  1.00  0.00    -0.354 N 
ATOM     54  N   UNL     1       3.012 -10.175  13.090  1.00  0.00    -0.248 NA
ATOM     55  C   UNL     1       4.995 -11.246  13.706  1.00  0.00     0.031 C 
ATOM     56  C   UNL     1      -0.419  -9.498  15.833  1.00  0.00     0.029 A 
ATOM     57  C   UNL     1       0.661  -9.727  14.995  1.00  0.00     0.049 A 
ATOM     58  H   UNL     1       0.919  -9.166  12.978  1.00  0.00     0.167 HD
ATOM     59  C   UNL     1       2.917 -10.582  14.416  1.00  0.00     0.074 A 
ATOM     60  C   UNL     1       4.156 -11.264  14.732  1.00  0.00     0.031 C 
ATOM     61  C   UNL     1       1.895 -10.411  15.292  1.00  0.00     0.037 A 
BRANCH  48  62
ATOM     62  C   UNL     1      -2.941  -7.326  12.971  1.00  0.00     0.058 A 
ATOM     63  C   UNL     1      -4.097  -7.860  12.379  1.00  0.00     0.135 A 
ATOM     64  C   UNL     1      -3.095  -6.222  13.825  1.00  0.00     0.135 A 
ATOM     65  F   UNL     1      -4.008  -8.906  11.542  1.00  0.00    -0.206 F 
ATOM     66  C   UNL     1      -5.352  -7.301  12.598  1.00  0.00     0.059 A 
ATOM     67  C   UNL     1      -4.345  -5.665  14.082  1.00  0.00     0.059 A 
ATOM     68  F   UNL     1      -2.025  -5.670  14.418  1.00  0.00    -0.206 F 
ATOM     69  C   UNL     1      -5.466  -6.203  13.451  1.00  0.00     0.060 A 
BRANCH  69  70
ATOM     70  S   UNL     1      -7.102  -5.493  13.727  1.00  0.00     0.124 S 
ATOM     71  O   UNL     1      -7.348  -4.827  12.452  1.00  0.00    -0.237 OA
ATOM     72  O   UNL     1      -7.915  -6.676  13.991  1.00  0.00    -0.237 OA
ATOM     73  O   UNL     1      -6.901  -4.606  14.869  1.00  0.00    -0.744 OA
ENDBRANCH  69  70
ENDBRANCH  48  62
BRANCH  49  74
ATOM     74  C   UNL     1       6.178 -10.956  11.037  1.00  0.00     0.058 A 
ATOM     75  C   UNL     1       6.431 -12.336  11.013  1.00  0.00     0.135 A 
ATOM     76  C   UNL     1       7.252 -10.091  10.779  1.00  0.00     0.135 A 
ATOM     77  F   UNL     1       5.438 -13.204  11.258  1.00  0.00    -0.206 F 
ATOM     78  C   UNL     1       7.703 -12.840  10.762  1.00  0.00     0.059 A 
ATOM     79  C   UNL     1       8.528 -10.572  10.499  1.00  0.00     0.059 A 
ATOM     80  F   UNL     1       7.060  -8.762  10.771  1.00  0.00    -0.206 F 
ATOM     81  C   UNL     1       8.745 -11.949  10.503  1.00  0.00     0.060 A 
BRANCH  81  82
ATOM     82  S   UNL     1      10.382 -12.615  10.132  1.00  0.00     0.124 S 
ATOM     83  O   UNL     1      10.813 -13.084  11.443  1.00  0.00    -0.237 OA
ATOM     84  O   UNL     1      10.075 -13.652   9.151  1.00  0.00    -0.237 OA
ATOM     85  O   UNL     1      11.103 -11.460   9.605  1.00  0.00    -0.744 OA
ENDBRANCH  81  82
ENDBRANCH  49  74
BRANCH  61  86
ATOM     86  C   UNL     1       2.053 -11.008  16.664  1.00  0.00     0.058 A 
ATOM     87  C   UNL     1       2.936 -10.468  17.612  1.00  0.00     0.135 A 
ATOM     88  C   UNL     1       1.274 -12.113  17.048  1.00  0.00     0.135 A 
ATOM     89  F   UNL     1       3.706  -9.415  17.295  1.00  0.00    -0.206 F 
ATOM     90  C   UNL     1       3.066 -11.022  18.881  1.00  0.00     0.059 A 
ATOM     91  C   UNL     1       1.366 -12.664  18.322  1.00  0.00     0.059 A 
ATOM     92  F   UNL     1       0.405 -12.660  16.184  1.00  0.00    -0.206 F 
ATOM     93  C   UNL     1       2.276 -12.120  19.227  1.00  0.00     0.060 A 
BRANCH  93  94
ATOM     94  S   UNL     1       2.438 -12.816  20.885  1.00  0.00     0.124 S 
ATOM     95  O   UNL     1       3.717 -13.512  20.787  1.00  0.00    -0.237 OA
ATOM     96  O   UNL     1       2.427 -11.624  21.727  1.00  0.00    -0.237 OA
ATOM     97  O   UNL     1       1.264 -13.675  21.009  1.00  0.00    -0.744 OA
ENDBRANCH  93  94
ENDBRANCH  61  86
ENDBRANCH  35  36
ENDBRANCH  27  30
ENDBRANCH  25  26
ENDBRANCH   1  25
TORSDOF 16
