REMARK SMILES CCc1n[nH]c(C(=O)NC[C@@H]2CC[C@@H](C(=O)NCCCCNC(=O)c3ccc(-c4c5nc(c(-c6c(F)cc(S(=O)(=O)[O-])cc6F)c6ccc([nH]6)c(-c6c(F)cc(S(=O)(=O)[O-])cc6F)c6nc(c(-c7c(F)cc(S(=O)(=O)[O-])cc7F)c7ccc4[nH]7)C=C6)C=C5)cc3)O2)n1
REMARK SMILES IDX 19 1 18 2 17 3 15 4 16 5 14 7 11 8 12 9 91 10 13 11 10 12
REMARK SMILES IDX 9 13 7 14 8 15 6 17 3 18 4 19 92 20 5 21 2 23 1 24 20 25
REMARK SMILES IDX 21 26 22 27 23 28 24 30 25 31 26 32 90 33 27 34 89 35 28 36
REMARK SMILES IDX 29 37 30 38 83 39 31 40 88 41 82 42 84 43 32 44 87 45 81 46
REMARK SMILES IDX 80 47 33 49 67 50 46 51 66 52 47 53 50 54 65 55 85 56 48 57
REMARK SMILES IDX 49 58 64 60 86 61 51 62 34 63 35 64 44 65 36 66 37 67 43 68
REMARK SMILES IDX 45 69 38 70 39 71 40 72 41 73 42 74 68 75 69 76 78 77 70 78
REMARK SMILES IDX 71 79 77 80 79 81 72 82 73 83 74 84 75 85 76 86 52 87 53 88
REMARK SMILES IDX 62 89 54 90 55 91 61 92 63 93 56 94 57 95 58 96 59 97 60 98
REMARK H PARENT 17 6 9 16 5 22 22 29 84 48 50 59
REMARK Flexibility Score: inf
ROOT
ATOM      1  C   UNL     1      -7.508   4.386   3.188  1.00  0.00     0.023 C 
ENDROOT
BRANCH   1   2
ATOM      2  C   UNL     1      -7.666   5.248   1.933  1.00  0.00     0.116 C 
BRANCH   2   3
ATOM      3  N   UNL     1      -6.907   6.470   2.058  1.00  0.00    -0.354 N 
ATOM      4  C   UNL     1      -5.628   6.759   1.684  1.00  0.00     0.249 C 
ATOM      5  O   UNL     1      -5.199   7.867   2.022  1.00  0.00    -0.272 OA
ATOM      6  H   UNL     1      -7.391   7.215   2.482  1.00  0.00     0.163 HD
BRANCH   4   7
ATOM      7  C   UNL     1      -4.797   5.804   0.792  1.00  0.00     0.207 C 
ATOM      8  C   UNL     1      -2.588   5.001   1.007  1.00  0.00     0.138 C 
ATOM      9  C   UNL     1      -3.473   3.835   0.634  1.00  0.00     0.037 C 
ATOM     10  O   UNL     1      -3.402   6.178   0.843  1.00  0.00    -0.363 OA
ATOM     11  C   UNL     1      -4.825   4.314   1.087  1.00  0.00     0.045 C 
BRANCH   8  12
ATOM     12  C   UNL     1      -1.367   5.128   0.099  1.00  0.00     0.148 C 
BRANCH  12  13
ATOM     13  N   UNL     1      -0.313   5.905   0.731  1.00  0.00    -0.347 N 
ATOM     14  C   UNL     1       0.833   5.473   1.353  1.00  0.00     0.288 C 
ATOM     15  O   UNL     1       1.621   6.323   1.766  1.00  0.00    -0.266 OA
ATOM     16  H   UNL     1      -0.439   6.881   0.709  1.00  0.00     0.164 HD
BRANCH  14  17
ATOM     17  C   UNL     1       1.112   4.061   1.492  1.00  0.00     0.214 A 
ATOM     18  C   UNL     1       1.130   1.946   1.511  1.00  0.00     0.151 A 
ATOM     19  N   UNL     1       2.357   2.250   1.947  1.00  0.00    -0.158 NA
ATOM     20  N   UNL     1       0.332   3.026   1.235  1.00  0.00    -0.207 NA
ATOM     21  N   UNL     1       2.312   3.594   1.948  1.00  0.00    -0.255 N 
ATOM     22  H   UNL     1       3.053   4.171   2.242  1.00  0.00     0.192 HD
BRANCH  18  23
ATOM     23  C   UNL     1       0.667   0.549   1.311  1.00  0.00     0.076 C 
ATOM     24  C   UNL     1       1.080  -0.004  -0.044  1.00  0.00     0.012 C 
ENDBRANCH  18  23
ENDBRANCH  14  17
ENDBRANCH  12  13
ENDBRANCH   8  12
ENDBRANCH   4   7
ENDBRANCH   2   3
ENDBRANCH   1   2
BRANCH   1  25
ATOM     25  C   UNL     1      -8.472   4.750   4.317  1.00  0.00     0.023 C 
BRANCH  25  26
ATOM     26  C   UNL     1      -9.945   4.625   3.959  1.00  0.00     0.116 C 
BRANCH  26  27
ATOM     27  N   UNL     1     -10.308   3.307   3.454  1.00  0.00    -0.352 N 
ATOM     28  C   UNL     1     -11.500   2.643   3.625  1.00  0.00     0.251 C 
ATOM     29  H   UNL     1      -9.620   2.837   2.929  1.00  0.00     0.163 HD
ATOM     30  O   UNL     1     -11.641   1.490   3.237  1.00  0.00    -0.269 OA
BRANCH  28  31
ATOM     31  C   UNL     1     -12.587   3.348   4.330  1.00  0.00     0.039 A 
ATOM     32  C   UNL     1     -13.131   2.775   5.479  1.00  0.00     0.014 A 
ATOM     33  C   UNL     1     -12.965   4.628   3.916  1.00  0.00     0.014 A 
ATOM     34  C   UNL     1     -14.006   3.526   6.264  1.00  0.00     0.010 A 
ATOM     35  C   UNL     1     -13.769   5.401   4.742  1.00  0.00     0.010 A 
ATOM     36  C   UNL     1     -14.293   4.860   5.927  1.00  0.00    -0.014 A 
BRANCH  36  37
ATOM     37  C   UNL     1     -15.128   5.717   6.806  1.00  0.00     0.031 A 
ATOM     38  C   UNL     1     -16.424   6.275   6.290  1.00  0.00     0.074 A 
ATOM     39  C   UNL     1     -14.680   6.052   8.032  1.00  0.00     0.049 A 
ATOM     40  N   UNL     1     -17.250   7.108   6.866  1.00  0.00    -0.248 NA
ATOM     41  C   UNL     1     -16.831   5.867   4.935  1.00  0.00     0.031 C 
ATOM     42  C   UNL     1     -13.412   5.613   8.621  1.00  0.00     0.029 A 
ATOM     43  N   UNL     1     -15.233   6.852   9.001  1.00  0.00    -0.354 N 
ATOM     44  C   UNL     1     -18.264   7.333   5.943  1.00  0.00     0.074 A 
ATOM     45  C   UNL     1     -17.920   6.597   4.747  1.00  0.00     0.031 C 
ATOM     46  C   UNL     1     -13.296   6.131   9.855  1.00  0.00     0.029 A 
ATOM     47  C   UNL     1     -14.455   6.974  10.129  1.00  0.00     0.049 A 
ATOM     48  H   UNL     1     -16.105   7.297   8.898  1.00  0.00     0.167 HD
ATOM     49  C   UNL     1     -19.392   8.067   6.089  1.00  0.00     0.037 A 
ATOM     50  C   UNL     1     -14.647   7.696  11.251  1.00  0.00     0.037 A 
ATOM     51  C   UNL     1     -19.735   8.778   7.292  1.00  0.00     0.049 A 
ATOM     52  C   UNL     1     -15.901   8.519  11.383  1.00  0.00     0.074 A 
ATOM     53  C   UNL     1     -20.884   9.499   7.566  1.00  0.00     0.029 A 
ATOM     54  N   UNL     1     -18.929   8.867   8.419  1.00  0.00    -0.354 N 
ATOM     55  N   UNL     1     -16.888   8.659  10.530  1.00  0.00    -0.248 NA
ATOM     56  C   UNL     1     -16.071   9.280  12.628  1.00  0.00     0.031 C 
ATOM     57  C   UNL     1     -20.748  10.070   8.835  1.00  0.00     0.029 A 
ATOM     58  C   UNL     1     -19.542   9.655   9.378  1.00  0.00     0.049 A 
ATOM     59  H   UNL     1     -18.052   8.432   8.521  1.00  0.00     0.167 HD
ATOM     60  C   UNL     1     -17.806   9.503  11.145  1.00  0.00     0.074 A 
ATOM     61  C   UNL     1     -17.264   9.830  12.448  1.00  0.00     0.031 C 
ATOM     62  C   UNL     1     -18.991   9.965  10.674  1.00  0.00     0.037 A 
BRANCH  49  63
ATOM     63  C   UNL     1     -20.338   8.137   4.922  1.00  0.00     0.058 A 
ATOM     64  C   UNL     1     -21.079   7.019   4.503  1.00  0.00     0.135 A 
ATOM     65  C   UNL     1     -20.537   9.346   4.236  1.00  0.00     0.135 A 
ATOM     66  F   UNL     1     -20.916   5.833   5.111  1.00  0.00    -0.206 F 
ATOM     67  C   UNL     1     -21.960   7.090   3.429  1.00  0.00     0.059 A 
ATOM     68  C   UNL     1     -21.437   9.448   3.180  1.00  0.00     0.059 A 
ATOM     69  F   UNL     1     -19.854  10.445   4.592  1.00  0.00    -0.206 F 
ATOM     70  C   UNL     1     -22.134   8.311   2.775  1.00  0.00     0.060 A 
BRANCH  70  71
ATOM     71  S   UNL     1     -23.290   8.386   1.391  1.00  0.00     0.124 S 
ATOM     72  O   UNL     1     -22.568   7.634   0.369  1.00  0.00    -0.237 OA
ATOM     73  O   UNL     1     -24.474   7.734   1.940  1.00  0.00    -0.237 OA
ATOM     74  O   UNL     1     -23.425   9.817   1.137  1.00  0.00    -0.744 OA
ENDBRANCH  70  71
ENDBRANCH  49  63
BRANCH  50  75
ATOM     75  C   UNL     1     -13.634   7.665  12.341  1.00  0.00     0.058 A 
ATOM     76  C   UNL     1     -13.915   7.054  13.572  1.00  0.00     0.135 A 
ATOM     77  C   UNL     1     -12.362   8.235  12.171  1.00  0.00     0.135 A 
ATOM     78  F   UNL     1     -15.118   6.500  13.787  1.00  0.00    -0.206 F 
ATOM     79  C   UNL     1     -12.980   7.024  14.603  1.00  0.00     0.059 A 
ATOM     80  C   UNL     1     -11.400   8.193  13.176  1.00  0.00     0.059 A 
ATOM     81  F   UNL     1     -12.036   8.818  11.007  1.00  0.00    -0.206 F 
ATOM     82  C   UNL     1     -11.723   7.594  14.393  1.00  0.00     0.060 A 
BRANCH  82  83
ATOM     83  S   UNL     1     -10.502   7.509  15.722  1.00  0.00     0.124 S 
ATOM     84  O   UNL     1     -11.051   8.454  16.687  1.00  0.00    -0.237 OA
ATOM     85  O   UNL     1     -10.562   6.101  16.100  1.00  0.00    -0.237 OA
ATOM     86  O   UNL     1      -9.264   7.921  15.067  1.00  0.00    -0.744 OA
ENDBRANCH  82  83
ENDBRANCH  50  75
BRANCH  62  87
ATOM     87  C   UNL     1     -19.804  10.851  11.578  1.00  0.00     0.058 A 
ATOM     88  C   UNL     1     -19.427  12.175  11.847  1.00  0.00     0.135 A 
ATOM     89  C   UNL     1     -21.017  10.391  12.118  1.00  0.00     0.135 A 
ATOM     90  F   UNL     1     -18.273  12.662  11.362  1.00  0.00    -0.206 F 
ATOM     91  C   UNL     1     -20.218  13.010  12.630  1.00  0.00     0.059 A 
ATOM     92  C   UNL     1     -21.838  11.218  12.878  1.00  0.00     0.059 A 
ATOM     93  F   UNL     1     -21.428   9.135  11.884  1.00  0.00    -0.206 F 
ATOM     94  C   UNL     1     -21.426  12.525  13.134  1.00  0.00     0.060 A 
BRANCH  94  95
ATOM     95  S   UNL     1     -22.469  13.638  14.098  1.00  0.00     0.124 S 
ATOM     96  O   UNL     1     -21.709  13.753  15.339  1.00  0.00    -0.237 OA
ATOM     97  O   UNL     1     -22.503  14.834  13.262  1.00  0.00    -0.237 OA
ATOM     98  O   UNL     1     -23.734  12.917  14.202  1.00  0.00    -0.744 OA
ENDBRANCH  94  95
ENDBRANCH  62  87
ENDBRANCH  36  37
ENDBRANCH  28  31
ENDBRANCH  26  27
ENDBRANCH  25  26
ENDBRANCH   1  25
TORSDOF 18
