REMARK SMILES Cc1ccc(C(=O)NC2CC2)cc1NC(=O)[C@@H]1[C@@H](C(=O)NCCCCNC(=O)c2ccc(-c3c4nc(c(-c5c(F)cc(S(=O)(=O)[O-])cc5F)c5ccc([nH]5)c(-c5c(F)cc(S(=O)(=O)[O-])cc5F)c5nc(c(-c6c(F)cc(S(=O)(=O)[O-])cc6F)c6ccc3[nH]6)C=C5)C=C4)cc2)[C@H]2C=C[C@@H]1C2
REMARK SMILES IDX 23 1 22 2 21 3 19 4 20 5 18 7 17 8 98 9 95 10 97 11 99 12
REMARK SMILES IDX 96 13 15 14 14 15 16 17 13 18 1 19 2 20 3 21 4 22 12 23 5 24
REMARK SMILES IDX 6 25 7 26 8 27 9 29 10 30 11 31 24 32 25 33 26 34 27 35
REMARK SMILES IDX 28 37 29 38 30 39 94 40 31 41 93 42 32 43 33 44 34 45 87 46
REMARK SMILES IDX 35 47 92 48 86 49 88 50 36 51 91 52 85 53 84 54 37 56 71 57
REMARK SMILES IDX 50 58 70 59 51 60 54 61 69 62 89 63 52 64 53 65 68 67 90 68
REMARK SMILES IDX 55 69 38 70 39 71 48 72 40 73 41 74 47 75 49 76 42 77 43 78
REMARK SMILES IDX 44 79 45 80 46 81 72 82 73 83 82 84 74 85 75 86 81 87 83 88
REMARK SMILES IDX 76 89 77 90 78 91 79 92 80 93 56 94 57 95 66 96 58 97 59 98
REMARK SMILES IDX 65 99 67 100 60 101 61 102 62 103 63 104 64 105
REMARK H PARENT 21 6 14 16 8 28 26 36 88 55 54 66
REMARK Flexibility Score: inf
ROOT
ATOM      1  C   UNL     1      -3.245   9.242   0.501  1.00  0.00     0.023 C 
ENDROOT
BRANCH   1   2
ATOM      2  C   UNL     1      -3.623   7.777   0.745  1.00  0.00     0.116 C 
BRANCH   2   3
ATOM      3  N   UNL     1      -3.123   6.892  -0.296  1.00  0.00    -0.356 N 
ATOM      4  C   UNL     1      -2.197   5.908  -0.333  1.00  0.00     0.224 C 
ATOM      5  O   UNL     1      -1.990   5.421  -1.454  1.00  0.00    -0.275 OA
ATOM      6  H   UNL     1      -3.555   7.044  -1.167  1.00  0.00     0.163 HD
BRANCH   4   7
ATOM      7  C   UNL     1      -1.347   5.451   0.851  1.00  0.00     0.098 C 
ATOM      8  C   UNL     1      -0.977   3.919   0.645  1.00  0.00     0.099 C 
ATOM      9  C   UNL     1      -1.289   3.297   2.032  1.00  0.00     0.025 C 
ATOM     10  C   UNL     1      -1.935   5.426   2.278  1.00  0.00     0.025 C 
ATOM     11  C   UNL     1      -2.790   3.293   2.211  1.00  0.00    -0.027 C 
ATOM     12  C   UNL     1      -0.966   4.457   2.970  1.00  0.00     0.017 C 
ATOM     13  C   UNL     1      -3.180   4.570   2.329  1.00  0.00    -0.027 C 
BRANCH   8  14
ATOM     14  C   UNL     1       0.456   3.649   0.214  1.00  0.00     0.228 C 
ATOM     15  N   UNL     1       0.893   2.386  -0.104  1.00  0.00    -0.326 N 
ATOM     16  H   UNL     1       1.855   2.349  -0.312  1.00  0.00     0.169 HD
ATOM     17  O   UNL     1       1.307   4.544   0.218  1.00  0.00    -0.274 OA
BRANCH  15  18
ATOM     18  C   UNL     1       0.255   1.128  -0.195  1.00  0.00     0.044 A 
ATOM     19  C   UNL     1       2.488  -0.084   0.278  1.00  0.00     0.046 C 
ATOM     20  C   UNL     1       0.999  -0.043   0.058  1.00  0.00    -0.027 A 
ATOM     21  C   UNL     1       0.331  -1.279   0.085  1.00  0.00     0.006 A 
ATOM     22  C   UNL     1      -1.043  -1.359  -0.139  1.00  0.00     0.014 A 
ATOM     23  C   UNL     1      -1.099   0.997  -0.550  1.00  0.00     0.040 A 
ATOM     24  C   UNL     1      -1.785  -0.221  -0.477  1.00  0.00     0.041 A 
BRANCH  24  25
ATOM     25  C   UNL     1      -3.250  -0.428  -0.739  1.00  0.00     0.251 C 
ATOM     26  O   UNL     1      -3.684  -1.583  -0.736  1.00  0.00    -0.269 OA
ATOM     27  N   UNL     1      -4.160   0.584  -0.954  1.00  0.00    -0.349 N 
ATOM     28  H   UNL     1      -5.086   0.275  -1.083  1.00  0.00     0.164 HD
BRANCH  27  29
ATOM     29  C   UNL     1      -4.002   1.991  -1.024  1.00  0.00     0.082 C 
ATOM     30  C   UNL     1      -3.899   2.664  -2.364  1.00  0.00     0.027 C 
ATOM     31  C   UNL     1      -5.097   2.905  -1.496  1.00  0.00     0.027 C 
ENDBRANCH  27  29
ENDBRANCH  24  25
ENDBRANCH  15  18
ENDBRANCH   8  14
ENDBRANCH   4   7
ENDBRANCH   2   3
ENDBRANCH   1   2
BRANCH   1  32
ATOM     32  C   UNL     1      -3.803   9.846  -0.789  1.00  0.00     0.023 C 
BRANCH  32  33
ATOM     33  C   UNL     1      -5.319  10.014  -0.795  1.00  0.00     0.116 C 
BRANCH  33  34
ATOM     34  N   UNL     1      -5.761  11.353  -0.446  1.00  0.00    -0.352 N 
ATOM     35  C   UNL     1      -7.030  11.897  -0.605  1.00  0.00     0.251 C 
ATOM     36  H   UNL     1      -5.081  11.945  -0.050  1.00  0.00     0.163 HD
ATOM     37  O   UNL     1      -7.239  13.089  -0.595  1.00  0.00    -0.269 OA
BRANCH  35  38
ATOM     38  C   UNL     1      -8.154  10.933  -0.636  1.00  0.00     0.039 A 
ATOM     39  C   UNL     1      -8.994  10.904   0.485  1.00  0.00     0.014 A 
ATOM     40  C   UNL     1      -8.195   9.925  -1.593  1.00  0.00     0.014 A 
ATOM     41  C   UNL     1      -9.750   9.765   0.744  1.00  0.00     0.010 A 
ATOM     42  C   UNL     1      -8.878   8.764  -1.292  1.00  0.00     0.010 A 
ATOM     43  C   UNL     1      -9.617   8.667  -0.103  1.00  0.00    -0.014 A 
BRANCH  43  44
ATOM     44  C   UNL     1     -10.147   7.344   0.202  1.00  0.00     0.031 A 
ATOM     45  C   UNL     1     -11.333   6.837  -0.522  1.00  0.00     0.074 A 
ATOM     46  C   UNL     1      -9.474   6.542   1.054  1.00  0.00     0.049 A 
ATOM     47  N   UNL     1     -12.071   5.853  -0.132  1.00  0.00    -0.248 NA
ATOM     48  C   UNL     1     -11.807   7.452  -1.756  1.00  0.00     0.031 C 
ATOM     49  C   UNL     1      -9.620   5.099   1.212  1.00  0.00     0.029 A 
ATOM     50  N   UNL     1      -8.633   6.921   2.099  1.00  0.00    -0.354 N 
ATOM     51  C   UNL     1     -12.917   5.521  -1.170  1.00  0.00     0.074 A 
ATOM     52  C   UNL     1     -12.757   6.590  -2.128  1.00  0.00     0.031 C 
ATOM     53  C   UNL     1      -9.103   4.736   2.397  1.00  0.00     0.029 A 
ATOM     54  C   UNL     1      -8.758   5.954   3.111  1.00  0.00     0.049 A 
ATOM     55  H   UNL     1      -8.058   7.720   2.124  1.00  0.00     0.167 HD
ATOM     56  C   UNL     1     -13.546   4.307  -1.160  1.00  0.00     0.037 A 
ATOM     57  C   UNL     1      -9.257   6.291   4.339  1.00  0.00     0.037 A 
ATOM     58  C   UNL     1     -13.286   3.600   0.097  1.00  0.00     0.049 A 
ATOM     59  C   UNL     1     -10.563   5.608   4.679  1.00  0.00     0.074 A 
ATOM     60  C   UNL     1     -12.368   2.622   0.443  1.00  0.00     0.029 A 
ATOM     61  N   UNL     1     -13.801   4.095   1.292  1.00  0.00    -0.354 N 
ATOM     62  N   UNL     1     -11.328   5.014   3.805  1.00  0.00    -0.248 NA
ATOM     63  C   UNL     1     -11.118   5.553   6.030  1.00  0.00     0.031 C 
ATOM     64  C   UNL     1     -12.268   2.592   1.855  1.00  0.00     0.029 A 
ATOM     65  C   UNL     1     -13.143   3.533   2.371  1.00  0.00     0.049 A 
ATOM     66  H   UNL     1     -14.531   4.752   1.359  1.00  0.00     0.167 HD
ATOM     67  C   UNL     1     -12.457   4.545   4.423  1.00  0.00     0.074 A 
ATOM     68  C   UNL     1     -12.265   4.882   5.822  1.00  0.00     0.031 C 
ATOM     69  C   UNL     1     -13.463   3.927   3.735  1.00  0.00     0.037 A 
BRANCH  56  70
ATOM     70  C   UNL     1     -14.102   3.634  -2.407  1.00  0.00     0.058 A 
ATOM     71  C   UNL     1     -14.106   2.225  -2.526  1.00  0.00     0.135 A 
ATOM     72  C   UNL     1     -14.569   4.309  -3.552  1.00  0.00     0.135 A 
ATOM     73  F   UNL     1     -13.813   1.432  -1.487  1.00  0.00    -0.206 F 
ATOM     74  C   UNL     1     -14.405   1.557  -3.717  1.00  0.00     0.059 A 
ATOM     75  C   UNL     1     -14.819   3.671  -4.773  1.00  0.00     0.059 A 
ATOM     76  F   UNL     1     -14.862   5.615  -3.520  1.00  0.00    -0.206 F 
ATOM     77  C   UNL     1     -14.718   2.291  -4.851  1.00  0.00     0.060 A 
BRANCH  77  78
ATOM     78  S   UNL     1     -15.006   1.420  -6.403  1.00  0.00     0.124 S 
ATOM     79  O   UNL     1     -13.777   0.648  -6.556  1.00  0.00    -0.237 OA
ATOM     80  O   UNL     1     -16.208   0.651  -6.101  1.00  0.00    -0.237 OA
ATOM     81  O   UNL     1     -15.181   2.500  -7.371  1.00  0.00    -0.744 OA
ENDBRANCH  77  78
ENDBRANCH  56  70
BRANCH  57  82
ATOM     82  C   UNL     1      -8.859   7.660   4.772  1.00  0.00     0.058 A 
ATOM     83  C   UNL     1      -7.495   7.884   5.040  1.00  0.00     0.135 A 
ATOM     84  C   UNL     1      -9.658   8.778   4.492  1.00  0.00     0.135 A 
ATOM     85  F   UNL     1      -6.688   6.849   5.327  1.00  0.00    -0.206 F 
ATOM     86  C   UNL     1      -6.912   9.134   4.870  1.00  0.00     0.059 A 
ATOM     87  C   UNL     1      -9.094  10.045   4.323  1.00  0.00     0.059 A 
ATOM     88  F   UNL     1     -10.965   8.627   4.234  1.00  0.00    -0.206 F 
ATOM     89  C   UNL     1      -7.710  10.193   4.442  1.00  0.00     0.060 A 
BRANCH  89  90
ATOM     90  S   UNL     1      -6.875  11.691   3.866  1.00  0.00     0.124 S 
ATOM     91  O   UNL     1      -6.175  12.128   5.068  1.00  0.00    -0.237 OA
ATOM     92  O   UNL     1      -6.025  11.162   2.798  1.00  0.00    -0.237 OA
ATOM     93  O   UNL     1      -7.976  12.540   3.430  1.00  0.00    -0.744 OA
ENDBRANCH  89  90
ENDBRANCH  57  82
BRANCH  69  94
ATOM     94  C   UNL     1     -14.801   3.546   4.315  1.00  0.00     0.058 A 
ATOM     95  C   UNL     1     -15.467   4.296   5.299  1.00  0.00     0.135 A 
ATOM     96  C   UNL     1     -15.522   2.450   3.784  1.00  0.00     0.135 A 
ATOM     97  F   UNL     1     -14.931   5.420   5.797  1.00  0.00    -0.206 F 
ATOM     98  C   UNL     1     -16.728   3.942   5.781  1.00  0.00     0.059 A 
ATOM     99  C   UNL     1     -16.802   2.110   4.214  1.00  0.00     0.059 A 
ATOM    100  F   UNL     1     -15.002   1.675   2.821  1.00  0.00    -0.206 F 
ATOM    101  C   UNL     1     -17.387   2.844   5.236  1.00  0.00     0.060 A 
BRANCH 101 102
ATOM    102  S   UNL     1     -19.032   2.402   5.824  1.00  0.00     0.124 S 
ATOM    103  O   UNL     1     -18.714   1.475   6.905  1.00  0.00    -0.237 OA
ATOM    104  O   UNL     1     -19.586   3.688   6.238  1.00  0.00    -0.237 OA
ATOM    105  O   UNL     1     -19.658   1.809   4.646  1.00  0.00    -0.744 OA
ENDBRANCH 101 102
ENDBRANCH  69  94
ENDBRANCH  43  44
ENDBRANCH  35  38
ENDBRANCH  33  34
ENDBRANCH  32  33
ENDBRANCH   1  32
TORSDOF 18
