REMARK SMILES CC[C@](O)(C(=O)NCCCCNC(=O)c1ccc(-c2c3nc(c(-c4c(F)cc(S(=O)(=O)[O-])cc4F)c4ccc([nH]4)c(-c4c(F)cc(S(=O)(=O)[O-])cc4F)c4nc(c(-c5c(F)cc(S(=O)(=O)[O-])cc5F)c5ccc2[nH]5)C=C4)C=C3)cc1)[C@@H](C)c1ccc(C)s1
REMARK SMILES IDX 10 1 9 2 8 3 7 4 5 5 6 6 3 8 2 9 1 10 81 11 82 12 83 13
REMARK SMILES IDX 84 14 88 15 85 16 86 17 87 18 4 19 11 21 12 22 13 23 14 25
REMARK SMILES IDX 15 26 16 27 80 28 17 29 79 30 18 31 19 32 20 33 73 34 21 35
REMARK SMILES IDX 78 36 72 37 74 38 22 39 77 40 71 41 70 42 23 44 57 45 36 46
REMARK SMILES IDX 56 47 37 48 40 49 55 50 75 51 38 52 39 53 54 55 76 56 41 57
REMARK SMILES IDX 24 58 25 59 34 60 26 61 27 62 33 63 35 64 28 65 29 66 30 67
REMARK SMILES IDX 31 68 32 69 58 70 59 71 68 72 60 73 61 74 67 75 69 76 62 77
REMARK SMILES IDX 63 78 64 79 65 80 66 81 42 82 43 83 52 84 44 85 45 86 51 87
REMARK SMILES IDX 53 88 46 89 47 90 48 91 49 92 50 93
REMARK H PARENT 7 7 4 20 12 24 74 43 40 54
REMARK Flexibility Score: inf
ROOT
ATOM      1  C   UNL     1      -3.600   2.701   3.321  1.00  0.00     0.023 C 
ENDROOT
BRANCH   1   2
ATOM      2  C   UNL     1      -2.771   1.872   2.343  1.00  0.00     0.023 C 
BRANCH   2   3
ATOM      3  C   UNL     1      -2.012   2.687   1.303  1.00  0.00     0.116 C 
BRANCH   3   4
ATOM      4  N   UNL     1      -0.942   3.488   1.878  1.00  0.00    -0.354 N 
ATOM      5  C   UNL     1       0.407   3.472   1.624  1.00  0.00     0.252 C 
ATOM      6  O   UNL     1       1.087   4.362   2.142  1.00  0.00    -0.272 OA
ATOM      7  H   UNL     1      -1.230   4.143   2.554  1.00  0.00     0.163 HD
BRANCH   5   8
ATOM      8  C   UNL     1       1.012   2.446   0.612  1.00  0.00     0.150 C 
BRANCH   8   9
ATOM      9  C   UNL     1       0.590   3.024  -0.779  1.00  0.00     0.043 C 
ATOM     10  C   UNL     1       1.083   2.353  -2.049  1.00  0.00     0.007 C 
ENDBRANCH   8   9
BRANCH   8  11
ATOM     11  C   UNL     1       2.574   2.300   0.809  1.00  0.00     0.068 C 
ATOM     12  C   UNL     1       3.012   2.037   2.265  1.00  0.00     0.017 C 
BRANCH  11  13
ATOM     13  C   UNL     1       3.180   1.208  -0.085  1.00  0.00     0.011 A 
ATOM     14  C   UNL     1       4.064   1.357  -1.139  1.00  0.00     0.016 A 
ATOM     15  S   UNL     1       2.798  -0.454   0.140  1.00  0.00    -0.145 S 
ATOM     16  C   UNL     1       4.214   0.153  -1.892  1.00  0.00     0.015 A 
ATOM     17  C   UNL     1       3.517  -0.899  -1.338  1.00  0.00     0.002 A 
ATOM     18  C   UNL     1       3.337  -2.280  -1.867  1.00  0.00     0.056 C 
ENDBRANCH  11  13
ENDBRANCH   8  11
BRANCH   8  19
ATOM     19  O   UNL     1       0.381   1.182   0.853  1.00  0.00    -0.379 OA
ATOM     20  H   UNL     1       0.657   0.843   1.719  1.00  0.00     0.212 HD
ENDBRANCH   8  19
ENDBRANCH   5   8
ENDBRANCH   3   4
ENDBRANCH   2   3
ENDBRANCH   1   2
BRANCH   1  21
ATOM     21  C   UNL     1      -4.544   3.718   2.685  1.00  0.00     0.116 C 
BRANCH  21  22
ATOM     22  N   UNL     1      -5.463   3.128   1.723  1.00  0.00    -0.352 N 
ATOM     23  C   UNL     1      -6.807   3.348   1.554  1.00  0.00     0.251 C 
ATOM     24  H   UNL     1      -5.062   2.476   1.104  1.00  0.00     0.163 HD
ATOM     25  O   UNL     1      -7.437   2.659   0.751  1.00  0.00    -0.269 OA
BRANCH  23  26
ATOM     26  C   UNL     1      -7.504   4.379   2.354  1.00  0.00     0.039 A 
ATOM     27  C   UNL     1      -8.748   4.066   2.906  1.00  0.00     0.014 A 
ATOM     28  C   UNL     1      -6.942   5.641   2.571  1.00  0.00     0.014 A 
ATOM     29  C   UNL     1      -9.395   4.993   3.725  1.00  0.00     0.010 A 
ATOM     30  C   UNL     1      -7.550   6.532   3.454  1.00  0.00     0.010 A 
ATOM     31  C   UNL     1      -8.784   6.220   4.040  1.00  0.00    -0.014 A 
BRANCH  31  32
ATOM     32  C   UNL     1      -9.429   7.155   4.999  1.00  0.00     0.031 A 
ATOM     33  C   UNL     1      -9.878   8.523   4.560  1.00  0.00     0.074 A 
ATOM     34  C   UNL     1      -9.594   6.771   6.281  1.00  0.00     0.049 A 
ATOM     35  N   UNL     1     -10.491   9.450   5.252  1.00  0.00    -0.248 NA
ATOM     36  C   UNL     1      -9.581   8.913   3.172  1.00  0.00     0.031 C 
ATOM     37  C   UNL     1      -9.131   5.501   6.848  1.00  0.00     0.029 A 
ATOM     38  N   UNL     1     -10.198   7.402   7.339  1.00  0.00    -0.354 N 
ATOM     39  C   UNL     1     -10.663  10.523   4.385  1.00  0.00     0.074 A 
ATOM     40  C   UNL     1     -10.025  10.162   3.138  1.00  0.00     0.031 C 
ATOM     41  C   UNL     1      -9.498   5.433   8.137  1.00  0.00     0.029 A 
ATOM     42  C   UNL     1     -10.194   6.663   8.499  1.00  0.00     0.049 A 
ATOM     43  H   UNL     1     -10.596   8.300   7.274  1.00  0.00     0.167 HD
ATOM     44  C   UNL     1     -11.322  11.688   4.596  1.00  0.00     0.037 A 
ATOM     45  C   UNL     1     -10.697   6.942   9.717  1.00  0.00     0.037 A 
ATOM     46  C   UNL     1     -11.960  12.041   5.839  1.00  0.00     0.049 A 
ATOM     47  C   UNL     1     -11.433   8.237   9.923  1.00  0.00     0.074 A 
ATOM     48  C   UNL     1     -12.682  13.182   6.143  1.00  0.00     0.029 A 
ATOM     49  N   UNL     1     -11.952  11.259   6.986  1.00  0.00    -0.354 N 
ATOM     50  N   UNL     1     -11.649   9.209   9.068  1.00  0.00    -0.248 NA
ATOM     51  C   UNL     1     -12.011   8.467  11.253  1.00  0.00     0.031 C 
ATOM     52  C   UNL     1     -13.074  13.110   7.484  1.00  0.00     0.029 A 
ATOM     53  C   UNL     1     -12.643  11.899   8.002  1.00  0.00     0.049 A 
ATOM     54  H   UNL     1     -11.519  10.379   7.065  1.00  0.00     0.167 HD
ATOM     55  C   UNL     1     -12.400  10.158   9.752  1.00  0.00     0.074 A 
ATOM     56  C   UNL     1     -12.629   9.627  11.080  1.00  0.00     0.031 C 
ATOM     57  C   UNL     1     -12.854  11.363   9.324  1.00  0.00     0.037 A 
BRANCH  44  58
ATOM     58  C   UNL     1     -11.406  12.660   3.449  1.00  0.00     0.058 A 
ATOM     59  C   UNL     1     -12.186  12.385   2.312  1.00  0.00     0.135 A 
ATOM     60  C   UNL     1     -10.747  13.899   3.502  1.00  0.00     0.135 A 
ATOM     61  F   UNL     1     -12.825  11.210   2.199  1.00  0.00    -0.206 F 
ATOM     62  C   UNL     1     -12.291  13.291   1.262  1.00  0.00     0.059 A 
ATOM     63  C   UNL     1     -10.861  14.834   2.476  1.00  0.00     0.059 A 
ATOM     64  F   UNL     1      -9.987  14.216   4.562  1.00  0.00    -0.206 F 
ATOM     65  C   UNL     1     -11.627  14.515   1.355  1.00  0.00     0.060 A 
BRANCH  65  66
ATOM     66  S   UNL     1     -11.794  15.688  -0.008  1.00  0.00     0.124 S 
ATOM     67  O   UNL     1     -11.008  15.036  -1.051  1.00  0.00    -0.237 OA
ATOM     68  O   UNL     1     -13.237  15.710  -0.224  1.00  0.00    -0.237 OA
ATOM     69  O   UNL     1     -11.224  16.919   0.529  1.00  0.00    -0.744 OA
ENDBRANCH  65  66
ENDBRANCH  44  58
BRANCH  45  70
ATOM     70  C   UNL     1     -10.533   5.968  10.832  1.00  0.00     0.058 A 
ATOM     71  C   UNL     1     -11.631   5.274  11.362  1.00  0.00     0.135 A 
ATOM     72  C   UNL     1      -9.270   5.713  11.389  1.00  0.00     0.135 A 
ATOM     73  F   UNL     1     -12.861   5.484  10.866  1.00  0.00    -0.206 F 
ATOM     74  C   UNL     1     -11.489   4.384  12.421  1.00  0.00     0.059 A 
ATOM     75  C   UNL     1      -9.098   4.805  12.428  1.00  0.00     0.059 A 
ATOM     76  F   UNL     1      -8.184   6.335  10.905  1.00  0.00    -0.206 F 
ATOM     77  C   UNL     1     -10.216   4.156  12.948  1.00  0.00     0.060 A 
BRANCH  77  78
ATOM     78  S   UNL     1     -10.035   2.973  14.301  1.00  0.00     0.124 S 
ATOM     79  O   UNL     1     -10.598   3.719  15.420  1.00  0.00    -0.237 OA
ATOM     80  O   UNL     1     -10.824   1.841  13.826  1.00  0.00    -0.237 OA
ATOM     81  O   UNL     1      -8.594   2.744  14.355  1.00  0.00    -0.744 OA
ENDBRANCH  77  78
ENDBRANCH  45  70
BRANCH  57  82
ATOM     82  C   UNL     1     -13.658  12.176  10.303  1.00  0.00     0.058 A 
ATOM     83  C   UNL     1     -13.070  12.760  11.437  1.00  0.00     0.135 A 
ATOM     84  C   UNL     1     -15.034  12.375  10.104  1.00  0.00     0.135 A 
ATOM     85  F   UNL     1     -11.759  12.599  11.676  1.00  0.00    -0.206 F 
ATOM     86  C   UNL     1     -13.826  13.468  12.365  1.00  0.00     0.059 A 
ATOM     87  C   UNL     1     -15.804  13.108  11.002  1.00  0.00     0.059 A 
ATOM     88  F   UNL     1     -15.646  11.854   9.029  1.00  0.00    -0.206 F 
ATOM     89  C   UNL     1     -15.195  13.631  12.142  1.00  0.00     0.060 A 
BRANCH  89  90
ATOM     90  S   UNL     1     -16.168  14.538  13.362  1.00  0.00     0.124 S 
ATOM     91  O   UNL     1     -16.254  13.567  14.449  1.00  0.00    -0.237 OA
ATOM     92  O   UNL     1     -15.335  15.708  13.621  1.00  0.00    -0.237 OA
ATOM     93  O   UNL     1     -17.421  14.810  12.663  1.00  0.00    -0.744 OA
ENDBRANCH  89  90
ENDBRANCH  57  82
ENDBRANCH  31  32
ENDBRANCH  23  26
ENDBRANCH  21  22
ENDBRANCH   1  21
TORSDOF 18
