REMARK SMILES CC[C@H]1SC[C@H](C(=O)NCCCCNC(=O)c2ccc(-c3c4nc(c(-c5c(F)cc(S(=O)(=O)[O-])cc5F)c5ccc([nH]5)c(-c5c(F)cc(S(=O)(=O)[O-])cc5F)c5nc(c(-c6c(F)cc(S(=O)(=O)[O-])cc6F)c6ccc3[nH]6)C=C5)C=C4)cc2)N1C(=O)Cc1ccc(F)c(F)c1
REMARK SMILES IDX 11 1 10 2 9 3 7 4 8 5 6 7 3 8 4 9 83 10 5 11 2 12 1 13 84 14
REMARK SMILES IDX 85 15 86 16 87 17 88 18 94 19 89 20 92 21 90 22 93 23 91 24
REMARK SMILES IDX 12 25 13 26 14 27 15 28 16 30 17 31 18 32 82 33 19 34 81 35
REMARK SMILES IDX 20 36 21 37 22 38 75 39 23 40 80 41 74 42 76 43 24 44 79 45
REMARK SMILES IDX 73 46 72 47 25 49 59 50 38 51 58 52 39 53 42 54 57 55 77 56
REMARK SMILES IDX 40 57 41 58 56 60 78 61 43 62 26 63 27 64 36 65 28 66 29 67
REMARK SMILES IDX 35 68 37 69 30 70 31 71 32 72 33 73 34 74 60 75 61 76 70 77
REMARK SMILES IDX 62 78 63 79 69 80 71 81 64 82 65 83 66 84 67 85 68 86 44 87
REMARK SMILES IDX 45 88 54 89 46 90 47 91 53 92 55 93 48 94 49 95 50 96 51 97
REMARK SMILES IDX 52 98
REMARK H PARENT 9 6 14 29 76 48 42 59
REMARK Flexibility Score: inf
ROOT
ATOM      1  C   UNL     1       3.059   4.599   3.448  1.00  0.00     0.023 C 
ENDROOT
BRANCH   1   2
ATOM      2  C   UNL     1       1.788   4.015   4.057  1.00  0.00     0.116 C 
BRANCH   2   3
ATOM      3  N   UNL     1       0.605   4.727   3.620  1.00  0.00    -0.354 N 
ATOM      4  C   UNL     1      -0.396   4.388   2.762  1.00  0.00     0.243 C 
ATOM      5  O   UNL     1      -1.181   5.292   2.448  1.00  0.00    -0.273 OA
ATOM      6  H   UNL     1       0.506   5.622   4.018  1.00  0.00     0.163 HD
BRANCH   4   7
ATOM      7  C   UNL     1      -0.478   3.029   2.027  1.00  0.00     0.185 C 
ATOM      8  C   UNL     1       1.004   1.043   2.017  1.00  0.00     0.143 C 
ATOM      9  S   UNL     1       1.771   2.223   0.866  1.00  0.00    -0.134 SA
ATOM     10  N   UNL     1       0.013   1.843   2.747  1.00  0.00    -0.318 N 
ATOM     11  C   UNL     1       0.244   3.169   0.685  1.00  0.00     0.107 C 
BRANCH   8  12
ATOM     12  C   UNL     1       0.339  -0.165   1.315  1.00  0.00     0.033 C 
ATOM     13  C   UNL     1       0.835  -0.550  -0.073  1.00  0.00     0.007 C 
ENDBRANCH   8  12
BRANCH  10  14
ATOM     14  C   UNL     1      -0.611   1.510   3.936  1.00  0.00     0.228 C 
ATOM     15  O   UNL     1      -1.658   2.061   4.284  1.00  0.00    -0.274 OA
BRANCH  14  16
ATOM     16  C   UNL     1       0.060   0.513   4.866  1.00  0.00     0.135 C 
BRANCH  16  17
ATOM     17  C   UNL     1      -0.255  -0.937   4.601  1.00  0.00    -0.036 A 
ATOM     18  C   UNL     1      -1.488  -1.345   4.064  1.00  0.00     0.007 A 
ATOM     19  C   UNL     1       0.696  -1.915   4.936  1.00  0.00     0.046 A 
ATOM     20  C   UNL     1      -1.733  -2.693   3.793  1.00  0.00     0.043 A 
ATOM     21  C   UNL     1       0.438  -3.258   4.675  1.00  0.00     0.159 A 
ATOM     22  C   UNL     1      -0.763  -3.642   4.094  1.00  0.00     0.158 A 
ATOM     23  F   UNL     1       1.366  -4.175   4.980  1.00  0.00    -0.204 F 
ATOM     24  F   UNL     1      -0.997  -4.932   3.819  1.00  0.00    -0.204 F 
ENDBRANCH  16  17
ENDBRANCH  14  16
ENDBRANCH  10  14
ENDBRANCH   4   7
ENDBRANCH   2   3
ENDBRANCH   1   2
BRANCH   1  25
ATOM     25  C   UNL     1       3.512   5.917   4.073  1.00  0.00     0.023 C 
BRANCH  25  26
ATOM     26  C   UNL     1       3.700   5.888   5.586  1.00  0.00     0.116 C 
BRANCH  26  27
ATOM     27  N   UNL     1       4.587   4.827   6.044  1.00  0.00    -0.352 N 
ATOM     28  C   UNL     1       5.460   4.855   7.105  1.00  0.00     0.251 C 
ATOM     29  H   UNL     1       4.556   3.987   5.531  1.00  0.00     0.163 HD
ATOM     30  O   UNL     1       6.207   3.906   7.324  1.00  0.00    -0.269 OA
BRANCH  28  31
ATOM     31  C   UNL     1       5.513   6.067   7.945  1.00  0.00     0.039 A 
ATOM     32  C   UNL     1       6.736   6.718   8.114  1.00  0.00     0.014 A 
ATOM     33  C   UNL     1       4.340   6.599   8.486  1.00  0.00     0.014 A 
ATOM     34  C   UNL     1       6.770   7.952   8.766  1.00  0.00     0.010 A 
ATOM     35  C   UNL     1       4.367   7.858   9.075  1.00  0.00     0.010 A 
ATOM     36  C   UNL     1       5.580   8.550   9.214  1.00  0.00    -0.014 A 
BRANCH  36  37
ATOM     37  C   UNL     1       5.578   9.902   9.825  1.00  0.00     0.031 A 
ATOM     38  C   UNL     1       5.163  10.073  11.259  1.00  0.00     0.074 A 
ATOM     39  C   UNL     1       5.870  10.978   9.066  1.00  0.00     0.049 A 
ATOM     40  N   UNL     1       5.000  11.174  11.945  1.00  0.00    -0.248 NA
ATOM     41  C   UNL     1       4.862   8.845  12.014  1.00  0.00     0.031 C 
ATOM     42  C   UNL     1       6.228  10.944   7.646  1.00  0.00     0.029 A 
ATOM     43  N   UNL     1       5.894  12.314   9.379  1.00  0.00    -0.354 N 
ATOM     44  C   UNL     1       4.556  10.776  13.200  1.00  0.00     0.074 A 
ATOM     45  C   UNL     1       4.434   9.335  13.169  1.00  0.00     0.031 C 
ATOM     46  C   UNL     1       6.450  12.197   7.216  1.00  0.00     0.029 A 
ATOM     47  C   UNL     1       6.220  13.126   8.318  1.00  0.00     0.049 A 
ATOM     48  H   UNL     1       5.696  12.659  10.280  1.00  0.00     0.167 HD
ATOM     49  C   UNL     1       4.296  11.541  14.286  1.00  0.00     0.037 A 
ATOM     50  C   UNL     1       6.316  14.467   8.242  1.00  0.00     0.037 A 
ATOM     51  C   UNL     1       4.464  12.969  14.325  1.00  0.00     0.049 A 
ATOM     52  C   UNL     1       6.055  15.291   9.474  1.00  0.00     0.074 A 
ATOM     53  C   UNL     1       4.296  13.826  15.398  1.00  0.00     0.029 A 
ATOM     54  N   UNL     1       4.846  13.750  13.244  1.00  0.00    -0.354 N 
ATOM     55  N   UNL     1       5.699  14.891  10.672  1.00  0.00    -0.248 NA
ATOM     56  C   UNL     1       6.214  16.747   9.349  1.00  0.00     0.031 C 
ATOM     57  C   UNL     1       4.550  15.130  14.959  1.00  0.00     0.029 A 
ATOM     58  C   UNL     1       4.910  15.080  13.622  1.00  0.00     0.049 A 
ATOM     59  H   UNL     1       5.043  13.409  12.342  1.00  0.00     0.167 HD
ATOM     60  C   UNL     1       5.619  16.041  11.448  1.00  0.00     0.074 A 
ATOM     61  C   UNL     1       5.973  17.152  10.588  1.00  0.00     0.031 C 
ATOM     62  C   UNL     1       5.283  16.168  12.755  1.00  0.00     0.037 A 
BRANCH  49  63
ATOM     63  C   UNL     1       3.820  10.847  15.530  1.00  0.00     0.058 A 
ATOM     64  C   UNL     1       4.687  10.068  16.312  1.00  0.00     0.135 A 
ATOM     65  C   UNL     1       2.497  11.000  15.973  1.00  0.00     0.135 A 
ATOM     66  F   UNL     1       5.958   9.874  15.924  1.00  0.00    -0.206 F 
ATOM     67  C   UNL     1       4.254   9.448  17.480  1.00  0.00     0.059 A 
ATOM     68  C   UNL     1       2.048  10.410  17.150  1.00  0.00     0.059 A 
ATOM     69  F   UNL     1       1.626  11.732  15.259  1.00  0.00    -0.206 F 
ATOM     70  C   UNL     1       2.932   9.627  17.891  1.00  0.00     0.060 A 
BRANCH  70  71
ATOM     71  S   UNL     1       2.392   8.835  19.421  1.00  0.00     0.124 S 
ATOM     72  O   UNL     1       2.269   7.443  18.999  1.00  0.00    -0.237 OA
ATOM     73  O   UNL     1       3.495   9.125  20.331  1.00  0.00    -0.237 OA
ATOM     74  O   UNL     1       1.136   9.511  19.727  1.00  0.00    -0.744 OA
ENDBRANCH  70  71
ENDBRANCH  49  63
BRANCH  50  75
ATOM     75  C   UNL     1       6.695  15.121   6.962  1.00  0.00     0.058 A 
ATOM     76  C   UNL     1       7.955  15.718   6.804  1.00  0.00     0.135 A 
ATOM     77  C   UNL     1       5.807  15.170   5.877  1.00  0.00     0.135 A 
ATOM     78  F   UNL     1       8.836  15.700   7.816  1.00  0.00    -0.206 F 
ATOM     79  C   UNL     1       8.312  16.366   5.627  1.00  0.00     0.059 A 
ATOM     80  C   UNL     1       6.150  15.793   4.680  1.00  0.00     0.059 A 
ATOM     81  F   UNL     1       4.598  14.596   5.970  1.00  0.00    -0.206 F 
ATOM     82  C   UNL     1       7.400  16.402   4.571  1.00  0.00     0.060 A 
BRANCH  82  83
ATOM     83  S   UNL     1       7.881  17.221   3.034  1.00  0.00     0.124 S 
ATOM     84  O   UNL     1       7.732  18.626   3.393  1.00  0.00    -0.237 OA
ATOM     85  O   UNL     1       9.251  16.751   2.848  1.00  0.00    -0.237 OA
ATOM     86  O   UNL     1       6.915  16.708   2.067  1.00  0.00    -0.744 OA
ENDBRANCH  82  83
ENDBRANCH  50  75
BRANCH  62  87
ATOM     87  C   UNL     1       5.319  17.547  13.347  1.00  0.00     0.058 A 
ATOM     88  C   UNL     1       4.319  18.492  13.073  1.00  0.00     0.135 A 
ATOM     89  C   UNL     1       6.337  17.907  14.245  1.00  0.00     0.135 A 
ATOM     90  F   UNL     1       3.328  18.197  12.216  1.00  0.00    -0.206 F 
ATOM     91  C   UNL     1       4.335  19.754  13.655  1.00  0.00     0.059 A 
ATOM     92  C   UNL     1       6.360  19.155  14.857  1.00  0.00     0.059 A 
ATOM     93  F   UNL     1       7.311  17.034  14.548  1.00  0.00    -0.206 F 
ATOM     94  C   UNL     1       5.360  20.076  14.548  1.00  0.00     0.060 A 
BRANCH  94  95
ATOM     95  S   UNL     1       5.350  21.703  15.331  1.00  0.00     0.124 S 
ATOM     96  O   UNL     1       5.836  22.552  14.248  1.00  0.00    -0.237 OA
ATOM     97  O   UNL     1       3.945  21.873  15.687  1.00  0.00    -0.237 OA
ATOM     98  O   UNL     1       6.260  21.541  16.460  1.00  0.00    -0.744 OA
ENDBRANCH  94  95
ENDBRANCH  62  87
ENDBRANCH  36  37
ENDBRANCH  28  31
ENDBRANCH  26  27
ENDBRANCH  25  26
ENDBRANCH   1  25
TORSDOF 18
