REMARK SMILES C[C@@H](C(=O)NCCCCNC(=O)c1ccc(-c2c3nc(c(-c4c(F)cc(S(=O)(=O)[O-])cc4F)c4ccc([nH]4)c(-c4c(F)cc(S(=O)(=O)[O-])cc4F)c4nc(c(-c5c(F)cc(S(=O)(=O)[O-])cc5F)c5ccc2[nH]5)C=C4)C=C3)cc1)c1ccc(C[C@@H]2CCC[C@@H]2O)cc1F
REMARK SMILES IDX 7 1 6 2 5 3 3 4 4 5 2 7 1 8 79 9 80 10 91 11 81 12 90 13
REMARK SMILES IDX 92 14 82 15 83 16 84 17 85 18 88 19 86 20 87 21 89 22 8 24
REMARK SMILES IDX 9 25 10 26 11 27 12 29 13 30 14 31 78 32 15 33 77 34 16 35
REMARK SMILES IDX 17 36 18 37 71 38 19 39 76 40 70 41 72 42 20 43 75 44 69 45
REMARK SMILES IDX 68 46 21 48 55 49 34 50 54 51 35 52 38 53 53 54 73 55 36 56
REMARK SMILES IDX 37 57 52 59 74 60 39 61 22 62 23 63 32 64 24 65 25 66 31 67
REMARK SMILES IDX 33 68 26 69 27 70 28 71 29 72 30 73 56 74 57 75 66 76 58 77
REMARK SMILES IDX 59 78 65 79 67 80 60 81 61 82 62 83 63 84 64 85 40 86 41 87
REMARK SMILES IDX 50 88 42 89 43 90 49 91 51 92 44 93 45 94 46 95 47 96 48 97
REMARK H PARENT 5 6 89 23 10 28 72 47 38 58
REMARK Flexibility Score: inf
ROOT
ATOM      1  C   UNL     1     -10.335   2.738  10.676  1.00  0.00     0.023 C 
ENDROOT
BRANCH   1   2
ATOM      2  C   UNL     1     -10.519   3.369   9.294  1.00  0.00     0.116 C 
BRANCH   2   3
ATOM      3  N   UNL     1      -9.283   3.332   8.543  1.00  0.00    -0.356 N 
ATOM      4  C   UNL     1      -8.859   2.439   7.601  1.00  0.00     0.227 C 
ATOM      5  O   UNL     1      -7.691   2.546   7.221  1.00  0.00    -0.274 OA
ATOM      6  H   UNL     1      -8.651   4.061   8.741  1.00  0.00     0.163 HD
BRANCH   4   7
ATOM      7  C   UNL     1      -9.827   1.376   7.045  1.00  0.00     0.108 C 
ATOM      8  C   UNL     1     -10.178   0.315   8.095  1.00  0.00     0.023 C 
BRANCH   7   9
ATOM      9  C   UNL     1      -9.258   0.747   5.780  1.00  0.00    -0.000 A 
ATOM     10  C   UNL     1      -8.503  -0.435   5.803  1.00  0.00     0.008 A 
ATOM     11  C   UNL     1      -9.409   1.403   4.555  1.00  0.00     0.127 A 
ATOM     12  C   UNL     1      -7.927  -0.939   4.637  1.00  0.00     0.004 A 
ATOM     13  C   UNL     1      -8.811   0.920   3.393  1.00  0.00     0.043 A 
ATOM     14  F   UNL     1     -10.131   2.532   4.487  1.00  0.00    -0.207 F 
ATOM     15  C   UNL     1      -8.038  -0.248   3.427  1.00  0.00    -0.045 A 
BRANCH  15  16
ATOM     16  C   UNL     1      -7.307  -0.725   2.200  1.00  0.00     0.041 C 
BRANCH  16  17
ATOM     17  C   UNL     1      -5.788  -0.445   2.106  1.00  0.00     0.022 C 
ATOM     18  C   UNL     1      -4.925  -1.139   3.166  1.00  0.00     0.007 C 
ATOM     19  C   UNL     1      -5.337   1.015   2.212  1.00  0.00     0.117 C 
ATOM     20  C   UNL     1      -4.618  -0.092   4.241  1.00  0.00     0.003 C 
ATOM     21  C   UNL     1      -5.100   1.250   3.698  1.00  0.00     0.032 C 
BRANCH  19  22
ATOM     22  O   UNL     1      -6.256   1.938   1.666  1.00  0.00    -0.393 OA
ATOM     23  H   UNL     1      -7.103   1.865   2.134  1.00  0.00     0.210 HD
ENDBRANCH  19  22
ENDBRANCH  16  17
ENDBRANCH  15  16
ENDBRANCH   7   9
ENDBRANCH   4   7
ENDBRANCH   2   3
ENDBRANCH   1   2
BRANCH   1  24
ATOM     24  C   UNL     1      -9.444   3.538  11.630  1.00  0.00     0.023 C 
BRANCH  24  25
ATOM     25  C   UNL     1      -9.913   4.959  11.917  1.00  0.00     0.116 C 
BRANCH  25  26
ATOM     26  N   UNL     1     -11.261   5.011  12.462  1.00  0.00    -0.352 N 
ATOM     27  C   UNL     1     -11.757   5.813  13.460  1.00  0.00     0.251 C 
ATOM     28  H   UNL     1     -11.906   4.385  12.059  1.00  0.00     0.163 HD
ATOM     29  O   UNL     1     -12.896   5.629  13.883  1.00  0.00    -0.269 OA
BRANCH  27  30
ATOM     30  C   UNL     1     -10.904   6.870  14.044  1.00  0.00     0.039 A 
ATOM     31  C   UNL     1     -10.840   6.991  15.434  1.00  0.00     0.014 A 
ATOM     32  C   UNL     1     -10.159   7.724  13.227  1.00  0.00     0.014 A 
ATOM     33  C   UNL     1      -9.977   7.928  16.007  1.00  0.00     0.010 A 
ATOM     34  C   UNL     1      -9.250   8.609  13.800  1.00  0.00     0.010 A 
ATOM     35  C   UNL     1      -9.149   8.720  15.194  1.00  0.00    -0.014 A 
BRANCH  35  36
ATOM     36  C   UNL     1      -8.166   9.663  15.787  1.00  0.00     0.031 A 
ATOM     37  C   UNL     1      -8.304  11.143  15.556  1.00  0.00     0.074 A 
ATOM     38  C   UNL     1      -7.112   9.180  16.473  1.00  0.00     0.049 A 
ATOM     39  N   UNL     1      -7.511  12.114  15.930  1.00  0.00    -0.248 NA
ATOM     40  C   UNL     1      -9.472  11.589  14.778  1.00  0.00     0.031 C 
ATOM     41  C   UNL     1      -6.838   7.761  16.715  1.00  0.00     0.029 A 
ATOM     42  N   UNL     1      -6.066   9.827  17.082  1.00  0.00    -0.354 N 
ATOM     43  C   UNL     1      -8.071  13.279  15.421  1.00  0.00     0.074 A 
ATOM     44  C   UNL     1      -9.246  12.890  14.671  1.00  0.00     0.031 C 
ATOM     45  C   UNL     1      -5.710   7.647  17.434  1.00  0.00     0.029 A 
ATOM     46  C   UNL     1      -5.161   8.978  17.675  1.00  0.00     0.049 A 
ATOM     47  H   UNL     1      -5.972  10.807  17.093  1.00  0.00     0.167 HD
ATOM     48  C   UNL     1      -7.657  14.559  15.582  1.00  0.00     0.037 A 
ATOM     49  C   UNL     1      -4.014   9.240  18.331  1.00  0.00     0.037 A 
ATOM     50  C   UNL     1      -6.504  14.941  16.355  1.00  0.00     0.049 A 
ATOM     51  C   UNL     1      -3.585  10.671  18.515  1.00  0.00     0.074 A 
ATOM     52  C   UNL     1      -6.041  16.215  16.636  1.00  0.00     0.029 A 
ATOM     53  N   UNL     1      -5.632  14.055  16.971  1.00  0.00    -0.354 N 
ATOM     54  N   UNL     1      -4.166  11.766  18.086  1.00  0.00    -0.248 NA
ATOM     55  C   UNL     1      -2.352  10.903  19.280  1.00  0.00     0.031 C 
ATOM     56  C   UNL     1      -4.866  16.098  17.387  1.00  0.00     0.029 A 
ATOM     57  C   UNL     1      -4.624  14.752  17.615  1.00  0.00     0.049 A 
ATOM     58  H   UNL     1      -5.718  13.074  16.953  1.00  0.00     0.167 HD
ATOM     59  C   UNL     1      -3.382  12.817  18.548  1.00  0.00     0.074 A 
ATOM     60  C   UNL     1      -2.294  12.227  19.300  1.00  0.00     0.031 C 
ATOM     61  C   UNL     1      -3.550  14.151  18.366  1.00  0.00     0.037 A 
BRANCH  48  62
ATOM     62  C   UNL     1      -8.459  15.642  14.915  1.00  0.00     0.058 A 
ATOM     63  C   UNL     1      -9.741  15.994  15.366  1.00  0.00     0.135 A 
ATOM     64  C   UNL     1      -7.924  16.365  13.836  1.00  0.00     0.135 A 
ATOM     65  F   UNL     1     -10.307  15.325  16.384  1.00  0.00    -0.206 F 
ATOM     66  C   UNL     1     -10.475  17.005  14.756  1.00  0.00     0.059 A 
ATOM     67  C   UNL     1      -8.630  17.400  13.228  1.00  0.00     0.059 A 
ATOM     68  F   UNL     1      -6.702  16.070  13.364  1.00  0.00    -0.206 F 
ATOM     69  C   UNL     1      -9.911  17.703  13.687  1.00  0.00     0.060 A 
BRANCH  69  70
ATOM     70  S   UNL     1     -10.873  19.020  12.914  1.00  0.00     0.124 S 
ATOM     71  O   UNL     1     -11.868  18.255  12.170  1.00  0.00    -0.237 OA
ATOM     72  O   UNL     1     -11.375  19.759  14.068  1.00  0.00    -0.237 OA
ATOM     73  O   UNL     1      -9.889  19.727  12.100  1.00  0.00    -0.744 OA
ENDBRANCH  69  70
ENDBRANCH  48  62
BRANCH  49  74
ATOM     74  C   UNL     1      -3.204   8.122  18.883  1.00  0.00     0.058 A 
ATOM     75  C   UNL     1      -3.137   7.893  20.265  1.00  0.00     0.135 A 
ATOM     76  C   UNL     1      -2.500   7.248  18.040  1.00  0.00     0.135 A 
ATOM     77  F   UNL     1      -3.788   8.705  21.111  1.00  0.00    -0.206 F 
ATOM     78  C   UNL     1      -2.390   6.846  20.795  1.00  0.00     0.059 A 
ATOM     79  C   UNL     1      -1.766   6.179  18.544  1.00  0.00     0.059 A 
ATOM     80  F   UNL     1      -2.547   7.414  16.709  1.00  0.00    -0.206 F 
ATOM     81  C   UNL     1      -1.710   5.992  19.925  1.00  0.00     0.060 A 
BRANCH  81  82
ATOM     82  S   UNL     1      -0.789   4.602  20.620  1.00  0.00     0.124 S 
ATOM     83  O   UNL     1       0.376   5.274  21.184  1.00  0.00    -0.237 OA
ATOM     84  O   UNL     1      -1.740   4.054  21.582  1.00  0.00    -0.237 OA
ATOM     85  O   UNL     1      -0.530   3.757  19.457  1.00  0.00    -0.744 OA
ENDBRANCH  81  82
ENDBRANCH  49  74
BRANCH  61  86
ATOM     86  C   UNL     1      -2.553  15.069  19.017  1.00  0.00     0.058 A 
ATOM     87  C   UNL     1      -1.246  15.206  18.526  1.00  0.00     0.135 A 
ATOM     88  C   UNL     1      -2.928  15.861  20.114  1.00  0.00     0.135 A 
ATOM     89  F   UNL     1      -0.835  14.467  17.483  1.00  0.00    -0.206 F 
ATOM     90  C   UNL     1      -0.337  16.079  19.114  1.00  0.00     0.059 A 
ATOM     91  C   UNL     1      -2.045  16.760  20.702  1.00  0.00     0.059 A 
ATOM     92  F   UNL     1      -4.171  15.776  20.616  1.00  0.00    -0.206 F 
ATOM     93  C   UNL     1      -0.747  16.854  20.201  1.00  0.00     0.060 A 
BRANCH  93  94
ATOM     94  S   UNL     1       0.431  18.008  20.936  1.00  0.00     0.124 S 
ATOM     95  O   UNL     1       1.306  17.104  21.675  1.00  0.00    -0.237 OA
ATOM     96  O   UNL     1       1.022  18.643  19.762  1.00  0.00    -0.237 OA
ATOM     97  O   UNL     1      -0.409  18.877  21.754  1.00  0.00    -0.744 OA
ENDBRANCH  93  94
ENDBRANCH  61  86
ENDBRANCH  35  36
ENDBRANCH  27  30
ENDBRANCH  25  26
ENDBRANCH  24  25
ENDBRANCH   1  24
TORSDOF 18
