REMARK SMILES COc1ccc(OC)c(-c2cc(C(=O)NCCCCNC(=O)c3ccc(-c4c5nc(c(-c6c(F)cc(S(=O)(=O)[O-])cc6F)c6ccc([nH]6)c(-c6c(F)cc(S(=O)(=O)[O-])cc6F)c6nc(c(-c7c(F)cc(S(=O)(=O)[O-])cc7F)c7ccc4[nH]7)C=C6)C=C5)cc3)ccn2)c1
REMARK SMILES IDX 18 1 17 2 16 3 15 4 13 5 14 6 12 8 10 9 11 10 91 11 90 12
REMARK SMILES IDX 89 13 9 14 3 15 4 16 92 17 5 18 6 19 2 20 1 21 7 22 8 23
REMARK SMILES IDX 19 24 20 25 21 26 22 28 23 29 24 30 88 31 25 32 87 33 26 34
REMARK SMILES IDX 27 35 28 36 81 37 29 38 86 39 80 40 82 41 30 42 85 43 79 44
REMARK SMILES IDX 78 45 31 47 65 48 44 49 64 50 45 51 48 52 63 53 83 54 46 55
REMARK SMILES IDX 47 56 62 58 84 59 49 60 32 61 33 62 42 63 34 64 35 65 41 66
REMARK SMILES IDX 43 67 36 68 37 69 38 70 39 71 40 72 66 73 67 74 76 75 68 76
REMARK SMILES IDX 69 77 75 78 77 79 70 80 71 81 72 82 73 83 74 84 50 85 51 86
REMARK SMILES IDX 60 87 52 88 53 89 59 90 61 91 54 92 55 93 56 94 57 95 58 96
REMARK H PARENT 15 7 20 27 82 46 48 57
REMARK Flexibility Score: inf
ROOT
ATOM      1  C   UNL     1       5.924   3.039   4.915  1.00  0.00     0.023 C 
ENDROOT
BRANCH   1   2
ATOM      2  C   UNL     1       5.256   1.754   4.416  1.00  0.00     0.023 C 
BRANCH   2   3
ATOM      3  C   UNL     1       5.956   1.110   3.216  1.00  0.00     0.116 C 
BRANCH   3   4
ATOM      4  N   UNL     1       7.112   0.344   3.647  1.00  0.00    -0.352 N 
ATOM      5  C   UNL     1       7.298  -0.999   3.859  1.00  0.00     0.251 C 
ATOM      6  O   UNL     1       8.418  -1.393   4.180  1.00  0.00    -0.269 OA
ATOM      7  H   UNL     1       7.913   0.890   3.820  1.00  0.00     0.163 HD
BRANCH   5   8
ATOM      8  C   UNL     1       6.224  -2.006   3.657  1.00  0.00     0.043 A 
ATOM      9  C   UNL     1       3.943  -2.733   3.534  1.00  0.00     0.075 A 
ATOM     10  C   UNL     1       4.874  -1.755   3.868  1.00  0.00     0.043 A 
ATOM     11  N   UNL     1       4.303  -3.958   3.084  1.00  0.00    -0.256 NA
ATOM     12  C   UNL     1       5.624  -4.215   2.981  1.00  0.00     0.112 A 
ATOM     13  C   UNL     1       6.610  -3.281   3.240  1.00  0.00     0.034 A 
BRANCH   9  14
ATOM     14  C   UNL     1       2.512  -2.416   3.532  1.00  0.00     0.046 A 
ATOM     15  C   UNL     1       0.733  -1.218   2.319  1.00  0.00     0.119 A 
ATOM     16  C   UNL     1      -0.126  -1.442   3.387  1.00  0.00     0.050 A 
ATOM     17  C   UNL     1       2.033  -1.717   2.390  1.00  0.00     0.060 A 
ATOM     18  C   UNL     1       0.313  -2.150   4.507  1.00  0.00     0.051 A 
ATOM     19  C   UNL     1       1.625  -2.641   4.599  1.00  0.00     0.128 A 
BRANCH  15  20
ATOM     20  O   UNL     1       0.201  -0.484   1.297  1.00  0.00    -0.497 OA
ATOM     21  C   UNL     1       1.009  -0.286   0.144  1.00  0.00     0.278 C 
ENDBRANCH  15  20
BRANCH  19  22
ATOM     22  O   UNL     1       1.856  -3.232   5.812  1.00  0.00    -0.496 OA
ATOM     23  C   UNL     1       2.955  -4.117   5.960  1.00  0.00     0.278 C 
ENDBRANCH  19  22
ENDBRANCH   9  14
ENDBRANCH   5   8
ENDBRANCH   3   4
ENDBRANCH   2   3
ENDBRANCH   1   2
BRANCH   1  24
ATOM     24  C   UNL     1       5.892   4.202   3.929  1.00  0.00     0.116 C 
BRANCH  24  25
ATOM     25  N   UNL     1       4.545   4.592   3.543  1.00  0.00    -0.352 N 
ATOM     26  C   UNL     1       4.090   5.837   3.173  1.00  0.00     0.251 C 
ATOM     27  H   UNL     1       3.873   3.873   3.547  1.00  0.00     0.163 HD
ATOM     28  O   UNL     1       2.899   6.024   2.972  1.00  0.00    -0.269 OA
BRANCH  26  29
ATOM     29  C   UNL     1       5.056   6.952   3.068  1.00  0.00     0.039 A 
ATOM     30  C   UNL     1       4.777   8.144   3.740  1.00  0.00     0.014 A 
ATOM     31  C   UNL     1       6.242   6.806   2.344  1.00  0.00     0.014 A 
ATOM     32  C   UNL     1       5.724   9.170   3.743  1.00  0.00     0.010 A 
ATOM     33  C   UNL     1       7.209   7.805   2.398  1.00  0.00     0.010 A 
ATOM     34  C   UNL     1       6.962   8.994   3.102  1.00  0.00    -0.014 A 
BRANCH  34  35
ATOM     35  C   UNL     1       8.015  10.037   3.167  1.00  0.00     0.031 A 
ATOM     36  C   UNL     1       8.452  10.745   1.914  1.00  0.00     0.074 A 
ATOM     37  C   UNL     1       8.625  10.295   4.341  1.00  0.00     0.049 A 
ATOM     38  N   UNL     1       9.407  11.624   1.754  1.00  0.00    -0.248 NA
ATOM     39  C   UNL     1       7.738  10.400   0.674  1.00  0.00     0.031 C 
ATOM     40  C   UNL     1       8.324   9.635   5.614  1.00  0.00     0.029 A 
ATOM     41  N   UNL     1       9.633  11.172   4.654  1.00  0.00    -0.354 N 
ATOM     42  C   UNL     1       9.419  11.927   0.398  1.00  0.00     0.074 A 
ATOM     43  C   UNL     1       8.408  11.103  -0.229  1.00  0.00     0.031 C 
ATOM     44  C   UNL     1       9.120  10.141   6.571  1.00  0.00     0.029 A 
ATOM     45  C   UNL     1      10.006  11.136   5.977  1.00  0.00     0.049 A 
ATOM     46  H   UNL     1      10.050  11.770   3.993  1.00  0.00     0.167 HD
ATOM     47  C   UNL     1      10.187  12.827  -0.261  1.00  0.00     0.037 A 
ATOM     48  C   UNL     1      10.960  11.823   6.634  1.00  0.00     0.037 A 
ATOM     49  C   UNL     1      11.169  13.667   0.373  1.00  0.00     0.049 A 
ATOM     50  C   UNL     1      11.789  12.829   5.882  1.00  0.00     0.074 A 
ATOM     51  C   UNL     1      11.959  14.649  -0.199  1.00  0.00     0.029 A 
ATOM     52  N   UNL     1      11.492  13.628   1.721  1.00  0.00    -0.354 N 
ATOM     53  N   UNL     1      11.747  13.143   4.609  1.00  0.00    -0.248 NA
ATOM     54  C   UNL     1      12.789  13.579   6.655  1.00  0.00     0.031 C 
ATOM     55  C   UNL     1      12.783  15.183   0.799  1.00  0.00     0.029 A 
ATOM     56  C   UNL     1      12.478  14.560   1.998  1.00  0.00     0.049 A 
ATOM     57  H   UNL     1      11.082  13.026   2.383  1.00  0.00     0.167 HD
ATOM     58  C   UNL     1      12.696  14.144   4.434  1.00  0.00     0.074 A 
ATOM     59  C   UNL     1      13.287  14.391   5.733  1.00  0.00     0.031 C 
ATOM     60  C   UNL     1      13.047  14.799   3.301  1.00  0.00     0.037 A 
BRANCH  47  61
ATOM     61  C   UNL     1       9.984  12.962  -1.744  1.00  0.00     0.058 A 
ATOM     62  C   UNL     1       8.833  13.566  -2.275  1.00  0.00     0.135 A 
ATOM     63  C   UNL     1      10.966  12.520  -2.645  1.00  0.00     0.135 A 
ATOM     64  F   UNL     1       7.855  13.991  -1.458  1.00  0.00    -0.206 F 
ATOM     65  C   UNL     1       8.651  13.705  -3.646  1.00  0.00     0.059 A 
ATOM     66  C   UNL     1      10.816  12.671  -4.021  1.00  0.00     0.059 A 
ATOM     67  F   UNL     1      12.085  11.933  -2.191  1.00  0.00    -0.206 F 
ATOM     68  C   UNL     1       9.648  13.254  -4.512  1.00  0.00     0.060 A 
BRANCH  68  69
ATOM     69  S   UNL     1       9.402  13.451  -6.289  1.00  0.00     0.124 S 
ATOM     70  O   UNL     1       8.418  12.408  -6.563  1.00  0.00    -0.237 OA
ATOM     71  O   UNL     1       8.914  14.823  -6.387  1.00  0.00    -0.237 OA
ATOM     72  O   UNL     1      10.732  13.221  -6.844  1.00  0.00    -0.744 OA
ENDBRANCH  68  69
ENDBRANCH  47  61
BRANCH  48  73
ATOM     73  C   UNL     1      11.171  11.600   8.089  1.00  0.00     0.058 A 
ATOM     74  C   UNL     1      10.800  12.573   9.028  1.00  0.00     0.135 A 
ATOM     75  C   UNL     1      11.745  10.413   8.569  1.00  0.00     0.135 A 
ATOM     76  F   UNL     1      10.252  13.727   8.617  1.00  0.00    -0.206 F 
ATOM     77  C   UNL     1      11.010  12.389  10.391  1.00  0.00     0.059 A 
ATOM     78  C   UNL     1      11.944  10.195   9.928  1.00  0.00     0.059 A 
ATOM     79  F   UNL     1      12.100   9.443   7.712  1.00  0.00    -0.206 F 
ATOM     80  C   UNL     1      11.584  11.196  10.831  1.00  0.00     0.060 A 
BRANCH  80  81
ATOM     81  S   UNL     1      11.820  10.949  12.605  1.00  0.00     0.124 S 
ATOM     82  O   UNL     1      12.982  11.791  12.865  1.00  0.00    -0.237 OA
ATOM     83  O   UNL     1      10.553  11.421  13.153  1.00  0.00    -0.237 OA
ATOM     84  O   UNL     1      12.044   9.510  12.714  1.00  0.00    -0.744 OA
ENDBRANCH  80  81
ENDBRANCH  48  73
BRANCH  60  85
ATOM     85  C   UNL     1      14.095  15.869   3.418  1.00  0.00     0.058 A 
ATOM     86  C   UNL     1      15.452  15.553   3.587  1.00  0.00     0.135 A 
ATOM     87  C   UNL     1      13.743  17.224   3.308  1.00  0.00     0.135 A 
ATOM     88  F   UNL     1      15.838  14.273   3.704  1.00  0.00    -0.206 F 
ATOM     89  C   UNL     1      16.423  16.546   3.662  1.00  0.00     0.059 A 
ATOM     90  C   UNL     1      14.700  18.232   3.357  1.00  0.00     0.059 A 
ATOM     91  F   UNL     1      12.459  17.577   3.136  1.00  0.00    -0.206 F 
ATOM     92  C   UNL     1      16.037  17.883   3.545  1.00  0.00     0.060 A 
BRANCH  92  93
ATOM     93  S   UNL     1      17.310  19.162   3.607  1.00  0.00     0.124 S 
ATOM     94  O   UNL     1      17.607  19.210   5.035  1.00  0.00    -0.237 OA
ATOM     95  O   UNL     1      18.359  18.602   2.760  1.00  0.00    -0.237 OA
ATOM     96  O   UNL     1      16.636  20.337   3.065  1.00  0.00    -0.744 OA
ENDBRANCH  92  93
ENDBRANCH  60  85
ENDBRANCH  34  35
ENDBRANCH  26  29
ENDBRANCH  24  25
ENDBRANCH   1  24
TORSDOF 17
