REMARK SMILES Cc1ccc(Nc2c(Cl)cccc2Cl)c(CC(=O)NCCCCNC(=O)c2ccc(-c3c4nc(c(-c5c(F)cc(S(=O)(=O)[O-])cc5F)c5ccc([nH]5)c(-c5c(F)cc(S(=O)(=O)[O-])cc5F)c5nc(c(-c6c(F)cc(S(=O)(=O)[O-])cc6F)c6ccc3[nH]6)C=C5)C=C4)cc2)c1
REMARK SMILES IDX 21 1 20 2 19 3 17 4 18 5 16 7 15 8 1 9 2 10 3 11 93 12 4 13
REMARK SMILES IDX 5 14 6 15 7 17 8 18 13 19 9 20 10 21 12 22 14 23 11 24 22 25
REMARK SMILES IDX 23 26 24 27 25 28 26 30 27 31 28 32 92 33 29 34 91 35 30 36
REMARK SMILES IDX 31 37 32 38 85 39 33 40 90 41 84 42 86 43 34 44 89 45 83 46
REMARK SMILES IDX 82 47 35 49 69 50 48 51 68 52 49 53 52 54 67 55 87 56 50 57
REMARK SMILES IDX 51 58 66 60 88 61 53 62 36 63 37 64 46 65 38 66 39 67 45 68
REMARK SMILES IDX 47 69 40 70 41 71 42 72 43 73 44 74 70 75 71 76 80 77 72 78
REMARK SMILES IDX 73 79 79 80 81 81 74 82 75 83 76 84 77 85 78 86 54 87 55 88
REMARK SMILES IDX 64 89 56 90 57 91 63 92 65 93 58 94 59 95 60 96 61 97 62 98
REMARK H PARENT 19 6 6 16 24 29 86 48 52 59
REMARK Flexibility Score: inf
ROOT
ATOM      1  C   UNL     1      -0.128   1.175  -3.228  1.00  0.00     0.023 C 
ENDROOT
BRANCH   1   2
ATOM      2  C   UNL     1      -0.575   2.578  -2.788  1.00  0.00     0.116 C 
BRANCH   2   3
ATOM      3  N   UNL     1      -1.983   2.649  -2.425  1.00  0.00    -0.356 N 
ATOM      4  C   UNL     1      -2.576   2.540  -1.203  1.00  0.00     0.224 C 
ATOM      5  O   UNL     1      -3.809   2.523  -1.140  1.00  0.00    -0.275 OA
ATOM      6  H   UNL     1      -2.600   2.800  -3.176  1.00  0.00     0.163 HD
BRANCH   4   7
ATOM      7  C   UNL     1      -1.750   2.403   0.063  1.00  0.00     0.137 C 
BRANCH   7   8
ATOM      8  C   UNL     1      -1.052   1.067   0.178  1.00  0.00    -0.015 A 
ATOM      9  C   UNL     1       2.601  -0.059   0.213  1.00  0.00     0.044 C 
ATOM     10  C   UNL     1       1.102  -0.095   0.233  1.00  0.00    -0.051 A 
ATOM     11  C   UNL     1       0.426  -1.310   0.140  1.00  0.00     0.005 A 
ATOM     12  C   UNL     1       0.357   1.083   0.282  1.00  0.00     0.009 A 
ATOM     13  C   UNL     1      -0.971  -1.341   0.095  1.00  0.00     0.026 A 
ATOM     14  C   UNL     1      -1.740  -0.165   0.106  1.00  0.00     0.042 A 
BRANCH  14  15
ATOM     15  N   UNL     1      -3.154  -0.215   0.081  1.00  0.00    -0.353 N 
ATOM     16  H   UNL     1      -3.608   0.657   0.047  1.00  0.00     0.167 HD
BRANCH  15  17
ATOM     17  C   UNL     1      -4.009  -1.347   0.097  1.00  0.00     0.076 A 
ATOM     18  C   UNL     1      -4.027  -2.283   1.151  1.00  0.00     0.066 A 
ATOM     19  C   UNL     1      -4.827  -1.616  -1.021  1.00  0.00     0.066 A 
ATOM     20  Cl  UNL     1      -3.165  -2.023   2.632  1.00  0.00    -0.082 Cl
ATOM     21  C   UNL     1      -4.804  -3.447   1.071  1.00  0.00     0.023 A 
ATOM     22  C   UNL     1      -5.608  -2.776  -1.095  1.00  0.00     0.023 A 
ATOM     23  Cl  UNL     1      -4.882  -0.534  -2.372  1.00  0.00    -0.082 Cl
ATOM     24  C   UNL     1      -5.587  -3.697  -0.053  1.00  0.00     0.003 A 
ENDBRANCH  15  17
ENDBRANCH  14  15
ENDBRANCH   7   8
ENDBRANCH   4   7
ENDBRANCH   2   3
ENDBRANCH   1   2
BRANCH   1  25
ATOM     25  C   UNL     1      -0.900   0.571  -4.402  1.00  0.00     0.023 C 
BRANCH  25  26
ATOM     26  C   UNL     1      -0.686   1.319  -5.710  1.00  0.00     0.116 C 
BRANCH  26  27
ATOM     27  N   UNL     1       0.037   0.561  -6.718  1.00  0.00    -0.352 N 
ATOM     28  C   UNL     1       0.310   0.938  -8.029  1.00  0.00     0.251 C 
ATOM     29  H   UNL     1       0.372  -0.322  -6.440  1.00  0.00     0.163 HD
ATOM     30  O   UNL     1       0.734   0.166  -8.851  1.00  0.00    -0.269 OA
BRANCH  28  31
ATOM     31  C   UNL     1       0.163   2.381  -8.339  1.00  0.00     0.039 A 
ATOM     32  C   UNL     1       1.341   3.101  -8.569  1.00  0.00     0.014 A 
ATOM     33  C   UNL     1      -1.048   3.032  -8.117  1.00  0.00     0.014 A 
ATOM     34  C   UNL     1       1.345   4.481  -8.380  1.00  0.00     0.010 A 
ATOM     35  C   UNL     1      -1.025   4.390  -7.857  1.00  0.00     0.010 A 
ATOM     36  C   UNL     1       0.183   5.102  -7.929  1.00  0.00    -0.014 A 
BRANCH  36  37
ATOM     37  C   UNL     1       0.146   6.464  -7.404  1.00  0.00     0.031 A 
ATOM     38  C   UNL     1      -0.536   7.536  -8.162  1.00  0.00     0.074 A 
ATOM     39  C   UNL     1       0.621   6.718  -6.163  1.00  0.00     0.049 A 
ATOM     40  N   UNL     1      -0.528   8.779  -7.817  1.00  0.00    -0.248 NA
ATOM     41  C   UNL     1      -1.231   7.298  -9.428  1.00  0.00     0.031 C 
ATOM     42  C   UNL     1       0.318   7.869  -5.315  1.00  0.00     0.029 A 
ATOM     43  N   UNL     1       1.694   6.090  -5.522  1.00  0.00    -0.354 N 
ATOM     44  C   UNL     1      -1.442   9.430  -8.604  1.00  0.00     0.074 A 
ATOM     45  C   UNL     1      -1.746   8.509  -9.669  1.00  0.00     0.031 C 
ATOM     46  C   UNL     1       1.313   8.032  -4.431  1.00  0.00     0.029 A 
ATOM     47  C   UNL     1       2.362   7.095  -4.786  1.00  0.00     0.049 A 
ATOM     48  H   UNL     1       1.935   5.137  -5.574  1.00  0.00     0.167 HD
ATOM     49  C   UNL     1      -1.937  10.626  -8.181  1.00  0.00     0.037 A 
ATOM     50  C   UNL     1       3.641   7.452  -5.112  1.00  0.00     0.037 A 
ATOM     51  C   UNL     1      -1.061  11.234  -7.179  1.00  0.00     0.049 A 
ATOM     52  C   UNL     1       3.799   8.871  -5.626  1.00  0.00     0.074 A 
ATOM     53  C   UNL     1      -1.117  11.495  -5.822  1.00  0.00     0.029 A 
ATOM     54  N   UNL     1       0.250  11.485  -7.555  1.00  0.00    -0.354 N 
ATOM     55  N   UNL     1       2.833   9.746  -5.709  1.00  0.00    -0.248 NA
ATOM     56  C   UNL     1       5.061   9.390  -6.158  1.00  0.00     0.031 C 
ATOM     57  C   UNL     1       0.211  11.803  -5.378  1.00  0.00     0.029 A 
ATOM     58  C   UNL     1       1.057  11.770  -6.473  1.00  0.00     0.049 A 
ATOM     59  H   UNL     1       0.568  11.463  -8.486  1.00  0.00     0.167 HD
ATOM     60  C   UNL     1       3.288  10.867  -6.353  1.00  0.00     0.074 A 
ATOM     61  C   UNL     1       4.697  10.610  -6.588  1.00  0.00     0.031 C 
ATOM     62  C   UNL     1       2.486  11.912  -6.707  1.00  0.00     0.037 A 
BRANCH  49  63
ATOM     63  C   UNL     1      -3.277  11.183  -8.607  1.00  0.00     0.058 A 
ATOM     64  C   UNL     1      -3.657  12.495  -8.252  1.00  0.00     0.135 A 
ATOM     65  C   UNL     1      -4.292  10.428  -9.241  1.00  0.00     0.135 A 
ATOM     66  F   UNL     1      -2.806  13.309  -7.610  1.00  0.00    -0.206 F 
ATOM     67  C   UNL     1      -4.935  13.010  -8.507  1.00  0.00     0.059 A 
ATOM     68  C   UNL     1      -5.550  10.938  -9.556  1.00  0.00     0.059 A 
ATOM     69  F   UNL     1      -4.147   9.126  -9.520  1.00  0.00    -0.206 F 
ATOM     70  C   UNL     1      -5.877  12.222  -9.159  1.00  0.00     0.060 A 
BRANCH  70  71
ATOM     71  S   UNL     1      -7.540  12.854  -9.450  1.00  0.00     0.124 S 
ATOM     72  O   UNL     1      -8.123  12.779  -8.114  1.00  0.00    -0.237 OA
ATOM     73  O   UNL     1      -7.285  14.196  -9.960  1.00  0.00    -0.237 OA
ATOM     74  O   UNL     1      -8.092  11.916 -10.424  1.00  0.00    -0.744 OA
ENDBRANCH  70  71
ENDBRANCH  49  63
BRANCH  50  75
ATOM     75  C   UNL     1       4.466   6.276  -5.507  1.00  0.00     0.058 A 
ATOM     76  C   UNL     1       4.708   5.299  -4.520  1.00  0.00     0.135 A 
ATOM     77  C   UNL     1       4.598   5.893  -6.848  1.00  0.00     0.135 A 
ATOM     78  F   UNL     1       4.613   5.620  -3.219  1.00  0.00    -0.206 F 
ATOM     79  C   UNL     1       4.881   3.961  -4.847  1.00  0.00     0.059 A 
ATOM     80  C   UNL     1       4.789   4.555  -7.199  1.00  0.00     0.059 A 
ATOM     81  F   UNL     1       4.386   6.781  -7.830  1.00  0.00    -0.206 F 
ATOM     82  C   UNL     1       4.846   3.593  -6.189  1.00  0.00     0.060 A 
BRANCH  82  83
ATOM     83  S   UNL     1       4.660   1.835  -6.570  1.00  0.00     0.124 S 
ATOM     84  O   UNL     1       5.840   1.260  -5.932  1.00  0.00    -0.237 OA
ATOM     85  O   UNL     1       3.383   1.534  -5.926  1.00  0.00    -0.237 OA
ATOM     86  O   UNL     1       4.654   1.809  -8.028  1.00  0.00    -0.744 OA
ENDBRANCH  82  83
ENDBRANCH  50  75
BRANCH  62  87
ATOM     87  C   UNL     1       3.029  13.149  -7.365  1.00  0.00     0.058 A 
ATOM     88  C   UNL     1       4.114  13.857  -6.821  1.00  0.00     0.135 A 
ATOM     89  C   UNL     1       2.410  13.723  -8.494  1.00  0.00     0.135 A 
ATOM     90  F   UNL     1       4.743  13.404  -5.725  1.00  0.00    -0.206 F 
ATOM     91  C   UNL     1       4.579  15.047  -7.380  1.00  0.00     0.059 A 
ATOM     92  C   UNL     1       2.829  14.933  -9.043  1.00  0.00     0.059 A 
ATOM     93  F   UNL     1       1.395  13.106  -9.118  1.00  0.00    -0.206 F 
ATOM     94  C   UNL     1       3.928  15.579  -8.491  1.00  0.00     0.060 A 
BRANCH  94  95
ATOM     95  S   UNL     1       4.501  17.137  -9.199  1.00  0.00     0.124 S 
ATOM     96  O   UNL     1       4.997  17.860  -8.031  1.00  0.00    -0.237 OA
ATOM     97  O   UNL     1       5.522  16.673 -10.132  1.00  0.00    -0.237 OA
ATOM     98  O   UNL     1       3.296  17.692  -9.805  1.00  0.00    -0.744 OA
ENDBRANCH  94  95
ENDBRANCH  62  87
ENDBRANCH  36  37
ENDBRANCH  28  31
ENDBRANCH  26  27
ENDBRANCH  25  26
ENDBRANCH   1  25
TORSDOF 17
