REMARK SMILES COc1ccc(NCc2ccc(C(=O)NCCCCNC(=O)c3ccc(-c4c5nc(c(-c6c(F)cc(S(=O)(=O)[O-])cc6F)c6ccc([nH]6)c(-c6c(F)cc(S(=O)(=O)[O-])cc6F)c6nc(c(-c7c(F)cc(S(=O)(=O)[O-])cc7F)c7ccc4[nH]7)C=C6)C=C5)cc3)cn2)cc1Br
REMARK SMILES IDX 17 1 16 2 15 3 13 4 14 5 12 7 9 8 10 9 90 10 11 11 89 12
REMARK SMILES IDX 8 13 7 14 6 16 3 17 4 18 92 19 5 20 91 21 93 22 2 23 1 24
REMARK SMILES IDX 18 25 19 26 20 27 21 28 22 30 23 31 24 32 88 33 25 34 87 35
REMARK SMILES IDX 26 36 27 37 28 38 81 39 29 40 86 41 80 42 82 43 30 44 85 45
REMARK SMILES IDX 79 46 78 47 31 49 65 50 44 51 64 52 45 53 48 54 63 55 83 56
REMARK SMILES IDX 46 57 47 58 62 60 84 61 49 62 32 63 33 64 42 65 34 66 35 67
REMARK SMILES IDX 41 68 43 69 36 70 37 71 38 72 39 73 40 74 66 75 67 76 76 77
REMARK SMILES IDX 68 78 69 79 75 80 77 81 70 82 71 83 72 84 73 85 74 86 50 87
REMARK SMILES IDX 51 88 60 89 52 90 53 91 59 92 61 93 54 94 55 95 56 96 57 97
REMARK SMILES IDX 58 98
REMARK H PARENT 15 6 7 15 20 29 82 48 48 59
REMARK Flexibility Score: inf
ROOT
ATOM      1  C   UNL     1      -0.454 -10.104   8.940  1.00  0.00     0.023 C 
ENDROOT
BRANCH   1   2
ATOM      2  C   UNL     1       0.927  -9.961   8.298  1.00  0.00     0.116 C 
BRANCH   2   3
ATOM      3  N   UNL     1       0.847 -10.108   6.858  1.00  0.00    -0.352 N 
ATOM      4  C   UNL     1       0.828  -9.179   5.849  1.00  0.00     0.252 C 
ATOM      5  O   UNL     1       0.838  -9.581   4.686  1.00  0.00    -0.269 OA
ATOM      6  H   UNL     1       0.797 -11.042   6.549  1.00  0.00     0.163 HD
BRANCH   4   7
ATOM      7  C   UNL     1       0.836  -7.718   6.093  1.00  0.00     0.058 A 
ATOM      8  C   UNL     1       0.960  -4.954   6.284  1.00  0.00     0.059 A 
ATOM      9  C   UNL     1       0.304  -5.679   7.275  1.00  0.00     0.026 A 
ATOM     10  N   UNL     1       1.536  -5.562   5.215  1.00  0.00    -0.259 NA
ATOM     11  C   UNL     1       0.234  -7.070   7.169  1.00  0.00     0.017 A 
ATOM     12  C   UNL     1       1.445  -6.915   5.136  1.00  0.00     0.125 A 
BRANCH   8  13
ATOM     13  C   UNL     1       1.017  -3.436   6.391  1.00  0.00     0.169 C 
BRANCH  13  14
ATOM     14  N   UNL     1       1.924  -2.856   5.413  1.00  0.00    -0.379 N 
ATOM     15  H   UNL     1       2.877  -3.084   5.506  1.00  0.00     0.160 HD
BRANCH  14  16
ATOM     16  C   UNL     1       1.591  -2.018   4.367  1.00  0.00     0.036 A 
ATOM     17  C   UNL     1       1.089  -0.214   2.250  1.00  0.00     0.133 A 
ATOM     18  C   UNL     1       0.040  -0.692   3.033  1.00  0.00     0.050 A 
ATOM     19  C   UNL     1       2.396  -0.588   2.550  1.00  0.00     0.062 A 
ATOM     20  C   UNL     1       0.294  -1.579   4.086  1.00  0.00     0.029 A 
ATOM     21  C   UNL     1       2.636  -1.489   3.593  1.00  0.00     0.045 A 
ATOM     22  Br  UNL     1       3.889   0.120   1.618  1.00  0.00    -0.047 Br
BRANCH  17  23
ATOM     23  O   UNL     1       0.781   0.678   1.258  1.00  0.00    -0.496 OA
ATOM     24  C   UNL     1       0.665   0.008   0.001  1.00  0.00     0.278 C 
ENDBRANCH  17  23
ENDBRANCH  14  16
ENDBRANCH  13  14
ENDBRANCH   8  13
ENDBRANCH   4   7
ENDBRANCH   2   3
ENDBRANCH   1   2
BRANCH   1  25
ATOM     25  C   UNL     1      -0.944 -11.547   9.082  1.00  0.00     0.023 C 
BRANCH  25  26
ATOM     26  C   UNL     1      -0.103 -12.431   9.997  1.00  0.00     0.116 C 
BRANCH  26  27
ATOM     27  N   UNL     1       0.030 -11.900  11.347  1.00  0.00    -0.352 N 
ATOM     28  C   UNL     1       0.188 -12.592  12.523  1.00  0.00     0.251 C 
ATOM     29  H   UNL     1       0.004 -10.920  11.427  1.00  0.00     0.163 HD
ATOM     30  O   UNL     1       0.186 -11.997  13.593  1.00  0.00    -0.269 OA
BRANCH  28  31
ATOM     31  C   UNL     1       0.312 -14.065  12.482  1.00  0.00     0.039 A 
ATOM     32  C   UNL     1      -0.522 -14.832  13.299  1.00  0.00     0.014 A 
ATOM     33  C   UNL     1       1.215 -14.682  11.612  1.00  0.00     0.014 A 
ATOM     34  C   UNL     1      -0.500 -16.224  13.190  1.00  0.00     0.010 A 
ATOM     35  C   UNL     1       1.192 -16.064  11.462  1.00  0.00     0.010 A 
ATOM     36  C   UNL     1       0.329 -16.848  12.244  1.00  0.00    -0.014 A 
BRANCH  36  37
ATOM     37  C   UNL     1       0.297 -18.317  12.043  1.00  0.00     0.031 A 
ATOM     38  C   UNL     1       1.508 -19.148  12.365  1.00  0.00     0.074 A 
ATOM     39  C   UNL     1      -0.794 -18.889  11.498  1.00  0.00     0.049 A 
ATOM     40  N   UNL     1       1.704 -20.427  12.177  1.00  0.00    -0.248 NA
ATOM     41  C   UNL     1       2.659 -18.442  12.950  1.00  0.00     0.031 C 
ATOM     42  C   UNL     1      -2.010 -18.178  11.093  1.00  0.00     0.029 A 
ATOM     43  N   UNL     1      -1.053 -20.197  11.174  1.00  0.00    -0.354 N 
ATOM     44  C   UNL     1       3.003 -20.677  12.602  1.00  0.00     0.074 A 
ATOM     45  C   UNL     1       3.563 -19.408  13.017  1.00  0.00     0.031 C 
ATOM     46  C   UNL     1      -2.889 -19.060  10.591  1.00  0.00     0.029 A 
ATOM     47  C   UNL     1      -2.290 -20.391  10.607  1.00  0.00     0.049 A 
ATOM     48  H   UNL     1      -0.412 -20.927  11.332  1.00  0.00     0.167 HD
ATOM     49  C   UNL     1       3.661 -21.859  12.661  1.00  0.00     0.037 A 
ATOM     50  C   UNL     1      -2.873 -21.515  10.146  1.00  0.00     0.037 A 
ATOM     51  C   UNL     1       3.087 -23.122  12.276  1.00  0.00     0.049 A 
ATOM     52  C   UNL     1      -2.130 -22.818  10.242  1.00  0.00     0.074 A 
ATOM     53  C   UNL     1       3.650 -24.383  12.356  1.00  0.00     0.029 A 
ATOM     54  N   UNL     1       1.818 -23.283  11.741  1.00  0.00    -0.354 N 
ATOM     55  N   UNL     1      -0.923 -23.046  10.702  1.00  0.00    -0.248 NA
ATOM     56  C   UNL     1      -2.829 -24.019   9.762  1.00  0.00     0.031 C 
ATOM     57  C   UNL     1       2.732 -25.305  11.841  1.00  0.00     0.029 A 
ATOM     58  C   UNL     1       1.583 -24.622  11.475  1.00  0.00     0.049 A 
ATOM     59  H   UNL     1       1.177 -22.554  11.576  1.00  0.00     0.167 HD
ATOM     60  C   UNL     1      -0.726 -24.417  10.589  1.00  0.00     0.074 A 
ATOM     61  C   UNL     1      -1.942 -24.969  10.026  1.00  0.00     0.031 C 
ATOM     62  C   UNL     1       0.363 -25.153  10.921  1.00  0.00     0.037 A 
BRANCH  49  63
ATOM     63  C   UNL     1       5.076 -21.839  13.168  1.00  0.00     0.058 A 
ATOM     64  C   UNL     1       5.366 -21.613  14.523  1.00  0.00     0.135 A 
ATOM     65  C   UNL     1       6.152 -22.070  12.297  1.00  0.00     0.135 A 
ATOM     66  F   UNL     1       4.375 -21.371  15.396  1.00  0.00    -0.206 F 
ATOM     67  C   UNL     1       6.675 -21.585  14.991  1.00  0.00     0.059 A 
ATOM     68  C   UNL     1       7.469 -22.071  12.748  1.00  0.00     0.059 A 
ATOM     69  F   UNL     1       5.930 -22.291  10.992  1.00  0.00    -0.206 F 
ATOM     70  C   UNL     1       7.721 -21.811  14.095  1.00  0.00     0.060 A 
BRANCH  70  71
ATOM     71  S   UNL     1       9.415 -21.766  14.715  1.00  0.00     0.124 S 
ATOM     72  O   UNL     1       9.629 -20.330  14.869  1.00  0.00    -0.237 OA
ATOM     73  O   UNL     1       9.317 -22.527  15.956  1.00  0.00    -0.237 OA
ATOM     74  O   UNL     1      10.183 -22.404  13.651  1.00  0.00    -0.744 OA
ENDBRANCH  70  71
ENDBRANCH  49  63
BRANCH  50  75
ATOM     75  C   UNL     1      -4.246 -21.458   9.580  1.00  0.00     0.058 A 
ATOM     76  C   UNL     1      -5.338 -21.976  10.291  1.00  0.00     0.135 A 
ATOM     77  C   UNL     1      -4.496 -20.870   8.331  1.00  0.00     0.135 A 
ATOM     78  F   UNL     1      -5.146 -22.552  11.487  1.00  0.00    -0.206 F 
ATOM     79  C   UNL     1      -6.630 -21.926   9.779  1.00  0.00     0.059 A 
ATOM     80  C   UNL     1      -5.783 -20.789   7.807  1.00  0.00     0.059 A 
ATOM     81  F   UNL     1      -3.486 -20.343   7.621  1.00  0.00    -0.206 F 
ATOM     82  C   UNL     1      -6.843 -21.328   8.536  1.00  0.00     0.060 A 
BRANCH  82  83
ATOM     83  S   UNL     1      -8.531 -21.218   7.904  1.00  0.00     0.124 S 
ATOM     84  O   UNL     1      -8.768 -22.586   7.460  1.00  0.00    -0.237 OA
ATOM     85  O   UNL     1      -9.275 -20.790   9.085  1.00  0.00    -0.237 OA
ATOM     86  O   UNL     1      -8.426 -20.218   6.845  1.00  0.00    -0.744 OA
ENDBRANCH  82  83
ENDBRANCH  50  75
BRANCH  62  87
ATOM     87  C   UNL     1       0.280 -26.638  10.713  1.00  0.00     0.058 A 
ATOM     88  C   UNL     1       0.369 -27.207   9.434  1.00  0.00     0.135 A 
ATOM     89  C   UNL     1       0.162 -27.504  11.812  1.00  0.00     0.135 A 
ATOM     90  F   UNL     1       0.475 -26.421   8.351  1.00  0.00    -0.206 F 
ATOM     91  C   UNL     1       0.325 -28.585   9.249  1.00  0.00     0.059 A 
ATOM     92  C   UNL     1       0.139 -28.885  11.652  1.00  0.00     0.059 A 
ATOM     93  F   UNL     1       0.083 -27.008  13.057  1.00  0.00    -0.206 F 
ATOM     94  C   UNL     1       0.210 -29.416  10.365  1.00  0.00     0.060 A 
BRANCH  94  95
ATOM     95  S   UNL     1       0.190 -31.204  10.117  1.00  0.00     0.124 S 
ATOM     96  O   UNL     1      -1.172 -31.420   9.640  1.00  0.00    -0.237 OA
ATOM     97  O   UNL     1       1.246 -31.397   9.128  1.00  0.00    -0.237 OA
ATOM     98  O   UNL     1       0.482 -31.733  11.447  1.00  0.00    -0.744 OA
ENDBRANCH  94  95
ENDBRANCH  62  87
ENDBRANCH  36  37
ENDBRANCH  28  31
ENDBRANCH  26  27
ENDBRANCH  25  26
ENDBRANCH   1  25
TORSDOF 18
