REMARK SMILES C[C@@H]1[C@@H](C(=O)NCCCCNC(=O)c2ccc(-c3c4nc(c(-c5c(F)cc(S(=O)(=O)[O-])cc5F)c5ccc([nH]5)c(-c5c(F)cc(S(=O)(=O)[O-])cc5F)c5nc(c(-c6c(F)cc(S(=O)(=O)[O-])cc6F)c6ccc3[nH]6)C=C5)C=C4)cc2)CCN1C(=O)N1CC[N@H+]2CCCC[C@@H]2C1
REMARK SMILES IDX 9 1 8 2 7 3 6 4 4 5 5 6 3 8 1 9 2 10 82 11 80 12 81 13 83 14
REMARK SMILES IDX 84 15 85 16 86 17 94 18 87 19 93 20 88 21 92 22 89 23 91 25
REMARK SMILES IDX 90 26 10 27 11 28 12 29 13 31 14 32 15 33 79 34 16 35 78 36
REMARK SMILES IDX 17 37 18 38 19 39 72 40 20 41 77 42 71 43 73 44 21 45 76 46
REMARK SMILES IDX 70 47 69 48 22 50 56 51 35 52 55 53 36 54 39 55 54 56 74 57
REMARK SMILES IDX 37 58 38 59 53 61 75 62 40 63 23 64 24 65 33 66 25 67 26 68
REMARK SMILES IDX 32 69 34 70 27 71 28 72 29 73 30 74 31 75 57 76 58 77 67 78
REMARK SMILES IDX 59 79 60 80 66 81 68 82 61 83 62 84 63 85 64 86 65 87 41 88
REMARK SMILES IDX 42 89 51 90 43 91 44 92 50 93 52 94 45 95 46 96 47 97 48 98
REMARK SMILES IDX 49 99
REMARK H PARENT 6 7 88 24 11 30 73 49 39 60
REMARK Flexibility Score: inf
ROOT
ATOM      1  C   UNL     1      -3.692   4.489  -2.429  1.00  0.00     0.023 C 
ENDROOT
BRANCH   1   2
ATOM      2  C   UNL     1      -2.813   4.331  -1.191  1.00  0.00     0.023 C 
BRANCH   2   3
ATOM      3  C   UNL     1      -2.477   2.897  -0.799  1.00  0.00     0.116 C 
BRANCH   3   4
ATOM      4  N   UNL     1      -1.770   2.157  -1.828  1.00  0.00    -0.356 N 
ATOM      5  C   UNL     1      -0.796   1.208  -1.685  1.00  0.00     0.225 C 
ATOM      6  O   UNL     1      -0.359   0.670  -2.701  1.00  0.00    -0.275 OA
ATOM      7  H   UNL     1      -2.027   2.367  -2.755  1.00  0.00     0.163 HD
BRANCH   5   8
ATOM      8  C   UNL     1      -0.221   0.945  -0.298  1.00  0.00     0.102 C 
ATOM      9  C   UNL     1       1.920   0.261   0.754  1.00  0.00     0.032 C 
ATOM     10  C   UNL     1       0.880  -0.149  -0.301  1.00  0.00     0.096 C 
ATOM     11  N   UNL     1       0.151  -1.397   0.026  1.00  0.00    -0.321 N 
ATOM     12  C   UNL     1      -1.222   0.399   0.724  1.00  0.00     0.037 C 
ATOM     13  C   UNL     1      -1.189  -1.095   0.492  1.00  0.00     0.122 C 
BRANCH  11  14
ATOM     14  C   UNL     1       0.322  -2.663  -0.515  1.00  0.00     0.320 C 
ATOM     15  O   UNL     1      -0.604  -3.478  -0.542  1.00  0.00    -0.248 OA
BRANCH  14  16
ATOM     16  N   UNL     1       1.521  -2.962  -1.095  1.00  0.00    -0.313 N 
ATOM     17  C   UNL     1       1.576  -3.858  -2.242  1.00  0.00     0.183 C 
ATOM     18  C   UNL     1       2.793  -2.852  -0.409  1.00  0.00     0.186 C 
ATOM     19  C   UNL     1       2.719  -3.455  -3.204  1.00  0.00     0.284 C 
ATOM     20  C   UNL     1       3.823  -2.248  -1.376  1.00  0.00     0.203 C 
ATOM     21  N   UNL     1       4.020  -3.141  -2.550  1.00  0.00    -0.330 N 
ATOM     22  C   UNL     1       5.157  -2.004  -0.664  1.00  0.00     0.067 C 
ATOM     23  C   UNL     1       4.933  -2.516  -3.520  1.00  0.00     0.262 C 
ATOM     24  H   UNL     1       4.433  -4.013  -2.218  1.00  0.00     0.348 HD
ATOM     25  C   UNL     1       6.162  -1.373  -1.622  1.00  0.00     0.012 C 
ATOM     26  C   UNL     1       6.294  -2.210  -2.891  1.00  0.00     0.062 C 
ENDBRANCH  14  16
ENDBRANCH  11  14
ENDBRANCH   5   8
ENDBRANCH   3   4
ENDBRANCH   2   3
ENDBRANCH   1   2
BRANCH   1  27
ATOM     27  C   UNL     1      -4.970   3.658  -2.442  1.00  0.00     0.116 C 
BRANCH  27  28
ATOM     28  N   UNL     1      -5.869   3.978  -1.343  1.00  0.00    -0.352 N 
ATOM     29  C   UNL     1      -7.163   4.446  -1.371  1.00  0.00     0.251 C 
ATOM     30  H   UNL     1      -5.495   3.837  -0.443  1.00  0.00     0.163 HD
ATOM     31  O   UNL     1      -7.706   4.794  -0.331  1.00  0.00    -0.269 OA
BRANCH  29  32
ATOM     32  C   UNL     1      -7.881   4.560  -2.662  1.00  0.00     0.039 A 
ATOM     33  C   UNL     1      -8.607   5.722  -2.933  1.00  0.00     0.014 A 
ATOM     34  C   UNL     1      -7.830   3.532  -3.605  1.00  0.00     0.014 A 
ATOM     35  C   UNL     1      -9.215   5.884  -4.182  1.00  0.00     0.010 A 
ATOM     36  C   UNL     1      -8.354   3.734  -4.879  1.00  0.00     0.010 A 
ATOM     37  C   UNL     1      -9.058   4.909  -5.181  1.00  0.00    -0.014 A 
BRANCH  37  38
ATOM     38  C   UNL     1      -9.632   5.089  -6.541  1.00  0.00     0.031 A 
ATOM     39  C   UNL     1     -10.661   4.117  -7.059  1.00  0.00     0.074 A 
ATOM     40  C   UNL     1      -9.183   6.081  -7.336  1.00  0.00     0.049 A 
ATOM     41  N   UNL     1     -11.220   4.056  -8.240  1.00  0.00    -0.248 NA
ATOM     42  C   UNL     1     -11.094   3.056  -6.136  1.00  0.00     0.031 C 
ATOM     43  C   UNL     1      -8.156   7.060  -6.971  1.00  0.00     0.029 A 
ATOM     44  N   UNL     1      -9.524   6.426  -8.620  1.00  0.00    -0.354 N 
ATOM     45  C   UNL     1     -12.056   2.945  -8.207  1.00  0.00     0.074 A 
ATOM     46  C   UNL     1     -11.882   2.326  -6.911  1.00  0.00     0.031 C 
ATOM     47  C   UNL     1      -7.971   7.908  -7.995  1.00  0.00     0.029 A 
ATOM     48  C   UNL     1      -8.831   7.512  -9.105  1.00  0.00     0.049 A 
ATOM     49  H   UNL     1     -10.201   5.942  -9.146  1.00  0.00     0.167 HD
ATOM     50  C   UNL     1     -12.910   2.496  -9.157  1.00  0.00     0.037 A 
ATOM     51  C   UNL     1      -8.878   8.115 -10.310  1.00  0.00     0.037 A 
ATOM     52  C   UNL     1     -13.095   3.130 -10.437  1.00  0.00     0.049 A 
ATOM     53  C   UNL     1      -9.831   7.595 -11.354  1.00  0.00     0.074 A 
ATOM     54  C   UNL     1     -13.972   2.784 -11.450  1.00  0.00     0.029 A 
ATOM     55  N   UNL     1     -12.390   4.240 -10.881  1.00  0.00    -0.354 N 
ATOM     56  N   UNL     1     -10.656   6.578 -11.284  1.00  0.00    -0.248 NA
ATOM     57  C   UNL     1      -9.865   8.310 -12.637  1.00  0.00     0.031 C 
ATOM     58  C   UNL     1     -13.763   3.653 -12.525  1.00  0.00     0.029 A 
ATOM     59  C   UNL     1     -12.799   4.580 -12.160  1.00  0.00     0.049 A 
ATOM     60  H   UNL     1     -11.701   4.715 -10.363  1.00  0.00     0.167 HD
ATOM     61  C   UNL     1     -11.334   6.553 -12.498  1.00  0.00     0.074 A 
ATOM     62  C   UNL     1     -10.826   7.661 -13.280  1.00  0.00     0.031 C 
ATOM     63  C   UNL     1     -12.294   5.694 -12.924  1.00  0.00     0.037 A 
BRANCH  50  64
ATOM     64  C   UNL     1     -13.712   1.260  -8.844  1.00  0.00     0.058 A 
ATOM     65  C   UNL     1     -14.721   1.261  -7.867  1.00  0.00     0.135 A 
ATOM     66  C   UNL     1     -13.486   0.065  -9.546  1.00  0.00     0.135 A 
ATOM     67  F   UNL     1     -14.972   2.371  -7.154  1.00  0.00    -0.206 F 
ATOM     68  C   UNL     1     -15.448   0.114  -7.569  1.00  0.00     0.059 A 
ATOM     69  C   UNL     1     -14.225  -1.087  -9.287  1.00  0.00     0.059 A 
ATOM     70  F   UNL     1     -12.536   0.005 -10.492  1.00  0.00    -0.206 F 
ATOM     71  C   UNL     1     -15.192  -1.056  -8.284  1.00  0.00     0.060 A 
BRANCH  71  72
ATOM     72  S   UNL     1     -16.143  -2.537  -7.882  1.00  0.00     0.124 S 
ATOM     73  O   UNL     1     -15.575  -2.905  -6.589  1.00  0.00    -0.237 OA
ATOM     74  O   UNL     1     -17.511  -2.029  -7.851  1.00  0.00    -0.237 OA
ATOM     75  O   UNL     1     -15.840  -3.446  -8.982  1.00  0.00    -0.744 OA
ENDBRANCH  71  72
ENDBRANCH  50  64
BRANCH  51  76
ATOM     76  C   UNL     1      -8.018   9.299 -10.583  1.00  0.00     0.058 A 
ATOM     77  C   UNL     1      -8.575  10.579 -10.721  1.00  0.00     0.135 A 
ATOM     78  C   UNL     1      -6.624   9.179 -10.698  1.00  0.00     0.135 A 
ATOM     79  F   UNL     1      -9.903  10.745 -10.627  1.00  0.00    -0.206 F 
ATOM     80  C   UNL     1      -7.785  11.695 -10.979  1.00  0.00     0.059 A 
ATOM     81  C   UNL     1      -5.810  10.284 -10.928  1.00  0.00     0.059 A 
ATOM     82  F   UNL     1      -6.038   7.979 -10.558  1.00  0.00    -0.206 F 
ATOM     83  C   UNL     1      -6.402  11.538 -11.076  1.00  0.00     0.060 A 
BRANCH  83  84
ATOM     84  S   UNL     1      -5.383  13.002 -11.358  1.00  0.00     0.124 S 
ATOM     85  O   UNL     1      -5.694  13.314 -12.748  1.00  0.00    -0.237 OA
ATOM     86  O   UNL     1      -5.904  13.933 -10.361  1.00  0.00    -0.237 OA
ATOM     87  O   UNL     1      -4.027  12.521 -11.106  1.00  0.00    -0.744 OA
ENDBRANCH  83  84
ENDBRANCH  51  76
BRANCH  63  88
ATOM     88  C   UNL     1     -12.902   5.946 -14.277  1.00  0.00     0.058 A 
ATOM     89  C   UNL     1     -12.193   5.719 -15.466  1.00  0.00     0.135 A 
ATOM     90  C   UNL     1     -14.237   6.372 -14.382  1.00  0.00     0.135 A 
ATOM     91  F   UNL     1     -10.913   5.316 -15.424  1.00  0.00    -0.206 F 
ATOM     92  C   UNL     1     -12.776   5.931 -16.712  1.00  0.00     0.059 A 
ATOM     93  C   UNL     1     -14.850   6.561 -15.617  1.00  0.00     0.059 A 
ATOM     94  F   UNL     1     -14.966   6.594 -13.277  1.00  0.00    -0.206 F 
ATOM     95  C   UNL     1     -14.107   6.351 -16.777  1.00  0.00     0.060 A 
BRANCH  95  96
ATOM     96  S   UNL     1     -14.860   6.595 -18.399  1.00  0.00     0.124 S 
ATOM     97  O   UNL     1     -14.214   7.826 -18.841  1.00  0.00    -0.237 OA
ATOM     98  O   UNL     1     -14.467   5.382 -19.110  1.00  0.00    -0.237 OA
ATOM     99  O   UNL     1     -16.285   6.705 -18.100  1.00  0.00    -0.744 OA
ENDBRANCH  95  96
ENDBRANCH  63  88
ENDBRANCH  37  38
ENDBRANCH  29  32
ENDBRANCH  27  28
ENDBRANCH   1  27
TORSDOF 16
