REMARK SMILES CCCC[C@H](CC)C(=O)N1[C@H](C(=O)NCCCCNC(=O)c2ccc(-c3c4nc(c(-c5c(F)cc(S(=O)(=O)[O-])cc5F)c5ccc([nH]5)c(-c5c(F)cc(S(=O)(=O)[O-])cc5F)c5nc(c(-c6c(F)cc(S(=O)(=O)[O-])cc6F)c6ccc3[nH]6)C=C5)C=C4)cc2)COC12CCCCC2
REMARK SMILES IDX 15 1 14 2 12 3 13 4 11 6 10 7 90 8 88 9 89 10 91 11 95 12
REMARK SMILES IDX 92 13 94 14 93 15 8 16 9 17 5 18 4 19 3 20 2 21 1 22 6 23
REMARK SMILES IDX 7 24 16 25 17 26 18 27 19 28 20 29 21 31 22 32 23 33 87 34
REMARK SMILES IDX 24 35 86 36 25 37 26 38 27 39 80 40 28 41 85 42 79 43 81 44
REMARK SMILES IDX 29 45 84 46 78 47 77 48 30 50 64 51 43 52 63 53 44 54 47 55
REMARK SMILES IDX 62 56 82 57 45 58 46 59 61 61 83 62 48 63 31 64 32 65 41 66
REMARK SMILES IDX 33 67 34 68 40 69 42 70 35 71 36 72 37 73 38 74 39 75 65 76
REMARK SMILES IDX 66 77 75 78 67 79 68 80 74 81 76 82 69 83 70 84 71 85 72 86
REMARK SMILES IDX 73 87 49 88 50 89 59 90 51 91 52 92 58 93 60 94 53 95 54 96
REMARK SMILES IDX 55 97 56 98 57 99
REMARK H PARENT 14 5 19 30 81 49 47 60
REMARK Flexibility Score: inf
ROOT
ATOM      1  C   UNL     1      -4.878   0.266  -5.525  1.00  0.00     0.116 C 
ENDROOT
BRANCH   1   2
ATOM      2  N   UNL     1      -4.331  -1.035  -5.866  1.00  0.00    -0.354 N 
ATOM      3  C   UNL     1      -3.051  -1.365  -6.234  1.00  0.00     0.245 C 
ATOM      4  O   UNL     1      -2.775  -2.548  -6.437  1.00  0.00    -0.273 OA
ATOM      5  H   UNL     1      -4.968  -1.785  -5.829  1.00  0.00     0.163 HD
BRANCH   3   6
ATOM      6  C   UNL     1      -2.010  -0.240  -6.338  1.00  0.00     0.203 C 
ATOM      7  N   UNL     1      -0.997  -0.067  -5.292  1.00  0.00    -0.299 N 
ATOM      8  C   UNL     1       0.283   0.255  -5.929  1.00  0.00     0.144 C 
ATOM      9  C   UNL     1      -1.174  -0.480  -7.576  1.00  0.00     0.198 C 
ATOM     10  O   UNL     1      -0.015   0.334  -7.356  1.00  0.00    -0.353 OA
ATOM     11  C   UNL     1       0.824   1.644  -5.587  1.00  0.00     0.059 C 
ATOM     12  C   UNL     1       1.302  -0.895  -5.796  1.00  0.00     0.059 C 
ATOM     13  C   UNL     1       2.201   1.919  -6.179  1.00  0.00     0.005 C 
ATOM     14  C   UNL     1       2.711  -0.535  -6.275  1.00  0.00     0.005 C 
ATOM     15  C   UNL     1       3.184   0.827  -5.785  1.00  0.00     0.000 C 
BRANCH   7  16
ATOM     16  C   UNL     1      -1.375  -0.193  -3.975  1.00  0.00     0.228 C 
ATOM     17  O   UNL     1      -2.269  -1.003  -3.686  1.00  0.00    -0.274 OA
BRANCH  16  18
ATOM     18  C   UNL     1      -0.960   0.750  -2.822  1.00  0.00     0.078 C 
BRANCH  18  19
ATOM     19  C   UNL     1      -1.537   2.168  -3.049  1.00  0.00     0.013 C 
BRANCH  19  20
ATOM     20  C   UNL     1      -3.032   2.312  -2.721  1.00  0.00     0.001 C 
BRANCH  20  21
ATOM     21  C   UNL     1      -3.431   2.113  -1.255  1.00  0.00    -0.003 C 
ATOM     22  C   UNL     1      -2.700   3.029  -0.287  1.00  0.00     0.004 C 
ENDBRANCH  20  21
ENDBRANCH  19  20
ENDBRANCH  18  19
BRANCH  18  23
ATOM     23  C   UNL     1       0.446   0.812  -2.202  1.00  0.00     0.010 C 
ATOM     24  C   UNL     1       1.315  -0.421  -2.302  1.00  0.00     0.005 C 
ENDBRANCH  18  23
ENDBRANCH  16  18
ENDBRANCH   7  16
ENDBRANCH   3   6
ENDBRANCH   1   2
BRANCH   1  25
ATOM     25  C   UNL     1      -5.953   0.699  -6.515  1.00  0.00     0.023 C 
BRANCH  25  26
ATOM     26  C   UNL     1      -7.259  -0.086  -6.391  1.00  0.00     0.023 C 
BRANCH  26  27
ATOM     27  C   UNL     1      -7.923  -0.015  -5.019  1.00  0.00     0.116 C 
BRANCH  27  28
ATOM     28  N   UNL     1      -8.266   1.344  -4.624  1.00  0.00    -0.352 N 
ATOM     29  C   UNL     1      -9.435   1.807  -4.068  1.00  0.00     0.251 C 
ATOM     30  H   UNL     1      -7.568   2.022  -4.776  1.00  0.00     0.163 HD
ATOM     31  O   UNL     1      -9.614   3.014  -3.925  1.00  0.00    -0.269 OA
BRANCH  29  32
ATOM     32  C   UNL     1     -10.484   0.843  -3.677  1.00  0.00     0.039 A 
ATOM     33  C   UNL     1     -11.800   1.072  -4.085  1.00  0.00     0.014 A 
ATOM     34  C   UNL     1     -10.161  -0.304  -2.946  1.00  0.00     0.014 A 
ATOM     35  C   UNL     1     -12.779   0.112  -3.823  1.00  0.00     0.010 A 
ATOM     36  C   UNL     1     -11.121  -1.292  -2.753  1.00  0.00     0.010 A 
ATOM     37  C   UNL     1     -12.440  -1.096  -3.192  1.00  0.00    -0.014 A 
BRANCH  37  38
ATOM     38  C   UNL     1     -13.444  -2.175  -3.002  1.00  0.00     0.031 A 
ATOM     39  C   UNL     1     -13.831  -2.619  -1.619  1.00  0.00     0.074 A 
ATOM     40  C   UNL     1     -13.951  -2.806  -4.080  1.00  0.00     0.049 A 
ATOM     41  N   UNL     1     -14.645  -3.577  -1.257  1.00  0.00    -0.248 NA
ATOM     42  C   UNL     1     -13.198  -1.912  -0.495  1.00  0.00     0.031 C 
ATOM     43  C   UNL     1     -13.606  -2.509  -5.472  1.00  0.00     0.029 A 
ATOM     44  N   UNL     1     -14.852  -3.837  -4.174  1.00  0.00    -0.354 N 
ATOM     45  C   UNL     1     -14.612  -3.598   0.132  1.00  0.00     0.074 A 
ATOM     46  C   UNL     1     -13.654  -2.595   0.544  1.00  0.00     0.031 C 
ATOM     47  C   UNL     1     -14.301  -3.324  -6.281  1.00  0.00     0.029 A 
ATOM     48  C   UNL     1     -15.111  -4.227  -5.467  1.00  0.00     0.049 A 
ATOM     49  H   UNL     1     -15.273  -4.257  -3.390  1.00  0.00     0.167 HD
ATOM     50  C   UNL     1     -15.330  -4.366   0.986  1.00  0.00     0.037 A 
ATOM     51  C   UNL     1     -15.903  -5.206  -5.946  1.00  0.00     0.037 A 
ATOM     52  C   UNL     1     -16.290  -5.355   0.567  1.00  0.00     0.049 A 
ATOM     53  C   UNL     1     -16.694  -6.046  -4.983  1.00  0.00     0.074 A 
ATOM     54  C   UNL     1     -17.119  -6.138   1.352  1.00  0.00     0.029 A 
ATOM     55  N   UNL     1     -16.542  -5.707  -0.752  1.00  0.00    -0.354 N 
ATOM     56  N   UNL     1     -16.714  -5.998  -3.672  1.00  0.00    -0.248 NA
ATOM     57  C   UNL     1     -17.577  -7.068  -5.562  1.00  0.00     0.031 C 
ATOM     58  C   UNL     1     -17.833  -6.998   0.511  1.00  0.00     0.029 A 
ATOM     59  C   UNL     1     -17.492  -6.715  -0.803  1.00  0.00     0.049 A 
ATOM     60  H   UNL     1     -16.109  -5.300  -1.537  1.00  0.00     0.167 HD
ATOM     61  C   UNL     1     -17.624  -6.969  -3.269  1.00  0.00     0.074 A 
ATOM     62  C   UNL     1     -18.144  -7.579  -4.476  1.00  0.00     0.031 C 
ATOM     63  C   UNL     1     -17.995  -7.321  -2.012  1.00  0.00     0.037 A 
BRANCH  50  64
ATOM     64  C   UNL     1     -15.092  -4.168   2.460  1.00  0.00     0.058 A 
ATOM     65  C   UNL     1     -15.467  -2.985   3.118  1.00  0.00     0.135 A 
ATOM     66  C   UNL     1     -14.477  -5.172   3.226  1.00  0.00     0.135 A 
ATOM     67  F   UNL     1     -16.049  -1.986   2.434  1.00  0.00    -0.206 F 
ATOM     68  C   UNL     1     -15.196  -2.783   4.467  1.00  0.00     0.059 A 
ATOM     69  C   UNL     1     -14.226  -5.005   4.585  1.00  0.00     0.059 A 
ATOM     70  F   UNL     1     -14.102  -6.326   2.652  1.00  0.00    -0.206 F 
ATOM     71  C   UNL     1     -14.567  -3.797   5.191  1.00  0.00     0.060 A 
BRANCH  71  72
ATOM     72  S   UNL     1     -14.192  -3.507   6.932  1.00  0.00     0.124 S 
ATOM     73  O   UNL     1     -13.070  -2.577   6.837  1.00  0.00    -0.237 OA
ATOM     74  O   UNL     1     -15.441  -2.942   7.433  1.00  0.00    -0.237 OA
ATOM     75  O   UNL     1     -13.863  -4.837   7.435  1.00  0.00    -0.744 OA
ENDBRANCH  71  72
ENDBRANCH  50  64
BRANCH  51  76
ATOM     76  C   UNL     1     -15.996  -5.416  -7.415  1.00  0.00     0.058 A 
ATOM     77  C   UNL     1     -17.147  -5.044  -8.125  1.00  0.00     0.135 A 
ATOM     78  C   UNL     1     -14.916  -5.935  -8.145  1.00  0.00     0.135 A 
ATOM     79  F   UNL     1     -18.209  -4.551  -7.470  1.00  0.00    -0.206 F 
ATOM     80  C   UNL     1     -17.223  -5.175  -9.508  1.00  0.00     0.059 A 
ATOM     81  C   UNL     1     -14.959  -6.053  -9.531  1.00  0.00     0.059 A 
ATOM     82  F   UNL     1     -13.786  -6.291  -7.513  1.00  0.00    -0.206 F 
ATOM     83  C   UNL     1     -16.118  -5.671 -10.204  1.00  0.00     0.060 A 
BRANCH  83  84
ATOM     84  S   UNL     1     -16.195  -5.747 -12.007  1.00  0.00     0.124 S 
ATOM     85  O   UNL     1     -17.116  -6.858 -12.216  1.00  0.00    -0.237 OA
ATOM     86  O   UNL     1     -16.704  -4.422 -12.347  1.00  0.00    -0.237 OA
ATOM     87  O   UNL     1     -14.809  -5.995 -12.392  1.00  0.00    -0.744 OA
ENDBRANCH  83  84
ENDBRANCH  51  76
BRANCH  63  88
ATOM     88  C   UNL     1     -19.028  -8.407  -1.874  1.00  0.00     0.058 A 
ATOM     89  C   UNL     1     -18.727  -9.751  -2.142  1.00  0.00     0.135 A 
ATOM     90  C   UNL     1     -20.322  -8.104  -1.419  1.00  0.00     0.135 A 
ATOM     91  F   UNL     1     -17.508 -10.095  -2.587  1.00  0.00    -0.206 F 
ATOM     92  C   UNL     1     -19.678 -10.755  -1.984  1.00  0.00     0.059 A 
ATOM     93  C   UNL     1     -21.280  -9.094  -1.226  1.00  0.00     0.059 A 
ATOM     94  F   UNL     1     -20.661  -6.835  -1.139  1.00  0.00    -0.206 F 
ATOM     95  C   UNL     1     -20.952 -10.416  -1.523  1.00  0.00     0.060 A 
BRANCH  95  96
ATOM     96  S   UNL     1     -22.166 -11.732  -1.291  1.00  0.00     0.124 S 
ATOM     97  O   UNL     1     -22.516 -12.056  -2.670  1.00  0.00    -0.237 OA
ATOM     98  O   UNL     1     -21.396 -12.745  -0.577  1.00  0.00    -0.237 OA
ATOM     99  O   UNL     1     -23.220 -11.088  -0.511  1.00  0.00    -0.744 OA
ENDBRANCH  95  96
ENDBRANCH  63  88
ENDBRANCH  37  38
ENDBRANCH  29  32
ENDBRANCH  27  28
ENDBRANCH  26  27
ENDBRANCH  25  26
ENDBRANCH   1  25
TORSDOF 20
