REMARK SMILES [NH3+][C@H](C(=O)NCCCCNC(=O)c1ccc(-c2c3nc(c(-c4c(F)cc(S(=O)(=O)[O-])cc4F)c4ccc([nH]4)c(-c4c(F)cc(S(=O)(=O)[O-])cc4F)c4nc(c(-c5c(F)cc(S(=O)(=O)[O-])cc5F)c5ccc2[nH]5)C=C4)C=C3)cc1)c1cc(F)c(Cl)c(Cl)c1
REMARK SMILES IDX 8 1 7 2 6 3 5 4 3 5 4 6 2 8 1 9 79 13 80 14 87 15 81 16
REMARK SMILES IDX 85 17 82 18 83 19 86 20 84 21 9 22 10 23 11 24 12 26 13 27
REMARK SMILES IDX 14 28 78 29 15 30 77 31 16 32 17 33 18 34 71 35 19 36 76 37
REMARK SMILES IDX 70 38 72 39 20 40 75 41 69 42 68 43 21 45 55 46 34 47 54 48
REMARK SMILES IDX 35 49 38 50 53 51 73 52 36 53 37 54 52 56 74 57 39 58 22 59
REMARK SMILES IDX 23 60 32 61 24 62 25 63 31 64 33 65 26 66 27 67 28 68 29 69
REMARK SMILES IDX 30 70 56 71 57 72 66 73 58 74 59 75 65 76 67 77 60 78 61 79
REMARK SMILES IDX 62 80 63 81 64 82 40 83 41 84 50 85 42 86 43 87 49 88 51 89
REMARK SMILES IDX 44 90 45 91 46 92 47 93 48 94
REMARK H PARENT 5 7 1 10 1 11 1 12 10 25 72 44 38 55
REMARK Flexibility Score: inf
ROOT
ATOM      1  C   UNL     1      -0.287  -3.818  -1.103  1.00  0.00     0.023 C 
ENDROOT
BRANCH   1   2
ATOM      2  C   UNL     1      -0.415  -3.085   0.232  1.00  0.00     0.023 C 
BRANCH   2   3
ATOM      3  C   UNL     1       0.836  -2.323   0.670  1.00  0.00     0.116 C 
BRANCH   3   4
ATOM      4  N   UNL     1       1.050  -1.141  -0.142  1.00  0.00    -0.351 N 
ATOM      5  C   UNL     1       0.799   0.171   0.139  1.00  0.00     0.283 C 
ATOM      6  O   UNL     1       1.002   1.004  -0.751  1.00  0.00    -0.268 OA
ATOM      7  H   UNL     1       1.435  -1.311  -1.033  1.00  0.00     0.163 HD
BRANCH   5   8
ATOM      8  C   UNL     1       0.329   0.613   1.555  1.00  0.00     0.302 C 
BRANCH   8   9
ATOM      9  N   UNL     1       0.985   1.905   1.873  1.00  0.00    -0.343 N 
ATOM     10  H   UNL     1       0.692   2.217   2.799  1.00  0.00     0.345 HD
ATOM     11  H   UNL     1       0.717   2.603   1.179  1.00  0.00     0.345 HD
ATOM     12  H   UNL     1       1.998   1.784   1.859  1.00  0.00     0.345 HD
ENDBRANCH   8   9
BRANCH   8  13
ATOM     13  C   UNL     1      -1.189   0.703   1.646  1.00  0.00     0.023 A 
ATOM     14  C   UNL     1      -1.898   1.880   1.366  1.00  0.00     0.051 A 
ATOM     15  C   UNL     1      -1.935  -0.436   1.992  1.00  0.00     0.032 A 
ATOM     16  C   UNL     1      -3.293   1.903   1.422  1.00  0.00     0.143 A 
ATOM     17  C   UNL     1      -3.337  -0.421   2.007  1.00  0.00     0.063 A 
ATOM     18  F   UNL     1      -3.918   3.064   1.174  1.00  0.00    -0.205 F 
ATOM     19  C   UNL     1      -4.026   0.757   1.726  1.00  0.00     0.095 A 
ATOM     20  Cl  UNL     1      -4.142  -1.908   2.369  1.00  0.00    -0.083 Cl
ATOM     21  Cl  UNL     1      -5.751   0.846   1.748  1.00  0.00    -0.079 Cl
ENDBRANCH   8  13
ENDBRANCH   5   8
ENDBRANCH   3   4
ENDBRANCH   2   3
ENDBRANCH   1   2
BRANCH   1  22
ATOM     22  C   UNL     1       0.813  -4.868  -1.163  1.00  0.00     0.116 C 
BRANCH  22  23
ATOM     23  N   UNL     1       0.671  -5.908  -0.156  1.00  0.00    -0.352 N 
ATOM     24  C   UNL     1       0.859  -7.263  -0.289  1.00  0.00     0.251 C 
ATOM     25  H   UNL     1       0.404  -5.600   0.740  1.00  0.00     0.163 HD
ATOM     26  O   UNL     1       0.580  -8.015   0.641  1.00  0.00    -0.269 OA
BRANCH  24  27
ATOM     27  C   UNL     1       1.365  -7.808  -1.567  1.00  0.00     0.039 A 
ATOM     28  C   UNL     1       0.731  -8.918  -2.130  1.00  0.00     0.014 A 
ATOM     29  C   UNL     1       2.445  -7.207  -2.220  1.00  0.00     0.014 A 
ATOM     30  C   UNL     1       1.142  -9.388  -3.379  1.00  0.00     0.010 A 
ATOM     31  C   UNL     1       2.797  -7.623  -3.499  1.00  0.00     0.010 A 
ATOM     32  C   UNL     1       2.159  -8.726  -4.087  1.00  0.00    -0.014 A 
BRANCH  32  33
ATOM     33  C   UNL     1       2.594  -9.184  -5.430  1.00  0.00     0.031 A 
ATOM     34  C   UNL     1       4.002  -9.675  -5.632  1.00  0.00     0.074 A 
ATOM     35  C   UNL     1       1.752  -9.093  -6.478  1.00  0.00     0.049 A 
ATOM     36  N   UNL     1       4.599 -10.046  -6.735  1.00  0.00    -0.248 NA
ATOM     37  C   UNL     1       4.864  -9.719  -4.440  1.00  0.00     0.031 C 
ATOM     38  C   UNL     1       0.379  -8.586  -6.420  1.00  0.00     0.029 A 
ATOM     39  N   UNL     1       1.930  -9.418  -7.799  1.00  0.00    -0.354 N 
ATOM     40  C   UNL     1       5.909 -10.342  -6.374  1.00  0.00     0.074 A 
ATOM     41  C   UNL     1       6.034 -10.051  -4.963  1.00  0.00     0.031 C 
ATOM     42  C   UNL     1      -0.169  -8.662  -7.644  1.00  0.00     0.029 A 
ATOM     43  C   UNL     1       0.820  -9.191  -8.578  1.00  0.00     0.049 A 
ATOM     44  H   UNL     1       2.773  -9.779  -8.155  1.00  0.00     0.167 HD
ATOM     45  C   UNL     1       6.910 -10.836  -7.142  1.00  0.00     0.037 A 
ATOM     46  C   UNL     1       0.623  -9.390  -9.896  1.00  0.00     0.037 A 
ATOM     47  C   UNL     1       6.767 -11.158  -8.537  1.00  0.00     0.049 A 
ATOM     48  C   UNL     1       1.739  -9.964 -10.726  1.00  0.00     0.074 A 
ATOM     49  C   UNL     1       7.698 -11.723  -9.391  1.00  0.00     0.029 A 
ATOM     50  N   UNL     1       5.617 -10.945  -9.283  1.00  0.00    -0.354 N 
ATOM     51  N   UNL     1       2.954 -10.295 -10.357  1.00  0.00    -0.248 NA
ATOM     52  C   UNL     1       1.455 -10.201 -12.147  1.00  0.00     0.031 C 
ATOM     53  C   UNL     1       7.121 -11.819 -10.663  1.00  0.00     0.029 A 
ATOM     54  C   UNL     1       5.817 -11.355 -10.591  1.00  0.00     0.049 A 
ATOM     55  H   UNL     1       4.781 -10.559  -8.934  1.00  0.00     0.167 HD
ATOM     56  C   UNL     1       3.569 -10.810 -11.493  1.00  0.00     0.074 A 
ATOM     57  C   UNL     1       2.590 -10.749 -12.560  1.00  0.00     0.031 C 
ATOM     58  C   UNL     1       4.827 -11.296 -11.638  1.00  0.00     0.037 A 
BRANCH  45  59
ATOM     59  C   UNL     1       8.243 -11.051  -6.478  1.00  0.00     0.058 A 
ATOM     60  C   UNL     1       8.433 -12.049  -5.508  1.00  0.00     0.135 A 
ATOM     61  C   UNL     1       9.341 -10.240  -6.804  1.00  0.00     0.135 A 
ATOM     62  F   UNL     1       7.413 -12.844  -5.146  1.00  0.00    -0.206 F 
ATOM     63  C   UNL     1       9.647 -12.200  -4.846  1.00  0.00     0.059 A 
ATOM     64  C   UNL     1      10.575 -10.394  -6.178  1.00  0.00     0.059 A 
ATOM     65  F   UNL     1       9.219  -9.273  -7.727  1.00  0.00    -0.206 F 
ATOM     66  C   UNL     1      10.710 -11.361  -5.182  1.00  0.00     0.060 A 
BRANCH  66  67
ATOM     67  S   UNL     1      12.268 -11.540  -4.289  1.00  0.00     0.124 S 
ATOM     68  O   UNL     1      11.945 -10.907  -3.014  1.00  0.00    -0.237 OA
ATOM     69  O   UNL     1      12.444 -12.988  -4.250  1.00  0.00    -0.237 OA
ATOM     70  O   UNL     1      13.223 -10.818  -5.125  1.00  0.00    -0.744 OA
ENDBRANCH  66  67
ENDBRANCH  45  59
BRANCH  46  71
ATOM     71  C   UNL     1      -0.706  -9.097 -10.494  1.00  0.00     0.058 A 
ATOM     72  C   UNL     1      -1.567 -10.140 -10.868  1.00  0.00     0.135 A 
ATOM     73  C   UNL     1      -1.157  -7.781 -10.669  1.00  0.00     0.135 A 
ATOM     74  F   UNL     1      -1.176 -11.415 -10.725  1.00  0.00    -0.206 F 
ATOM     75  C   UNL     1      -2.827  -9.889 -11.398  1.00  0.00     0.059 A 
ATOM     76  C   UNL     1      -2.423  -7.505 -11.177  1.00  0.00     0.059 A 
ATOM     77  F   UNL     1      -0.377  -6.749 -10.311  1.00  0.00    -0.206 F 
ATOM     78  C   UNL     1      -3.250  -8.567 -11.543  1.00  0.00     0.060 A 
BRANCH  78  79
ATOM     79  S   UNL     1      -4.917  -8.256 -12.165  1.00  0.00     0.124 S 
ATOM     80  O   UNL     1      -4.771  -8.588 -13.577  1.00  0.00    -0.237 OA
ATOM     81  O   UNL     1      -5.717  -9.182 -11.370  1.00  0.00    -0.237 OA
ATOM     82  O   UNL     1      -5.127  -6.843 -11.866  1.00  0.00    -0.744 OA
ENDBRANCH  78  79
ENDBRANCH  46  71
BRANCH  58  83
ATOM     83  C   UNL     1       5.205 -11.843 -12.986  1.00  0.00     0.058 A 
ATOM     84  C   UNL     1       5.452 -11.004 -14.083  1.00  0.00     0.135 A 
ATOM     85  C   UNL     1       5.370 -13.226 -13.166  1.00  0.00     0.135 A 
ATOM     86  F   UNL     1       5.303  -9.675 -13.964  1.00  0.00    -0.206 F 
ATOM     87  C   UNL     1       5.825 -11.518 -15.320  1.00  0.00     0.059 A 
ATOM     88  C   UNL     1       5.767 -13.761 -14.387  1.00  0.00     0.059 A 
ATOM     89  F   UNL     1       5.157 -14.072 -12.145  1.00  0.00    -0.206 F 
ATOM     90  C   UNL     1       5.981 -12.899 -15.462  1.00  0.00     0.060 A 
BRANCH  90  91
ATOM     91  S   UNL     1       6.495 -13.554 -17.064  1.00  0.00     0.124 S 
ATOM     92  O   UNL     1       5.260 -13.448 -17.834  1.00  0.00    -0.237 OA
ATOM     93  O   UNL     1       7.564 -12.638 -17.450  1.00  0.00    -0.237 OA
ATOM     94  O   UNL     1       6.926 -14.914 -16.752  1.00  0.00    -0.744 OA
ENDBRANCH  90  91
ENDBRANCH  58  83
ENDBRANCH  32  33
ENDBRANCH  24  27
ENDBRANCH  22  23
ENDBRANCH   1  22
TORSDOF 16
