REMARK SMILES Cc1c(-c2nn(-c3ccccc3)cc2/C=N/O)nnn1-c1ccc(C(=O)NCCCCNC(=O)c2ccc(-c3c4nc(c(-c5c(F)cc(S(=O)(=O)[O-])cc5F)c5ccc([nH]5)c(-c5c(F)cc(S(=O)(=O)[O-])cc5F)c5nc(c(-c6c(F)cc(S(=O)(=O)[O-])cc6F)c6ccc3[nH]6)C=C5)C=C4)cc2)cc1
REMARK SMILES IDX 29 1 28 2 27 3 25 4 26 5 24 7 21 8 22 9 102 10 23 11 101 12
REMARK SMILES IDX 20 13 1 14 2 15 3 16 18 17 19 18 4 19 5 20 14 21 6 22 13 23
REMARK SMILES IDX 15 24 16 25 17 26 7 28 8 29 12 30 9 31 11 32 10 33 30 34
REMARK SMILES IDX 31 35 32 36 33 37 34 39 35 40 36 41 100 42 37 43 99 44 38 45
REMARK SMILES IDX 39 46 40 47 93 48 41 49 98 50 92 51 94 52 42 53 97 54 91 55
REMARK SMILES IDX 90 56 43 58 77 59 56 60 76 61 57 62 60 63 75 64 95 65 58 66
REMARK SMILES IDX 59 67 74 69 96 70 61 71 44 72 45 73 54 74 46 75 47 76 53 77
REMARK SMILES IDX 55 78 48 79 49 80 50 81 51 82 52 83 78 84 79 85 88 86 80 87
REMARK SMILES IDX 81 88 87 89 89 90 82 91 83 92 84 93 85 94 86 95 62 96 63 97
REMARK SMILES IDX 72 98 64 99 65 100 71 101 73 102 66 103 67 104 68 105 69 106
REMARK SMILES IDX 70 107
REMARK H PARENT 27 6 17 27 32 38 94 57 60 68
REMARK Flexibility Score: inf
ROOT
ATOM      1  C   UNL     1       6.357   4.684   1.248  1.00  0.00     0.023 C 
ENDROOT
BRANCH   1   2
ATOM      2  C   UNL     1       5.165   4.648   2.214  1.00  0.00     0.116 C 
BRANCH   2   3
ATOM      3  N   UNL     1       4.262   5.758   1.982  1.00  0.00    -0.352 N 
ATOM      4  C   UNL     1       3.115   5.912   1.245  1.00  0.00     0.251 C 
ATOM      5  O   UNL     1       2.593   7.028   1.262  1.00  0.00    -0.269 OA
ATOM      6  H   UNL     1       4.529   6.579   2.456  1.00  0.00     0.163 HD
BRANCH   4   7
ATOM      7  C   UNL     1       2.457   4.827   0.454  1.00  0.00     0.039 A 
ATOM      8  C   UNL     1       1.024   2.883  -1.003  1.00  0.00     0.067 A 
ATOM      9  C   UNL     1       0.406   4.087  -0.665  1.00  0.00     0.029 A 
ATOM     10  C   UNL     1       2.364   2.669  -0.667  1.00  0.00     0.029 A 
ATOM     11  C   UNL     1       1.112   5.033   0.088  1.00  0.00     0.016 A 
ATOM     12  C   UNL     1       3.082   3.657   0.018  1.00  0.00     0.016 A 
BRANCH   8  13
ATOM     13  N   UNL     1       0.314   1.904  -1.731  1.00  0.00    -0.217 N 
ATOM     14  C   UNL     1       0.886  -0.195  -0.421  1.00  0.00     0.069 C 
ATOM     15  C   UNL     1       0.350   0.528  -1.598  1.00  0.00     0.071 A 
ATOM     16  C   UNL     1      -0.324   0.086  -2.719  1.00  0.00     0.137 A 
ATOM     17  N   UNL     1      -0.831   1.145  -3.414  1.00  0.00    -0.128 NA
ATOM     18  N   UNL     1      -0.498   2.252  -2.760  1.00  0.00    -0.061 NA
BRANCH  16  19
ATOM     19  C   UNL     1      -0.617  -1.288  -3.105  1.00  0.00     0.124 A 
ATOM     20  N   UNL     1      -1.635  -1.965  -2.563  1.00  0.00    -0.165 NA
ATOM     21  C   UNL     1       0.134  -2.076  -4.009  1.00  0.00     0.044 A 
ATOM     22  N   UNL     1      -1.467  -3.231  -2.993  1.00  0.00    -0.240 N 
ATOM     23  C   UNL     1      -0.413  -3.340  -3.871  1.00  0.00     0.125 A 
BRANCH  21  24
ATOM     24  C   UNL     1       1.219  -1.748  -4.897  1.00  0.00     0.166 C 
ATOM     25  N   UNL     1       1.730  -0.562  -4.896  1.00  0.00    -0.097 NA
BRANCH  25  26
ATOM     26  O   UNL     1       2.732  -0.489  -5.872  1.00  0.00    -0.411 OA
ATOM     27  H   UNL     1       3.204   0.310  -6.000  1.00  0.00     0.330 HD
ENDBRANCH  25  26
ENDBRANCH  21  24
BRANCH  22  28
ATOM     28  C   UNL     1      -2.302  -4.267  -2.521  1.00  0.00     0.065 A 
ATOM     29  C   UNL     1      -3.645  -3.986  -2.242  1.00  0.00     0.028 A 
ATOM     30  C   UNL     1      -1.785  -5.550  -2.302  1.00  0.00     0.028 A 
ATOM     31  C   UNL     1      -4.479  -4.998  -1.769  1.00  0.00     0.002 A 
ATOM     32  C   UNL     1      -2.615  -6.541  -1.774  1.00  0.00     0.002 A 
ATOM     33  C   UNL     1      -3.961  -6.269  -1.522  1.00  0.00     0.000 A 
ENDBRANCH  22  28
ENDBRANCH  16  19
ENDBRANCH   8  13
ENDBRANCH   4   7
ENDBRANCH   2   3
ENDBRANCH   1   2
BRANCH   1  34
ATOM     34  C   UNL     1       7.448   5.710   1.595  1.00  0.00     0.023 C 
BRANCH  34  35
ATOM     35  C   UNL     1       8.271   5.396   2.844  1.00  0.00     0.116 C 
BRANCH  35  36
ATOM     36  N   UNL     1       9.001   4.130   2.742  1.00  0.00    -0.352 N 
ATOM     37  C   UNL     1       9.538   3.352   3.755  1.00  0.00     0.251 C 
ATOM     38  H   UNL     1       9.127   3.784   1.829  1.00  0.00     0.163 HD
ATOM     39  O   UNL     1      10.449   2.573   3.524  1.00  0.00    -0.269 OA
BRANCH  37  40
ATOM     40  C   UNL     1       8.968   3.458   5.112  1.00  0.00     0.039 A 
ATOM     41  C   UNL     1       9.764   3.399   6.261  1.00  0.00     0.014 A 
ATOM     42  C   UNL     1       7.591   3.626   5.211  1.00  0.00     0.014 A 
ATOM     43  C   UNL     1       9.163   3.592   7.506  1.00  0.00     0.010 A 
ATOM     44  C   UNL     1       7.030   3.973   6.409  1.00  0.00     0.010 A 
ATOM     45  C   UNL     1       7.795   3.891   7.567  1.00  0.00    -0.014 A 
BRANCH  45  46
ATOM     46  C   UNL     1       7.136   4.256   8.816  1.00  0.00     0.031 A 
ATOM     47  C   UNL     1       7.652   5.514   9.421  1.00  0.00     0.074 A 
ATOM     48  C   UNL     1       5.967   3.691   9.194  1.00  0.00     0.049 A 
ATOM     49  N   UNL     1       8.363   5.653  10.491  1.00  0.00    -0.248 NA
ATOM     50  C   UNL     1       7.527   6.755   8.635  1.00  0.00     0.031 C 
ATOM     51  C   UNL     1       5.172   2.697   8.460  1.00  0.00     0.029 A 
ATOM     52  N   UNL     1       5.162   3.981  10.250  1.00  0.00    -0.354 N 
ATOM     53  C   UNL     1       8.522   7.029  10.655  1.00  0.00     0.074 A 
ATOM     54  C   UNL     1       8.250   7.604   9.368  1.00  0.00     0.031 C 
ATOM     55  C   UNL     1       3.917   2.659   8.960  1.00  0.00     0.029 A 
ATOM     56  C   UNL     1       3.859   3.496  10.143  1.00  0.00     0.049 A 
ATOM     57  H   UNL     1       5.475   4.493  11.030  1.00  0.00     0.167 HD
ATOM     58  C   UNL     1       8.545   7.590  11.899  1.00  0.00     0.037 A 
ATOM     59  C   UNL     1       2.808   3.801  10.949  1.00  0.00     0.037 A 
ATOM     60  C   UNL     1       8.718   6.566  12.907  1.00  0.00     0.049 A 
ATOM     61  C   UNL     1       3.377   4.379  12.196  1.00  0.00     0.074 A 
ATOM     62  C   UNL     1       9.655   5.579  13.150  1.00  0.00     0.029 A 
ATOM     63  N   UNL     1       7.608   6.213  13.638  1.00  0.00    -0.354 N 
ATOM     64  N   UNL     1       4.093   3.700  13.051  1.00  0.00    -0.248 NA
ATOM     65  C   UNL     1       3.547   5.822  12.252  1.00  0.00     0.031 C 
ATOM     66  C   UNL     1       8.901   4.459  13.611  1.00  0.00     0.029 A 
ATOM     67  C   UNL     1       7.564   4.847  13.710  1.00  0.00     0.049 A 
ATOM     68  H   UNL     1       6.958   6.834  14.039  1.00  0.00     0.167 HD
ATOM     69  C   UNL     1       5.109   4.566  13.428  1.00  0.00     0.074 A 
ATOM     70  C   UNL     1       4.668   5.885  12.977  1.00  0.00     0.031 C 
ATOM     71  C   UNL     1       6.336   4.089  13.796  1.00  0.00     0.037 A 
BRANCH  58  72
ATOM     72  C   UNL     1       7.984   8.962  12.257  1.00  0.00     0.058 A 
ATOM     73  C   UNL     1       8.074   9.392  13.601  1.00  0.00     0.135 A 
ATOM     74  C   UNL     1       7.124   9.733  11.444  1.00  0.00     0.135 A 
ATOM     75  F   UNL     1       8.889   8.769  14.468  1.00  0.00    -0.206 F 
ATOM     76  C   UNL     1       7.272  10.407  14.124  1.00  0.00     0.059 A 
ATOM     77  C   UNL     1       6.354  10.784  11.934  1.00  0.00     0.059 A 
ATOM     78  F   UNL     1       6.910   9.474  10.152  1.00  0.00    -0.206 F 
ATOM     79  C   UNL     1       6.394  11.080  13.284  1.00  0.00     0.060 A 
BRANCH  79  80
ATOM     80  S   UNL     1       5.274  12.309  13.972  1.00  0.00     0.124 S 
ATOM     81  O   UNL     1       4.376  11.471  14.758  1.00  0.00    -0.237 OA
ATOM     82  O   UNL     1       6.189  13.157  14.729  1.00  0.00    -0.237 OA
ATOM     83  O   UNL     1       4.689  12.927  12.786  1.00  0.00    -0.744 OA
ENDBRANCH  79  80
ENDBRANCH  58  72
BRANCH  59  84
ATOM     84  C   UNL     1       1.359   3.915  10.617  1.00  0.00     0.058 A 
ATOM     85  C   UNL     1       0.388   4.021  11.631  1.00  0.00     0.135 A 
ATOM     86  C   UNL     1       0.922   4.219   9.312  1.00  0.00     0.135 A 
ATOM     87  F   UNL     1       0.714   3.760  12.906  1.00  0.00    -0.206 F 
ATOM     88  C   UNL     1      -0.915   4.466  11.379  1.00  0.00     0.059 A 
ATOM     89  C   UNL     1      -0.375   4.655   9.035  1.00  0.00     0.059 A 
ATOM     90  F   UNL     1       1.772   4.195   8.274  1.00  0.00    -0.206 F 
ATOM     91  C   UNL     1      -1.281   4.806  10.078  1.00  0.00     0.060 A 
BRANCH  91  92
ATOM     92  S   UNL     1      -2.895   5.568   9.776  1.00  0.00     0.124 S 
ATOM     93  O   UNL     1      -3.805   4.453  10.012  1.00  0.00    -0.237 OA
ATOM     94  O   UNL     1      -2.923   6.636  10.771  1.00  0.00    -0.237 OA
ATOM     95  O   UNL     1      -2.803   6.016   8.389  1.00  0.00    -0.744 OA
ENDBRANCH  91  92
ENDBRANCH  59  84
BRANCH  71  96
ATOM     96  C   UNL     1       6.463   2.625  14.129  1.00  0.00     0.058 A 
ATOM     97  C   UNL     1       6.226   1.566  13.233  1.00  0.00     0.135 A 
ATOM     98  C   UNL     1       6.978   2.290  15.390  1.00  0.00     0.135 A 
ATOM     99  F   UNL     1       5.841   1.800  11.971  1.00  0.00    -0.206 F 
ATOM    100  C   UNL     1       6.434   0.234  13.599  1.00  0.00     0.059 A 
ATOM    101  C   UNL     1       7.228   0.974  15.763  1.00  0.00     0.059 A 
ATOM    102  F   UNL     1       7.287   3.258  16.269  1.00  0.00    -0.206 F 
ATOM    103  C   UNL     1       6.933  -0.052  14.870  1.00  0.00     0.060 A 
BRANCH 103 104
ATOM    104  S   UNL     1       7.240  -1.769  15.333  1.00  0.00     0.124 S 
ATOM    105  O   UNL     1       5.887  -2.299  15.458  1.00  0.00    -0.237 OA
ATOM    106  O   UNL     1       8.017  -2.269  14.203  1.00  0.00    -0.237 OA
ATOM    107  O   UNL     1       7.984  -1.657  16.586  1.00  0.00    -0.744 OA
ENDBRANCH 103 104
ENDBRANCH  71  96
ENDBRANCH  45  46
ENDBRANCH  37  40
ENDBRANCH  35  36
ENDBRANCH  34  35
ENDBRANCH   1  34
TORSDOF 19
