REMARK SMILES Cc1cccc(CC(=O)N2CCC3(CCC(=O)N([C@H](C)C(=O)NCCCCNC(=O)c4ccc(-c5c6nc(c(-c7c(F)cc(S(=O)(=O)[O-])cc7F)c7ccc([nH]7)c(-c7c(F)cc(S(=O)(=O)[O-])cc7F)c7nc(c(-c8c(F)cc(S(=O)(=O)[O-])cc8F)c8ccc5[nH]8)C=C7)C=C6)cc4)C3)CC2)c1
REMARK SMILES IDX 25 1 24 2 23 3 21 4 22 5 19 7 20 8 18 9 8 10 9 11 10 12
REMARK SMILES IDX 11 13 99 14 12 15 98 16 13 17 14 18 97 19 15 20 16 21 17 22
REMARK SMILES IDX 7 23 6 24 1 25 2 26 3 27 100 28 4 29 5 30 26 31 27 32 28 33
REMARK SMILES IDX 29 34 30 36 31 37 32 38 96 39 33 40 95 41 34 42 35 43 36 44
REMARK SMILES IDX 89 45 37 46 94 47 88 48 90 49 38 50 93 51 87 52 86 53 39 55
REMARK SMILES IDX 73 56 52 57 72 58 53 59 56 60 71 61 91 62 54 63 55 64 70 66
REMARK SMILES IDX 92 67 57 68 40 69 41 70 50 71 42 72 43 73 49 74 51 75 44 76
REMARK SMILES IDX 45 77 46 78 47 79 48 80 74 81 75 82 84 83 76 84 77 85 83 86
REMARK SMILES IDX 85 87 78 88 79 89 80 90 81 91 82 92 58 93 59 94 68 95 60 96
REMARK SMILES IDX 61 97 67 98 69 99 62 100 63 101 64 102 65 103 66 104
REMARK H PARENT 23 6 28 35 90 54 56 65
REMARK Flexibility Score: inf
ROOT
ATOM      1  C   UNL     1      -2.179   3.929  -8.501  1.00  0.00     0.023 C 
ENDROOT
BRANCH   1   2
ATOM      2  C   UNL     1      -1.375   5.225  -8.598  1.00  0.00     0.116 C 
BRANCH   2   3
ATOM      3  N   UNL     1      -1.707   6.207  -7.574  1.00  0.00    -0.354 N 
ATOM      4  C   UNL     1      -0.887   6.985  -6.805  1.00  0.00     0.242 C 
ATOM      5  O   UNL     1      -1.403   7.925  -6.189  1.00  0.00    -0.273 OA
ATOM      6  H   UNL     1      -2.670   6.329  -7.410  1.00  0.00     0.163 HD
BRANCH   4   7
ATOM      7  C   UNL     1       0.621   6.669  -6.618  1.00  0.00     0.171 C 
ATOM      8  C   UNL     1       0.846   5.238  -6.123  1.00  0.00     0.042 C 
BRANCH   7   9
ATOM      9  N   UNL     1       1.595   7.042  -7.661  1.00  0.00    -0.330 N 
ATOM     10  C   UNL     1       7.874   5.274  -6.980  1.00  0.00     0.226 C 
ATOM     11  O   UNL     1       8.085   4.075  -6.750  1.00  0.00    -0.275 OA
ATOM     12  N   UNL     1       6.753   5.671  -7.694  1.00  0.00    -0.342 N 
ATOM     13  C   UNL     1       5.639   4.740  -7.876  1.00  0.00     0.120 C 
ATOM     14  C   UNL     1       6.570   6.933  -8.395  1.00  0.00     0.120 C 
ATOM     15  C   UNL     1       4.320   5.394  -7.427  1.00  0.00     0.030 C 
ATOM     16  C   UNL     1       5.355   7.656  -7.840  1.00  0.00     0.030 C 
ATOM     17  C   UNL     1       4.072   6.809  -8.028  1.00  0.00    -0.008 C 
ATOM     18  C   UNL     1       3.731   6.763  -9.539  1.00  0.00     0.019 C 
ATOM     19  C   UNL     1       2.918   7.509  -7.275  1.00  0.00     0.127 C 
ATOM     20  C   UNL     1       2.329   6.271  -9.829  1.00  0.00     0.101 C 
ATOM     21  C   UNL     1       1.291   6.991  -9.007  1.00  0.00     0.223 C 
ATOM     22  O   UNL     1       0.227   7.354  -9.490  1.00  0.00    -0.275 OA
BRANCH  10  23
ATOM     23  C   UNL     1       8.749   6.304  -6.262  1.00  0.00     0.135 C 
BRANCH  23  24
ATOM     24  C   UNL     1       9.338   7.445  -7.049  1.00  0.00    -0.038 A 
ATOM     25  C   UNL     1       8.892  11.230  -7.255  1.00  0.00     0.044 C 
ATOM     26  C   UNL     1       9.382   9.839  -7.529  1.00  0.00    -0.051 A 
ATOM     27  C   UNL     1      10.207   9.587  -8.630  1.00  0.00     0.003 A 
ATOM     28  C   UNL     1       8.975   8.767  -6.728  1.00  0.00     0.007 A 
ATOM     29  C   UNL     1      10.619   8.285  -8.923  1.00  0.00     0.001 A 
ATOM     30  C   UNL     1      10.188   7.215  -8.137  1.00  0.00     0.004 A 
ENDBRANCH  23  24
ENDBRANCH  10  23
ENDBRANCH   7   9
ENDBRANCH   4   7
ENDBRANCH   2   3
ENDBRANCH   1   2
BRANCH   1  31
ATOM     31  C   UNL     1      -3.696   4.092  -8.582  1.00  0.00     0.023 C 
BRANCH  31  32
ATOM     32  C   UNL     1      -4.199   4.767  -9.854  1.00  0.00     0.116 C 
BRANCH  32  33
ATOM     33  N   UNL     1      -4.566   3.856 -10.919  1.00  0.00    -0.352 N 
ATOM     34  C   UNL     1      -5.276   4.173 -12.068  1.00  0.00     0.251 C 
ATOM     35  H   UNL     1      -4.282   2.918 -10.818  1.00  0.00     0.163 HD
ATOM     36  O   UNL     1      -5.968   3.353 -12.646  1.00  0.00    -0.269 OA
BRANCH  34  37
ATOM     37  C   UNL     1      -5.016   5.504 -12.666  1.00  0.00     0.039 A 
ATOM     38  C   UNL     1      -4.377   5.531 -13.913  1.00  0.00     0.014 A 
ATOM     39  C   UNL     1      -5.174   6.671 -11.926  1.00  0.00     0.014 A 
ATOM     40  C   UNL     1      -3.757   6.704 -14.347  1.00  0.00     0.010 A 
ATOM     41  C   UNL     1      -4.485   7.803 -12.315  1.00  0.00     0.010 A 
ATOM     42  C   UNL     1      -3.749   7.817 -13.510  1.00  0.00    -0.014 A 
BRANCH  42  43
ATOM     43  C   UNL     1      -2.958   9.023 -13.745  1.00  0.00     0.031 A 
ATOM     44  C   UNL     1      -3.618  10.305 -14.088  1.00  0.00     0.074 A 
ATOM     45  C   UNL     1      -1.635   9.025 -13.471  1.00  0.00     0.049 A 
ATOM     46  N   UNL     1      -3.008  11.340 -14.564  1.00  0.00    -0.248 NA
ATOM     47  C   UNL     1      -5.053  10.512 -13.938  1.00  0.00     0.031 C 
ATOM     48  C   UNL     1      -0.792  10.195 -13.231  1.00  0.00     0.029 A 
ATOM     49  N   UNL     1      -0.732   7.959 -13.562  1.00  0.00    -0.354 N 
ATOM     50  C   UNL     1      -3.868  12.412 -14.478  1.00  0.00     0.074 A 
ATOM     51  C   UNL     1      -5.148  11.828 -14.149  1.00  0.00     0.031 C 
ATOM     52  C   UNL     1       0.484   9.867 -13.474  1.00  0.00     0.029 A 
ATOM     53  C   UNL     1       0.477   8.526 -14.025  1.00  0.00     0.049 A 
ATOM     54  H   UNL     1      -0.903   7.013 -13.349  1.00  0.00     0.167 HD
ATOM     55  C   UNL     1      -3.369  13.682 -14.555  1.00  0.00     0.037 A 
ATOM     56  C   UNL     1       1.013   8.185 -15.232  1.00  0.00     0.037 A 
ATOM     57  C   UNL     1      -1.933  13.680 -14.847  1.00  0.00     0.049 A 
ATOM     58  C   UNL     1       1.236   9.335 -16.186  1.00  0.00     0.074 A 
ATOM     59  C   UNL     1      -0.800  13.896 -14.078  1.00  0.00     0.029 A 
ATOM     60  N   UNL     1      -1.479  13.161 -16.055  1.00  0.00    -0.354 N 
ATOM     61  N   UNL     1       0.745  10.535 -16.045  1.00  0.00    -0.248 NA
ATOM     62  C   UNL     1       2.028   9.204 -17.399  1.00  0.00     0.031 C 
ATOM     63  C   UNL     1       0.339  13.528 -14.839  1.00  0.00     0.029 A 
ATOM     64  C   UNL     1      -0.098  13.073 -16.070  1.00  0.00     0.049 A 
ATOM     65  H   UNL     1      -2.063  12.892 -16.801  1.00  0.00     0.167 HD
ATOM     66  C   UNL     1       1.083  11.316 -17.131  1.00  0.00     0.074 A 
ATOM     67  C   UNL     1       1.930  10.439 -17.918  1.00  0.00     0.031 C 
ATOM     68  C   UNL     1       0.601  12.597 -17.264  1.00  0.00     0.037 A 
BRANCH  55  69
ATOM     69  C   UNL     1      -4.132  14.911 -14.074  1.00  0.00     0.058 A 
ATOM     70  C   UNL     1      -3.457  16.023 -13.522  1.00  0.00     0.135 A 
ATOM     71  C   UNL     1      -5.536  15.031 -14.069  1.00  0.00     0.135 A 
ATOM     72  F   UNL     1      -2.123  16.134 -13.570  1.00  0.00    -0.206 F 
ATOM     73  C   UNL     1      -4.114  17.081 -12.887  1.00  0.00     0.059 A 
ATOM     74  C   UNL     1      -6.218  16.047 -13.389  1.00  0.00     0.059 A 
ATOM     75  F   UNL     1      -6.306  14.195 -14.778  1.00  0.00    -0.206 F 
ATOM     76  C   UNL     1      -5.496  17.063 -12.782  1.00  0.00     0.060 A 
BRANCH  76  77
ATOM     77  S   UNL     1      -6.319  18.376 -11.861  1.00  0.00     0.124 S 
ATOM     78  O   UNL     1      -5.613  18.349 -10.584  1.00  0.00    -0.237 OA
ATOM     79  O   UNL     1      -6.067  19.541 -12.701  1.00  0.00    -0.237 OA
ATOM     80  O   UNL     1      -7.710  17.932 -11.807  1.00  0.00    -0.744 OA
ENDBRANCH  76  77
ENDBRANCH  55  69
BRANCH  56  81
ATOM     81  C   UNL     1       0.723   6.780 -15.624  1.00  0.00     0.058 A 
ATOM     82  C   UNL     1       1.278   5.753 -14.836  1.00  0.00     0.135 A 
ATOM     83  C   UNL     1      -0.384   6.464 -16.423  1.00  0.00     0.135 A 
ATOM     84  F   UNL     1       2.353   6.000 -14.069  1.00  0.00    -0.206 F 
ATOM     85  C   UNL     1       0.656   4.517 -14.709  1.00  0.00     0.059 A 
ATOM     86  C   UNL     1      -1.017   5.223 -16.320  1.00  0.00     0.059 A 
ATOM     87  F   UNL     1      -0.946   7.400 -17.201  1.00  0.00    -0.206 F 
ATOM     88  C   UNL     1      -0.531   4.291 -15.401  1.00  0.00     0.060 A 
BRANCH  88  89
ATOM     89  S   UNL     1      -1.512   2.844 -14.935  1.00  0.00     0.124 S 
ATOM     90  O   UNL     1      -0.577   1.751 -15.184  1.00  0.00    -0.237 OA
ATOM     91  O   UNL     1      -1.797   3.118 -13.528  1.00  0.00    -0.237 OA
ATOM     92  O   UNL     1      -2.658   2.911 -15.834  1.00  0.00    -0.744 OA
ENDBRANCH  88  89
ENDBRANCH  56  81
BRANCH  68  93
ATOM     93  C   UNL     1       0.734  13.575 -18.442  1.00  0.00     0.058 A 
ATOM     94  C   UNL     1       1.312  13.300 -19.694  1.00  0.00     0.135 A 
ATOM     95  C   UNL     1       0.187  14.890 -18.345  1.00  0.00     0.135 A 
ATOM     96  F   UNL     1       1.823  12.107 -19.999  1.00  0.00    -0.206 F 
ATOM     97  C   UNL     1       1.371  14.236 -20.736  1.00  0.00     0.059 A 
ATOM     98  C   UNL     1       0.199  15.824 -19.383  1.00  0.00     0.059 A 
ATOM     99  F   UNL     1      -0.403  15.333 -17.226  1.00  0.00    -0.206 F 
ATOM    100  C   UNL     1       0.808  15.493 -20.577  1.00  0.00     0.060 A 
BRANCH 100 101
ATOM    101  S   UNL     1       0.832  16.652 -21.955  1.00  0.00     0.124 S 
ATOM    102  O   UNL     1       2.214  17.118 -21.924  1.00  0.00    -0.237 OA
ATOM    103  O   UNL     1       0.479  15.799 -23.086  1.00  0.00    -0.237 OA
ATOM    104  O   UNL     1      -0.176  17.642 -21.588  1.00  0.00    -0.744 OA
ENDBRANCH 100 101
ENDBRANCH  68  93
ENDBRANCH  42  43
ENDBRANCH  34  37
ENDBRANCH  32  33
ENDBRANCH  31  32
ENDBRANCH   1  31
TORSDOF 17
