REMARK SMILES O=C(NCCCCNC(=O)c1cccc(CN2C(=O)S/C(=C/c3ccc(Cl)cc3)C2=O)c1)c1ccc(-c2c3nc(c(-c4c(F)cc(S(=O)(=O)[O-])cc4F)c4ccc([nH]4)c(-c4c(F)cc(S(=O)(=O)[O-])cc4F)c4nc(c(-c5c(F)cc(S(=O)(=O)[O-])cc5F)c5ccc2[nH]5)C=C4)C=C3)cc1
REMARK SMILES IDX 5 1 4 2 3 3 1 4 2 5 33 7 34 8 98 9 35 10 97 11 36 12 37 13
REMARK SMILES IDX 38 14 91 15 39 16 96 17 90 18 92 19 40 20 95 21 89 22 88 23
REMARK SMILES IDX 41 25 75 26 54 27 74 28 55 29 58 30 73 31 93 32 56 33 57 34
REMARK SMILES IDX 72 36 94 37 59 38 42 39 43 40 52 41 44 42 45 43 51 44 53 45
REMARK SMILES IDX 46 46 47 47 48 48 49 49 50 50 76 51 77 52 86 53 78 54 79 55
REMARK SMILES IDX 85 56 87 57 80 58 81 59 82 60 83 61 84 62 60 63 61 64 70 65
REMARK SMILES IDX 62 66 63 67 69 68 71 69 64 70 65 71 66 72 67 73 68 74 6 75
REMARK SMILES IDX 7 76 8 77 9 78 10 80 11 81 12 82 32 83 13 84 15 85 14 86
REMARK SMILES IDX 16 87 17 88 18 89 30 90 19 91 20 92 21 93 31 94 22 95 23 96
REMARK SMILES IDX 24 97 29 98 25 99 28 100 26 101 27 102
REMARK H PARENT 3 6 92 24 58 35 8 79
REMARK Flexibility Score: inf
ROOT
ATOM      1  C   UNL     1       4.968   0.402  -2.663  1.00  0.00     0.023 C 
ENDROOT
BRANCH   1   2
ATOM      2  C   UNL     1       4.599   0.703  -1.220  1.00  0.00     0.116 C 
BRANCH   2   3
ATOM      3  N   UNL     1       3.162   0.733  -0.977  1.00  0.00    -0.352 N 
ATOM      4  O   UNL     1       1.205   0.082  -0.046  1.00  0.00    -0.269 OA
ATOM      5  C   UNL     1       2.430   0.028  -0.045  1.00  0.00     0.251 C 
ATOM      6  H   UNL     1       2.644   1.338  -1.556  1.00  0.00     0.163 HD
BRANCH   5   7
ATOM      7  C   UNL     1       3.146  -0.823   0.931  1.00  0.00     0.039 A 
ATOM      8  C   UNL     1       4.288  -0.335   1.562  1.00  0.00     0.014 A 
ATOM      9  C   UNL     1       2.724  -2.136   1.158  1.00  0.00     0.014 A 
ATOM     10  C   UNL     1       5.122  -1.213   2.235  1.00  0.00     0.010 A 
ATOM     11  C   UNL     1       3.498  -2.983   1.961  1.00  0.00     0.010 A 
ATOM     12  C   UNL     1       4.726  -2.540   2.475  1.00  0.00    -0.014 A 
BRANCH  12  13
ATOM     13  C   UNL     1       5.594  -3.382   3.341  1.00  0.00     0.031 A 
ATOM     14  C   UNL     1       6.230  -4.653   2.846  1.00  0.00     0.074 A 
ATOM     15  C   UNL     1       5.865  -2.928   4.582  1.00  0.00     0.049 A 
ATOM     16  N   UNL     1       7.066  -5.446   3.469  1.00  0.00    -0.248 NA
ATOM     17  C   UNL     1       5.883  -5.103   1.489  1.00  0.00     0.031 C 
ATOM     18  C   UNL     1       5.282  -1.720   5.179  1.00  0.00     0.029 A 
ATOM     19  N   UNL     1       6.716  -3.390   5.550  1.00  0.00    -0.354 N 
ATOM     20  C   UNL     1       7.344  -6.485   2.588  1.00  0.00     0.074 A 
ATOM     21  C   UNL     1       6.555  -6.244   1.399  1.00  0.00     0.031 C 
ATOM     22  C   UNL     1       5.845  -1.498   6.372  1.00  0.00     0.029 A 
ATOM     23  C   UNL     1       6.757  -2.593   6.670  1.00  0.00     0.049 A 
ATOM     24  H   UNL     1       7.248  -4.214   5.454  1.00  0.00     0.167 HD
ATOM     25  C   UNL     1       8.190  -7.532   2.754  1.00  0.00     0.037 A 
ATOM     26  C   UNL     1       7.429  -2.736   7.827  1.00  0.00     0.037 A 
ATOM     27  C   UNL     1       8.971  -7.759   3.948  1.00  0.00     0.049 A 
ATOM     28  C   UNL     1       8.335  -3.919   7.990  1.00  0.00     0.074 A 
ATOM     29  C   UNL     1       9.860  -8.787   4.212  1.00  0.00     0.029 A 
ATOM     30  N   UNL     1       8.958  -6.950   5.076  1.00  0.00    -0.354 N 
ATOM     31  N   UNL     1       8.599  -4.878   7.135  1.00  0.00    -0.248 NA
ATOM     32  C   UNL     1       9.036  -4.041   9.273  1.00  0.00     0.031 C 
ATOM     33  C   UNL     1      10.346  -8.627   5.514  1.00  0.00     0.029 A 
ATOM     34  C   UNL     1       9.809  -7.466   6.043  1.00  0.00     0.049 A 
ATOM     35  H   UNL     1       8.423  -6.129   5.175  1.00  0.00     0.167 HD
ATOM     36  C   UNL     1       9.505  -5.714   7.774  1.00  0.00     0.074 A 
ATOM     37  C   UNL     1       9.772  -5.124   9.071  1.00  0.00     0.031 C 
ATOM     38  C   UNL     1      10.059  -6.871   7.333  1.00  0.00     0.037 A 
BRANCH  25  39
ATOM     39  C   UNL     1       8.323  -8.523   1.626  1.00  0.00     0.058 A 
ATOM     40  C   UNL     1       8.975  -8.191   0.427  1.00  0.00     0.135 A 
ATOM     41  C   UNL     1       7.864  -9.843   1.772  1.00  0.00     0.135 A 
ATOM     42  F   UNL     1       9.422  -6.942   0.224  1.00  0.00    -0.206 F 
ATOM     43  C   UNL     1       9.154  -9.125  -0.590  1.00  0.00     0.059 A 
ATOM     44  C   UNL     1       8.057 -10.802   0.780  1.00  0.00     0.059 A 
ATOM     45  F   UNL     1       7.234 -10.219   2.896  1.00  0.00    -0.206 F 
ATOM     46  C   UNL     1       8.697 -10.431  -0.402  1.00  0.00     0.060 A 
BRANCH  46  47
ATOM     47  S   UNL     1       8.964 -11.635  -1.721  1.00  0.00     0.124 S 
ATOM     48  O   UNL     1       8.052 -11.146  -2.751  1.00  0.00    -0.237 OA
ATOM     49  O   UNL     1      10.386 -11.473  -2.006  1.00  0.00    -0.237 OA
ATOM     50  O   UNL     1       8.591 -12.905  -1.106  1.00  0.00    -0.744 OA
ENDBRANCH  46  47
ENDBRANCH  25  39
BRANCH  26  51
ATOM     51  C   UNL     1       7.228  -1.753   8.925  1.00  0.00     0.058 A 
ATOM     52  C   UNL     1       8.266  -0.917   9.362  1.00  0.00     0.135 A 
ATOM     53  C   UNL     1       5.980  -1.630   9.558  1.00  0.00     0.135 A 
ATOM     54  F   UNL     1       9.477  -0.995   8.789  1.00  0.00    -0.206 F 
ATOM     55  C   UNL     1       8.083  -0.018  10.407  1.00  0.00     0.059 A 
ATOM     56  C   UNL     1       5.762  -0.712  10.577  1.00  0.00     0.059 A 
ATOM     57  F   UNL     1       4.946  -2.389   9.163  1.00  0.00    -0.206 F 
ATOM     58  C   UNL     1       6.827   0.076  11.009  1.00  0.00     0.060 A 
BRANCH  58  59
ATOM     59  S   UNL     1       6.593   1.257  12.353  1.00  0.00     0.124 S 
ATOM     60  O   UNL     1       7.316   0.608  13.440  1.00  0.00    -0.237 OA
ATOM     61  O   UNL     1       7.204   2.466  11.809  1.00  0.00    -0.237 OA
ATOM     62  O   UNL     1       5.141   1.310  12.504  1.00  0.00    -0.744 OA
ENDBRANCH  58  59
ENDBRANCH  26  51
BRANCH  38  63
ATOM     63  C   UNL     1      11.027  -7.556   8.260  1.00  0.00     0.058 A 
ATOM     64  C   UNL     1      10.604  -8.162   9.454  1.00  0.00     0.135 A 
ATOM     65  C   UNL     1      12.396  -7.603   7.951  1.00  0.00     0.135 A 
ATOM     66  F   UNL     1       9.307  -8.139   9.802  1.00  0.00    -0.206 F 
ATOM     67  C   UNL     1      11.509  -8.748  10.332  1.00  0.00     0.059 A 
ATOM     68  C   UNL     1      13.314  -8.216   8.797  1.00  0.00     0.059 A 
ATOM     69  F   UNL     1      12.854  -7.050   6.817  1.00  0.00    -0.206 F 
ATOM     70  C   UNL     1      12.863  -8.767   9.996  1.00  0.00     0.060 A 
BRANCH  70  71
ATOM     71  S   UNL     1      14.028  -9.528  11.146  1.00  0.00     0.124 S 
ATOM     72  O   UNL     1      14.068  -8.541  12.220  1.00  0.00    -0.237 OA
ATOM     73  O   UNL     1      13.368 -10.790  11.468  1.00  0.00    -0.237 OA
ATOM     74  O   UNL     1      15.252  -9.650  10.360  1.00  0.00    -0.744 OA
ENDBRANCH  70  71
ENDBRANCH  38  63
ENDBRANCH  12  13
ENDBRANCH   5   7
ENDBRANCH   2   3
ENDBRANCH   1   2
BRANCH   1  75
ATOM     75  C   UNL     1       4.520   1.451  -3.671  1.00  0.00     0.023 C 
BRANCH  75  76
ATOM     76  C   UNL     1       4.918   2.883  -3.329  1.00  0.00     0.116 C 
BRANCH  76  77
ATOM     77  N   UNL     1       6.359   3.073  -3.241  1.00  0.00    -0.352 N 
ATOM     78  C   UNL     1       7.184   3.841  -4.025  1.00  0.00     0.251 C 
ATOM     79  H   UNL     1       6.805   2.579  -2.515  1.00  0.00     0.163 HD
ATOM     80  O   UNL     1       8.401   3.804  -3.886  1.00  0.00    -0.269 OA
BRANCH  78  81
ATOM     81  C   UNL     1       6.592   4.682  -5.084  1.00  0.00     0.040 A 
ATOM     82  C   UNL     1       7.025   4.486  -6.396  1.00  0.00     0.014 A 
ATOM     83  C   UNL     1       5.579   5.605  -4.792  1.00  0.00     0.019 A 
ATOM     84  C   UNL     1       6.384   5.157  -7.433  1.00  0.00     0.001 A 
ATOM     85  C   UNL     1       4.890   6.237  -5.835  1.00  0.00    -0.027 A 
ATOM     86  C   UNL     1       5.309   6.004  -7.155  1.00  0.00     0.005 A 
BRANCH  85  87
ATOM     87  C   UNL     1       3.684   7.106  -5.546  1.00  0.00     0.165 C 
BRANCH  87  88
ATOM     88  N   UNL     1       3.981   8.518  -5.650  1.00  0.00    -0.264 N 
ATOM     89  C   UNL     1       3.990   9.155  -6.856  1.00  0.00     0.293 C 
ATOM     90  C   UNL     1       4.130   9.298  -4.528  1.00  0.00     0.268 C 
ATOM     91  O   UNL     1       3.684   8.694  -7.947  1.00  0.00    -0.261 OA
ATOM     92  S   UNL     1       4.454  10.830  -6.647  1.00  0.00    -0.022 SA
ATOM     93  C   UNL     1       4.415  10.711  -4.923  1.00  0.00     0.083 C 
ATOM     94  O   UNL     1       4.008   8.901  -3.379  1.00  0.00    -0.268 OA
ATOM     95  C   UNL     1       4.567  11.786  -4.135  1.00  0.00     0.029 C 
BRANCH  95  96
ATOM     96  C   UNL     1       4.453  11.804  -2.676  1.00  0.00    -0.024 A 
ATOM     97  C   UNL     1       3.428  12.557  -2.088  1.00  0.00     0.009 A 
ATOM     98  C   UNL     1       5.339  11.092  -1.859  1.00  0.00     0.009 A 
ATOM     99  C   UNL     1       3.266  12.563  -0.701  1.00  0.00     0.021 A 
ATOM    100  C   UNL     1       5.172  11.092  -0.472  1.00  0.00     0.021 A 
ATOM    101  C   UNL     1       4.133  11.823   0.100  1.00  0.00     0.041 A 
ATOM    102  Cl  UNL     1       3.914  11.809   1.806  1.00  0.00    -0.084 Cl
ENDBRANCH  95  96
ENDBRANCH  87  88
ENDBRANCH  85  87
ENDBRANCH  78  81
ENDBRANCH  76  77
ENDBRANCH  75  76
ENDBRANCH   1  75
TORSDOF 17
