REMARK SMILES O=C(NCCCCNC(=O)c1cccc(NC(=S)N/N=C\c2c[nH]c3ccccc23)c1)c1ccc(-c2c3nc(c(-c4c(F)cc(S(=O)(=O)[O-])cc4F)c4ccc([nH]4)c(-c4c(F)cc(S(=O)(=O)[O-])cc4F)c4nc(c(-c5c(F)cc(S(=O)(=O)[O-])cc5F)c5ccc2[nH]5)C=C4)C=C3)cc1
REMARK SMILES IDX 6 1 5 2 4 3 3 4 1 5 2 6 32 8 33 9 97 10 34 11 96 12 35 13
REMARK SMILES IDX 36 14 37 15 90 16 38 17 95 18 89 19 91 20 39 21 94 22 88 23
REMARK SMILES IDX 87 24 40 26 74 27 53 28 73 29 54 30 57 31 72 32 92 33 55 34
REMARK SMILES IDX 56 35 71 37 93 38 58 39 41 40 42 41 51 42 43 43 44 44 50 45
REMARK SMILES IDX 52 46 45 47 46 48 47 49 48 50 49 51 75 52 76 53 85 54 77 55
REMARK SMILES IDX 78 56 84 57 86 58 79 59 80 60 81 61 82 62 83 63 59 64 60 65
REMARK SMILES IDX 69 66 61 67 62 68 68 69 70 70 63 71 64 72 65 73 66 74 67 75
REMARK SMILES IDX 7 76 8 77 9 78 10 80 11 81 12 82 31 83 13 84 15 85 14 86
REMARK SMILES IDX 16 87 17 89 18 90 19 91 20 93 21 94 22 95 23 96 30 97 24 98
REMARK SMILES IDX 25 99 29 100 26 102 28 103 27 104
REMARK H PARENT 3 7 91 25 57 36 8 79 16 88 19 92 24 101
REMARK Flexibility Score: inf
ROOT
ATOM      1  C   UNL     1       4.600   1.737   3.384  1.00  0.00     0.023 C 
ENDROOT
BRANCH   1   2
ATOM      2  C   UNL     1       5.007   1.744   1.919  1.00  0.00     0.023 C 
BRANCH   2   3
ATOM      3  C   UNL     1       4.610   0.505   1.130  1.00  0.00     0.116 C 
BRANCH   3   4
ATOM      4  N   UNL     1       3.171   0.285   1.082  1.00  0.00    -0.352 N 
ATOM      5  O   UNL     1       1.151   0.026   0.105  1.00  0.00    -0.269 OA
ATOM      6  C   UNL     1       2.369   0.094  -0.020  1.00  0.00     0.251 C 
ATOM      7  H   UNL     1       2.712   0.270   1.952  1.00  0.00     0.163 HD
BRANCH   6   8
ATOM      8  C   UNL     1       2.994   0.012  -1.357  1.00  0.00     0.039 A 
ATOM      9  C   UNL     1       4.105  -0.808  -1.562  1.00  0.00     0.014 A 
ATOM     10  C   UNL     1       2.501   0.808  -2.393  1.00  0.00     0.014 A 
ATOM     11  C   UNL     1       4.823  -0.705  -2.747  1.00  0.00     0.010 A 
ATOM     12  C   UNL     1       3.170   0.836  -3.620  1.00  0.00     0.010 A 
ATOM     13  C   UNL     1       4.357   0.108  -3.794  1.00  0.00    -0.014 A 
BRANCH  13  14
ATOM     14  C   UNL     1       5.100   0.124  -5.080  1.00  0.00     0.031 A 
ATOM     15  C   UNL     1       5.764   1.375  -5.586  1.00  0.00     0.074 A 
ATOM     16  C   UNL     1       5.197  -1.027  -5.774  1.00  0.00     0.049 A 
ATOM     17  N   UNL     1       6.457   1.549  -6.683  1.00  0.00    -0.248 NA
ATOM     18  C   UNL     1       5.631   2.588  -4.764  1.00  0.00     0.031 C 
ATOM     19  C   UNL     1       4.585  -2.300  -5.380  1.00  0.00     0.029 A 
ATOM     20  N   UNL     1       5.858  -1.324  -6.936  1.00  0.00    -0.354 N 
ATOM     21  C   UNL     1       6.825   2.890  -6.696  1.00  0.00     0.074 A 
ATOM     22  C   UNL     1       6.261   3.490  -5.506  1.00  0.00     0.031 C 
ATOM     23  C   UNL     1       4.940  -3.249  -6.256  1.00  0.00     0.029 A 
ATOM     24  C   UNL     1       5.746  -2.642  -7.308  1.00  0.00     0.049 A 
ATOM     25  H   UNL     1       6.363  -0.657  -7.455  1.00  0.00     0.167 HD
ATOM     26  C   UNL     1       7.569   3.553  -7.615  1.00  0.00     0.037 A 
ATOM     27  C   UNL     1       6.222  -3.292  -8.386  1.00  0.00     0.037 A 
ATOM     28  C   UNL     1       8.140   2.939  -8.788  1.00  0.00     0.049 A 
ATOM     29  C   UNL     1       7.030  -2.530  -9.394  1.00  0.00     0.074 A 
ATOM     30  C   UNL     1       8.933   3.518  -9.764  1.00  0.00     0.029 A 
ATOM     31  N   UNL     1       7.981   1.607  -9.145  1.00  0.00    -0.354 N 
ATOM     32  N   UNL     1       7.379  -1.266  -9.381  1.00  0.00    -0.248 NA
ATOM     33  C   UNL     1       7.501  -3.277 -10.566  1.00  0.00     0.031 C 
ATOM     34  C   UNL     1       9.221   2.547 -10.730  1.00  0.00     0.029 A 
ATOM     35  C   UNL     1       8.644   1.351 -10.335  1.00  0.00     0.049 A 
ATOM     36  H   UNL     1       7.472   0.941  -8.628  1.00  0.00     0.167 HD
ATOM     37  C   UNL     1       8.122  -1.067 -10.538  1.00  0.00     0.074 A 
ATOM     38  C   UNL     1       8.187  -2.347 -11.216  1.00  0.00     0.031 C 
ATOM     39  C   UNL     1       8.695   0.072 -10.998  1.00  0.00     0.037 A 
BRANCH  26  40
ATOM     40  C   UNL     1       7.798   5.025  -7.404  1.00  0.00     0.058 A 
ATOM     41  C   UNL     1       8.674   5.503  -6.417  1.00  0.00     0.135 A 
ATOM     42  C   UNL     1       7.173   5.969  -8.235  1.00  0.00     0.135 A 
ATOM     43  F   UNL     1       9.289   4.646  -5.586  1.00  0.00    -0.206 F 
ATOM     44  C   UNL     1       8.905   6.865  -6.246  1.00  0.00     0.059 A 
ATOM     45  C   UNL     1       7.406   7.335  -8.097  1.00  0.00     0.059 A 
ATOM     46  F   UNL     1       6.327   5.568  -9.197  1.00  0.00    -0.206 F 
ATOM     47  C   UNL     1       8.264   7.774  -7.090  1.00  0.00     0.060 A 
BRANCH  47  48
ATOM     48  S   UNL     1       8.575   9.538  -6.858  1.00  0.00     0.124 S 
ATOM     49  O   UNL     1       7.808   9.811  -5.646  1.00  0.00    -0.237 OA
ATOM     50  O   UNL     1      10.026   9.585  -6.713  1.00  0.00    -0.237 OA
ATOM     51  O   UNL     1       8.051  10.140  -8.081  1.00  0.00    -0.744 OA
ENDBRANCH  47  48
ENDBRANCH  26  40
BRANCH  27  52
ATOM     52  C   UNL     1       5.933  -4.738  -8.558  1.00  0.00     0.058 A 
ATOM     53  C   UNL     1       6.941  -5.699  -8.406  1.00  0.00     0.135 A 
ATOM     54  C   UNL     1       4.631  -5.188  -8.832  1.00  0.00     0.135 A 
ATOM     55  F   UNL     1       8.200  -5.316  -8.145  1.00  0.00    -0.206 F 
ATOM     56  C   UNL     1       6.672  -7.058  -8.528  1.00  0.00     0.059 A 
ATOM     57  C   UNL     1       4.333  -6.542  -8.932  1.00  0.00     0.059 A 
ATOM     58  F   UNL     1       3.628  -4.306  -8.964  1.00  0.00    -0.206 F 
ATOM     59  C   UNL     1       5.363  -7.470  -8.788  1.00  0.00     0.060 A 
BRANCH  59  60
ATOM     60  S   UNL     1       5.010  -9.238  -8.883  1.00  0.00     0.124 S 
ATOM     61  O   UNL     1       5.533  -9.569 -10.204  1.00  0.00    -0.237 OA
ATOM     62  O   UNL     1       5.761  -9.764  -7.748  1.00  0.00    -0.237 OA
ATOM     63  O   UNL     1       3.558  -9.296  -8.744  1.00  0.00    -0.744 OA
ENDBRANCH  59  60
ENDBRANCH  27  52
BRANCH  39  64
ATOM     64  C   UNL     1       9.458  -0.023 -12.287  1.00  0.00     0.058 A 
ATOM     65  C   UNL     1       8.800  -0.136 -13.522  1.00  0.00     0.135 A 
ATOM     66  C   UNL     1      10.860   0.031 -12.290  1.00  0.00     0.135 A 
ATOM     67  F   UNL     1       7.460  -0.202 -13.571  1.00  0.00    -0.206 F 
ATOM     68  C   UNL     1       9.509  -0.217 -14.716  1.00  0.00     0.059 A 
ATOM     69  C   UNL     1      11.589  -0.025 -13.474  1.00  0.00     0.059 A 
ATOM     70  F   UNL     1      11.535   0.146 -11.135  1.00  0.00    -0.206 F 
ATOM     71  C   UNL     1      10.904  -0.161 -14.681  1.00  0.00     0.060 A 
BRANCH  71  72
ATOM     72  S   UNL     1      11.814  -0.241 -16.238  1.00  0.00     0.124 S 
ATOM     73  O   UNL     1      11.724  -1.662 -16.558  1.00  0.00    -0.237 OA
ATOM     74  O   UNL     1      11.044   0.652 -17.098  1.00  0.00    -0.237 OA
ATOM     75  O   UNL     1      13.144   0.239 -15.878  1.00  0.00    -0.744 OA
ENDBRANCH  71  72
ENDBRANCH  39  64
ENDBRANCH  13  14
ENDBRANCH   6   8
ENDBRANCH   3   4
ENDBRANCH   2   3
ENDBRANCH   1   2
BRANCH   1  76
ATOM     76  C   UNL     1       4.940   0.465   4.145  1.00  0.00     0.116 C 
BRANCH  76  77
ATOM     77  N   UNL     1       6.363   0.160   4.188  1.00  0.00    -0.352 N 
ATOM     78  C   UNL     1       7.252   0.109   5.244  1.00  0.00     0.251 C 
ATOM     79  H   UNL     1       6.761  -0.047   3.312  1.00  0.00     0.163 HD
ATOM     80  O   UNL     1       8.431  -0.102   5.042  1.00  0.00    -0.269 OA
BRANCH  78  81
ATOM     81  C   UNL     1       6.776   0.354   6.626  1.00  0.00     0.041 A 
ATOM     82  C   UNL     1       7.520   1.191   7.462  1.00  0.00     0.014 A 
ATOM     83  C   UNL     1       5.577  -0.188   7.077  1.00  0.00     0.040 A 
ATOM     84  C   UNL     1       7.022   1.530   8.723  1.00  0.00     0.003 A 
ATOM     85  C   UNL     1       5.031   0.247   8.279  1.00  0.00     0.041 A 
ATOM     86  C   UNL     1       5.768   1.069   9.127  1.00  0.00     0.026 A 
BRANCH  85  87
ATOM     87  N   UNL     1       3.662   0.026   8.470  1.00  0.00    -0.331 N 
ATOM     88  H   UNL     1       3.143  -0.161   7.655  1.00  0.00     0.169 HD
BRANCH  87  89
ATOM     89  C   UNL     1       2.954   0.035   9.626  1.00  0.00     0.191 C 
ATOM     90  S   UNL     1       1.396   0.653   9.619  1.00  0.00    -0.039 S 
BRANCH  89  91
ATOM     91  N   UNL     1       3.442  -0.591  10.740  1.00  0.00    -0.254 N 
ATOM     92  H   UNL     1       2.969  -0.425  11.587  1.00  0.00     0.193 HD
BRANCH  91  93
ATOM     93  N   UNL     1       4.536  -1.435  10.789  1.00  0.00    -0.181 NA
ATOM     94  C   UNL     1       4.405  -2.672  10.376  1.00  0.00     0.143 C 
BRANCH  94  95
ATOM     95  C   UNL     1       3.187  -3.188   9.791  1.00  0.00     0.020 A 
ATOM     96  C   UNL     1       2.706  -2.835   8.544  1.00  0.00     0.093 A 
ATOM     97  C   UNL     1       2.183  -4.018  10.360  1.00  0.00     0.008 A 
ATOM     98  N   UNL     1       1.342  -2.869   8.654  1.00  0.00    -0.361 N 
ATOM     99  C   UNL     1       0.994  -3.564   9.786  1.00  0.00     0.046 A 
ATOM    100  C   UNL     1       2.107  -4.983  11.379  1.00  0.00     0.011 A 
ATOM    101  H   UNL     1       0.710  -2.460   8.020  1.00  0.00     0.166 HD
ATOM    102  C   UNL     1      -0.259  -3.814  10.342  1.00  0.00     0.027 A 
ATOM    103  C   UNL     1       0.843  -5.391  11.826  1.00  0.00     0.001 A 
ATOM    104  C   UNL     1      -0.312  -4.755  11.371  1.00  0.00     0.002 A 
ENDBRANCH  94  95
ENDBRANCH  91  93
ENDBRANCH  89  91
ENDBRANCH  87  89
ENDBRANCH  85  87
ENDBRANCH  78  81
ENDBRANCH  76  77
ENDBRANCH   1  76
TORSDOF 19
