REMARK SMILES CC(C)C[C@H](Nc1ncnc2scc(-c3ccccc3)c12)C(=O)NCCCCNC(=O)c1ccc(-c2c3nc(c(-c4c(F)cc(S(=O)(=O)[O-])cc4F)c4ccc([nH]4)c(-c4c(F)cc(S(=O)(=O)[O-])cc4F)c4nc(c(-c5c(F)cc(S(=O)(=O)[O-])cc5F)c5ccc2[nH]5)C=C4)C=C3)cc1
REMARK SMILES IDX 26 1 25 2 24 3 22 4 23 5 5 7 4 8 2 9 1 10 3 11 6 12 7 14
REMARK SMILES IDX 8 15 21 16 9 17 11 18 14 19 10 20 12 21 13 22 15 23 16 24
REMARK SMILES IDX 20 25 17 26 19 27 18 28 27 29 28 30 29 31 30 32 31 34 32 35
REMARK SMILES IDX 33 36 97 37 34 38 96 39 35 40 36 41 37 42 90 43 38 44 95 45
REMARK SMILES IDX 89 46 91 47 39 48 94 49 88 50 87 51 40 53 74 54 53 55 73 56
REMARK SMILES IDX 54 57 57 58 72 59 92 60 55 61 56 62 71 64 93 65 58 66 41 67
REMARK SMILES IDX 42 68 51 69 43 70 44 71 50 72 52 73 45 74 46 75 47 76 48 77
REMARK SMILES IDX 49 78 75 79 76 80 85 81 77 82 78 83 84 84 86 85 79 86 80 87
REMARK SMILES IDX 81 88 82 89 83 90 59 91 60 92 69 93 61 94 62 95 68 96 70 97
REMARK SMILES IDX 63 98 64 99 65 100 66 101 67 102
REMARK H PARENT 24 6 6 13 29 33 91 52 57 63
REMARK Flexibility Score: inf
ROOT
ATOM      1  C   UNL     1      -3.386  -0.956   4.499  1.00  0.00     0.023 C 
ENDROOT
BRANCH   1   2
ATOM      2  C   UNL     1      -3.246  -1.899   3.319  1.00  0.00     0.116 C 
BRANCH   2   3
ATOM      3  N   UNL     1      -3.671  -1.347   2.043  1.00  0.00    -0.354 N 
ATOM      4  C   UNL     1      -2.987  -1.165   0.872  1.00  0.00     0.242 C 
ATOM      5  O   UNL     1      -3.634  -0.749  -0.096  1.00  0.00    -0.273 OA
ATOM      6  H   UNL     1      -4.611  -1.054   2.017  1.00  0.00     0.163 HD
BRANCH   4   7
ATOM      7  C   UNL     1      -1.442  -1.329   0.762  1.00  0.00     0.170 C 
BRANCH   7   8
ATOM      8  C   UNL     1      -0.870  -2.669   1.276  1.00  0.00     0.038 C 
BRANCH   8   9
ATOM      9  C   UNL     1      -1.789  -3.908   1.139  1.00  0.00    -0.015 C 
ATOM     10  C   UNL     1      -2.014  -4.314  -0.313  1.00  0.00     0.007 C 
ATOM     11  C   UNL     1      -1.230  -5.076   1.954  1.00  0.00     0.007 C 
ENDBRANCH   8   9
ENDBRANCH   7   8
BRANCH   7  12
ATOM     12  N   UNL     1      -0.867  -0.112   1.369  1.00  0.00    -0.358 N 
ATOM     13  H   UNL     1      -1.442   0.687   1.378  1.00  0.00     0.162 HD
BRANCH  12  14
ATOM     14  C   UNL     1       0.377   0.028   1.921  1.00  0.00     0.139 A 
ATOM     15  N   UNL     1       1.375  -0.668   1.332  1.00  0.00    -0.219 NA
ATOM     16  C   UNL     1       0.659   0.837   3.063  1.00  0.00     0.062 A 
ATOM     17  C   UNL     1       2.606  -0.610   1.838  1.00  0.00     0.225 A 
ATOM     18  C   UNL     1       1.978   0.708   3.511  1.00  0.00     0.129 A 
ATOM     19  C   UNL     1      -0.082   1.784   3.946  1.00  0.00     0.006 A 
ATOM     20  N   UNL     1       2.982   0.029   2.933  1.00  0.00    -0.225 NA
ATOM     21  S   UNL     1       2.287   1.483   4.985  1.00  0.00    -0.123 S 
ATOM     22  C   UNL     1       0.696   2.059   5.068  1.00  0.00     0.076 A 
BRANCH  19  23
ATOM     23  C   UNL     1      -1.439   2.412   3.882  1.00  0.00    -0.017 A 
ATOM     24  C   UNL     1      -1.776   3.520   4.688  1.00  0.00     0.009 A 
ATOM     25  C   UNL     1      -2.466   1.942   3.066  1.00  0.00     0.009 A 
ATOM     26  C   UNL     1      -3.072   4.062   4.714  1.00  0.00     0.001 A 
ATOM     27  C   UNL     1      -3.760   2.483   3.066  1.00  0.00     0.001 A 
ATOM     28  C   UNL     1      -4.069   3.537   3.905  1.00  0.00     0.000 A 
ENDBRANCH  19  23
ENDBRANCH  12  14
ENDBRANCH   7  12
ENDBRANCH   4   7
ENDBRANCH   2   3
ENDBRANCH   1   2
BRANCH   1  29
ATOM     29  C   UNL     1      -4.822  -0.563   4.810  1.00  0.00     0.023 C 
BRANCH  29  30
ATOM     30  C   UNL     1      -5.512  -1.615   5.657  1.00  0.00     0.116 C 
BRANCH  30  31
ATOM     31  N   UNL     1      -4.918  -1.698   6.990  1.00  0.00    -0.352 N 
ATOM     32  C   UNL     1      -5.508  -1.516   8.216  1.00  0.00     0.251 C 
ATOM     33  H   UNL     1      -3.958  -1.914   7.011  1.00  0.00     0.163 HD
ATOM     34  O   UNL     1      -4.822  -1.372   9.219  1.00  0.00    -0.269 OA
BRANCH  32  35
ATOM     35  C   UNL     1      -6.979  -1.485   8.292  1.00  0.00     0.039 A 
ATOM     36  C   UNL     1      -7.609  -0.542   9.104  1.00  0.00     0.014 A 
ATOM     37  C   UNL     1      -7.728  -2.371   7.515  1.00  0.00     0.014 A 
ATOM     38  C   UNL     1      -9.000  -0.455   9.089  1.00  0.00     0.010 A 
ATOM     39  C   UNL     1      -9.093  -2.187   7.396  1.00  0.00     0.010 A 
ATOM     40  C   UNL     1      -9.749  -1.254   8.209  1.00  0.00    -0.014 A 
BRANCH  40  41
ATOM     41  C   UNL     1     -11.228  -1.184   8.153  1.00  0.00     0.031 A 
ATOM     42  C   UNL     1     -12.031  -2.429   8.429  1.00  0.00     0.074 A 
ATOM     43  C   UNL     1     -11.832  -0.040   7.780  1.00  0.00     0.049 A 
ATOM     44  N   UNL     1     -13.319  -2.622   8.322  1.00  0.00    -0.248 NA
ATOM     45  C   UNL     1     -11.280  -3.634   8.827  1.00  0.00     0.031 C 
ATOM     46  C   UNL     1     -11.146   1.205   7.420  1.00  0.00     0.029 A 
ATOM     47  N   UNL     1     -13.161   0.262   7.635  1.00  0.00    -0.354 N 
ATOM     48  C   UNL     1     -13.521  -3.968   8.607  1.00  0.00     0.074 A 
ATOM     49  C   UNL     1     -12.221  -4.563   8.809  1.00  0.00     0.031 C 
ATOM     50  C   UNL     1     -12.061   2.144   7.133  1.00  0.00     0.029 A 
ATOM     51  C   UNL     1     -13.393   1.560   7.245  1.00  0.00     0.049 A 
ATOM     52  H   UNL     1     -13.881  -0.390   7.795  1.00  0.00     0.167 HD
ATOM     53  C   UNL     1     -14.689  -4.638   8.735  1.00  0.00     0.037 A 
ATOM     54  C   UNL     1     -14.553   2.200   7.005  1.00  0.00     0.037 A 
ATOM     55  C   UNL     1     -15.976  -4.016   8.588  1.00  0.00     0.049 A 
ATOM     56  C   UNL     1     -15.842   1.446   7.187  1.00  0.00     0.074 A 
ATOM     57  C   UNL     1     -17.229  -4.574   8.764  1.00  0.00     0.029 A 
ATOM     58  N   UNL     1     -16.173  -2.686   8.242  1.00  0.00    -0.354 N 
ATOM     59  N   UNL     1     -16.020   0.189   7.523  1.00  0.00    -0.248 NA
ATOM     60  C   UNL     1     -17.086   2.193   6.970  1.00  0.00     0.031 C 
ATOM     61  C   UNL     1     -18.184  -3.592   8.482  1.00  0.00     0.029 A 
ATOM     62  C   UNL     1     -17.526  -2.408   8.184  1.00  0.00     0.049 A 
ATOM     63  H   UNL     1     -15.455  -2.037   8.063  1.00  0.00     0.167 HD
ATOM     64  C   UNL     1     -17.396   0.002   7.582  1.00  0.00     0.074 A 
ATOM     65  C   UNL     1     -18.002   1.280   7.262  1.00  0.00     0.031 C 
ATOM     66  C   UNL     1     -18.098  -1.122   7.872  1.00  0.00     0.037 A 
BRANCH  53  67
ATOM     67  C   UNL     1     -14.621  -6.104   9.068  1.00  0.00     0.058 A 
ATOM     68  C   UNL     1     -14.150  -6.559  10.312  1.00  0.00     0.135 A 
ATOM     69  C   UNL     1     -15.040  -7.069   8.138  1.00  0.00     0.135 A 
ATOM     70  F   UNL     1     -13.717  -5.683  11.232  1.00  0.00    -0.206 F 
ATOM     71  C   UNL     1     -14.063  -7.915  10.607  1.00  0.00     0.059 A 
ATOM     72  C   UNL     1     -14.994  -8.431   8.425  1.00  0.00     0.059 A 
ATOM     73  F   UNL     1     -15.495  -6.694   6.932  1.00  0.00    -0.206 F 
ATOM     74  C   UNL     1     -14.488  -8.844   9.657  1.00  0.00     0.060 A 
BRANCH  74  75
ATOM     75  S   UNL     1     -14.373 -10.599  10.061  1.00  0.00     0.124 S 
ATOM     76  O   UNL     1     -12.932 -10.821   9.987  1.00  0.00    -0.237 OA
ATOM     77  O   UNL     1     -14.954 -10.650  11.398  1.00  0.00    -0.237 OA
ATOM     78  O   UNL     1     -15.161 -11.242   9.013  1.00  0.00    -0.744 OA
ENDBRANCH  74  75
ENDBRANCH  53  67
BRANCH  54  79
ATOM     79  C   UNL     1     -14.543   3.633   6.605  1.00  0.00     0.058 A 
ATOM     80  C   UNL     1     -14.996   4.630   7.481  1.00  0.00     0.135 A 
ATOM     81  C   UNL     1     -14.059   4.038   5.351  1.00  0.00     0.135 A 
ATOM     82  F   UNL     1     -15.470   4.295   8.691  1.00  0.00    -0.206 F 
ATOM     83  C   UNL     1     -14.988   5.975   7.125  1.00  0.00     0.059 A 
ATOM     84  C   UNL     1     -14.015   5.379   4.982  1.00  0.00     0.059 A 
ATOM     85  F   UNL     1     -13.592   3.127   4.484  1.00  0.00    -0.206 F 
ATOM     86  C   UNL     1     -14.492   6.340   5.872  1.00  0.00     0.060 A 
BRANCH  86  87
ATOM     87  S   UNL     1     -14.442   8.092   5.438  1.00  0.00     0.124 S 
ATOM     88  O   UNL     1     -15.855   8.384   5.227  1.00  0.00    -0.237 OA
ATOM     89  O   UNL     1     -13.838   8.685   6.627  1.00  0.00    -0.237 OA
ATOM     90  O   UNL     1     -13.606   8.118   4.241  1.00  0.00    -0.744 OA
ENDBRANCH  86  87
ENDBRANCH  54  79
BRANCH  66  91
ATOM     91  C   UNL     1     -19.596  -1.012   7.892  1.00  0.00     0.058 A 
ATOM     92  C   UNL     1     -20.342  -0.881   6.711  1.00  0.00     0.135 A 
ATOM     93  C   UNL     1     -20.295  -1.103   9.107  1.00  0.00     0.135 A 
ATOM     94  F   UNL     1     -19.720  -0.785   5.526  1.00  0.00    -0.206 F 
ATOM     95  C   UNL     1     -21.730  -0.821   6.735  1.00  0.00     0.059 A 
ATOM     96  C   UNL     1     -21.684  -1.075   9.151  1.00  0.00     0.059 A 
ATOM     97  F   UNL     1     -19.628  -1.242  10.264  1.00  0.00    -0.206 F 
ATOM     98  C   UNL     1     -22.393  -0.922   7.960  1.00  0.00     0.060 A 
BRANCH  98  99
ATOM     99  S   UNL     1     -24.196  -0.879   7.973  1.00  0.00     0.124 S 
ATOM    100  O   UNL     1     -24.458   0.529   7.697  1.00  0.00    -0.237 OA
ATOM    101  O   UNL     1     -24.537  -1.810   6.900  1.00  0.00    -0.237 OA
ATOM    102  O   UNL     1     -24.538  -1.331   9.318  1.00  0.00    -0.744 OA
ENDBRANCH  98  99
ENDBRANCH  66  91
ENDBRANCH  40  41
ENDBRANCH  32  35
ENDBRANCH  30  31
ENDBRANCH  29  30
ENDBRANCH   1  29
TORSDOF 19
