REMARK SMILES Cc1cc(NC[C@H](C)[NH+](C)C)cc(C(=O)NCCCCNC(=O)c2ccc(-c3c4nc(c(-c5c(F)cc(S(=O)(=O)[O-])cc5F)c5ccc([nH]5)c(-c5c(F)cc(S(=O)(=O)[O-])cc5F)c5nc(c(-c6c(F)cc(S(=O)(=O)[O-])cc6F)c6ccc3[nH]6)C=C5)C=C4)cc2)c1N
REMARK SMILES IDX 18 1 17 2 16 3 14 4 15 5 13 7 1 8 2 9 3 10 90 11 4 12 12 13
REMARK SMILES IDX 91 14 5 17 6 19 7 20 8 21 9 22 10 23 11 24 19 26 20 27 21 28
REMARK SMILES IDX 22 29 23 31 24 32 25 33 89 34 26 35 88 36 27 37 28 38 29 39
REMARK SMILES IDX 82 40 30 41 87 42 81 43 83 44 31 45 86 46 80 47 79 48 32 50
REMARK SMILES IDX 66 51 45 52 65 53 46 54 49 55 64 56 84 57 47 58 48 59 63 61
REMARK SMILES IDX 85 62 50 63 33 64 34 65 43 66 35 67 36 68 42 69 44 70 37 71
REMARK SMILES IDX 38 72 39 73 40 74 41 75 67 76 68 77 77 78 69 79 70 80 76 81
REMARK SMILES IDX 78 82 71 83 72 84 73 85 74 86 75 87 51 88 52 89 61 90 53 91
REMARK SMILES IDX 54 92 60 93 62 94 55 95 56 96 57 97 58 98 59 99
REMARK H PARENT 16 6 91 15 91 16 5 18 9 25 21 30 83 49 49 60
REMARK Flexibility Score: inf
ROOT
ATOM      1  C   UNL     1      -5.955   5.360  -1.441  1.00  0.00     0.023 C 
ENDROOT
BRANCH   1   2
ATOM      2  C   UNL     1      -4.846   6.140  -0.724  1.00  0.00     0.116 C 
BRANCH   2   3
ATOM      3  N   UNL     1      -5.362   7.370  -0.151  1.00  0.00    -0.352 N 
ATOM      4  C   UNL     1      -5.825   7.704   1.103  1.00  0.00     0.253 C 
ATOM      5  O   UNL     1      -6.169   8.879   1.262  1.00  0.00    -0.269 OA
ATOM      6  H   UNL     1      -5.387   8.119  -0.789  1.00  0.00     0.163 HD
BRANCH   4   7
ATOM      7  C   UNL     1      -5.900   6.746   2.260  1.00  0.00     0.065 A 
ATOM      8  C   UNL     1      -5.991   6.776   6.088  1.00  0.00     0.046 C 
ATOM      9  C   UNL     1      -5.967   6.312   4.657  1.00  0.00    -0.025 A 
ATOM     10  C   UNL     1      -5.991   4.928   4.392  1.00  0.00     0.031 A 
ATOM     11  C   UNL     1      -5.918   7.236   3.588  1.00  0.00     0.047 A 
ATOM     12  C   UNL     1      -5.986   4.435   3.090  1.00  0.00     0.035 A 
ATOM     13  C   UNL     1      -6.023   5.368   2.055  1.00  0.00     0.041 A 
BRANCH  11  14
ATOM     14  N   UNL     1      -5.739   8.598   3.862  1.00  0.00    -0.398 N 
ATOM     15  H   UNL     1      -5.754   8.919   4.792  1.00  0.00     0.156 HD
ATOM     16  H   UNL     1      -5.597   9.234   3.124  1.00  0.00     0.156 HD
ENDBRANCH  11  14
BRANCH  12  17
ATOM     17  N   UNL     1      -5.953   3.067   2.855  1.00  0.00    -0.379 N 
ATOM     18  H   UNL     1      -6.201   2.447   3.578  1.00  0.00     0.160 HD
BRANCH  17  19
ATOM     19  C   UNL     1      -5.556   2.529   1.551  1.00  0.00     0.177 C 
BRANCH  19  20
ATOM     20  C   UNL     1      -5.391   0.982   1.546  1.00  0.00     0.199 C 
ATOM     21  C   UNL     1      -4.468   0.586   0.377  1.00  0.00     0.077 C 
BRANCH  20  22
ATOM     22  N   UNL     1      -6.626   0.159   1.525  1.00  0.00    -0.336 N 
ATOM     23  C   UNL     1      -7.439   0.331   2.727  1.00  0.00     0.332 C 
ATOM     24  C   UNL     1      -7.459   0.343   0.335  1.00  0.00     0.332 C 
ATOM     25  H   UNL     1      -6.275  -0.798   1.496  1.00  0.00     0.347 HD
ENDBRANCH  20  22
ENDBRANCH  19  20
ENDBRANCH  17  19
ENDBRANCH  12  17
ENDBRANCH   4   7
ENDBRANCH   2   3
ENDBRANCH   1   2
BRANCH   1  26
ATOM     26  C   UNL     1      -6.281   5.866  -2.846  1.00  0.00     0.023 C 
BRANCH  26  27
ATOM     27  C   UNL     1      -5.166   5.680  -3.867  1.00  0.00     0.116 C 
BRANCH  27  28
ATOM     28  N   UNL     1      -4.778   4.288  -4.049  1.00  0.00    -0.352 N 
ATOM     29  C   UNL     1      -4.286   3.687  -5.185  1.00  0.00     0.251 C 
ATOM     30  H   UNL     1      -4.881   3.705  -3.263  1.00  0.00     0.163 HD
ATOM     31  O   UNL     1      -4.090   2.479  -5.212  1.00  0.00    -0.269 OA
BRANCH  29  32
ATOM     32  C   UNL     1      -4.049   4.518  -6.383  1.00  0.00     0.039 A 
ATOM     33  C   UNL     1      -4.647   4.143  -7.589  1.00  0.00     0.014 A 
ATOM     34  C   UNL     1      -3.305   5.697  -6.294  1.00  0.00     0.014 A 
ATOM     35  C   UNL     1      -4.566   4.998  -8.689  1.00  0.00     0.010 A 
ATOM     36  C   UNL     1      -3.276   6.574  -7.372  1.00  0.00     0.010 A 
ATOM     37  C   UNL     1      -3.918   6.239  -8.574  1.00  0.00    -0.014 A 
BRANCH  37  38
ATOM     38  C   UNL     1      -3.932   7.219  -9.688  1.00  0.00     0.031 A 
ATOM     39  C   UNL     1      -2.652   7.598 -10.377  1.00  0.00     0.074 A 
ATOM     40  C   UNL     1      -5.088   7.828 -10.017  1.00  0.00     0.049 A 
ATOM     41  N   UNL     1      -2.452   8.491 -11.310  1.00  0.00    -0.248 NA
ATOM     42  C   UNL     1      -1.433   6.901  -9.938  1.00  0.00     0.031 C 
ATOM     43  C   UNL     1      -6.384   7.587  -9.379  1.00  0.00     0.029 A 
ATOM     44  N   UNL     1      -5.357   8.787 -10.960  1.00  0.00    -0.354 N 
ATOM     45  C   UNL     1      -1.086   8.478 -11.559  1.00  0.00     0.074 A 
ATOM     46  C   UNL     1      -0.500   7.518 -10.648  1.00  0.00     0.031 C 
ATOM     47  C   UNL     1      -7.312   8.366  -9.959  1.00  0.00     0.029 A 
ATOM     48  C   UNL     1      -6.674   9.180 -10.988  1.00  0.00     0.049 A 
ATOM     49  H   UNL     1      -4.671   9.160 -11.560  1.00  0.00     0.167 HD
ATOM     50  C   UNL     1      -0.386   9.189 -12.475  1.00  0.00     0.037 A 
ATOM     51  C   UNL     1      -7.296  10.097 -11.754  1.00  0.00     0.037 A 
ATOM     52  C   UNL     1      -0.979  10.122 -13.397  1.00  0.00     0.049 A 
ATOM     53  C   UNL     1      -6.505  10.850 -12.786  1.00  0.00     0.074 A 
ATOM     54  C   UNL     1      -0.365  10.844 -14.405  1.00  0.00     0.029 A 
ATOM     55  N   UNL     1      -2.324  10.460 -13.425  1.00  0.00    -0.354 N 
ATOM     56  N   UNL     1      -5.223  10.780 -13.051  1.00  0.00    -0.248 NA
ATOM     57  C   UNL     1      -7.244  11.802 -13.627  1.00  0.00     0.031 C 
ATOM     58  C   UNL     1      -1.335  11.640 -15.026  1.00  0.00     0.029 A 
ATOM     59  C   UNL     1      -2.558  11.389 -14.425  1.00  0.00     0.049 A 
ATOM     60  H   UNL     1      -3.010  10.094 -12.822  1.00  0.00     0.167 HD
ATOM     61  C   UNL     1      -5.004  11.660 -14.104  1.00  0.00     0.074 A 
ATOM     62  C   UNL     1      -6.288  12.246 -14.432  1.00  0.00     0.031 C 
ATOM     63  C   UNL     1      -3.845  11.955 -14.743  1.00  0.00     0.037 A 
BRANCH  50  64
ATOM     64  C   UNL     1       1.100   8.974 -12.525  1.00  0.00     0.058 A 
ATOM     65  C   UNL     1       1.652   7.788 -13.034  1.00  0.00     0.135 A 
ATOM     66  C   UNL     1       1.982   9.966 -12.070  1.00  0.00     0.135 A 
ATOM     67  F   UNL     1       0.852   6.801 -13.466  1.00  0.00    -0.206 F 
ATOM     68  C   UNL     1       3.027   7.578 -13.057  1.00  0.00     0.059 A 
ATOM     69  C   UNL     1       3.362   9.788 -12.107  1.00  0.00     0.059 A 
ATOM     70  F   UNL     1       1.506  11.119 -11.574  1.00  0.00    -0.206 F 
ATOM     71  C   UNL     1       3.873   8.582 -12.585  1.00  0.00     0.060 A 
BRANCH  71  72
ATOM     72  S   UNL     1       5.655   8.292 -12.607  1.00  0.00     0.124 S 
ATOM     73  O   UNL     1       5.819   7.414 -11.453  1.00  0.00    -0.237 OA
ATOM     74  O   UNL     1       5.858   7.668 -13.911  1.00  0.00    -0.237 OA
ATOM     75  O   UNL     1       6.218   9.631 -12.463  1.00  0.00    -0.744 OA
ENDBRANCH  71  72
ENDBRANCH  50  64
BRANCH  51  76
ATOM     76  C   UNL     1      -8.756  10.322 -11.594  1.00  0.00     0.058 A 
ATOM     77  C   UNL     1      -9.664   9.838 -12.547  1.00  0.00     0.135 A 
ATOM     78  C   UNL     1      -9.273  10.993 -10.476  1.00  0.00     0.135 A 
ATOM     79  F   UNL     1      -9.214   9.193 -13.634  1.00  0.00    -0.206 F 
ATOM     80  C   UNL     1     -11.035  10.019 -12.403  1.00  0.00     0.059 A 
ATOM     81  C   UNL     1     -10.642  11.170 -10.300  1.00  0.00     0.059 A 
ATOM     82  F   UNL     1      -8.444  11.459  -9.529  1.00  0.00    -0.206 F 
ATOM     83  C   UNL     1     -11.515  10.685 -11.274  1.00  0.00     0.060 A 
BRANCH  83  84
ATOM     84  S   UNL     1     -13.300  10.858 -11.062  1.00  0.00     0.124 S 
ATOM     85  O   UNL     1     -13.603  11.935 -11.997  1.00  0.00    -0.237 OA
ATOM     86  O   UNL     1     -13.786   9.533 -11.435  1.00  0.00    -0.237 OA
ATOM     87  O   UNL     1     -13.437  11.190  -9.647  1.00  0.00    -0.744 OA
ENDBRANCH  83  84
ENDBRANCH  51  76
BRANCH  63  88
ATOM     88  C   UNL     1      -3.916  12.933 -15.880  1.00  0.00     0.058 A 
ATOM     89  C   UNL     1      -4.045  14.311 -15.655  1.00  0.00     0.135 A 
ATOM     90  C   UNL     1      -3.798  12.489 -17.206  1.00  0.00     0.135 A 
ATOM     91  F   UNL     1      -4.169  14.784 -14.405  1.00  0.00    -0.206 F 
ATOM     92  C   UNL     1      -4.073  15.218 -16.710  1.00  0.00     0.059 A 
ATOM     93  C   UNL     1      -3.802  13.379 -18.275  1.00  0.00     0.059 A 
ATOM     94  F   UNL     1      -3.664  11.180 -17.472  1.00  0.00    -0.206 F 
ATOM     95  C   UNL     1      -3.950  14.741 -18.017  1.00  0.00     0.060 A 
BRANCH  95  96
ATOM     96  S   UNL     1      -3.946  15.928 -19.378  1.00  0.00     0.124 S 
ATOM     97  O   UNL     1      -5.366  16.241 -19.498  1.00  0.00    -0.237 OA
ATOM     98  O   UNL     1      -3.102  17.000 -18.859  1.00  0.00    -0.237 OA
ATOM     99  O   UNL     1      -3.373  15.170 -20.486  1.00  0.00    -0.744 OA
ENDBRANCH  95  96
ENDBRANCH  63  88
ENDBRANCH  37  38
ENDBRANCH  29  32
ENDBRANCH  27  28
ENDBRANCH  26  27
ENDBRANCH   1  26
TORSDOF 19
