REMARK SMILES CCc1ccc(N2C(=O)C[C@@H](SC[C@@H](NC(C)=O)C(=O)NCCCCNC(=O)c3ccc(-c4c5nc(c(-c6c(F)cc(S(=O)(=O)[O-])cc6F)c6ccc([nH]6)c(-c6c(F)cc(S(=O)(=O)[O-])cc6F)c6nc(c(-c7c(F)cc(S(=O)(=O)[O-])cc7F)c7ccc4[nH]7)C=C6)C=C5)cc3)C2=O)cc1
REMARK SMILES IDX 22 1 21 2 19 3 20 4 14 6 13 7 12 8 11 9 7 10 8 11 95 12 9 13
REMARK SMILES IDX 10 14 96 15 6 16 3 17 4 18 98 19 5 20 97 21 2 22 1 23 15 24
REMARK SMILES IDX 16 25 17 27 18 28 23 29 24 30 25 31 26 32 27 33 28 35 29 36
REMARK SMILES IDX 30 37 94 38 31 39 93 40 32 41 33 42 34 43 87 44 35 45 92 46
REMARK SMILES IDX 86 47 88 48 36 49 91 50 85 51 84 52 37 54 71 55 50 56 70 57
REMARK SMILES IDX 51 58 54 59 69 60 89 61 52 62 53 63 68 65 90 66 55 67 38 68
REMARK SMILES IDX 39 69 48 70 40 71 41 72 47 73 49 74 42 75 43 76 44 77 45 78
REMARK SMILES IDX 46 79 72 80 73 81 82 82 74 83 75 84 81 85 83 86 76 87 77 88
REMARK SMILES IDX 78 89 79 90 80 91 56 92 57 93 66 94 58 95 59 96 65 97 67 98
REMARK SMILES IDX 60 99 61 100 62 101 63 102 64 103
REMARK H PARENT 21 5 15 26 26 34 88 53 54 64
REMARK Flexibility Score: inf
ROOT
ATOM      1  C   UNL     1       6.131   6.201  10.132  1.00  0.00     0.116 C 
ENDROOT
BRANCH   1   2
ATOM      2  N   UNL     1       6.970   5.115  10.598  1.00  0.00    -0.354 N 
ATOM      3  C   UNL     1       7.009   3.804  10.221  1.00  0.00     0.243 C 
ATOM      4  O   UNL     1       7.723   3.042  10.881  1.00  0.00    -0.273 OA
ATOM      5  H   UNL     1       7.616   5.363  11.299  1.00  0.00     0.163 HD
BRANCH   3   6
ATOM      6  C   UNL     1       6.036   3.230   9.160  1.00  0.00     0.181 C 
BRANCH   6   7
ATOM      7  C   UNL     1       4.665   3.155   9.894  1.00  0.00     0.105 C 
BRANCH   7   8
ATOM      8  S   UNL     1       3.213   2.388   9.073  1.00  0.00    -0.145 SA
BRANCH   8   9
ATOM      9  C   UNL     1       2.839   3.619   7.768  1.00  0.00     0.146 C 
ATOM     10  N   UNL     1       1.756   2.799   5.860  1.00  0.00    -0.250 N 
ATOM     11  C   UNL     1       0.821   3.583   6.485  1.00  0.00     0.235 C 
ATOM     12  C   UNL     1       2.986   2.895   6.453  1.00  0.00     0.247 C 
ATOM     13  O   UNL     1      -0.322   3.834   6.129  1.00  0.00    -0.274 OA
ATOM     14  C   UNL     1       1.413   4.132   7.752  1.00  0.00     0.125 C 
ATOM     15  O   UNL     1       4.075   2.526   6.024  1.00  0.00    -0.273 OA
BRANCH  10  16
ATOM     16  C   UNL     1       1.498   2.006   4.722  1.00  0.00     0.052 A 
ATOM     17  C   UNL     1       0.888   0.341   2.526  1.00  0.00    -0.048 A 
ATOM     18  C   UNL     1       1.637  -0.147   3.603  1.00  0.00     0.006 A 
ATOM     19  C   UNL     1       0.449   1.671   2.560  1.00  0.00     0.006 A 
ATOM     20  C   UNL     1       1.963   0.685   4.678  1.00  0.00     0.027 A 
ATOM     21  C   UNL     1       0.730   2.489   3.659  1.00  0.00     0.027 A 
BRANCH  17  22
ATOM     22  C   UNL     1       0.531  -0.563   1.371  1.00  0.00     0.032 C 
ATOM     23  C   UNL     1       1.108  -0.092   0.044  1.00  0.00     0.009 C 
ENDBRANCH  17  22
ENDBRANCH  10  16
ENDBRANCH   8   9
ENDBRANCH   7   8
ENDBRANCH   6   7
BRANCH   6  24
ATOM     24  N   UNL     1       5.972   3.952   7.881  1.00  0.00    -0.344 N 
ATOM     25  C   UNL     1       7.051   4.588   7.305  1.00  0.00     0.217 C 
ATOM     26  H   UNL     1       5.109   3.984   7.409  1.00  0.00     0.164 HD
ATOM     27  C   UNL     1       6.714   5.290   6.014  1.00  0.00     0.114 C 
ATOM     28  O   UNL     1       8.157   4.684   7.818  1.00  0.00    -0.275 OA
ENDBRANCH   6  24
ENDBRANCH   3   6
ENDBRANCH   1   2
BRANCH   1  29
ATOM     29  C   UNL     1       5.343   6.817  11.287  1.00  0.00     0.023 C 
BRANCH  29  30
ATOM     30  C   UNL     1       6.189   7.631  12.267  1.00  0.00     0.023 C 
BRANCH  30  31
ATOM     31  C   UNL     1       6.941   8.805  11.647  1.00  0.00     0.116 C 
BRANCH  31  32
ATOM     32  N   UNL     1       6.054   9.762  10.999  1.00  0.00    -0.352 N 
ATOM     33  C   UNL     1       6.053  11.133  11.097  1.00  0.00     0.251 C 
ATOM     34  H   UNL     1       5.364   9.376  10.412  1.00  0.00     0.163 HD
ATOM     35  O   UNL     1       5.149  11.789  10.589  1.00  0.00    -0.269 OA
BRANCH  33  36
ATOM     36  C   UNL     1       7.134  11.799  11.850  1.00  0.00     0.039 A 
ATOM     37  C   UNL     1       6.800  12.699  12.864  1.00  0.00     0.014 A 
ATOM     38  C   UNL     1       8.471  11.484  11.590  1.00  0.00     0.014 A 
ATOM     39  C   UNL     1       7.808  13.223  13.677  1.00  0.00     0.010 A 
ATOM     40  C   UNL     1       9.465  11.958  12.439  1.00  0.00     0.010 A 
ATOM     41  C   UNL     1       9.142  12.821  13.498  1.00  0.00    -0.014 A 
BRANCH  41  42
ATOM     42  C   UNL     1      10.213  13.259  14.427  1.00  0.00     0.031 A 
ATOM     43  C   UNL     1      11.344  14.113  13.926  1.00  0.00     0.074 A 
ATOM     44  C   UNL     1      10.217  12.805  15.697  1.00  0.00     0.049 A 
ATOM     45  N   UNL     1      12.425  14.501  14.551  1.00  0.00    -0.248 NA
ATOM     46  C   UNL     1      11.261  14.568  12.529  1.00  0.00     0.031 C 
ATOM     47  C   UNL     1       9.205  11.921  16.283  1.00  0.00     0.029 A 
ATOM     48  N   UNL     1      11.113  13.002  16.717  1.00  0.00    -0.354 N 
ATOM     49  C   UNL     1      13.162  15.223  13.621  1.00  0.00     0.074 A 
ATOM     50  C   UNL     1      12.422  15.191  12.378  1.00  0.00     0.031 C 
ATOM     51  C   UNL     1       9.536  11.658  17.558  1.00  0.00     0.029 A 
ATOM     52  C   UNL     1      10.797  12.322  17.870  1.00  0.00     0.049 A 
ATOM     53  H   UNL     1      11.908  13.577  16.631  1.00  0.00     0.167 HD
ATOM     54  C   UNL     1      14.339  15.869  13.794  1.00  0.00     0.037 A 
ATOM     55  C   UNL     1      11.457  12.229  19.041  1.00  0.00     0.037 A 
ATOM     56  C   UNL     1      15.053  15.927  15.043  1.00  0.00     0.049 A 
ATOM     57  C   UNL     1      12.753  12.973  19.213  1.00  0.00     0.074 A 
ATOM     58  C   UNL     1      16.210  16.625  15.341  1.00  0.00     0.029 A 
ATOM     59  N   UNL     1      14.679  15.260  16.201  1.00  0.00    -0.354 N 
ATOM     60  N   UNL     1      13.398  13.716  18.345  1.00  0.00    -0.248 NA
ATOM     61  C   UNL     1      13.410  12.870  20.524  1.00  0.00     0.031 C 
ATOM     62  C   UNL     1      16.557  16.350  16.668  1.00  0.00     0.029 A 
ATOM     63  C   UNL     1      15.595  15.513  17.209  1.00  0.00     0.049 A 
ATOM     64  H   UNL     1      13.881  14.691  16.293  1.00  0.00     0.167 HD
ATOM     65  C   UNL     1      14.526  14.183  19.009  1.00  0.00     0.074 A 
ATOM     66  C   UNL     1      14.468  13.653  20.356  1.00  0.00     0.031 C 
ATOM     67  C   UNL     1      15.520  14.980  18.546  1.00  0.00     0.037 A 
BRANCH  54  68
ATOM     68  C   UNL     1      14.930  16.573  12.606  1.00  0.00     0.058 A 
ATOM     69  C   UNL     1      14.374  17.760  12.103  1.00  0.00     0.135 A 
ATOM     70  C   UNL     1      16.090  16.080  11.988  1.00  0.00     0.135 A 
ATOM     71  F   UNL     1      13.256  18.266  12.647  1.00  0.00    -0.206 F 
ATOM     72  C   UNL     1      14.935  18.422  11.016  1.00  0.00     0.059 A 
ATOM     73  C   UNL     1      16.683  16.738  10.915  1.00  0.00     0.059 A 
ATOM     74  F   UNL     1      16.661  14.947  12.428  1.00  0.00    -0.206 F 
ATOM     75  C   UNL     1      16.090  17.902  10.428  1.00  0.00     0.060 A 
BRANCH  75  76
ATOM     76  S   UNL     1      16.813  18.780   9.026  1.00  0.00     0.124 S 
ATOM     77  O   UNL     1      15.881  18.438   7.957  1.00  0.00    -0.237 OA
ATOM     78  O   UNL     1      16.779  20.169   9.475  1.00  0.00    -0.237 OA
ATOM     79  O   UNL     1      18.145  18.195   8.909  1.00  0.00    -0.744 OA
ENDBRANCH  75  76
ENDBRANCH  54  68
BRANCH  55  80
ATOM     80  C   UNL     1      10.900  11.405  20.145  1.00  0.00     0.058 A 
ATOM     81  C   UNL     1      10.353  12.006  21.288  1.00  0.00     0.135 A 
ATOM     82  C   UNL     1      10.893  10.003  20.075  1.00  0.00     0.135 A 
ATOM     83  F   UNL     1      10.342  13.343  21.402  1.00  0.00    -0.206 F 
ATOM     84  C   UNL     1       9.834  11.248  22.332  1.00  0.00     0.059 A 
ATOM     85  C   UNL     1      10.360   9.224  21.096  1.00  0.00     0.059 A 
ATOM     86  F   UNL     1      11.389   9.381  18.994  1.00  0.00    -0.206 F 
ATOM     87  C   UNL     1       9.842   9.855  22.227  1.00  0.00     0.060 A 
BRANCH  87  88
ATOM     88  S   UNL     1       9.123   8.879  23.565  1.00  0.00     0.124 S 
ATOM     89  O   UNL     1      10.165   8.963  24.582  1.00  0.00    -0.237 OA
ATOM     90  O   UNL     1       7.891   9.609  23.851  1.00  0.00    -0.237 OA
ATOM     91  O   UNL     1       8.935   7.566  22.957  1.00  0.00    -0.744 OA
ENDBRANCH  87  88
ENDBRANCH  55  80
BRANCH  67  92
ATOM     92  C   UNL     1      16.616  15.345  19.506  1.00  0.00     0.058 A 
ATOM     93  C   UNL     1      17.606  14.422  19.876  1.00  0.00     0.135 A 
ATOM     94  C   UNL     1      16.706  16.648  20.021  1.00  0.00     0.135 A 
ATOM     95  F   UNL     1      17.560  13.162  19.417  1.00  0.00    -0.206 F 
ATOM     96  C   UNL     1      18.639  14.774  20.739  1.00  0.00     0.059 A 
ATOM     97  C   UNL     1      17.743  17.028  20.866  1.00  0.00     0.059 A 
ATOM     98  F   UNL     1      15.788  17.571  19.690  1.00  0.00    -0.206 F 
ATOM     99  C   UNL     1      18.700  16.080  21.228  1.00  0.00     0.060 A 
BRANCH  99 100
ATOM    100  S   UNL     1      20.065  16.536  22.318  1.00  0.00     0.124 S 
ATOM    101  O   UNL     1      19.655  15.919  23.575  1.00  0.00    -0.237 OA
ATOM    102  O   UNL     1      21.213  15.924  21.656  1.00  0.00    -0.237 OA
ATOM    103  O   UNL     1      20.042  17.995  22.297  1.00  0.00    -0.744 OA
ENDBRANCH  99 100
ENDBRANCH  67  92
ENDBRANCH  41  42
ENDBRANCH  33  36
ENDBRANCH  31  32
ENDBRANCH  30  31
ENDBRANCH  29  30
ENDBRANCH   1  29
TORSDOF 20
