REMARK SMILES Cc1ncc(CO)c([C@H]2[NH2+][C@@H](C(=O)NCCCCNC(=O)c3ccc(-c4c5nc(c(-c6c(F)cc(S(=O)(=O)[O-])cc6F)c6ccc([nH]6)c(-c6c(F)cc(S(=O)(=O)[O-])cc6F)c6nc(c(-c7c(F)cc(S(=O)(=O)[O-])cc7F)c7ccc4[nH]7)C=C6)C=C5)cc3)Cc3[nH]cnc32)c1O
REMARK SMILES IDX 16 1 15 2 14 3 12 4 13 5 11 7 9 8 10 9 93 10 89 13 92 14
REMARK SMILES IDX 88 15 90 16 91 17 8 19 1 20 2 21 3 22 94 23 4 24 5 25 95 26
REMARK SMILES IDX 6 28 7 29 17 31 18 32 19 33 20 34 21 36 22 37 23 38 87 39
REMARK SMILES IDX 24 40 86 41 25 42 26 43 27 44 80 45 28 46 85 47 79 48 81 49
REMARK SMILES IDX 29 50 84 51 78 52 77 53 30 55 64 56 43 57 63 58 44 59 47 60
REMARK SMILES IDX 62 61 82 62 45 63 46 64 61 66 83 67 48 68 31 69 32 70 41 71
REMARK SMILES IDX 33 72 34 73 40 74 42 75 35 76 36 77 37 78 38 79 39 80 65 81
REMARK SMILES IDX 66 82 75 83 67 84 68 85 74 86 76 87 69 88 70 89 71 90 72 91
REMARK SMILES IDX 73 92 49 93 50 94 59 95 51 96 52 97 58 98 60 99 53 100
REMARK SMILES IDX 54 101 55 102 56 103 57 104
REMARK H PARENT 14 6 10 11 10 12 90 18 95 27 7 30 19 35 81 54 47 65
REMARK Flexibility Score: inf
ROOT
ATOM      1  C   UNL     1      -5.386   2.383   0.350  1.00  0.00     0.023 C 
ENDROOT
BRANCH   1   2
ATOM      2  C   UNL     1      -4.888   3.747   0.835  1.00  0.00     0.116 C 
BRANCH   2   3
ATOM      3  N   UNL     1      -4.189   3.683   2.108  1.00  0.00    -0.351 N 
ATOM      4  C   UNL     1      -2.864   3.873   2.408  1.00  0.00     0.278 C 
ATOM      5  O   UNL     1      -2.521   3.817   3.588  1.00  0.00    -0.268 OA
ATOM      6  H   UNL     1      -4.760   3.469   2.882  1.00  0.00     0.163 HD
BRANCH   4   7
ATOM      7  C   UNL     1      -1.864   4.041   1.260  1.00  0.00     0.279 C 
ATOM      8  C   UNL     1      -0.214   2.849  -0.013  1.00  0.00     0.270 C 
ATOM      9  N   UNL     1      -0.846   2.957   1.321  1.00  0.00    -0.324 N 
ATOM     10  C   UNL     1       0.472   4.151  -0.311  1.00  0.00     0.124 A 
ATOM     11  H   UNL     1      -0.140   3.183   2.021  1.00  0.00     0.347 HD
ATOM     12  H   UNL     1      -1.284   2.073   1.578  1.00  0.00     0.347 HD
ATOM     13  C   UNL     1      -0.046   5.334   0.212  1.00  0.00     0.051 A 
ATOM     14  N   UNL     1       1.330   4.442  -1.344  1.00  0.00    -0.235 NA
ATOM     15  C   UNL     1      -1.170   5.426   1.209  1.00  0.00     0.131 C 
ATOM     16  N   UNL     1       0.566   6.349  -0.455  1.00  0.00    -0.348 N 
ATOM     17  C   UNL     1       1.384   5.761  -1.387  1.00  0.00     0.197 A 
ATOM     18  H   UNL     1       0.446   7.314  -0.300  1.00  0.00     0.167 HD
BRANCH   8  19
ATOM     19  C   UNL     1       0.423   1.492  -0.169  1.00  0.00     0.066 A 
ATOM     20  C   UNL     1      -1.123  -2.038  -0.141  1.00  0.00     0.071 C 
ATOM     21  C   UNL     1      -0.122  -0.920  -0.206  1.00  0.00     0.079 A 
ATOM     22  N   UNL     1       1.179  -1.263  -0.190  1.00  0.00    -0.257 NA
ATOM     23  C   UNL     1      -0.521   0.414  -0.237  1.00  0.00     0.146 A 
ATOM     24  C   UNL     1       2.074  -0.247  -0.129  1.00  0.00     0.118 A 
ATOM     25  C   UNL     1       1.775   1.128  -0.081  1.00  0.00     0.009 A 
BRANCH  23  26
ATOM     26  O   UNL     1      -1.882   0.640  -0.225  1.00  0.00    -0.505 OA
ATOM     27  H   UNL     1      -2.477  -0.082  -0.271  1.00  0.00     0.293 HD
ENDBRANCH  23  26
BRANCH  25  28
ATOM     28  C   UNL     1       2.943   2.057   0.084  1.00  0.00     0.194 C 
BRANCH  28  29
ATOM     29  O   UNL     1       3.714   1.651   1.216  1.00  0.00    -0.392 OA
ATOM     30  H   UNL     1       3.160   1.680   2.012  1.00  0.00     0.211 HD
ENDBRANCH  28  29
ENDBRANCH  25  28
ENDBRANCH   8  19
ENDBRANCH   4   7
ENDBRANCH   2   3
ENDBRANCH   1   2
BRANCH   1  31
ATOM     31  C   UNL     1      -6.481   1.729   1.206  1.00  0.00     0.023 C 
BRANCH  31  32
ATOM     32  C   UNL     1      -7.746   2.561   1.382  1.00  0.00     0.116 C 
BRANCH  32  33
ATOM     33  N   UNL     1      -8.455   2.804   0.126  1.00  0.00    -0.352 N 
ATOM     34  C   UNL     1      -9.543   3.635  -0.081  1.00  0.00     0.251 C 
ATOM     35  H   UNL     1      -8.120   2.320  -0.663  1.00  0.00     0.163 HD
ATOM     36  O   UNL     1     -10.288   3.470  -1.036  1.00  0.00    -0.269 OA
BRANCH  34  37
ATOM     37  C   UNL     1      -9.774   4.734   0.875  1.00  0.00     0.039 A 
ATOM     38  C   UNL     1     -11.043   5.008   1.390  1.00  0.00     0.014 A 
ATOM     39  C   UNL     1      -8.663   5.459   1.292  1.00  0.00     0.014 A 
ATOM     40  C   UNL     1     -11.166   5.960   2.402  1.00  0.00     0.010 A 
ATOM     41  C   UNL     1      -8.761   6.282   2.384  1.00  0.00     0.010 A 
ATOM     42  C   UNL     1     -10.014   6.578   2.913  1.00  0.00    -0.014 A 
BRANCH  42  43
ATOM     43  C   UNL     1     -10.082   7.458   4.078  1.00  0.00     0.031 A 
ATOM     44  C   UNL     1     -10.677   6.845   5.303  1.00  0.00     0.074 A 
ATOM     45  C   UNL     1      -9.416   8.633   4.130  1.00  0.00     0.049 A 
ATOM     46  N   UNL     1     -11.758   7.187   5.924  1.00  0.00    -0.248 NA
ATOM     47  C   UNL     1     -10.057   5.619   5.834  1.00  0.00     0.031 C 
ATOM     48  C   UNL     1      -8.507   9.204   3.126  1.00  0.00     0.029 A 
ATOM     49  N   UNL     1      -9.302   9.513   5.160  1.00  0.00    -0.354 N 
ATOM     50  C   UNL     1     -11.832   6.369   7.052  1.00  0.00     0.074 A 
ATOM     51  C   UNL     1     -10.881   5.310   6.838  1.00  0.00     0.031 C 
ATOM     52  C   UNL     1      -7.754  10.170   3.695  1.00  0.00     0.029 A 
ATOM     53  C   UNL     1      -8.248  10.412   5.036  1.00  0.00     0.049 A 
ATOM     54  H   UNL     1      -9.915   9.513   5.931  1.00  0.00     0.167 HD
ATOM     55  C   UNL     1     -12.495   6.762   8.178  1.00  0.00     0.037 A 
ATOM     56  C   UNL     1      -7.790  11.270   5.982  1.00  0.00     0.037 A 
ATOM     57  C   UNL     1     -13.354   7.888   7.905  1.00  0.00     0.049 A 
ATOM     58  C   UNL     1      -8.878  11.434   6.980  1.00  0.00     0.074 A 
ATOM     59  C   UNL     1     -14.411   8.118   7.046  1.00  0.00     0.029 A 
ATOM     60  N   UNL     1     -12.922   9.130   8.306  1.00  0.00    -0.354 N 
ATOM     61  N   UNL     1     -10.030  11.991   6.715  1.00  0.00    -0.248 NA
ATOM     62  C   UNL     1      -8.864  10.561   8.143  1.00  0.00     0.031 C 
ATOM     63  C   UNL     1     -14.226   9.456   6.590  1.00  0.00     0.029 A 
ATOM     64  C   UNL     1     -13.118   9.987   7.253  1.00  0.00     0.049 A 
ATOM     65  H   UNL     1     -12.544   9.361   9.184  1.00  0.00     0.167 HD
ATOM     66  C   UNL     1     -10.963  11.221   7.394  1.00  0.00     0.074 A 
ATOM     67  C   UNL     1     -10.179  10.414   8.327  1.00  0.00     0.031 C 
ATOM     68  C   UNL     1     -12.247  11.100   6.943  1.00  0.00     0.037 A 
BRANCH  55  69
ATOM     69  C   UNL     1     -12.106   6.388   9.594  1.00  0.00     0.058 A 
ATOM     70  C   UNL     1     -12.953   6.757  10.662  1.00  0.00     0.135 A 
ATOM     71  C   UNL     1     -10.817   5.949   9.971  1.00  0.00     0.135 A 
ATOM     72  F   UNL     1     -14.202   7.189  10.428  1.00  0.00    -0.206 F 
ATOM     73  C   UNL     1     -12.522   6.777  11.990  1.00  0.00     0.059 A 
ATOM     74  C   UNL     1     -10.386   5.907  11.293  1.00  0.00     0.059 A 
ATOM     75  F   UNL     1      -9.876   5.633   9.074  1.00  0.00    -0.206 F 
ATOM     76  C   UNL     1     -11.227   6.368  12.291  1.00  0.00     0.060 A 
BRANCH  76  77
ATOM     77  S   UNL     1     -10.624   6.508  13.983  1.00  0.00     0.124 S 
ATOM     78  O   UNL     1     -10.530   7.955  14.137  1.00  0.00    -0.237 OA
ATOM     79  O   UNL     1     -11.686   5.851  14.738  1.00  0.00    -0.237 OA
ATOM     80  O   UNL     1      -9.353   5.791  13.945  1.00  0.00    -0.744 OA
ENDBRANCH  76  77
ENDBRANCH  55  69
BRANCH  56  81
ATOM     81  C   UNL     1      -6.384  11.681   6.237  1.00  0.00     0.058 A 
ATOM     82  C   UNL     1      -6.079  12.787   7.050  1.00  0.00     0.135 A 
ATOM     83  C   UNL     1      -5.303  10.836   5.909  1.00  0.00     0.135 A 
ATOM     84  F   UNL     1      -7.050  13.631   7.429  1.00  0.00    -0.206 F 
ATOM     85  C   UNL     1      -4.789  13.018   7.543  1.00  0.00     0.059 A 
ATOM     86  C   UNL     1      -4.008  11.051   6.381  1.00  0.00     0.059 A 
ATOM     87  F   UNL     1      -5.492   9.721   5.187  1.00  0.00    -0.206 F 
ATOM     88  C   UNL     1      -3.762  12.132   7.217  1.00  0.00     0.060 A 
BRANCH  88  89
ATOM     89  S   UNL     1      -2.133  12.336   7.977  1.00  0.00     0.124 S 
ATOM     90  O   UNL     1      -1.655  13.559   7.341  1.00  0.00    -0.237 OA
ATOM     91  O   UNL     1      -2.464  12.439   9.394  1.00  0.00    -0.237 OA
ATOM     92  O   UNL     1      -1.426  11.117   7.591  1.00  0.00    -0.744 OA
ENDBRANCH  88  89
ENDBRANCH  56  81
BRANCH  68  93
ATOM     93  C   UNL     1     -12.733  12.049   5.877  1.00  0.00     0.058 A 
ATOM     94  C   UNL     1     -12.234  12.102   4.564  1.00  0.00     0.135 A 
ATOM     95  C   UNL     1     -13.877  12.812   6.156  1.00  0.00     0.135 A 
ATOM     96  F   UNL     1     -11.207  11.331   4.182  1.00  0.00    -0.206 F 
ATOM     97  C   UNL     1     -12.827  12.901   3.583  1.00  0.00     0.059 A 
ATOM     98  C   UNL     1     -14.503  13.591   5.187  1.00  0.00     0.059 A 
ATOM     99  F   UNL     1     -14.439  12.759   7.375  1.00  0.00    -0.206 F 
ATOM    100  C   UNL     1     -13.966  13.638   3.903  1.00  0.00     0.060 A 
BRANCH 100 101
ATOM    101  S   UNL     1     -14.785  14.600   2.613  1.00  0.00     0.124 S 
ATOM    102  O   UNL     1     -13.847  15.698   2.406  1.00  0.00    -0.237 OA
ATOM    103  O   UNL     1     -14.889  13.640   1.518  1.00  0.00    -0.237 OA
ATOM    104  O   UNL     1     -16.059  14.975   3.223  1.00  0.00    -0.744 OA
ENDBRANCH 100 101
ENDBRANCH  68  93
ENDBRANCH  42  43
ENDBRANCH  34  37
ENDBRANCH  32  33
ENDBRANCH  31  32
ENDBRANCH   1  31
TORSDOF 18
