REMARK SMILES O=C(NCCCCNC(=O)c1nnn(-c2cccc(Br)c2)c1[C@H]1COc2ccccc2O1)c1ccc(-c2c3nc(c(-c4c(F)cc(S(=O)(=O)[O-])cc4F)c4ccc([nH]4)c(-c4c(F)cc(S(=O)(=O)[O-])cc4F)c4nc(c(-c5c(F)cc(S(=O)(=O)[O-])cc5F)c5ccc2[nH]5)C=C4)C=C3)cc1
REMARK SMILES IDX 4 1 3 2 1 3 2 4 33 6 34 7 98 8 35 9 97 10 36 11 37 12 38 13
REMARK SMILES IDX 91 14 39 15 96 16 90 17 92 18 40 19 95 20 89 21 88 22 41 24
REMARK SMILES IDX 75 25 54 26 74 27 55 28 58 29 73 30 93 31 56 32 57 33 72 35
REMARK SMILES IDX 94 36 59 37 42 38 43 39 52 40 44 41 45 42 51 43 53 44 46 45
REMARK SMILES IDX 47 46 48 47 49 48 50 49 76 50 77 51 86 52 78 53 79 54 85 55
REMARK SMILES IDX 87 56 80 57 81 58 82 59 83 60 84 61 60 62 61 63 70 64 62 65
REMARK SMILES IDX 63 66 69 67 71 68 64 69 65 70 66 71 67 72 68 73 5 74 6 75
REMARK SMILES IDX 7 76 8 77 9 78 10 80 11 81 12 82 22 83 13 84 14 85 23 86
REMARK SMILES IDX 24 87 32 88 25 89 31 90 26 91 30 92 27 93 29 94 28 95 15 96
REMARK SMILES IDX 16 97 21 98 17 99 19 100 18 101 20 102
REMARK H PARENT 3 5 92 23 58 34 8 79
REMARK Flexibility Score: inf
ROOT
ATOM      1  C   UNL     1       4.684   0.823   0.601  1.00  0.00     0.116 C 
ENDROOT
BRANCH   1   2
ATOM      2  N   UNL     1       3.280   0.500   0.752  1.00  0.00    -0.352 N 
ATOM      3  O   UNL     1       1.244  -0.289   0.420  1.00  0.00    -0.269 OA
ATOM      4  C   UNL     1       2.292   0.096  -0.106  1.00  0.00     0.251 C 
ATOM      5  H   UNL     1       2.965   0.592   1.680  1.00  0.00     0.163 HD
BRANCH   4   6
ATOM      6  C   UNL     1       2.368   0.168  -1.591  1.00  0.00     0.039 A 
ATOM      7  C   UNL     1       3.538   0.258  -2.346  1.00  0.00     0.014 A 
ATOM      8  C   UNL     1       1.132   0.161  -2.266  1.00  0.00     0.014 A 
ATOM      9  C   UNL     1       3.471   0.446  -3.726  1.00  0.00     0.010 A 
ATOM     10  C   UNL     1       1.060   0.332  -3.644  1.00  0.00     0.010 A 
ATOM     11  C   UNL     1       2.231   0.515  -4.371  1.00  0.00    -0.014 A 
BRANCH  11  12
ATOM     12  C   UNL     1       2.204   0.567  -5.835  1.00  0.00     0.031 A 
ATOM     13  C   UNL     1       2.782  -0.653  -6.481  1.00  0.00     0.074 A 
ATOM     14  C   UNL     1       1.575   1.527  -6.548  1.00  0.00     0.049 A 
ATOM     15  N   UNL     1       3.808  -0.738  -7.264  1.00  0.00    -0.248 NA
ATOM     16  C   UNL     1       2.231  -1.963  -6.086  1.00  0.00     0.031 C 
ATOM     17  C   UNL     1       0.735   2.618  -6.047  1.00  0.00     0.029 A 
ATOM     18  N   UNL     1       1.480   1.681  -7.901  1.00  0.00    -0.354 N 
ATOM     19  C   UNL     1       3.896  -2.079  -7.637  1.00  0.00     0.074 A 
ATOM     20  C   UNL     1       3.017  -2.804  -6.758  1.00  0.00     0.031 C 
ATOM     21  C   UNL     1       0.044   3.166  -7.075  1.00  0.00     0.029 A 
ATOM     22  C   UNL     1       0.485   2.563  -8.321  1.00  0.00     0.049 A 
ATOM     23  H   UNL     1       2.069   1.206  -8.531  1.00  0.00     0.167 HD
ATOM     24  C   UNL     1       4.514  -2.467  -8.787  1.00  0.00     0.037 A 
ATOM     25  C   UNL     1       0.028   2.745  -9.592  1.00  0.00     0.037 A 
ATOM     26  C   UNL     1       5.404  -1.447  -9.274  1.00  0.00     0.049 A 
ATOM     27  C   UNL     1       1.072   2.221 -10.510  1.00  0.00     0.074 A 
ATOM     28  C   UNL     1       6.524  -0.819  -8.765  1.00  0.00     0.029 A 
ATOM     29  N   UNL     1       4.966  -0.649 -10.302  1.00  0.00    -0.354 N 
ATOM     30  N   UNL     1       2.255   2.755 -10.642  1.00  0.00    -0.248 NA
ATOM     31  C   UNL     1       0.964   0.829 -10.916  1.00  0.00     0.031 C 
ATOM     32  C   UNL     1       6.392   0.543  -9.162  1.00  0.00     0.029 A 
ATOM     33  C   UNL     1       5.249   0.649  -9.955  1.00  0.00     0.049 A 
ATOM     34  H   UNL     1       4.531  -0.950 -11.131  1.00  0.00     0.167 HD
ATOM     35  C   UNL     1       3.121   1.675 -10.721  1.00  0.00     0.074 A 
ATOM     36  C   UNL     1       2.261   0.514 -10.946  1.00  0.00     0.031 C 
ATOM     37  C   UNL     1       4.423   1.778 -10.320  1.00  0.00     0.037 A 
BRANCH  24  38
ATOM     38  C   UNL     1       4.047  -3.621  -9.644  1.00  0.00     0.058 A 
ATOM     39  C   UNL     1       4.847  -4.076 -10.712  1.00  0.00     0.135 A 
ATOM     40  C   UNL     1       2.724  -4.119  -9.623  1.00  0.00     0.135 A 
ATOM     41  F   UNL     1       6.112  -3.647 -10.849  1.00  0.00    -0.206 F 
ATOM     42  C   UNL     1       4.356  -4.926 -11.706  1.00  0.00     0.059 A 
ATOM     43  C   UNL     1       2.231  -5.007 -10.572  1.00  0.00     0.059 A 
ATOM     44  F   UNL     1       1.818  -3.695  -8.734  1.00  0.00    -0.206 F 
ATOM     45  C   UNL     1       3.042  -5.380 -11.629  1.00  0.00     0.060 A 
BRANCH  45  46
ATOM     46  S   UNL     1       2.385  -6.426 -12.941  1.00  0.00     0.124 S 
ATOM     47  O   UNL     1       2.341  -5.495 -14.063  1.00  0.00    -0.237 OA
ATOM     48  O   UNL     1       3.393  -7.478 -13.021  1.00  0.00    -0.237 OA
ATOM     49  O   UNL     1       1.089  -6.848 -12.417  1.00  0.00    -0.744 OA
ENDBRANCH  45  46
ENDBRANCH  24  38
BRANCH  25  50
ATOM     50  C   UNL     1      -1.375   2.974 -10.052  1.00  0.00     0.058 A 
ATOM     51  C   UNL     1      -1.670   3.345 -11.380  1.00  0.00     0.135 A 
ATOM     52  C   UNL     1      -2.472   2.541  -9.281  1.00  0.00     0.135 A 
ATOM     53  F   UNL     1      -0.688   3.747 -12.201  1.00  0.00    -0.206 F 
ATOM     54  C   UNL     1      -2.962   3.246 -11.921  1.00  0.00     0.059 A 
ATOM     55  C   UNL     1      -3.766   2.440  -9.795  1.00  0.00     0.059 A 
ATOM     56  F   UNL     1      -2.302   2.107  -8.023  1.00  0.00    -0.206 F 
ATOM     57  C   UNL     1      -4.002   2.771 -11.123  1.00  0.00     0.060 A 
BRANCH  57  58
ATOM     58  S   UNL     1      -5.631   2.470 -11.855  1.00  0.00     0.124 S 
ATOM     59  O   UNL     1      -6.105   3.826 -12.109  1.00  0.00    -0.237 OA
ATOM     60  O   UNL     1      -5.301   1.678 -13.035  1.00  0.00    -0.237 OA
ATOM     61  O   UNL     1      -6.346   1.748 -10.805  1.00  0.00    -0.744 OA
ENDBRANCH  57  58
ENDBRANCH  25  50
BRANCH  37  62
ATOM     62  C   UNL     1       4.981   3.151 -10.039  1.00  0.00     0.058 A 
ATOM     63  C   UNL     1       4.525   4.012  -9.023  1.00  0.00     0.135 A 
ATOM     64  C   UNL     1       6.133   3.544 -10.736  1.00  0.00     0.135 A 
ATOM     65  F   UNL     1       3.494   3.669  -8.239  1.00  0.00    -0.206 F 
ATOM     66  C   UNL     1       5.162   5.224  -8.743  1.00  0.00     0.059 A 
ATOM     67  C   UNL     1       6.803   4.731 -10.452  1.00  0.00     0.059 A 
ATOM     68  F   UNL     1       6.656   2.741 -11.677  1.00  0.00    -0.206 F 
ATOM     69  C   UNL     1       6.304   5.574  -9.463  1.00  0.00     0.060 A 
BRANCH  69  70
ATOM     70  S   UNL     1       7.172   7.105  -9.056  1.00  0.00     0.124 S 
ATOM     71  O   UNL     1       6.241   8.122  -9.533  1.00  0.00    -0.237 OA
ATOM     72  O   UNL     1       7.321   7.010  -7.607  1.00  0.00    -0.237 OA
ATOM     73  O   UNL     1       8.420   7.000  -9.810  1.00  0.00    -0.744 OA
ENDBRANCH  69  70
ENDBRANCH  37  62
ENDBRANCH  11  12
ENDBRANCH   4   6
ENDBRANCH   1   2
BRANCH   1  74
ATOM     74  C   UNL     1       4.981   2.251   0.139  1.00  0.00     0.023 C 
BRANCH  74  75
ATOM     75  C   UNL     1       4.424   3.366   1.031  1.00  0.00     0.023 C 
BRANCH  75  76
ATOM     76  C   UNL     1       4.877   3.325   2.483  1.00  0.00     0.116 C 
BRANCH  76  77
ATOM     77  N   UNL     1       6.289   3.659   2.648  1.00  0.00    -0.351 N 
ATOM     78  C   UNL     1       6.858   4.446   3.631  1.00  0.00     0.273 C 
ATOM     79  H   UNL     1       6.907   3.279   1.983  1.00  0.00     0.163 HD
ATOM     80  O   UNL     1       8.079   4.609   3.667  1.00  0.00    -0.267 OA
BRANCH  78  81
ATOM     81  C   UNL     1       5.979   4.928   4.687  1.00  0.00     0.178 A 
ATOM     82  N   UNL     1       5.583   6.218   4.807  1.00  0.00    -0.124 NA
ATOM     83  C   UNL     1       5.359   4.133   5.658  1.00  0.00     0.122 A 
ATOM     84  N   UNL     1       4.652   6.257   5.742  1.00  0.00    -0.061 NA
ATOM     85  N   UNL     1       4.470   5.005   6.250  1.00  0.00    -0.213 N 
BRANCH  83  86
ATOM     86  C   UNL     1       5.612   2.674   5.766  1.00  0.00     0.262 C 
ATOM     87  C   UNL     1       6.668   2.186   6.734  1.00  0.00     0.281 C 
ATOM     88  O   UNL     1       4.483   1.785   5.812  1.00  0.00    -0.477 OA
ATOM     89  O   UNL     1       7.293   1.038   6.117  1.00  0.00    -0.485 OA
ATOM     90  C   UNL     1       4.990   0.542   5.395  1.00  0.00     0.162 A 
ATOM     91  C   UNL     1       6.377   0.258   5.436  1.00  0.00     0.161 A 
ATOM     92  C   UNL     1       4.123  -0.350   4.771  1.00  0.00     0.050 A 
ATOM     93  C   UNL     1       6.902  -0.786   4.678  1.00  0.00     0.050 A 
ATOM     94  C   UNL     1       4.654  -1.444   4.073  1.00  0.00     0.004 A 
ATOM     95  C   UNL     1       6.039  -1.629   3.983  1.00  0.00     0.004 A 
ENDBRANCH  83  86
BRANCH  85  96
ATOM     96  C   UNL     1       3.423   4.810   7.175  1.00  0.00     0.068 A 
ATOM     97  C   UNL     1       3.509   3.869   8.199  1.00  0.00     0.028 A 
ATOM     98  C   UNL     1       2.265   5.598   7.031  1.00  0.00     0.044 A 
ATOM     99  C   UNL     1       2.421   3.696   9.060  1.00  0.00     0.003 A 
ATOM    100  C   UNL     1       1.170   5.376   7.859  1.00  0.00     0.020 A 
ATOM    101  C   UNL     1       1.244   4.428   8.875  1.00  0.00     0.016 A 
ATOM    102  Br  UNL     1      -0.435   6.331   7.569  1.00  0.00    -0.051 Br
ENDBRANCH  85  96
ENDBRANCH  78  81
ENDBRANCH  76  77
ENDBRANCH  75  76
ENDBRANCH  74  75
ENDBRANCH   1  74
TORSDOF 16
