REMARK SMILES COc1cc2cc(C(=O)NCCCCNC(=O)c3ccc(-c4c5nc(c(-c6c(F)cc(S(=O)(=O)[O-])cc6F)c6ccc([nH]6)c(-c6c(F)cc(S(=O)(=O)[O-])cc6F)c6nc(c(-c7c(F)cc(S(=O)(=O)[O-])cc7F)c7ccc4[nH]7)C=C6)C=C5)cc3)n(Cc3ccccc3)c2c(OC)c1OC
REMARK SMILES IDX 13 1 12 2 11 3 10 4 8 5 9 6 7 8 3 9 4 10 96 11 5 12 93 13
REMARK SMILES IDX 6 14 92 15 84 16 2 17 1 18 97 19 98 20 94 21 95 22 85 23
REMARK SMILES IDX 86 24 87 25 91 26 88 27 90 28 89 29 14 30 15 31 16 32 17 34
REMARK SMILES IDX 18 35 19 36 83 37 20 38 82 39 21 40 22 41 23 42 76 43 24 44
REMARK SMILES IDX 81 45 75 46 77 47 25 48 80 49 74 50 73 51 26 53 60 54 39 55
REMARK SMILES IDX 59 56 40 57 43 58 58 59 78 60 41 61 42 62 57 64 79 65 44 66
REMARK SMILES IDX 27 67 28 68 37 69 29 70 30 71 36 72 38 73 31 74 32 75 33 76
REMARK SMILES IDX 34 77 35 78 61 79 62 80 71 81 63 82 64 83 70 84 72 85 65 86
REMARK SMILES IDX 66 87 67 88 68 89 69 90 45 91 46 92 55 93 47 94 48 95 54 96
REMARK SMILES IDX 56 97 49 98 50 99 51 100 52 101 53 102
REMARK H PARENT 10 7 15 33 77 52 43 63
REMARK Flexibility Score: inf
ROOT
ATOM      1  C   UNL     1       3.378  10.061  -5.731  1.00  0.00     0.023 C 
ENDROOT
BRANCH   1   2
ATOM      2  C   UNL     1       3.385   8.714  -5.001  1.00  0.00     0.023 C 
BRANCH   2   3
ATOM      3  C   UNL     1       2.414   8.555  -3.831  1.00  0.00     0.116 C 
BRANCH   3   4
ATOM      4  N   UNL     1       1.102   8.153  -4.285  1.00  0.00    -0.351 N 
ATOM      5  C   UNL     1       0.341   7.022  -4.183  1.00  0.00     0.267 C 
ATOM      6  O   UNL     1      -0.824   7.189  -4.567  1.00  0.00    -0.268 OA
ATOM      7  H   UNL     1       0.646   8.866  -4.788  1.00  0.00     0.163 HD
BRANCH   5   8
ATOM      8  C   UNL     1       0.751   5.727  -3.640  1.00  0.00     0.108 A 
ATOM      9  C   UNL     1       0.846   1.588  -1.519  1.00  0.00     0.165 A 
ATOM     10  C   UNL     1      -0.063   2.478  -2.092  1.00  0.00     0.061 A 
ATOM     11  C   UNL     1       2.232   1.797  -1.593  1.00  0.00     0.205 A 
ATOM     12  C   UNL     1       0.422   3.650  -2.693  1.00  0.00     0.008 A 
ATOM     13  C   UNL     1       2.736   2.989  -2.162  1.00  0.00     0.189 A 
ATOM     14  C   UNL     1      -0.205   4.794  -3.228  1.00  0.00     0.042 A 
ATOM     15  C   UNL     1       1.792   3.872  -2.770  1.00  0.00     0.096 A 
ATOM     16  N   UNL     1       1.953   5.025  -3.570  1.00  0.00    -0.329 N 
BRANCH   9  17
ATOM     17  O   UNL     1       0.303   0.528  -0.830  1.00  0.00    -0.493 OA
ATOM     18  C   UNL     1       0.417   0.757   0.579  1.00  0.00     0.278 C 
ENDBRANCH   9  17
BRANCH  11  19
ATOM     19  O   UNL     1       3.103   0.903  -1.010  1.00  0.00    -0.490 OA
ATOM     20  C   UNL     1       2.953  -0.443  -1.466  1.00  0.00     0.278 C 
ENDBRANCH  11  19
BRANCH  13  21
ATOM     21  O   UNL     1       4.032   3.422  -2.138  1.00  0.00    -0.491 OA
ATOM     22  C   UNL     1       5.053   2.612  -1.582  1.00  0.00     0.278 C 
ENDBRANCH  13  21
BRANCH  16  23
ATOM     23  C   UNL     1       3.231   5.308  -4.224  1.00  0.00     0.158 C 
BRANCH  23  24
ATOM     24  C   UNL     1       3.296   5.469  -5.724  1.00  0.00    -0.028 A 
ATOM     25  C   UNL     1       2.209   5.646  -6.586  1.00  0.00     0.005 A 
ATOM     26  C   UNL     1       4.596   5.545  -6.272  1.00  0.00     0.005 A 
ATOM     27  C   UNL     1       2.417   5.988  -7.927  1.00  0.00     0.000 A 
ATOM     28  C   UNL     1       4.801   5.855  -7.614  1.00  0.00     0.000 A 
ATOM     29  C   UNL     1       3.709   6.101  -8.437  1.00  0.00     0.000 A 
ENDBRANCH  23  24
ENDBRANCH  16  23
ENDBRANCH   5   8
ENDBRANCH   3   4
ENDBRANCH   2   3
ENDBRANCH   1   2
BRANCH   1  30
ATOM     30  C   UNL     1       3.900  11.243  -4.918  1.00  0.00     0.116 C 
BRANCH  30  31
ATOM     31  N   UNL     1       5.174  10.983  -4.279  1.00  0.00    -0.352 N 
ATOM     32  C   UNL     1       6.483  11.203  -4.604  1.00  0.00     0.251 C 
ATOM     33  H   UNL     1       5.073  10.546  -3.403  1.00  0.00     0.163 HD
ATOM     34  O   UNL     1       7.300  10.954  -3.712  1.00  0.00    -0.269 OA
BRANCH  32  35
ATOM     35  C   UNL     1       6.988  11.666  -5.926  1.00  0.00     0.039 A 
ATOM     36  C   UNL     1       6.232  11.761  -7.092  1.00  0.00     0.014 A 
ATOM     37  C   UNL     1       8.371  11.929  -6.002  1.00  0.00     0.014 A 
ATOM     38  C   UNL     1       6.855  12.014  -8.312  1.00  0.00     0.010 A 
ATOM     39  C   UNL     1       8.995  12.203  -7.216  1.00  0.00     0.010 A 
ATOM     40  C   UNL     1       8.242  12.194  -8.383  1.00  0.00    -0.014 A 
BRANCH  40  41
ATOM     41  C   UNL     1       8.829  12.443  -9.699  1.00  0.00     0.031 A 
ATOM     42  C   UNL     1       8.240  13.600 -10.432  1.00  0.00     0.074 A 
ATOM     43  C   UNL     1       9.849  11.740 -10.235  1.00  0.00     0.049 A 
ATOM     44  N   UNL     1       7.486  13.569 -11.482  1.00  0.00    -0.248 NA
ATOM     45  C   UNL     1       8.384  14.938  -9.841  1.00  0.00     0.031 C 
ATOM     46  C   UNL     1      10.709  10.737  -9.603  1.00  0.00     0.029 A 
ATOM     47  N   UNL     1      10.372  11.837 -11.492  1.00  0.00    -0.354 N 
ATOM     48  C   UNL     1       7.215  14.897 -11.808  1.00  0.00     0.074 A 
ATOM     49  C   UNL     1       7.665  15.680 -10.686  1.00  0.00     0.031 C 
ATOM     50  C   UNL     1      11.768  10.482 -10.407  1.00  0.00     0.029 A 
ATOM     51  C   UNL     1      11.585  11.182 -11.667  1.00  0.00     0.049 A 
ATOM     52  H   UNL     1       9.925  12.331 -12.217  1.00  0.00     0.167 HD
ATOM     53  C   UNL     1       6.813  15.258 -13.059  1.00  0.00     0.037 A 
ATOM     54  C   UNL     1      12.390  11.240 -12.759  1.00  0.00     0.037 A 
ATOM     55  C   UNL     1       6.339  14.117 -13.804  1.00  0.00     0.049 A 
ATOM     56  C   UNL     1      11.534  11.624 -13.910  1.00  0.00     0.074 A 
ATOM     57  C   UNL     1       5.300  13.218 -13.663  1.00  0.00     0.029 A 
ATOM     58  N   UNL     1       7.188  13.558 -14.727  1.00  0.00    -0.354 N 
ATOM     59  N   UNL     1      10.595  10.863 -14.401  1.00  0.00    -0.248 NA
ATOM     60  C   UNL     1      11.424  13.038 -14.234  1.00  0.00     0.031 C 
ATOM     61  C   UNL     1       5.822  11.974 -14.127  1.00  0.00     0.029 A 
ATOM     62  C   UNL     1       7.127  12.199 -14.564  1.00  0.00     0.049 A 
ATOM     63  H   UNL     1       7.738  14.044 -15.384  1.00  0.00     0.167 HD
ATOM     64  C   UNL     1       9.563  11.733 -14.722  1.00  0.00     0.074 A 
ATOM     65  C   UNL     1      10.165  13.065 -14.678  1.00  0.00     0.031 C 
ATOM     66  C   UNL     1       8.262  11.319 -14.729  1.00  0.00     0.037 A 
BRANCH  53  67
ATOM     67  C   UNL     1       7.185  16.554 -13.749  1.00  0.00     0.058 A 
ATOM     68  C   UNL     1       6.656  16.823 -15.031  1.00  0.00     0.135 A 
ATOM     69  C   UNL     1       8.268  17.371 -13.359  1.00  0.00     0.135 A 
ATOM     70  F   UNL     1       5.604  16.131 -15.498  1.00  0.00    -0.206 F 
ATOM     71  C   UNL     1       7.242  17.736 -15.907  1.00  0.00     0.059 A 
ATOM     72  C   UNL     1       8.836  18.323 -14.198  1.00  0.00     0.059 A 
ATOM     73  F   UNL     1       8.893  17.223 -12.186  1.00  0.00    -0.206 F 
ATOM     74  C   UNL     1       8.354  18.459 -15.489  1.00  0.00     0.060 A 
BRANCH  74  75
ATOM     75  S   UNL     1       9.216  19.513 -16.668  1.00  0.00     0.124 S 
ATOM     76  O   UNL     1       9.757  18.524 -17.595  1.00  0.00    -0.237 OA
ATOM     77  O   UNL     1       8.130  20.343 -17.180  1.00  0.00    -0.237 OA
ATOM     78  O   UNL     1      10.195  20.209 -15.842  1.00  0.00    -0.744 OA
ENDBRANCH  74  75
ENDBRANCH  53  67
BRANCH  54  79
ATOM     79  C   UNL     1      13.874  11.371 -12.791  1.00  0.00     0.058 A 
ATOM     80  C   UNL     1      14.592  11.257 -13.997  1.00  0.00     0.135 A 
ATOM     81  C   UNL     1      14.584  11.911 -11.699  1.00  0.00     0.135 A 
ATOM     82  F   UNL     1      13.993  10.770 -15.095  1.00  0.00    -0.206 F 
ATOM     83  C   UNL     1      15.912  11.705 -14.128  1.00  0.00     0.059 A 
ATOM     84  C   UNL     1      15.901  12.357 -11.804  1.00  0.00     0.059 A 
ATOM     85  F   UNL     1      13.985  12.109 -10.516  1.00  0.00    -0.206 F 
ATOM     86  C   UNL     1      16.551  12.278 -13.029  1.00  0.00     0.060 A 
BRANCH  86  87
ATOM     87  S   UNL     1      18.189  13.019 -13.235  1.00  0.00     0.124 S 
ATOM     88  O   UNL     1      19.019  11.850 -13.503  1.00  0.00    -0.237 OA
ATOM     89  O   UNL     1      17.978  13.923 -14.361  1.00  0.00    -0.237 OA
ATOM     90  O   UNL     1      18.429  13.674 -11.952  1.00  0.00    -0.744 OA
ENDBRANCH  86  87
ENDBRANCH  54  79
BRANCH  66  91
ATOM     91  C   UNL     1       7.986   9.839 -14.670  1.00  0.00     0.058 A 
ATOM     92  C   UNL     1       8.297   9.019 -13.571  1.00  0.00     0.135 A 
ATOM     93  C   UNL     1       7.238   9.263 -15.708  1.00  0.00     0.135 A 
ATOM     94  F   UNL     1       8.920   9.516 -12.493  1.00  0.00    -0.206 F 
ATOM     95  C   UNL     1       7.913   7.677 -13.524  1.00  0.00     0.059 A 
ATOM     96  C   UNL     1       6.818   7.936 -15.668  1.00  0.00     0.059 A 
ATOM     97  F   UNL     1       6.856  10.011 -16.756  1.00  0.00    -0.206 F 
ATOM     98  C   UNL     1       7.169   7.145 -14.577  1.00  0.00     0.060 A 
BRANCH  98  99
ATOM     99  S   UNL     1       6.602   5.434 -14.471  1.00  0.00     0.124 S 
ATOM    100  O   UNL     1       7.847   4.687 -14.599  1.00  0.00    -0.237 OA
ATOM    101  O   UNL     1       5.967   5.394 -13.158  1.00  0.00    -0.237 OA
ATOM    102  O   UNL     1       5.681   5.309 -15.602  1.00  0.00    -0.744 OA
ENDBRANCH  98  99
ENDBRANCH  66  91
ENDBRANCH  40  41
ENDBRANCH  32  35
ENDBRANCH  30  31
ENDBRANCH   1  30
TORSDOF 19
