REMARK SMILES CCCCS[C@@H]1CC[C@@]([NH2+]CC)(C(=O)NCCCCNC(=O)c2ccc(-c3c4nc(c(-c5c(F)cc(S(=O)(=O)[O-])cc5F)c5ccc([nH]5)c(-c5c(F)cc(S(=O)(=O)[O-])cc5F)c5nc(c(-c6c(F)cc(S(=O)(=O)[O-])cc6F)c6ccc3[nH]6)C=C5)C=C4)cc2)C1
REMARK SMILES IDX 17 1 16 2 15 3 13 4 14 5 9 7 6 8 7 9 89 10 8 11 5 12 4 13
REMARK SMILES IDX 3 14 2 15 1 16 10 17 11 20 12 21 18 22 19 23 20 24 21 25
REMARK SMILES IDX 22 27 23 28 24 29 88 30 25 31 87 32 26 33 27 34 28 35 81 36
REMARK SMILES IDX 29 37 86 38 80 39 82 40 30 41 85 42 79 43 78 44 31 46 65 47
REMARK SMILES IDX 44 48 64 49 45 50 48 51 63 52 83 53 46 54 47 55 62 57 84 58
REMARK SMILES IDX 49 59 32 60 33 61 42 62 34 63 35 64 41 65 43 66 36 67 37 68
REMARK SMILES IDX 38 69 39 70 40 71 66 72 67 73 76 74 68 75 69 76 75 77 77 78
REMARK SMILES IDX 70 79 71 80 72 81 73 82 74 83 50 84 51 85 60 86 52 87 53 88
REMARK SMILES IDX 59 89 61 90 54 91 55 92 56 93 57 94 58 95
REMARK H PARENT 15 6 10 18 10 19 20 26 82 45 48 56
REMARK Flexibility Score: inf
ROOT
ATOM      1  C   UNL     1      -4.914   3.032   2.576  1.00  0.00     0.023 C 
ENDROOT
BRANCH   1   2
ATOM      2  C   UNL     1      -3.837   3.438   1.575  1.00  0.00     0.116 C 
BRANCH   2   3
ATOM      3  N   UNL     1      -2.597   2.734   1.839  1.00  0.00    -0.351 N 
ATOM      4  C   UNL     1      -1.928   1.844   1.048  1.00  0.00     0.281 C 
ATOM      5  O   UNL     1      -0.933   1.294   1.528  1.00  0.00    -0.268 OA
ATOM      6  H   UNL     1      -2.179   2.924   2.709  1.00  0.00     0.163 HD
BRANCH   4   7
ATOM      7  C   UNL     1      -2.429   1.544  -0.399  1.00  0.00     0.176 C 
ATOM      8  C   UNL     1      -1.950  -0.812  -0.866  1.00  0.00     0.053 C 
ATOM      9  C   UNL     1      -3.468  -0.655  -0.884  1.00  0.00     0.022 C 
ATOM     10  C   UNL     1      -1.471   0.601  -1.133  1.00  0.00     0.093 C 
ATOM     11  C   UNL     1      -3.748   0.739  -0.316  1.00  0.00     0.080 C 
BRANCH   8  12
ATOM     12  S   UNL     1      -1.409  -1.949  -2.199  1.00  0.00    -0.158 SA
BRANCH  12  13
ATOM     13  C   UNL     1       0.293  -2.373  -1.684  1.00  0.00     0.070 C 
BRANCH  13  14
ATOM     14  C   UNL     1       1.425  -1.556  -2.322  1.00  0.00     0.011 C 
BRANCH  14  15
ATOM     15  C   UNL     1       1.771  -0.195  -1.717  1.00  0.00    -0.003 C 
ATOM     16  C   UNL     1       1.917  -0.177  -0.201  1.00  0.00     0.004 C 
ENDBRANCH  14  15
ENDBRANCH  13  14
ENDBRANCH  12  13
ENDBRANCH   8  12
BRANCH   7  17
ATOM     17  N   UNL     1      -2.599   2.801  -1.178  1.00  0.00    -0.334 N 
ATOM     18  H   UNL     1      -3.403   3.295  -0.793  1.00  0.00     0.347 HD
ATOM     19  H   UNL     1      -2.703   2.499  -2.147  1.00  0.00     0.347 HD
BRANCH  17  20
ATOM     20  C   UNL     1      -1.468   3.736  -1.190  1.00  0.00     0.257 C 
ATOM     21  C   UNL     1      -0.321   3.374  -2.123  1.00  0.00     0.071 C 
ENDBRANCH  17  20
ENDBRANCH   7  17
ENDBRANCH   4   7
ENDBRANCH   2   3
ENDBRANCH   1   2
BRANCH   1  22
ATOM     22  C   UNL     1      -4.590   3.393   4.024  1.00  0.00     0.023 C 
BRANCH  22  23
ATOM     23  C   UNL     1      -4.248   4.860   4.252  1.00  0.00     0.116 C 
BRANCH  23  24
ATOM     24  N   UNL     1      -5.311   5.751   3.810  1.00  0.00    -0.352 N 
ATOM     25  C   UNL     1      -5.927   6.764   4.500  1.00  0.00     0.251 C 
ATOM     26  H   UNL     1      -5.631   5.607   2.891  1.00  0.00     0.163 HD
ATOM     27  O   UNL     1      -6.934   7.298   4.040  1.00  0.00    -0.269 OA
BRANCH  25  28
ATOM     28  C   UNL     1      -5.384   7.189   5.806  1.00  0.00     0.039 A 
ATOM     29  C   UNL     1      -6.261   7.369   6.877  1.00  0.00     0.014 A 
ATOM     30  C   UNL     1      -4.011   7.386   5.975  1.00  0.00     0.014 A 
ATOM     31  C   UNL     1      -5.752   7.696   8.134  1.00  0.00     0.010 A 
ATOM     32  C   UNL     1      -3.499   7.629   7.246  1.00  0.00     0.010 A 
ATOM     33  C   UNL     1      -4.365   7.797   8.337  1.00  0.00    -0.014 A 
BRANCH  33  34
ATOM     34  C   UNL     1      -3.808   8.085   9.684  1.00  0.00     0.031 A 
ATOM     35  C   UNL     1      -3.015   9.343   9.919  1.00  0.00     0.074 A 
ATOM     36  C   UNL     1      -3.969   7.187  10.677  1.00  0.00     0.049 A 
ATOM     37  N   UNL     1      -2.418   9.749  11.010  1.00  0.00    -0.248 NA
ATOM     38  C   UNL     1      -2.845  10.252   8.773  1.00  0.00     0.031 C 
ATOM     39  C   UNL     1      -4.661   5.901  10.552  1.00  0.00     0.029 A 
ATOM     40  N   UNL     1      -3.552   7.211  11.984  1.00  0.00    -0.354 N 
ATOM     41  C   UNL     1      -1.787  10.942  10.677  1.00  0.00     0.074 A 
ATOM     42  C   UNL     1      -2.033  11.173   9.271  1.00  0.00     0.031 C 
ATOM     43  C   UNL     1      -4.639   5.271  11.738  1.00  0.00     0.029 A 
ATOM     44  C   UNL     1      -3.900   6.086  12.697  1.00  0.00     0.049 A 
ATOM     45  H   UNL     1      -3.052   7.962  12.376  1.00  0.00     0.167 HD
ATOM     46  C   UNL     1      -1.085  11.780  11.476  1.00  0.00     0.037 A 
ATOM     47  C   UNL     1      -3.643   5.745  13.975  1.00  0.00     0.037 A 
ATOM     48  C   UNL     1      -0.878  11.560  12.884  1.00  0.00     0.049 A 
ATOM     49  C   UNL     1      -2.884   6.709  14.849  1.00  0.00     0.074 A 
ATOM     50  C   UNL     1      -0.257  12.392  13.800  1.00  0.00     0.029 A 
ATOM     51  N   UNL     1      -1.280  10.429  13.580  1.00  0.00    -0.354 N 
ATOM     52  N   UNL     1      -2.376   7.878  14.539  1.00  0.00    -0.248 NA
ATOM     53  C   UNL     1      -2.675   6.315  16.248  1.00  0.00     0.031 C 
ATOM     54  C   UNL     1      -0.230  11.738  15.035  1.00  0.00     0.029 A 
ATOM     55  C   UNL     1      -0.893  10.528  14.906  1.00  0.00     0.049 A 
ATOM     56  H   UNL     1      -1.767   9.669  13.188  1.00  0.00     0.167 HD
ATOM     57  C   UNL     1      -1.815   8.372  15.712  1.00  0.00     0.074 A 
ATOM     58  C   UNL     1      -2.062   7.382  16.740  1.00  0.00     0.031 C 
ATOM     59  C   UNL     1      -1.156   9.539  15.921  1.00  0.00     0.037 A 
BRANCH  46  60
ATOM     60  C   UNL     1      -0.486  13.014  10.858  1.00  0.00     0.058 A 
ATOM     61  C   UNL     1      -1.280  14.088  10.424  1.00  0.00     0.135 A 
ATOM     62  C   UNL     1       0.908  13.152  10.763  1.00  0.00     0.135 A 
ATOM     63  F   UNL     1      -2.619  14.004  10.475  1.00  0.00    -0.206 F 
ATOM     64  C   UNL     1      -0.713  15.247   9.904  1.00  0.00     0.059 A 
ATOM     65  C   UNL     1       1.498  14.314  10.274  1.00  0.00     0.059 A 
ATOM     66  F   UNL     1       1.715  12.154  11.159  1.00  0.00    -0.206 F 
ATOM     67  C   UNL     1       0.677  15.353   9.839  1.00  0.00     0.060 A 
BRANCH  67  68
ATOM     68  S   UNL     1       1.395  16.880   9.197  1.00  0.00     0.124 S 
ATOM     69  O   UNL     1       1.073  16.779   7.777  1.00  0.00    -0.237 OA
ATOM     70  O   UNL     1       0.667  17.902   9.941  1.00  0.00    -0.237 OA
ATOM     71  O   UNL     1       2.812  16.756   9.528  1.00  0.00    -0.744 OA
ENDBRANCH  67  68
ENDBRANCH  46  60
BRANCH  47  72
ATOM     72  C   UNL     1      -4.111   4.437  14.510  1.00  0.00     0.058 A 
ATOM     73  C   UNL     1      -5.109   4.367  15.494  1.00  0.00     0.135 A 
ATOM     74  C   UNL     1      -3.557   3.229  14.058  1.00  0.00     0.135 A 
ATOM     75  F   UNL     1      -5.670   5.492  15.962  1.00  0.00    -0.206 F 
ATOM     76  C   UNL     1      -5.518   3.151  16.035  1.00  0.00     0.059 A 
ATOM     77  C   UNL     1      -3.970   1.999  14.560  1.00  0.00     0.059 A 
ATOM     78  F   UNL     1      -2.613   3.237  13.104  1.00  0.00    -0.206 F 
ATOM     79  C   UNL     1      -4.940   1.972  15.562  1.00  0.00     0.060 A 
BRANCH  79  80
ATOM     80  S   UNL     1      -5.490   0.398  16.255  1.00  0.00     0.124 S 
ATOM     81  O   UNL     1      -4.885   0.434  17.581  1.00  0.00    -0.237 OA
ATOM     82  O   UNL     1      -6.942   0.534  16.210  1.00  0.00    -0.237 OA
ATOM     83  O   UNL     1      -4.932  -0.587  15.333  1.00  0.00    -0.744 OA
ENDBRANCH  79  80
ENDBRANCH  47  72
BRANCH  59  84
ATOM     84  C   UNL     1      -0.696   9.834  17.323  1.00  0.00     0.058 A 
ATOM     85  C   UNL     1       0.355   9.125  17.926  1.00  0.00     0.135 A 
ATOM     86  C   UNL     1      -1.294  10.869  18.060  1.00  0.00     0.135 A 
ATOM     87  F   UNL     1       0.960   8.123  17.268  1.00  0.00    -0.206 F 
ATOM     88  C   UNL     1       0.772   9.407  19.223  1.00  0.00     0.059 A 
ATOM     89  C   UNL     1      -0.871  11.192  19.345  1.00  0.00     0.059 A 
ATOM     90  F   UNL     1      -2.294  11.589  17.527  1.00  0.00    -0.206 F 
ATOM     91  C   UNL     1       0.152  10.443  19.925  1.00  0.00     0.060 A 
BRANCH  91  92
ATOM     92  S   UNL     1       0.711  10.809  21.602  1.00  0.00     0.124 S 
ATOM     93  O   UNL     1       0.164   9.679  22.346  1.00  0.00    -0.237 OA
ATOM     94  O   UNL     1       2.162  10.826  21.450  1.00  0.00    -0.237 OA
ATOM     95  O   UNL     1       0.101  12.103  21.889  1.00  0.00    -0.744 OA
ENDBRANCH  91  92
ENDBRANCH  59  84
ENDBRANCH  33  34
ENDBRANCH  25  28
ENDBRANCH  23  24
ENDBRANCH  22  23
ENDBRANCH   1  22
TORSDOF 20
