REMARK SMILES CC[C@@H](Oc1ccccc1)C(=O)NCCCCNC(=O)c1ccc(-c2c3nc(c(-c4c(F)cc(S(=O)(=O)[O-])cc4F)c4ccc([nH]4)c(-c4c(F)cc(S(=O)(=O)[O-])cc4F)c4nc(c(-c5c(F)cc(S(=O)(=O)[O-])cc5F)c5ccc2[nH]5)C=C4)C=C3)cc1
REMARK SMILES IDX 16 1 15 2 14 3 13 4 11 5 12 6 3 8 2 9 1 10 4 11 5 12 6 13
REMARK SMILES IDX 10 14 7 15 9 16 8 17 17 18 18 19 19 20 20 22 21 23 22 24
REMARK SMILES IDX 86 25 23 26 85 27 24 28 25 29 26 30 79 31 27 32 84 33 78 34
REMARK SMILES IDX 80 35 28 36 83 37 77 38 76 39 29 41 63 42 42 43 62 44 43 45
REMARK SMILES IDX 46 46 61 47 81 48 44 49 45 50 60 52 82 53 47 54 30 55 31 56
REMARK SMILES IDX 40 57 32 58 33 59 39 60 41 61 34 62 35 63 36 64 37 65 38 66
REMARK SMILES IDX 64 67 65 68 74 69 66 70 67 71 73 72 75 73 68 74 69 75 70 76
REMARK SMILES IDX 71 77 72 78 48 79 49 80 58 81 50 82 51 83 57 84 59 85 52 86
REMARK SMILES IDX 53 87 54 88 55 89 56 90
REMARK H PARENT 13 7 18 21 80 40 46 51
REMARK Flexibility Score: inf
ROOT
ATOM      1  C   UNL     1      -3.437   1.520   3.877  1.00  0.00     0.023 C 
ENDROOT
BRANCH   1   2
ATOM      2  C   UNL     1      -2.635   1.158   2.629  1.00  0.00     0.023 C 
BRANCH   2   3
ATOM      3  C   UNL     1      -1.864   2.319   2.014  1.00  0.00     0.116 C 
BRANCH   3   4
ATOM      4  N   UNL     1      -0.724   2.715   2.825  1.00  0.00    -0.353 N 
ATOM      5  C   UNL     1       0.613   2.655   2.525  1.00  0.00     0.261 C 
ATOM      6  O   UNL     1       1.420   3.082   3.355  1.00  0.00    -0.271 OA
ATOM      7  H   UNL     1      -0.942   3.077   3.714  1.00  0.00     0.163 HD
BRANCH   5   8
ATOM      8  C   UNL     1       1.089   2.002   1.214  1.00  0.00     0.261 C 
BRANCH   8   9
ATOM      9  C   UNL     1       0.829   0.487   1.318  1.00  0.00     0.052 C 
ATOM     10  C   UNL     1       1.907  -0.358   0.650  1.00  0.00     0.008 C 
ENDBRANCH   8   9
BRANCH   8  11
ATOM     11  O   UNL     1       0.364   2.685   0.177  1.00  0.00    -0.481 OA
BRANCH  11  12
ATOM     12  C   UNL     1       0.787   2.452  -1.093  1.00  0.00     0.120 A 
ATOM     13  C   UNL     1       1.564   3.414  -1.731  1.00  0.00     0.046 A 
ATOM     14  C   UNL     1       0.298   1.356  -1.802  1.00  0.00     0.046 A 
ATOM     15  C   UNL     1       1.913   3.238  -3.071  1.00  0.00     0.004 A 
ATOM     16  C   UNL     1       0.669   1.166  -3.130  1.00  0.00     0.004 A 
ATOM     17  C   UNL     1       1.479   2.106  -3.764  1.00  0.00     0.000 A 
ENDBRANCH  11  12
ENDBRANCH   8  11
ENDBRANCH   5   8
ENDBRANCH   3   4
ENDBRANCH   2   3
ENDBRANCH   1   2
BRANCH   1  18
ATOM     18  C   UNL     1      -4.422   2.672   3.704  1.00  0.00     0.116 C 
BRANCH  18  19
ATOM     19  N   UNL     1      -5.374   2.455   2.625  1.00  0.00    -0.352 N 
ATOM     20  C   UNL     1      -6.727   2.684   2.602  1.00  0.00     0.251 C 
ATOM     21  H   UNL     1      -4.993   2.091   1.794  1.00  0.00     0.163 HD
ATOM     22  O   UNL     1      -7.389   2.307   1.635  1.00  0.00    -0.269 OA
BRANCH  20  23
ATOM     23  C   UNL     1      -7.391   3.350   3.744  1.00  0.00     0.039 A 
ATOM     24  C   UNL     1      -8.610   2.842   4.197  1.00  0.00     0.014 A 
ATOM     25  C   UNL     1      -6.821   4.463   4.369  1.00  0.00     0.014 A 
ATOM     26  C   UNL     1      -9.226   3.415   5.311  1.00  0.00     0.010 A 
ATOM     27  C   UNL     1      -7.394   4.978   5.530  1.00  0.00     0.010 A 
ATOM     28  C   UNL     1      -8.606   4.464   6.012  1.00  0.00    -0.014 A 
BRANCH  28  29
ATOM     29  C   UNL     1      -9.221   5.014   7.248  1.00  0.00     0.031 A 
ATOM     30  C   UNL     1      -9.675   6.449   7.307  1.00  0.00     0.074 A 
ATOM     31  C   UNL     1      -9.351   4.221   8.331  1.00  0.00     0.049 A 
ATOM     32  N   UNL     1     -10.246   7.093   8.293  1.00  0.00    -0.248 NA
ATOM     33  C   UNL     1      -9.437   7.276   6.113  1.00  0.00     0.031 C 
ATOM     34  C   UNL     1      -8.886   2.834   8.422  1.00  0.00     0.029 A 
ATOM     35  N   UNL     1      -9.911   4.462   9.560  1.00  0.00    -0.354 N 
ATOM     36  C   UNL     1     -10.444   8.391   7.837  1.00  0.00     0.074 A 
ATOM     37  C   UNL     1      -9.864   8.465   6.514  1.00  0.00     0.031 C 
ATOM     38  C   UNL     1      -9.208   2.339   9.628  1.00  0.00     0.029 A 
ATOM     39  C   UNL     1      -9.870   3.379  10.408  1.00  0.00     0.049 A 
ATOM     40  H   UNL     1     -10.306   5.328   9.811  1.00  0.00     0.167 HD
ATOM     41  C   UNL     1     -11.081   9.418   8.449  1.00  0.00     0.037 A 
ATOM     42  C   UNL     1     -10.315   3.239  11.672  1.00  0.00     0.037 A 
ATOM     43  C   UNL     1     -11.662   9.338   9.765  1.00  0.00     0.049 A 
ATOM     44  C   UNL     1     -11.020   4.395  12.330  1.00  0.00     0.074 A 
ATOM     45  C   UNL     1     -12.354  10.314  10.462  1.00  0.00     0.029 A 
ATOM     46  N   UNL     1     -11.619   8.219  10.585  1.00  0.00    -0.354 N 
ATOM     47  N   UNL     1     -11.257   5.595  11.855  1.00  0.00    -0.248 NA
ATOM     48  C   UNL     1     -11.533   4.173  13.688  1.00  0.00     0.031 C 
ATOM     49  C   UNL     1     -12.692   9.799  11.718  1.00  0.00     0.029 A 
ATOM     50  C   UNL     1     -12.260   8.485  11.784  1.00  0.00     0.049 A 
ATOM     51  H   UNL     1     -11.195   7.363  10.349  1.00  0.00     0.167 HD
ATOM     52  C   UNL     1     -11.966   6.263  12.848  1.00  0.00     0.074 A 
ATOM     53  C   UNL     1     -12.142   5.324  13.937  1.00  0.00     0.031 C 
ATOM     54  C   UNL     1     -12.427   7.539  12.861  1.00  0.00     0.037 A 
BRANCH  41  55
ATOM     55  C   UNL     1     -11.205  10.713   7.690  1.00  0.00     0.058 A 
ATOM     56  C   UNL     1     -12.030  10.822   6.558  1.00  0.00     0.135 A 
ATOM     57  C   UNL     1     -10.533  11.869   8.120  1.00  0.00     0.135 A 
ATOM     58  F   UNL     1     -12.685   9.746   6.092  1.00  0.00    -0.206 F 
ATOM     59  C   UNL     1     -12.165  12.020   5.866  1.00  0.00     0.059 A 
ATOM     60  C   UNL     1     -10.677  13.087   7.460  1.00  0.00     0.059 A 
ATOM     61  F   UNL     1      -9.730  11.824   9.194  1.00  0.00    -0.206 F 
ATOM     62  C   UNL     1     -11.487  13.149   6.326  1.00  0.00     0.060 A 
BRANCH  62  63
ATOM     63  S   UNL     1     -11.690  14.700   5.425  1.00  0.00     0.124 S 
ATOM     64  O   UNL     1     -10.949  14.424   4.198  1.00  0.00    -0.237 OA
ATOM     65  O   UNL     1     -13.139  14.790   5.283  1.00  0.00    -0.237 OA
ATOM     66  O   UNL     1     -11.087  15.691   6.311  1.00  0.00    -0.744 OA
ENDBRANCH  62  63
ENDBRANCH  41  55
BRANCH  42  67
ATOM     67  C   UNL     1     -10.118   1.952  12.394  1.00  0.00     0.058 A 
ATOM     68  C   UNL     1     -11.204   1.125  12.722  1.00  0.00     0.135 A 
ATOM     69  C   UNL     1      -8.836   1.526  12.774  1.00  0.00     0.135 A 
ATOM     70  F   UNL     1     -12.450   1.489  12.383  1.00  0.00    -0.206 F 
ATOM     71  C   UNL     1     -11.030  -0.061  13.427  1.00  0.00     0.059 A 
ATOM     72  C   UNL     1      -8.634   0.328  13.452  1.00  0.00     0.059 A 
ATOM     73  F   UNL     1      -7.761   2.268  12.467  1.00  0.00    -0.206 F 
ATOM     74  C   UNL     1      -9.739  -0.452  13.788  1.00  0.00     0.060 A 
BRANCH  74  75
ATOM     75  S   UNL     1      -9.520  -2.007  14.678  1.00  0.00     0.124 S 
ATOM     76  O   UNL     1     -10.025  -1.662  16.002  1.00  0.00    -0.237 OA
ATOM     77  O   UNL     1     -10.345  -2.925  13.899  1.00  0.00    -0.237 OA
ATOM     78  O   UNL     1      -8.082  -2.242  14.592  1.00  0.00    -0.744 OA
ENDBRANCH  74  75
ENDBRANCH  42  67
BRANCH  54  79
ATOM     79  C   UNL     1     -13.192   7.981  14.079  1.00  0.00     0.058 A 
ATOM     80  C   UNL     1     -12.563   8.171  15.320  1.00  0.00     0.135 A 
ATOM     81  C   UNL     1     -14.572   8.233  14.000  1.00  0.00     0.135 A 
ATOM     82  F   UNL     1     -11.247   7.942  15.453  1.00  0.00    -0.206 F 
ATOM     83  C   UNL     1     -13.282   8.552  16.449  1.00  0.00     0.059 A 
ATOM     84  C   UNL     1     -15.304   8.647  15.108  1.00  0.00     0.059 A 
ATOM     85  F   UNL     1     -15.222   8.082  12.835  1.00  0.00    -0.206 F 
ATOM     86  C   UNL     1     -14.654   8.784  16.333  1.00  0.00     0.060 A 
BRANCH  86  87
ATOM     87  S   UNL     1     -15.575   9.276  17.805  1.00  0.00     0.124 S 
ATOM     88  O   UNL     1     -15.632   8.022  18.549  1.00  0.00    -0.237 OA
ATOM     89  O   UNL     1     -14.722  10.314  18.376  1.00  0.00    -0.237 OA
ATOM     90  O   UNL     1     -16.849   9.745  17.268  1.00  0.00    -0.744 OA
ENDBRANCH  86  87
ENDBRANCH  54  79
ENDBRANCH  28  29
ENDBRANCH  20  23
ENDBRANCH  18  19
ENDBRANCH   1  18
TORSDOF 17
