REMARK SMILES C[C@H](CC(=O)NCCCCNC(=O)c1ccc(-c2c3nc(c(-c4c(F)cc(S(=O)(=O)[O-])cc4F)c4ccc([nH]4)c(-c4c(F)cc(S(=O)(=O)[O-])cc4F)c4nc(c(-c5c(F)cc(S(=O)(=O)[O-])cc5F)c5ccc2[nH]5)C=C4)C=C3)cc1)NC(=O)Cn1nc2ccccn2c1=O
REMARK SMILES IDX 8 1 7 2 6 3 4 4 5 5 3 7 2 8 1 9 80 10 81 11 82 13 83 14
REMARK SMILES IDX 84 15 85 16 92 17 86 18 91 19 93 20 87 21 90 22 88 23 89 24
REMARK SMILES IDX 9 25 10 26 11 27 12 28 13 30 14 31 15 32 79 33 16 34 78 35
REMARK SMILES IDX 17 36 18 37 19 38 72 39 20 40 77 41 71 42 73 43 21 44 76 45
REMARK SMILES IDX 70 46 69 47 22 49 56 50 35 51 55 52 36 53 39 54 54 55 74 56
REMARK SMILES IDX 37 57 38 58 53 60 75 61 40 62 23 63 24 64 33 65 25 66 26 67
REMARK SMILES IDX 32 68 34 69 27 70 28 71 29 72 30 73 31 74 57 75 58 76 67 77
REMARK SMILES IDX 59 78 60 79 66 80 68 81 61 82 62 83 63 84 64 85 65 86 41 87
REMARK SMILES IDX 42 88 51 89 43 90 44 91 50 92 52 93 45 94 46 95 47 96 48 97
REMARK SMILES IDX 49 98
REMARK H PARENT 6 6 80 12 11 29 73 48 39 59
REMARK Flexibility Score: inf
ROOT
ATOM      1  C   UNL     1      -2.812  -1.026  -0.756  1.00  0.00     0.023 C 
ENDROOT
BRANCH   1   2
ATOM      2  C   UNL     1      -1.959  -0.563   0.424  1.00  0.00     0.116 C 
BRANCH   2   3
ATOM      3  N   UNL     1      -0.851  -1.473   0.633  1.00  0.00    -0.356 N 
ATOM      4  C   UNL     1       0.456  -1.328   0.281  1.00  0.00     0.222 C 
ATOM      5  O   UNL     1       1.216  -2.285   0.433  1.00  0.00    -0.275 OA
ATOM      6  H   UNL     1      -1.074  -2.314   1.094  1.00  0.00     0.163 HD
BRANCH   4   7
ATOM      7  C   UNL     1       0.966  -0.005  -0.259  1.00  0.00     0.124 C 
BRANCH   7   8
ATOM      8  C   UNL     1       0.853   0.202  -1.780  1.00  0.00     0.088 C 
ATOM      9  C   UNL     1       1.243  -1.043  -2.572  1.00  0.00     0.031 C 
BRANCH   8  10
ATOM     10  N   UNL     1      -0.472   0.658  -2.193  1.00  0.00    -0.352 N 
ATOM     11  C   UNL     1      -1.043   1.896  -2.162  1.00  0.00     0.242 C 
ATOM     12  H   UNL     1      -1.051  -0.049  -2.557  1.00  0.00     0.163 HD
ATOM     13  O   UNL     1      -2.272   1.956  -2.256  1.00  0.00    -0.273 OA
BRANCH  11  14
ATOM     14  C   UNL     1      -0.191   3.150  -2.074  1.00  0.00     0.249 C 
BRANCH  14  15
ATOM     15  N   UNL     1       0.218   3.563  -0.754  1.00  0.00    -0.203 N 
ATOM     16  N   UNL     1      -0.456   4.549  -0.046  1.00  0.00    -0.149 NA
ATOM     17  C   UNL     1       1.510   3.399  -0.234  1.00  0.00     0.350 A 
ATOM     18  C   UNL     1       0.406   4.934   0.843  1.00  0.00     0.161 A 
ATOM     19  N   UNL     1       1.592   4.276   0.811  1.00  0.00    -0.250 N 
ATOM     20  O   UNL     1       2.414   2.704  -0.686  1.00  0.00    -0.246 OA
ATOM     21  C   UNL     1       0.252   6.026   1.855  1.00  0.00     0.050 A 
ATOM     22  C   UNL     1       2.674   4.580   1.585  1.00  0.00     0.098 A 
ATOM     23  C   UNL     1       1.431   6.535   2.279  1.00  0.00     0.005 A 
ATOM     24  C   UNL     1       2.623   5.689   2.334  1.00  0.00     0.019 A 
ENDBRANCH  14  15
ENDBRANCH  11  14
ENDBRANCH   8  10
ENDBRANCH   7   8
ENDBRANCH   4   7
ENDBRANCH   2   3
ENDBRANCH   1   2
BRANCH   1  25
ATOM     25  C   UNL     1      -3.741  -2.192  -0.461  1.00  0.00     0.023 C 
BRANCH  25  26
ATOM     26  C   UNL     1      -4.747  -1.926   0.639  1.00  0.00     0.116 C 
BRANCH  26  27
ATOM     27  N   UNL     1      -5.598  -0.772   0.381  1.00  0.00    -0.352 N 
ATOM     28  C   UNL     1      -6.958  -0.670   0.554  1.00  0.00     0.251 C 
ATOM     29  H   UNL     1      -5.143   0.032   0.041  1.00  0.00     0.163 HD
ATOM     30  O   UNL     1      -7.567   0.327   0.183  1.00  0.00    -0.269 OA
BRANCH  28  31
ATOM     31  C   UNL     1      -7.675  -1.808   1.163  1.00  0.00     0.039 A 
ATOM     32  C   UNL     1      -8.818  -2.307   0.538  1.00  0.00     0.014 A 
ATOM     33  C   UNL     1      -7.157  -2.429   2.302  1.00  0.00     0.014 A 
ATOM     34  C   UNL     1      -9.410  -3.471   1.029  1.00  0.00     0.010 A 
ATOM     35  C   UNL     1      -7.673  -3.649   2.710  1.00  0.00     0.010 A 
ATOM     36  C   UNL     1      -8.822  -4.169   2.098  1.00  0.00    -0.014 A 
BRANCH  36  37
ATOM     37  C   UNL     1      -9.427  -5.410   2.641  1.00  0.00     0.031 A 
ATOM     38  C   UNL     1      -9.877  -5.441   4.079  1.00  0.00     0.074 A 
ATOM     39  C   UNL     1      -9.519  -6.512   1.872  1.00  0.00     0.049 A 
ATOM     40  N   UNL     1     -10.363  -6.437   4.773  1.00  0.00    -0.248 NA
ATOM     41  C   UNL     1      -9.721  -4.196   4.853  1.00  0.00     0.031 C 
ATOM     42  C   UNL     1      -9.062  -6.621   0.484  1.00  0.00     0.029 A 
ATOM     43  N   UNL     1     -10.026  -7.756   2.150  1.00  0.00    -0.354 N 
ATOM     44  C   UNL     1     -10.549  -5.944   6.059  1.00  0.00     0.074 A 
ATOM     45  C   UNL     1     -10.051  -4.588   6.073  1.00  0.00     0.031 C 
ATOM     46  C   UNL     1      -9.342  -7.851   0.023  1.00  0.00     0.029 A 
ATOM     47  C   UNL     1      -9.963  -8.629   1.090  1.00  0.00     0.049 A 
ATOM     48  H   UNL     1     -10.401  -8.000   3.027  1.00  0.00     0.167 HD
ATOM     49  C   UNL     1     -11.121  -6.551   7.125  1.00  0.00     0.037 A 
ATOM     50  C   UNL     1     -10.364  -9.912   0.993  1.00  0.00     0.037 A 
ATOM     51  C   UNL     1     -11.653  -7.886   7.090  1.00  0.00     0.049 A 
ATOM     52  C   UNL     1     -11.014 -10.561   2.187  1.00  0.00     0.074 A 
ATOM     53  C   UNL     1     -12.303  -8.581   8.094  1.00  0.00     0.029 A 
ATOM     54  N   UNL     1     -11.601  -8.728   5.988  1.00  0.00    -0.354 N 
ATOM     55  N   UNL     1     -11.238 -10.061   3.380  1.00  0.00    -0.248 NA
ATOM     56  C   UNL     1     -11.478 -11.944   2.018  1.00  0.00     0.031 C 
ATOM     57  C   UNL     1     -12.606  -9.859   7.613  1.00  0.00     0.029 A 
ATOM     58  C   UNL     1     -12.196  -9.941   6.291  1.00  0.00     0.049 A 
ATOM     59  H   UNL     1     -11.200  -8.497   5.119  1.00  0.00     0.167 HD
ATOM     60  C   UNL     1     -11.900 -11.056   4.091  1.00  0.00     0.074 A 
ATOM     61  C   UNL     1     -12.051 -12.180   3.190  1.00  0.00     0.031 C 
ATOM     62  C   UNL     1     -12.344 -11.043   5.373  1.00  0.00     0.037 A 
BRANCH  49  63
ATOM     63  C   UNL     1     -11.210  -5.768   8.408  1.00  0.00     0.058 A 
ATOM     64  C   UNL     1     -12.043  -4.643   8.531  1.00  0.00     0.135 A 
ATOM     65  C   UNL     1     -10.465  -6.154   9.534  1.00  0.00     0.135 A 
ATOM     66  F   UNL     1     -12.761  -4.214   7.481  1.00  0.00    -0.206 F 
ATOM     67  C   UNL     1     -12.109  -3.910   9.711  1.00  0.00     0.059 A 
ATOM     68  C   UNL     1     -10.542  -5.455  10.736  1.00  0.00     0.059 A 
ATOM     69  F   UNL     1      -9.649  -7.218   9.473  1.00  0.00    -0.206 F 
ATOM     70  C   UNL     1     -11.355  -4.326  10.809  1.00  0.00     0.060 A 
BRANCH  70  71
ATOM     71  S   UNL     1     -11.461  -3.369  12.336  1.00  0.00     0.124 S 
ATOM     72  O   UNL     1     -10.725  -2.161  11.975  1.00  0.00    -0.237 OA
ATOM     73  O   UNL     1     -12.902  -3.207  12.503  1.00  0.00    -0.237 OA
ATOM     74  O   UNL     1     -10.811  -4.228  13.321  1.00  0.00    -0.744 OA
ENDBRANCH  70  71
ENDBRANCH  49  63
BRANCH  50  75
ATOM     75  C   UNL     1     -10.200 -10.654  -0.287  1.00  0.00     0.058 A 
ATOM     76  C   UNL     1     -11.313 -11.011  -1.063  1.00  0.00     0.135 A 
ATOM     77  C   UNL     1      -8.931 -11.020  -0.762  1.00  0.00     0.135 A 
ATOM     78  F   UNL     1     -12.549 -10.688  -0.652  1.00  0.00    -0.206 F 
ATOM     79  C   UNL     1     -11.178 -11.726  -2.249  1.00  0.00     0.059 A 
ATOM     80  C   UNL     1      -8.768 -11.710  -1.959  1.00  0.00     0.059 A 
ATOM     81  F   UNL     1      -7.831 -10.687  -0.068  1.00  0.00    -0.206 F 
ATOM     82  C   UNL     1      -9.899 -12.071  -2.690  1.00  0.00     0.060 A 
BRANCH  82  83
ATOM     83  S   UNL     1      -9.734 -12.967  -4.249  1.00  0.00     0.124 S 
ATOM     84  O   UNL     1     -10.226 -14.289  -3.882  1.00  0.00    -0.237 OA
ATOM     85  O   UNL     1     -10.590 -12.191  -5.141  1.00  0.00    -0.237 OA
ATOM     86  O   UNL     1      -8.304 -12.882  -4.534  1.00  0.00    -0.744 OA
ENDBRANCH  82  83
ENDBRANCH  50  75
BRANCH  62  87
ATOM     87  C   UNL     1     -13.080 -12.261   5.860  1.00  0.00     0.058 A 
ATOM     88  C   UNL     1     -12.426 -13.480   6.094  1.00  0.00     0.135 A 
ATOM     89  C   UNL     1     -14.458 -12.194   6.126  1.00  0.00     0.135 A 
ATOM     90  F   UNL     1     -11.110 -13.598   5.854  1.00  0.00    -0.206 F 
ATOM     91  C   UNL     1     -13.118 -14.602   6.535  1.00  0.00     0.059 A 
ATOM     92  C   UNL     1     -15.164 -13.294   6.600  1.00  0.00     0.059 A 
ATOM     93  F   UNL     1     -15.130 -11.048   5.936  1.00  0.00    -0.206 F 
ATOM     94  C   UNL     1     -14.489 -14.500   6.783  1.00  0.00     0.060 A 
BRANCH  94  95
ATOM     95  S   UNL     1     -15.375 -15.961   7.362  1.00  0.00     0.124 S 
ATOM     96  O   UNL     1     -15.443 -16.764   6.145  1.00  0.00    -0.237 OA
ATOM     97  O   UNL     1     -14.493 -16.468   8.408  1.00  0.00    -0.237 OA
ATOM     98  O   UNL     1     -16.649 -15.423   7.831  1.00  0.00    -0.744 OA
ENDBRANCH  94  95
ENDBRANCH  62  87
ENDBRANCH  36  37
ENDBRANCH  28  31
ENDBRANCH  26  27
ENDBRANCH  25  26
ENDBRANCH   1  25
TORSDOF 18
