REMARK SMILES CCn1ccc([C@@H](C)NC(=O)c2cnn([C@H](C)C(=O)NCCCCNC(=O)c3ccc(-c4c5nc(c(-c6c(F)cc(S(=O)(=O)[O-])cc6F)c6ccc([nH]6)c(-c6c(F)cc(S(=O)(=O)[O-])cc6F)c6nc(c(-c7c(F)cc(S(=O)(=O)[O-])cc7F)c7ccc4[nH]7)C=C6)C=C5)cc3)c2)n1
REMARK SMILES IDX 21 1 20 2 18 3 19 4 16 6 17 7 15 8 12 9 13 10 94 11 14 12
REMARK SMILES IDX 10 13 9 14 11 16 7 17 8 18 6 19 3 20 4 21 95 22 5 23 2 24
REMARK SMILES IDX 1 25 22 26 23 27 24 28 25 29 26 30 27 32 28 33 29 34 93 35
REMARK SMILES IDX 30 36 92 37 31 38 32 39 33 40 86 41 34 42 91 43 85 44 87 45
REMARK SMILES IDX 35 46 90 47 84 48 83 49 36 51 70 52 49 53 69 54 50 55 53 56
REMARK SMILES IDX 68 57 88 58 51 59 52 60 67 62 89 63 54 64 37 65 38 66 47 67
REMARK SMILES IDX 39 68 40 69 46 70 48 71 41 72 42 73 43 74 44 75 45 76 71 77
REMARK SMILES IDX 72 78 81 79 73 80 74 81 80 82 82 83 75 84 76 85 77 86 78 87
REMARK SMILES IDX 79 88 55 89 56 90 65 91 57 92 58 93 64 94 66 95 59 96 60 97
REMARK SMILES IDX 61 98 62 99 63 100
REMARK H PARENT 20 5 9 15 25 31 87 50 53 61
REMARK Flexibility Score: inf
ROOT
ATOM      1  C   UNL     1       4.200  -2.869   9.319  1.00  0.00     0.116 C 
ENDROOT
BRANCH   1   2
ATOM      2  N   UNL     1       3.223  -3.267  10.310  1.00  0.00    -0.354 N 
ATOM      3  C   UNL     1       1.871  -3.443  10.204  1.00  0.00     0.244 C 
ATOM      4  O   UNL     1       1.272  -3.726  11.248  1.00  0.00    -0.273 OA
ATOM      5  H   UNL     1       3.591  -3.439  11.207  1.00  0.00     0.163 HD
BRANCH   3   6
ATOM      6  C   UNL     1       1.097  -3.186   8.910  1.00  0.00     0.193 C 
ATOM      7  C   UNL     1       1.164  -1.714   8.491  1.00  0.00     0.044 C 
BRANCH   6   8
ATOM      8  N   UNL     1       1.405  -4.170   7.876  1.00  0.00    -0.260 N 
ATOM      9  C   UNL     1       2.399  -5.330   6.288  1.00  0.00     0.077 A 
ATOM     10  C   UNL     1       1.439  -6.091   6.983  1.00  0.00     0.149 A 
ATOM     11  C   UNL     1       2.276  -4.069   6.830  1.00  0.00     0.123 A 
ATOM     12  N   UNL     1       0.787  -5.369   7.899  1.00  0.00    -0.180 NA
BRANCH   9  13
ATOM     13  C   UNL     1       3.358  -5.693   5.275  1.00  0.00     0.254 C 
ATOM     14  N   UNL     1       2.913  -6.205   4.091  1.00  0.00    -0.344 N 
ATOM     15  H   UNL     1       3.604  -6.573   3.494  1.00  0.00     0.164 HD
ATOM     16  O   UNL     1       4.562  -5.501   5.430  1.00  0.00    -0.269 OA
BRANCH  14  17
ATOM     17  C   UNL     1       1.544  -6.276   3.597  1.00  0.00     0.130 C 
ATOM     18  C   UNL     1       1.203  -7.716   3.239  1.00  0.00     0.038 C 
BRANCH  17  19
ATOM     19  C   UNL     1       1.413  -5.333   2.425  1.00  0.00     0.084 A 
ATOM     20  N   UNL     1       0.727  -3.668   1.298  1.00  0.00    -0.273 N 
ATOM     21  C   UNL     1       1.629  -4.284   0.481  1.00  0.00     0.109 A 
ATOM     22  N   UNL     1       0.581  -4.281   2.485  1.00  0.00    -0.176 NA
ATOM     23  C   UNL     1       2.089  -5.375   1.178  1.00  0.00     0.047 A 
BRANCH  20  24
ATOM     24  C   UNL     1      -0.005  -2.446   1.027  1.00  0.00     0.141 C 
ATOM     25  C   UNL     1      -0.923  -2.556  -0.179  1.00  0.00     0.029 C 
ENDBRANCH  20  24
ENDBRANCH  17  19
ENDBRANCH  14  17
ENDBRANCH   9  13
ENDBRANCH   6   8
ENDBRANCH   3   6
ENDBRANCH   1   2
BRANCH   1  26
ATOM     26  C   UNL     1       4.890  -1.543   9.645  1.00  0.00     0.023 C 
BRANCH  26  27
ATOM     27  C   UNL     1       5.895  -1.562  10.800  1.00  0.00     0.023 C 
BRANCH  27  28
ATOM     28  C   UNL     1       7.066  -2.508  10.592  1.00  0.00     0.116 C 
BRANCH  28  29
ATOM     29  N   UNL     1       7.918  -2.164   9.446  1.00  0.00    -0.352 N 
ATOM     30  C   UNL     1       9.068  -2.827   9.016  1.00  0.00     0.251 C 
ATOM     31  H   UNL     1       7.646  -1.377   8.921  1.00  0.00     0.163 HD
ATOM     32  O   UNL     1       9.882  -2.296   8.290  1.00  0.00    -0.269 OA
BRANCH  30  33
ATOM     33  C   UNL     1       9.236  -4.223   9.464  1.00  0.00     0.039 A 
ATOM     34  C   UNL     1      10.432  -4.740   9.975  1.00  0.00     0.014 A 
ATOM     35  C   UNL     1       8.077  -4.980   9.453  1.00  0.00     0.014 A 
ATOM     36  C   UNL     1      10.417  -6.013  10.550  1.00  0.00     0.010 A 
ATOM     37  C   UNL     1       8.009  -6.072  10.259  1.00  0.00     0.010 A 
ATOM     38  C   UNL     1       9.189  -6.667  10.693  1.00  0.00    -0.014 A 
BRANCH  38  39
ATOM     39  C   UNL     1       9.024  -7.978  11.312  1.00  0.00     0.031 A 
ATOM     40  C   UNL     1       9.365  -8.056  12.764  1.00  0.00     0.074 A 
ATOM     41  C   UNL     1       8.254  -8.895  10.675  1.00  0.00     0.049 A 
ATOM     42  N   UNL     1      10.196  -8.850  13.358  1.00  0.00    -0.248 NA
ATOM     43  C   UNL     1       8.787  -7.038  13.663  1.00  0.00     0.031 C 
ATOM     44  C   UNL     1       7.577  -8.767   9.368  1.00  0.00     0.029 A 
ATOM     45  N   UNL     1       7.749 -10.067  11.138  1.00  0.00    -0.354 N 
ATOM     46  C   UNL     1      10.066  -8.591  14.723  1.00  0.00     0.074 A 
ATOM     47  C   UNL     1       9.355  -7.346  14.830  1.00  0.00     0.031 C 
ATOM     48  C   UNL     1       6.567  -9.657   9.284  1.00  0.00     0.029 A 
ATOM     49  C   UNL     1       6.651 -10.545  10.423  1.00  0.00     0.049 A 
ATOM     50  H   UNL     1       8.126 -10.540  11.914  1.00  0.00     0.167 HD
ATOM     51  C   UNL     1      10.327  -9.542  15.666  1.00  0.00     0.037 A 
ATOM     52  C   UNL     1       5.844 -11.574  10.783  1.00  0.00     0.037 A 
ATOM     53  C   UNL     1      11.076 -10.639  15.107  1.00  0.00     0.049 A 
ATOM     54  C   UNL     1       6.605 -12.365  11.789  1.00  0.00     0.074 A 
ATOM     55  C   UNL     1      12.305 -10.756  14.488  1.00  0.00     0.029 A 
ATOM     56  N   UNL     1      10.391 -11.786  14.784  1.00  0.00    -0.354 N 
ATOM     57  N   UNL     1       7.728 -12.983  11.523  1.00  0.00    -0.248 NA
ATOM     58  C   UNL     1       6.388 -12.044  13.191  1.00  0.00     0.031 C 
ATOM     59  C   UNL     1      12.094 -11.690  13.430  1.00  0.00     0.029 A 
ATOM     60  C   UNL     1      10.776 -12.145  13.516  1.00  0.00     0.049 A 
ATOM     61  H   UNL     1       9.745 -12.262  15.355  1.00  0.00     0.167 HD
ATOM     62  C   UNL     1       8.531 -12.769  12.637  1.00  0.00     0.074 A 
ATOM     63  C   UNL     1       7.626 -12.235  13.655  1.00  0.00     0.031 C 
ATOM     64  C   UNL     1       9.896 -12.761  12.544  1.00  0.00     0.037 A 
BRANCH  51  65
ATOM     65  C   UNL     1       9.604  -9.657  16.991  1.00  0.00     0.058 A 
ATOM     66  C   UNL     1      10.085 -10.553  17.969  1.00  0.00     0.135 A 
ATOM     67  C   UNL     1       8.312  -9.137  17.231  1.00  0.00     0.135 A 
ATOM     68  F   UNL     1      11.300 -11.112  17.845  1.00  0.00    -0.206 F 
ATOM     69  C   UNL     1       9.310 -10.960  19.057  1.00  0.00     0.059 A 
ATOM     70  C   UNL     1       7.546  -9.486  18.338  1.00  0.00     0.059 A 
ATOM     71  F   UNL     1       7.685  -8.344  16.354  1.00  0.00    -0.206 F 
ATOM     72  C   UNL     1       8.033 -10.434  19.221  1.00  0.00     0.060 A 
BRANCH  72  73
ATOM     73  S   UNL     1       6.980 -11.053  20.545  1.00  0.00     0.124 S 
ATOM     74  O   UNL     1       6.714 -12.414  20.091  1.00  0.00    -0.237 OA
ATOM     75  O   UNL     1       7.850 -10.925  21.709  1.00  0.00    -0.237 OA
ATOM     76  O   UNL     1       5.838 -10.144  20.520  1.00  0.00    -0.744 OA
ENDBRANCH  72  73
ENDBRANCH  51  65
BRANCH  52  77
ATOM     77  C   UNL     1       4.367 -11.656  10.613  1.00  0.00     0.058 A 
ATOM     78  C   UNL     1       3.678 -12.872  10.748  1.00  0.00     0.135 A 
ATOM     79  C   UNL     1       3.566 -10.493  10.571  1.00  0.00     0.135 A 
ATOM     80  F   UNL     1       4.359 -14.026  10.822  1.00  0.00    -0.206 F 
ATOM     81  C   UNL     1       2.283 -12.932  10.869  1.00  0.00     0.059 A 
ATOM     82  C   UNL     1       2.176 -10.527  10.681  1.00  0.00     0.059 A 
ATOM     83  F   UNL     1       4.124  -9.274  10.507  1.00  0.00    -0.206 F 
ATOM     84  C   UNL     1       1.540 -11.751  10.851  1.00  0.00     0.060 A 
BRANCH  84  85
ATOM     85  S   UNL     1      -0.242 -11.815  11.161  1.00  0.00     0.124 S 
ATOM     86  O   UNL     1      -0.735 -12.465   9.951  1.00  0.00    -0.237 OA
ATOM     87  O   UNL     1      -0.315 -12.608  12.383  1.00  0.00    -0.237 OA
ATOM     88  O   UNL     1      -0.614 -10.411  11.310  1.00  0.00    -0.744 OA
ENDBRANCH  84  85
ENDBRANCH  52  77
BRANCH  64  89
ATOM     89  C   UNL     1      10.536 -13.200  11.245  1.00  0.00     0.058 A 
ATOM     90  C   UNL     1      10.432 -12.492  10.033  1.00  0.00     0.135 A 
ATOM     91  C   UNL     1      11.445 -14.266  11.273  1.00  0.00     0.135 A 
ATOM     92  F   UNL     1       9.671 -11.397   9.941  1.00  0.00    -0.206 F 
ATOM     93  C   UNL     1      11.167 -12.842   8.898  1.00  0.00     0.059 A 
ATOM     94  C   UNL     1      12.212 -14.617  10.162  1.00  0.00     0.059 A 
ATOM     95  F   UNL     1      11.647 -14.943  12.415  1.00  0.00    -0.206 F 
ATOM     96  C   UNL     1      12.061 -13.906   8.973  1.00  0.00     0.060 A 
BRANCH  96  97
ATOM     97  S   UNL     1      13.078 -14.302   7.534  1.00  0.00     0.124 S 
ATOM     98  O   UNL     1      12.098 -14.859   6.608  1.00  0.00    -0.237 OA
ATOM     99  O   UNL     1      13.629 -13.001   7.165  1.00  0.00    -0.237 OA
ATOM    100  O   UNL     1      14.054 -15.255   8.057  1.00  0.00    -0.744 OA
ENDBRANCH  96  97
ENDBRANCH  64  89
ENDBRANCH  38  39
ENDBRANCH  30  33
ENDBRANCH  28  29
ENDBRANCH  27  28
ENDBRANCH  26  27
ENDBRANCH   1  26
TORSDOF 19
