REMARK SMILES CC1(C)CCCC[C@H]1[N@H+]1CCC[N@H+](CC(=O)NCCCCNC(=O)c2ccc(-c3c4nc(c(-c5c(F)cc(S(=O)(=O)[O-])cc5F)c5ccc([nH]5)c(-c5c(F)cc(S(=O)(=O)[O-])cc5F)c5nc(c(-c6c(F)cc(S(=O)(=O)[O-])cc6F)c6ccc3[nH]6)C=C5)C=C4)cc2)CC1
REMARK SMILES IDX 18 1 17 2 15 3 16 4 14 6 13 7 12 9 11 10 10 11 9 12 8 14
REMARK SMILES IDX 1 15 2 16 3 17 4 18 5 19 7 20 6 21 92 22 91 24 19 26 20 27
REMARK SMILES IDX 21 28 22 29 23 30 24 32 25 33 26 34 90 35 27 36 89 37 28 38
REMARK SMILES IDX 29 39 30 40 83 41 31 42 88 43 82 44 84 45 32 46 87 47 81 48
REMARK SMILES IDX 80 49 33 51 67 52 46 53 66 54 47 55 50 56 65 57 85 58 48 59
REMARK SMILES IDX 49 60 64 62 86 63 51 64 34 65 35 66 44 67 36 68 37 69 43 70
REMARK SMILES IDX 45 71 38 72 39 73 40 74 41 75 42 76 68 77 69 78 78 79 70 80
REMARK SMILES IDX 71 81 77 82 79 83 72 84 73 85 74 86 75 87 76 88 52 89 53 90
REMARK SMILES IDX 62 91 54 92 55 93 61 94 63 95 56 96 57 97 58 98 59 99 60 100
REMARK H PARENT 17 5 13 8 9 13 22 31 84 50 50 61
REMARK Flexibility Score: 80.00
ROOT
ATOM      1  C   UNL     1       3.626  -1.189   1.049  1.00  0.00     0.116 C 
ENDROOT
BRANCH   1   2
ATOM      2  N   UNL     1       2.647  -1.512   0.037  1.00  0.00    -0.351 N 
ATOM      3  C   UNL     1       2.037  -2.738  -0.132  1.00  0.00     0.275 C 
ATOM      4  O   UNL     1       0.827  -2.879   0.042  1.00  0.00    -0.269 OA
ATOM      5  H   UNL     1       2.392  -0.794  -0.587  1.00  0.00     0.163 HD
BRANCH   3   6
ATOM      6  C   UNL     1       2.906  -3.875  -0.646  1.00  0.00     0.363 C 
BRANCH   6   7
ATOM      7  N   UNL     1       3.113  -3.834  -2.106  1.00  0.00    -0.322 N 
ATOM      8  H   UNL     1       3.866  -4.512  -2.216  1.00  0.00     0.348 HD
BRANCH   7   9
ATOM      9  C   UNL     1       2.067  -4.431  -2.924  1.00  0.00     0.268 C 
BRANCH   9  10
ATOM     10  C   UNL     1       1.439  -3.560  -4.011  1.00  0.00     0.123 C 
BRANCH  10  11
ATOM     11  C   UNL     1       0.677  -2.338  -3.479  1.00  0.00     0.268 C 
BRANCH  11  12
ATOM     12  N   UNL     1       1.429  -1.306  -2.723  1.00  0.00    -0.327 N 
ATOM     13  H   UNL     1       1.382  -1.495  -1.722  1.00  0.00     0.348 HD
BRANCH  12  14
ATOM     14  C   UNL     1       0.783   0.060  -2.869  1.00  0.00     0.189 C 
ATOM     15  C   UNL     1      -0.103   0.373  -0.385  1.00  0.00     0.017 C 
ATOM     16  C   UNL     1      -0.448   0.383  -1.891  1.00  0.00     0.017 C 
ATOM     17  C   UNL     1      -1.623  -0.596  -2.080  1.00  0.00     0.017 C 
ATOM     18  C   UNL     1      -0.997   1.805  -2.217  1.00  0.00     0.012 C 
ATOM     19  C   UNL     1       0.057   2.897  -2.089  1.00  0.00     0.001 C 
ATOM     20  C   UNL     1       1.805   1.232  -2.800  1.00  0.00     0.065 C 
ATOM     21  C   UNL     1       1.213   2.617  -3.025  1.00  0.00     0.006 C 
ENDBRANCH  12  14
BRANCH  12  22
ATOM     22  C   UNL     1       2.870  -1.376  -3.064  1.00  0.00     0.324 CG0
ATOM     23  G   UNL     1       3.728  -2.623  -2.636  1.00  0.00     0.000 G0
ENDBRANCH  12  22
ENDBRANCH  11  12
ENDBRANCH  10  11
ENDBRANCH   9  10
ENDBRANCH   7   9
BRANCH   7  24
ATOM     24  C   UNL     1       3.728  -2.623  -2.636  1.00  0.00     0.324 CG0
ATOM     25  G   UNL     1       2.870  -1.376  -3.064  1.00  0.00     0.000 G0
ENDBRANCH   7  24
ENDBRANCH   6   7
ENDBRANCH   3   6
ENDBRANCH   1   2
BRANCH   1  26
ATOM     26  C   UNL     1       4.888  -0.474   0.553  1.00  0.00     0.023 C 
BRANCH  26  27
ATOM     27  C   UNL     1       4.753   0.800  -0.297  1.00  0.00     0.023 C 
BRANCH  27  28
ATOM     28  C   UNL     1       3.933   1.967   0.261  1.00  0.00     0.116 C 
BRANCH  28  29
ATOM     29  N   UNL     1       4.739   2.837   1.095  1.00  0.00    -0.352 N 
ATOM     30  C   UNL     1       4.998   4.183   0.966  1.00  0.00     0.251 C 
ATOM     31  H   UNL     1       5.163   2.401   1.869  1.00  0.00     0.163 HD
ATOM     32  O   UNL     1       5.942   4.659   1.596  1.00  0.00    -0.269 OA
BRANCH  30  33
ATOM     33  C   UNL     1       4.178   5.079   0.102  1.00  0.00     0.039 A 
ATOM     34  C   UNL     1       4.826   6.108  -0.594  1.00  0.00     0.014 A 
ATOM     35  C   UNL     1       2.781   5.013   0.067  1.00  0.00     0.014 A 
ATOM     36  C   UNL     1       4.089   7.052  -1.324  1.00  0.00     0.010 A 
ATOM     37  C   UNL     1       2.046   5.940  -0.692  1.00  0.00     0.010 A 
ATOM     38  C   UNL     1       2.688   6.978  -1.386  1.00  0.00    -0.014 A 
BRANCH  38  39
ATOM     39  C   UNL     1       1.910   7.987  -2.167  1.00  0.00     0.031 A 
ATOM     40  C   UNL     1       1.029   8.999  -1.478  1.00  0.00     0.074 A 
ATOM     41  C   UNL     1       1.990   8.002  -3.513  1.00  0.00     0.049 A 
ATOM     42  N   UNL     1       0.312   9.965  -2.000  1.00  0.00    -0.248 NA
ATOM     43  C   UNL     1       0.934   8.908  -0.014  1.00  0.00     0.031 C 
ATOM     44  C   UNL     1       2.783   7.073  -4.318  1.00  0.00     0.029 A 
ATOM     45  N   UNL     1       1.401   8.828  -4.441  1.00  0.00    -0.354 N 
ATOM     46  C   UNL     1      -0.322  10.594  -0.933  1.00  0.00     0.074 A 
ATOM     47  C   UNL     1       0.062   9.869   0.261  1.00  0.00     0.031 C 
ATOM     48  C   UNL     1       2.655   7.397  -5.615  1.00  0.00     0.029 A 
ATOM     49  C   UNL     1       1.747   8.535  -5.740  1.00  0.00     0.049 A 
ATOM     50  H   UNL     1       0.789   9.560  -4.199  1.00  0.00     0.167 HD
ATOM     51  C   UNL     1      -1.133  11.682  -0.940  1.00  0.00     0.037 A 
ATOM     52  C   UNL     1       1.379   9.111  -6.903  1.00  0.00     0.037 A 
ATOM     53  C   UNL     1      -1.512  12.413  -2.123  1.00  0.00     0.049 A 
ATOM     54  C   UNL     1       0.445  10.291  -6.893  1.00  0.00     0.074 A 
ATOM     55  C   UNL     1      -2.272  13.568  -2.216  1.00  0.00     0.029 A 
ATOM     56  N   UNL     1      -1.178  12.056  -3.421  1.00  0.00    -0.354 N 
ATOM     57  N   UNL     1      -0.084  10.914  -5.868  1.00  0.00    -0.248 NA
ATOM     58  C   UNL     1       0.055  10.842  -8.199  1.00  0.00     0.031 C 
ATOM     59  C   UNL     1      -2.439  13.878  -3.571  1.00  0.00     0.029 A 
ATOM     60  C   UNL     1      -1.748  12.943  -4.322  1.00  0.00     0.049 A 
ATOM     61  H   UNL     1      -0.617  11.284  -3.667  1.00  0.00     0.167 HD
ATOM     62  C   UNL     1      -0.861  11.936  -6.404  1.00  0.00     0.074 A 
ATOM     63  C   UNL     1      -0.719  11.859  -7.843  1.00  0.00     0.031 C 
ATOM     64  C   UNL     1      -1.623  12.853  -5.757  1.00  0.00     0.037 A 
BRANCH  51  65
ATOM     65  C   UNL     1      -1.679  12.146   0.385  1.00  0.00     0.058 A 
ATOM     66  C   UNL     1      -0.857  12.752   1.349  1.00  0.00     0.135 A 
ATOM     67  C   UNL     1      -3.042  11.997   0.690  1.00  0.00     0.135 A 
ATOM     68  F   UNL     1       0.454  12.917   1.112  1.00  0.00    -0.206 F 
ATOM     69  C   UNL     1      -1.356  13.148   2.587  1.00  0.00     0.059 A 
ATOM     70  C   UNL     1      -3.568  12.411   1.911  1.00  0.00     0.059 A 
ATOM     71  F   UNL     1      -3.876  11.436  -0.199  1.00  0.00    -0.206 F 
ATOM     72  C   UNL     1      -2.711  12.963   2.863  1.00  0.00     0.060 A 
BRANCH  72  73
ATOM     73  S   UNL     1      -3.340  13.441   4.487  1.00  0.00     0.124 S 
ATOM     74  O   UNL     1      -2.824  12.360   5.325  1.00  0.00    -0.237 OA
ATOM     75  O   UNL     1      -2.716  14.748   4.692  1.00  0.00    -0.237 OA
ATOM     76  O   UNL     1      -4.782  13.460   4.303  1.00  0.00    -0.744 OA
ENDBRANCH  72  73
ENDBRANCH  51  65
BRANCH  52  77
ATOM     77  C   UNL     1       1.921   8.584  -8.183  1.00  0.00     0.058 A 
ATOM     78  C   UNL     1       2.889   9.299  -8.902  1.00  0.00     0.135 A 
ATOM     79  C   UNL     1       1.515   7.339  -8.688  1.00  0.00     0.135 A 
ATOM     80  F   UNL     1       3.297  10.500  -8.466  1.00  0.00    -0.206 F 
ATOM     81  C   UNL     1       3.443   8.796 -10.075  1.00  0.00     0.059 A 
ATOM     82  C   UNL     1       2.070   6.805  -9.847  1.00  0.00     0.059 A 
ATOM     83  F   UNL     1       0.597   6.613  -8.030  1.00  0.00    -0.206 F 
ATOM     84  C   UNL     1       3.033   7.543 -10.534  1.00  0.00     0.060 A 
BRANCH  84  85
ATOM     85  S   UNL     1       3.826   6.858 -12.006  1.00  0.00     0.124 S 
ATOM     86  O   UNL     1       3.227   7.662 -13.064  1.00  0.00    -0.237 OA
ATOM     87  O   UNL     1       5.239   7.106 -11.736  1.00  0.00    -0.237 OA
ATOM     88  O   UNL     1       3.428   5.453 -11.977  1.00  0.00    -0.744 OA
ENDBRANCH  84  85
ENDBRANCH  52  77
BRANCH  64  89
ATOM     89  C   UNL     1      -2.376  13.849  -6.597  1.00  0.00     0.058 A 
ATOM     90  C   UNL     1      -3.518  13.477  -7.323  1.00  0.00     0.135 A 
ATOM     91  C   UNL     1      -1.989  15.198  -6.635  1.00  0.00     0.135 A 
ATOM     92  F   UNL     1      -3.927  12.198  -7.331  1.00  0.00    -0.206 F 
ATOM     93  C   UNL     1      -4.242  14.404  -8.068  1.00  0.00     0.059 A 
ATOM     94  C   UNL     1      -2.711  16.147  -7.354  1.00  0.00     0.059 A 
ATOM     95  F   UNL     1      -0.908  15.611  -5.954  1.00  0.00    -0.206 F 
ATOM     96  C   UNL     1      -3.833  15.738  -8.074  1.00  0.00     0.060 A 
BRANCH  96  97
ATOM     97  S   UNL     1      -4.808  16.939  -9.008  1.00  0.00     0.124 S 
ATOM     98  O   UNL     1      -4.440  16.611 -10.382  1.00  0.00    -0.237 OA
ATOM     99  O   UNL     1      -6.174  16.602  -8.621  1.00  0.00    -0.237 OA
ATOM    100  O   UNL     1      -4.323  18.225  -8.518  1.00  0.00    -0.744 OA
ENDBRANCH  96  97
ENDBRANCH  64  89
ENDBRANCH  38  39
ENDBRANCH  30  33
ENDBRANCH  28  29
ENDBRANCH  27  28
ENDBRANCH  26  27
ENDBRANCH   1  26
TORSDOF 16
