REMARK SMILES COc1ccccc1N1CC[NH+]([C@@H](C(=O)NCCCCNC(=O)c2ccc(-c3c4nc(c(-c5c(F)cc(S(=O)(=O)[O-])cc5F)c5ccc([nH]5)c(-c5c(F)cc(S(=O)(=O)[O-])cc5F)c5nc(c(-c6c(F)cc(S(=O)(=O)[O-])cc6F)c6ccc3[nH]6)C=C5)C=C4)cc2)c2c[nH]c3ccc(OCC#N)cc23)CC1
REMARK SMILES IDX 18 1 17 2 16 3 14 4 15 5 13 7 12 8 9 9 10 10 104 11 11 12
REMARK SMILES IDX 103 13 8 15 3 16 4 17 5 18 7 19 6 20 2 21 1 22 90 23 91 24
REMARK SMILES IDX 102 25 92 26 93 27 101 28 94 30 96 31 95 32 97 33 98 34
REMARK SMILES IDX 99 35 100 36 19 37 20 38 21 39 22 40 23 42 24 43 25 44 89 45
REMARK SMILES IDX 26 46 88 47 27 48 28 49 29 50 82 51 30 52 87 53 81 54 83 55
REMARK SMILES IDX 31 56 86 57 80 58 79 59 32 61 66 62 45 63 65 64 46 65 49 66
REMARK SMILES IDX 64 67 84 68 47 69 48 70 63 72 85 73 50 74 33 75 34 76 43 77
REMARK SMILES IDX 35 78 36 79 42 80 44 81 37 82 38 83 39 84 40 85 41 86 67 87
REMARK SMILES IDX 68 88 77 89 69 90 70 91 76 92 78 93 71 94 72 95 73 96 74 97
REMARK SMILES IDX 75 98 51 99 52 100 61 101 53 102 54 103 60 104 62 105 55 106
REMARK SMILES IDX 56 107 57 108 58 109 59 110
REMARK H PARENT 16 6 12 14 92 29 21 41 83 60 49 71
REMARK Flexibility Score: inf
ROOT
ATOM      1  C   UNL     1       4.208   0.097  -2.214  1.00  0.00     0.023 C 
ENDROOT
BRANCH   1   2
ATOM      2  C   UNL     1       5.535   0.111  -1.371  1.00  0.00     0.116 C 
BRANCH   2   3
ATOM      3  N   UNL     1       5.725   1.170  -0.340  1.00  0.00    -0.351 N 
ATOM      4  C   UNL     1       5.757   1.370   1.035  1.00  0.00     0.283 C 
ATOM      5  O   UNL     1       6.166   2.503   1.339  1.00  0.00    -0.268 OA
ATOM      6  H   UNL     1       5.883   2.030  -0.792  1.00  0.00     0.163 HD
BRANCH   4   7
ATOM      7  C   UNL     1       5.408   0.336   2.183  1.00  0.00     0.307 C 
BRANCH   7   8
ATOM      8  N   UNL     1       4.046  -0.354   2.187  1.00  0.00    -0.318 N 
ATOM      9  N   UNL     1       1.877   1.555   1.583  1.00  0.00    -0.357 N 
ATOM     10  C   UNL     1       2.460   1.482   2.931  1.00  0.00     0.178 C 
ATOM     11  C   UNL     1       2.748   1.045   0.522  1.00  0.00     0.178 C 
ATOM     12  C   UNL     1       2.997   0.059   3.141  1.00  0.00     0.284 C 
ATOM     13  C   UNL     1       3.344  -0.337   0.901  1.00  0.00     0.284 C 
ATOM     14  H   UNL     1       4.410  -1.263   2.473  1.00  0.00     0.349 HD
BRANCH   9  15
ATOM     15  C   UNL     1       1.227   2.740   1.213  1.00  0.00     0.080 A 
ATOM     16  C   UNL     1       0.006   2.755   0.508  1.00  0.00     0.142 A 
ATOM     17  C   UNL     1      -0.559   3.990   0.147  1.00  0.00     0.048 A 
ATOM     18  C   UNL     1       0.066   5.200   0.449  1.00  0.00     0.004 A 
ATOM     19  C   UNL     1       1.855   3.979   1.480  1.00  0.00     0.030 A 
ATOM     20  C   UNL     1       1.284   5.194   1.108  1.00  0.00     0.002 A 
BRANCH  16  21
ATOM     21  O   UNL     1      -0.777   1.708   0.094  1.00  0.00    -0.495 OA
ATOM     22  C   UNL     1      -0.414   0.369   0.375  1.00  0.00     0.278 C 
ENDBRANCH  16  21
ENDBRANCH   9  15
ENDBRANCH   7   8
BRANCH   7  23
ATOM     23  C   UNL     1       5.891   0.736   3.687  1.00  0.00     0.044 A 
ATOM     24  C   UNL     1       6.399  -0.249   4.541  1.00  0.00     0.094 A 
ATOM     25  C   UNL     1       5.383   1.659   4.724  1.00  0.00     0.013 A 
ATOM     26  N   UNL     1       5.349  -0.433   5.423  1.00  0.00    -0.361 N 
ATOM     27  C   UNL     1       4.793   0.804   5.658  1.00  0.00     0.046 A 
ATOM     28  C   UNL     1       5.510   3.020   5.184  1.00  0.00     0.057 A 
ATOM     29  H   UNL     1       5.055  -1.289   5.811  1.00  0.00     0.166 HD
ATOM     30  C   UNL     1       3.864   1.229   6.606  1.00  0.00     0.030 A 
ATOM     31  C   UNL     1       4.843   3.430   6.391  1.00  0.00     0.121 A 
ATOM     32  C   UNL     1       3.887   2.582   6.942  1.00  0.00     0.048 A 
BRANCH  31  33
ATOM     33  O   UNL     1       5.167   4.636   7.013  1.00  0.00    -0.479 OA
BRANCH  33  34
ATOM     34  C   UNL     1       5.037   4.749   8.518  1.00  0.00     0.349 C 
BRANCH  34  35
ATOM     35  C   UNL     1       5.720   3.566   9.187  1.00  0.00     0.104 C 
ATOM     36  N   UNL     1       6.285   2.586   9.741  1.00  0.00    -0.195 NA
ENDBRANCH  34  35
ENDBRANCH  33  34
ENDBRANCH  31  33
ENDBRANCH   7  23
ENDBRANCH   4   7
ENDBRANCH   2   3
ENDBRANCH   1   2
BRANCH   1  37
ATOM     37  C   UNL     1       3.556   1.443  -2.557  1.00  0.00     0.023 C 
BRANCH  37  38
ATOM     38  C   UNL     1       3.676   1.860  -4.010  1.00  0.00     0.116 C 
BRANCH  38  39
ATOM     39  N   UNL     1       2.787   1.117  -4.897  1.00  0.00    -0.352 N 
ATOM     40  C   UNL     1       2.080   1.581  -5.996  1.00  0.00     0.251 C 
ATOM     41  H   UNL     1       2.674   0.162  -4.687  1.00  0.00     0.163 HD
ATOM     42  O   UNL     1       1.276   0.867  -6.556  1.00  0.00    -0.269 OA
BRANCH  40  43
ATOM     43  C   UNL     1       2.302   2.979  -6.455  1.00  0.00     0.039 A 
ATOM     44  C   UNL     1       1.210   3.761  -6.844  1.00  0.00     0.014 A 
ATOM     45  C   UNL     1       3.587   3.520  -6.471  1.00  0.00     0.014 A 
ATOM     46  C   UNL     1       1.407   5.104  -7.184  1.00  0.00     0.010 A 
ATOM     47  C   UNL     1       3.765   4.876  -6.693  1.00  0.00     0.010 A 
ATOM     48  C   UNL     1       2.683   5.679  -7.078  1.00  0.00    -0.014 A 
BRANCH  48  49
ATOM     49  C   UNL     1       2.955   7.096  -7.430  1.00  0.00     0.031 A 
ATOM     50  C   UNL     1       3.939   7.393  -8.534  1.00  0.00     0.074 A 
ATOM     51  C   UNL     1       2.410   8.094  -6.709  1.00  0.00     0.049 A 
ATOM     52  N   UNL     1       4.466   8.534  -8.890  1.00  0.00    -0.248 NA
ATOM     53  C   UNL     1       4.431   6.239  -9.309  1.00  0.00     0.031 C 
ATOM     54  C   UNL     1       1.479   7.925  -5.590  1.00  0.00     0.029 A 
ATOM     55  N   UNL     1       2.576   9.454  -6.796  1.00  0.00    -0.354 N 
ATOM     56  C   UNL     1       5.369   8.230  -9.904  1.00  0.00     0.074 A 
ATOM     57  C   UNL     1       5.369   6.794 -10.060  1.00  0.00     0.031 C 
ATOM     58  C   UNL     1       1.142   9.134  -5.110  1.00  0.00     0.029 A 
ATOM     59  C   UNL     1       1.867  10.161  -5.852  1.00  0.00     0.049 A 
ATOM     60  H   UNL     1       3.150   9.883  -7.471  1.00  0.00     0.167 HD
ATOM     61  C   UNL     1       6.106   9.076 -10.661  1.00  0.00     0.037 A 
ATOM     62  C   UNL     1       1.821  11.485  -5.609  1.00  0.00     0.037 A 
ATOM     63  C   UNL     1       6.056  10.507 -10.527  1.00  0.00     0.049 A 
ATOM     64  C   UNL     1       2.644  12.409  -6.470  1.00  0.00     0.074 A 
ATOM     65  C   UNL     1       6.720  11.465 -11.272  1.00  0.00     0.029 A 
ATOM     66  N   UNL     1       5.286  11.185  -9.594  1.00  0.00    -0.354 N 
ATOM     67  N   UNL     1       3.462  12.109  -7.452  1.00  0.00    -0.248 NA
ATOM     68  C   UNL     1       2.535  13.848  -6.199  1.00  0.00     0.031 C 
ATOM     69  C   UNL     1       6.380  12.722 -10.764  1.00  0.00     0.029 A 
ATOM     70  C   UNL     1       5.462  12.550  -9.739  1.00  0.00     0.049 A 
ATOM     71  H   UNL     1       4.700  10.759  -8.926  1.00  0.00     0.167 HD
ATOM     72  C   UNL     1       3.930  13.324  -7.942  1.00  0.00     0.074 A 
ATOM     73  C   UNL     1       3.303  14.361  -7.150  1.00  0.00     0.031 C 
ATOM     74  C   UNL     1       4.796  13.562  -8.958  1.00  0.00     0.037 A 
BRANCH  61  75
ATOM     75  C   UNL     1       7.005   8.480 -11.709  1.00  0.00     0.058 A 
ATOM     76  C   UNL     1       6.488   7.845 -12.850  1.00  0.00     0.135 A 
ATOM     77  C   UNL     1       8.402   8.576 -11.593  1.00  0.00     0.135 A 
ATOM     78  F   UNL     1       5.161   7.706 -13.004  1.00  0.00    -0.206 F 
ATOM     79  C   UNL     1       7.320   7.305 -13.824  1.00  0.00     0.059 A 
ATOM     80  C   UNL     1       9.254   8.071 -12.572  1.00  0.00     0.059 A 
ATOM     81  F   UNL     1       8.953   9.168 -10.522  1.00  0.00    -0.206 F 
ATOM     82  C   UNL     1       8.703   7.426 -13.678  1.00  0.00     0.060 A 
BRANCH  82  83
ATOM     83  S   UNL     1       9.766   6.739 -14.965  1.00  0.00     0.124 S 
ATOM     84  O   UNL     1       9.611   5.306 -14.736  1.00  0.00    -0.237 OA
ATOM     85  O   UNL     1       9.152   7.255 -16.184  1.00  0.00    -0.237 OA
ATOM     86  O   UNL     1      11.081   7.286 -14.648  1.00  0.00    -0.744 OA
ENDBRANCH  82  83
ENDBRANCH  61  75
BRANCH  62  87
ATOM     87  C   UNL     1       0.954  12.023  -4.525  1.00  0.00     0.058 A 
ATOM     88  C   UNL     1      -0.181  12.792  -4.825  1.00  0.00     0.135 A 
ATOM     89  C   UNL     1       1.240  11.789  -3.171  1.00  0.00     0.135 A 
ATOM     90  F   UNL     1      -0.497  13.048  -6.104  1.00  0.00    -0.206 F 
ATOM     91  C   UNL     1      -0.982  13.336  -3.826  1.00  0.00     0.059 A 
ATOM     92  C   UNL     1       0.437  12.297  -2.153  1.00  0.00     0.059 A 
ATOM     93  F   UNL     1       2.301  11.043  -2.826  1.00  0.00    -0.206 F 
ATOM     94  C   UNL     1      -0.663  13.084  -2.491  1.00  0.00     0.060 A 
BRANCH  94  95
ATOM     95  S   UNL     1      -1.720  13.779  -1.202  1.00  0.00     0.124 S 
ATOM     96  O   UNL     1      -1.369  15.193  -1.265  1.00  0.00    -0.237 OA
ATOM     97  O   UNL     1      -3.055  13.431  -1.679  1.00  0.00    -0.237 OA
ATOM     98  O   UNL     1      -1.289  13.074   0.002  1.00  0.00    -0.744 OA
ENDBRANCH  94  95
ENDBRANCH  62  87
BRANCH  74  99
ATOM     99  C   UNL     1       5.066  14.994  -9.323  1.00  0.00     0.058 A 
ATOM    100  C   UNL     1       5.860  15.827  -8.521  1.00  0.00     0.135 A 
ATOM    101  C   UNL     1       4.588  15.510 -10.539  1.00  0.00     0.135 A 
ATOM    102  F   UNL     1       6.337  15.383  -7.348  1.00  0.00    -0.206 F 
ATOM    103  C   UNL     1       6.159  17.130  -8.906  1.00  0.00     0.059 A 
ATOM    104  C   UNL     1       4.899  16.799 -10.957  1.00  0.00     0.059 A 
ATOM    105  F   UNL     1       3.833  14.748 -11.347  1.00  0.00    -0.206 F 
ATOM    106  C   UNL     1       5.679  17.604 -10.129  1.00  0.00     0.060 A 
BRANCH 106 107
ATOM    107  S   UNL     1       6.122  19.277 -10.641  1.00  0.00     0.124 S 
ATOM    108  O   UNL     1       5.296  20.085  -9.750  1.00  0.00    -0.237 OA
ATOM    109  O   UNL     1       7.558  19.312 -10.382  1.00  0.00    -0.237 OA
ATOM    110  O   UNL     1       5.745  19.313 -12.051  1.00  0.00    -0.744 OA
ENDBRANCH 106 107
ENDBRANCH  74  99
ENDBRANCH  48  49
ENDBRANCH  40  43
ENDBRANCH  38  39
ENDBRANCH  37  38
ENDBRANCH   1  37
TORSDOF 21
