REMARK SMILES COc1ccc(OCCNc2c(Cl)cccc2C(=O)NCCCCNC(=O)c2ccc(-c3c4nc(c(-c5c(F)cc(S(=O)(=O)[O-])cc5F)c5ccc([nH]5)c(-c5c(F)cc(S(=O)(=O)[O-])cc5F)c5nc(c(-c6c(F)cc(S(=O)(=O)[O-])cc6F)c6ccc3[nH]6)C=C5)C=C4)cc2)cc1
REMARK SMILES IDX 21 1 20 2 18 3 19 4 17 6 11 7 12 8 13 9 14 10 16 11 15 12
REMARK SMILES IDX 10 13 9 15 8 16 7 17 6 18 3 19 4 20 95 21 5 22 94 23 2 24
REMARK SMILES IDX 1 25 22 26 23 27 24 28 25 29 26 30 27 32 28 33 29 34 93 35
REMARK SMILES IDX 30 36 92 37 31 38 32 39 33 40 86 41 34 42 91 43 85 44 87 45
REMARK SMILES IDX 35 46 90 47 84 48 83 49 36 51 70 52 49 53 69 54 50 55 53 56
REMARK SMILES IDX 68 57 88 58 51 59 52 60 67 62 89 63 54 64 37 65 38 66 47 67
REMARK SMILES IDX 39 68 40 69 46 70 48 71 41 72 42 73 43 74 44 75 45 76 71 77
REMARK SMILES IDX 72 78 81 79 73 80 74 81 80 82 82 83 75 84 76 85 77 86 78 87
REMARK SMILES IDX 79 88 55 89 56 90 65 91 57 92 58 93 64 94 66 95 59 96 60 97
REMARK SMILES IDX 61 98 62 99 63 100
REMARK H PARENT 20 5 10 14 25 31 87 50 53 61
REMARK Flexibility Score: inf
ROOT
ATOM      1  C   UNL     1       2.491  -0.302  -5.797  1.00  0.00     0.116 C 
ENDROOT
BRANCH   1   2
ATOM      2  N   UNL     1       3.615   0.096  -6.618  1.00  0.00    -0.352 N 
ATOM      3  C   UNL     1       4.958   0.145  -6.326  1.00  0.00     0.253 C 
ATOM      4  O   UNL     1       5.734   0.465  -7.229  1.00  0.00    -0.269 OA
ATOM      5  H   UNL     1       3.380   0.377  -7.532  1.00  0.00     0.163 HD
BRANCH   3   6
ATOM      6  C   UNL     1       5.526  -0.056  -4.965  1.00  0.00     0.064 A 
ATOM      7  C   UNL     1       5.342  -1.176  -4.132  1.00  0.00     0.066 A 
ATOM      8  C   UNL     1       5.987  -1.145  -2.863  1.00  0.00     0.065 A 
ATOM      9  Cl  UNL     1       5.794  -2.443  -1.722  1.00  0.00    -0.082 Cl
ATOM     10  C   UNL     1       6.810  -0.092  -2.458  1.00  0.00     0.023 A 
ATOM     11  C   UNL     1       6.387   0.990  -4.553  1.00  0.00     0.016 A 
ATOM     12  C   UNL     1       7.018   0.979  -3.310  1.00  0.00     0.003 A 
BRANCH   7  13
ATOM     13  N   UNL     1       4.423  -2.185  -4.354  1.00  0.00    -0.380 N 
ATOM     14  H   UNL     1       3.681  -2.248  -3.710  1.00  0.00     0.160 HD
BRANCH  13  15
ATOM     15  C   UNL     1       4.425  -3.163  -5.430  1.00  0.00     0.154 C 
BRANCH  15  16
ATOM     16  C   UNL     1       3.410  -4.305  -5.135  1.00  0.00     0.250 C 
BRANCH  16  17
ATOM     17  O   UNL     1       2.042  -3.879  -4.974  1.00  0.00    -0.492 OA
BRANCH  17  18
ATOM     18  C   UNL     1       1.581  -3.494  -3.741  1.00  0.00     0.119 A 
ATOM     19  C   UNL     1       0.593  -2.177  -1.474  1.00  0.00     0.119 A 
ATOM     20  C   UNL     1      -0.242  -2.397  -2.563  1.00  0.00     0.050 A 
ATOM     21  C   UNL     1       1.868  -2.730  -1.458  1.00  0.00     0.050 A 
ATOM     22  C   UNL     1       0.257  -3.045  -3.699  1.00  0.00     0.050 A 
ATOM     23  C   UNL     1       2.343  -3.420  -2.577  1.00  0.00     0.050 A 
BRANCH  19  24
ATOM     24  O   UNL     1       0.102  -1.473  -0.409  1.00  0.00    -0.497 OA
ATOM     25  C   UNL     1       0.839  -0.268  -0.192  1.00  0.00     0.278 C 
ENDBRANCH  19  24
ENDBRANCH  17  18
ENDBRANCH  16  17
ENDBRANCH  15  16
ENDBRANCH  13  15
ENDBRANCH   7  13
ENDBRANCH   3   6
ENDBRANCH   1   2
BRANCH   1  26
ATOM     26  C   UNL     1       1.118   0.029  -6.373  1.00  0.00     0.023 C 
BRANCH  26  27
ATOM     27  C   UNL     1       0.825  -0.488  -7.787  1.00  0.00     0.023 C 
BRANCH  27  28
ATOM     28  C   UNL     1       1.222  -1.928  -8.116  1.00  0.00     0.116 C 
BRANCH  28  29
ATOM     29  N   UNL     1       0.463  -2.939  -7.396  1.00  0.00    -0.352 N 
ATOM     30  C   UNL     1      -0.537  -3.788  -7.816  1.00  0.00     0.251 C 
ATOM     31  H   UNL     1       0.704  -3.031  -6.446  1.00  0.00     0.163 HD
ATOM     32  O   UNL     1      -1.148  -4.467  -6.992  1.00  0.00    -0.269 OA
BRANCH  30  33
ATOM     33  C   UNL     1      -0.899  -3.878  -9.248  1.00  0.00     0.039 A 
ATOM     34  C   UNL     1      -2.248  -3.866  -9.615  1.00  0.00     0.014 A 
ATOM     35  C   UNL     1       0.085  -3.983 -10.233  1.00  0.00     0.014 A 
ATOM     36  C   UNL     1      -2.601  -3.837 -10.969  1.00  0.00     0.010 A 
ATOM     37  C   UNL     1      -0.263  -3.871 -11.578  1.00  0.00     0.010 A 
ATOM     38  C   UNL     1      -1.609  -3.773 -11.962  1.00  0.00    -0.014 A 
BRANCH  38  39
ATOM     39  C   UNL     1      -1.951  -3.551 -13.394  1.00  0.00     0.031 A 
ATOM     40  C   UNL     1      -1.579  -4.570 -14.438  1.00  0.00     0.074 A 
ATOM     41  C   UNL     1      -2.519  -2.385 -13.766  1.00  0.00     0.049 A 
ATOM     42  N   UNL     1      -1.701  -4.502 -15.739  1.00  0.00    -0.248 NA
ATOM     43  C   UNL     1      -0.969  -5.820 -13.958  1.00  0.00     0.031 C 
ATOM     44  C   UNL     1      -2.888  -1.296 -12.859  1.00  0.00     0.029 A 
ATOM     45  N   UNL     1      -2.873  -1.912 -15.006  1.00  0.00    -0.354 N 
ATOM     46  C   UNL     1      -1.179  -5.691 -16.234  1.00  0.00     0.074 A 
ATOM     47  C   UNL     1      -0.687  -6.439 -15.096  1.00  0.00     0.031 C 
ATOM     48  C   UNL     1      -3.435  -0.295 -13.567  1.00  0.00     0.029 A 
ATOM     49  C   UNL     1      -3.412  -0.645 -14.983  1.00  0.00     0.049 A 
ATOM     50  H   UNL     1      -2.752  -2.430 -15.835  1.00  0.00     0.167 HD
ATOM     51  C   UNL     1      -1.135  -6.132 -17.515  1.00  0.00     0.037 A 
ATOM     52  C   UNL     1      -3.827   0.152 -15.988  1.00  0.00     0.037 A 
ATOM     53  C   UNL     1      -1.636  -5.388 -18.642  1.00  0.00     0.049 A 
ATOM     54  C   UNL     1      -3.734  -0.345 -17.406  1.00  0.00     0.074 A 
ATOM     55  C   UNL     1      -1.675  -5.768 -19.973  1.00  0.00     0.029 A 
ATOM     56  N   UNL     1      -2.182  -4.115 -18.576  1.00  0.00    -0.354 N 
ATOM     57  N   UNL     1      -3.291  -1.498 -17.848  1.00  0.00    -0.248 NA
ATOM     58  C   UNL     1      -4.198   0.565 -18.463  1.00  0.00     0.031 C 
ATOM     59  C   UNL     1      -2.198  -4.705 -20.717  1.00  0.00     0.029 A 
ATOM     60  C   UNL     1      -2.539  -3.685 -19.844  1.00  0.00     0.049 A 
ATOM     61  H   UNL     1      -2.299  -3.593 -17.749  1.00  0.00     0.167 HD
ATOM     62  C   UNL     1      -3.453  -1.464 -19.229  1.00  0.00     0.074 A 
ATOM     63  C   UNL     1      -4.045  -0.181 -19.548  1.00  0.00     0.031 C 
ATOM     64  C   UNL     1      -3.141  -2.410 -20.149  1.00  0.00     0.037 A 
BRANCH  51  65
ATOM     65  C   UNL     1      -0.531  -7.487 -17.767  1.00  0.00     0.058 A 
ATOM     66  C   UNL     1      -1.171  -8.666 -17.351  1.00  0.00     0.135 A 
ATOM     67  C   UNL     1       0.678  -7.616 -18.471  1.00  0.00     0.135 A 
ATOM     68  F   UNL     1      -2.322  -8.604 -16.664  1.00  0.00    -0.206 F 
ATOM     69  C   UNL     1      -0.620  -9.920 -17.594  1.00  0.00     0.059 A 
ATOM     70  C   UNL     1       1.233  -8.861 -18.753  1.00  0.00     0.059 A 
ATOM     71  F   UNL     1       1.332  -6.523 -18.896  1.00  0.00    -0.206 F 
ATOM     72  C   UNL     1       0.583 -10.007 -18.297  1.00  0.00     0.060 A 
BRANCH  72  73
ATOM     73  S   UNL     1       1.281 -11.643 -18.606  1.00  0.00     0.124 S 
ATOM     74  O   UNL     1       1.729 -12.025 -17.270  1.00  0.00    -0.237 OA
ATOM     75  O   UNL     1       0.131 -12.379 -19.123  1.00  0.00    -0.237 OA
ATOM     76  O   UNL     1       2.342 -11.384 -19.573  1.00  0.00    -0.744 OA
ENDBRANCH  72  73
ENDBRANCH  51  65
BRANCH  52  77
ATOM     77  C   UNL     1      -4.380   1.503 -15.693  1.00  0.00     0.058 A 
ATOM     78  C   UNL     1      -5.737   1.788 -15.907  1.00  0.00     0.135 A 
ATOM     79  C   UNL     1      -3.567   2.536 -15.199  1.00  0.00     0.135 A 
ATOM     80  F   UNL     1      -6.554   0.837 -16.384  1.00  0.00    -0.206 F 
ATOM     81  C   UNL     1      -6.264   3.052 -15.667  1.00  0.00     0.059 A 
ATOM     82  C   UNL     1      -4.078   3.801 -14.923  1.00  0.00     0.059 A 
ATOM     83  F   UNL     1      -2.265   2.313 -14.961  1.00  0.00    -0.206 F 
ATOM     84  C   UNL     1      -5.426   4.053 -15.174  1.00  0.00     0.060 A 
BRANCH  84  85
ATOM     85  S   UNL     1      -6.128   5.682 -14.836  1.00  0.00     0.124 S 
ATOM     86  O   UNL     1      -6.343   6.194 -16.184  1.00  0.00    -0.237 OA
ATOM     87  O   UNL     1      -7.330   5.347 -14.080  1.00  0.00    -0.237 OA
ATOM     88  O   UNL     1      -5.079   6.347 -14.068  1.00  0.00    -0.744 OA
ENDBRANCH  84  85
ENDBRANCH  52  77
BRANCH  64  89
ATOM     89  C   UNL     1      -3.468  -2.118 -21.588  1.00  0.00     0.058 A 
ATOM     90  C   UNL     1      -2.736  -1.185 -22.339  1.00  0.00     0.135 A 
ATOM     91  C   UNL     1      -4.487  -2.830 -22.242  1.00  0.00     0.135 A 
ATOM     92  F   UNL     1      -1.758  -0.471 -21.761  1.00  0.00    -0.206 F 
ATOM     93  C   UNL     1      -3.014  -0.956 -23.683  1.00  0.00     0.059 A 
ATOM     94  C   UNL     1      -4.763  -2.639 -23.592  1.00  0.00     0.059 A 
ATOM     95  F   UNL     1      -5.213  -3.740 -21.573  1.00  0.00    -0.206 F 
ATOM     96  C   UNL     1      -4.026  -1.693 -24.303  1.00  0.00     0.060 A 
BRANCH  96  97
ATOM     97  S   UNL     1      -4.340  -1.422 -26.060  1.00  0.00     0.124 S 
ATOM     98  O   UNL     1      -4.978  -0.110 -26.047  1.00  0.00    -0.237 OA
ATOM     99  O   UNL     1      -2.995  -1.467 -26.627  1.00  0.00    -0.237 OA
ATOM    100  O   UNL     1      -5.206  -2.538 -26.427  1.00  0.00    -0.744 OA
ENDBRANCH  96  97
ENDBRANCH  64  89
ENDBRANCH  38  39
ENDBRANCH  30  33
ENDBRANCH  28  29
ENDBRANCH  27  28
ENDBRANCH  26  27
ENDBRANCH   1  26
TORSDOF 20
