REMARK SMILES O=C(NCCCCNC(=O)[C@H](F)Sc1cc2ccccc2[nH]1)c1ccc(-c2c3nc(c(-c4c(F)cc(S(=O)(=O)[O-])cc4F)c4ccc([nH]4)c(-c4c(F)cc(S(=O)(=O)[O-])cc4F)c4nc(c(-c5c(F)cc(S(=O)(=O)[O-])cc5F)c5ccc2[nH]5)C=C4)C=C3)cc1
REMARK SMILES IDX 5 1 4 2 3 3 1 4 2 5 23 7 24 8 88 9 25 10 87 11 26 12 27 13
REMARK SMILES IDX 28 14 81 15 29 16 86 17 80 18 82 19 30 20 85 21 79 22 78 23
REMARK SMILES IDX 31 25 65 26 44 27 64 28 45 29 48 30 63 31 83 32 46 33 47 34
REMARK SMILES IDX 62 36 84 37 49 38 32 39 33 40 42 41 34 42 35 43 41 44 43 45
REMARK SMILES IDX 36 46 37 47 38 48 39 49 40 50 66 51 67 52 76 53 68 54 69 55
REMARK SMILES IDX 75 56 77 57 70 58 71 59 72 60 73 61 74 62 50 63 51 64 60 65
REMARK SMILES IDX 52 66 53 67 59 68 61 69 54 70 55 71 56 72 57 73 58 74 6 75
REMARK SMILES IDX 7 76 8 77 9 78 10 80 11 81 12 82 13 83 14 84 15 85 22 86
REMARK SMILES IDX 16 87 21 88 17 90 20 91 18 92 19 93
REMARK H PARENT 3 6 82 24 48 35 8 79 22 89
REMARK Flexibility Score: inf
ROOT
ATOM      1  C   UNL     1       8.007  -8.815   0.265  1.00  0.00     0.023 C 
ENDROOT
BRANCH   1   2
ATOM      2  C   UNL     1       7.649 -10.270  -0.017  1.00  0.00     0.116 C 
BRANCH   2   3
ATOM      3  N   UNL     1       8.772 -11.063  -0.494  1.00  0.00    -0.352 N 
ATOM      4  O   UNL     1      10.275 -12.741  -0.515  1.00  0.00    -0.269 OA
ATOM      5  C   UNL     1       9.242 -12.275  -0.041  1.00  0.00     0.251 C 
ATOM      6  H   UNL     1       9.268 -10.675  -1.251  1.00  0.00     0.163 HD
BRANCH   5   7
ATOM      7  C   UNL     1       8.530 -12.995   1.040  1.00  0.00     0.039 A 
ATOM      8  C   UNL     1       7.140 -13.129   1.022  1.00  0.00     0.014 A 
ATOM      9  C   UNL     1       9.268 -13.530   2.100  1.00  0.00     0.014 A 
ATOM     10  C   UNL     1       6.481 -13.640   2.137  1.00  0.00     0.010 A 
ATOM     11  C   UNL     1       8.607 -14.117   3.184  1.00  0.00     0.010 A 
ATOM     12  C   UNL     1       7.205 -14.131   3.236  1.00  0.00    -0.014 A 
BRANCH  12  13
ATOM     13  C   UNL     1       6.470 -14.653   4.420  1.00  0.00     0.031 A 
ATOM     14  C   UNL     1       6.557 -13.960   5.755  1.00  0.00     0.074 A 
ATOM     15  C   UNL     1       5.679 -15.734   4.276  1.00  0.00     0.049 A 
ATOM     16  N   UNL     1       5.936 -14.243   6.873  1.00  0.00    -0.248 NA
ATOM     17  C   UNL     1       7.462 -12.804   5.853  1.00  0.00     0.031 C 
ATOM     18  C   UNL     1       5.521 -16.503   3.039  1.00  0.00     0.029 A 
ATOM     19  N   UNL     1       4.840 -16.359   5.164  1.00  0.00    -0.354 N 
ATOM     20  C   UNL     1       6.394 -13.324   7.811  1.00  0.00     0.074 A 
ATOM     21  C   UNL     1       7.360 -12.484   7.136  1.00  0.00     0.031 C 
ATOM     22  C   UNL     1       4.601 -17.460   3.231  1.00  0.00     0.029 A 
ATOM     23  C   UNL     1       4.137 -17.404   4.613  1.00  0.00     0.049 A 
ATOM     24  H   UNL     1       4.751 -16.085   6.105  1.00  0.00     0.167 HD
ATOM     25  C   UNL     1       6.037 -13.188   9.111  1.00  0.00     0.037 A 
ATOM     26  C   UNL     1       3.220 -18.226   5.157  1.00  0.00     0.037 A 
ATOM     27  C   UNL     1       5.051 -14.004   9.773  1.00  0.00     0.049 A 
ATOM     28  C   UNL     1       2.826 -18.040   6.594  1.00  0.00     0.074 A 
ATOM     29  C   UNL     1       4.590 -13.914  11.076  1.00  0.00     0.029 A 
ATOM     30  N   UNL     1       4.371 -15.060   9.184  1.00  0.00    -0.354 N 
ATOM     31  N   UNL     1       3.248 -17.145   7.454  1.00  0.00    -0.248 NA
ATOM     32  C   UNL     1       1.831 -18.976   7.133  1.00  0.00     0.031 C 
ATOM     33  C   UNL     1       3.655 -14.934  11.283  1.00  0.00     0.029 A 
ATOM     34  C   UNL     1       3.505 -15.636  10.099  1.00  0.00     0.049 A 
ATOM     35  H   UNL     1       4.486 -15.355   8.252  1.00  0.00     0.167 HD
ATOM     36  C   UNL     1       2.553 -17.395   8.631  1.00  0.00     0.074 A 
ATOM     37  C   UNL     1       1.677 -18.519   8.369  1.00  0.00     0.031 C 
ATOM     38  C   UNL     1       2.634 -16.751   9.821  1.00  0.00     0.037 A 
BRANCH  25  39
ATOM     39  C   UNL     1       6.732 -12.124   9.916  1.00  0.00     0.058 A 
ATOM     40  C   UNL     1       6.449 -10.760   9.743  1.00  0.00     0.135 A 
ATOM     41  C   UNL     1       7.676 -12.477  10.895  1.00  0.00     0.135 A 
ATOM     42  F   UNL     1       5.566 -10.366   8.812  1.00  0.00    -0.206 F 
ATOM     43  C   UNL     1       7.099  -9.782  10.490  1.00  0.00     0.059 A 
ATOM     44  C   UNL     1       8.321 -11.518  11.669  1.00  0.00     0.059 A 
ATOM     45  F   UNL     1       7.981 -13.768  11.104  1.00  0.00    -0.206 F 
ATOM     46  C   UNL     1       8.039 -10.171  11.447  1.00  0.00     0.060 A 
BRANCH  46  47
ATOM     47  S   UNL     1       8.887  -8.893  12.400  1.00  0.00     0.124 S 
ATOM     48  O   UNL     1       9.855  -8.400  11.426  1.00  0.00    -0.237 OA
ATOM     49  O   UNL     1       7.802  -7.975  12.733  1.00  0.00    -0.237 OA
ATOM     50  O   UNL     1       9.449  -9.628  13.529  1.00  0.00    -0.744 OA
ENDBRANCH  46  47
ENDBRANCH  25  39
BRANCH  26  51
ATOM     51  C   UNL     1       2.592 -19.280   4.320  1.00  0.00     0.058 A 
ATOM     52  C   UNL     1       1.260 -19.166   3.899  1.00  0.00     0.135 A 
ATOM     53  C   UNL     1       3.322 -20.401   3.897  1.00  0.00     0.135 A 
ATOM     54  F   UNL     1       0.523 -18.113   4.283  1.00  0.00    -0.206 F 
ATOM     55  C   UNL     1       0.668 -20.131   3.091  1.00  0.00     0.059 A 
ATOM     56  C   UNL     1       2.759 -21.367   3.069  1.00  0.00     0.059 A 
ATOM     57  F   UNL     1       4.606 -20.545   4.260  1.00  0.00    -0.206 F 
ATOM     58  C   UNL     1       1.428 -21.227   2.678  1.00  0.00     0.060 A 
BRANCH  58  59
ATOM     59  S   UNL     1       0.675 -22.440   1.573  1.00  0.00     0.124 S 
ATOM     60  O   UNL     1      -0.153 -23.204   2.499  1.00  0.00    -0.237 OA
ATOM     61  O   UNL     1      -0.042 -21.593   0.625  1.00  0.00    -0.237 OA
ATOM     62  O   UNL     1       1.827 -23.147   1.021  1.00  0.00    -0.744 OA
ENDBRANCH  58  59
ENDBRANCH  26  51
BRANCH  38  63
ATOM     63  C   UNL     1       1.723 -17.224  10.918  1.00  0.00     0.058 A 
ATOM     64  C   UNL     1       1.966 -18.418  11.614  1.00  0.00     0.135 A 
ATOM     65  C   UNL     1       0.605 -16.461  11.291  1.00  0.00     0.135 A 
ATOM     66  F   UNL     1       3.018 -19.187  11.290  1.00  0.00    -0.206 F 
ATOM     67  C   UNL     1       1.116 -18.855  12.624  1.00  0.00     0.059 A 
ATOM     68  C   UNL     1      -0.246 -16.868  12.313  1.00  0.00     0.059 A 
ATOM     69  F   UNL     1       0.335 -15.307  10.662  1.00  0.00    -0.206 F 
ATOM     70  C   UNL     1       0.009 -18.075  12.963  1.00  0.00     0.060 A 
BRANCH  70  71
ATOM     71  S   UNL     1      -1.084 -18.640  14.285  1.00  0.00     0.124 S 
ATOM     72  O   UNL     1      -1.878 -19.652  13.595  1.00  0.00    -0.237 OA
ATOM     73  O   UNL     1      -0.143 -19.143  15.281  1.00  0.00    -0.237 OA
ATOM     74  O   UNL     1      -1.804 -17.429  14.668  1.00  0.00    -0.744 OA
ENDBRANCH  70  71
ENDBRANCH  38  63
ENDBRANCH  12  13
ENDBRANCH   5   7
ENDBRANCH   2   3
ENDBRANCH   1   2
BRANCH   1  75
ATOM     75  C   UNL     1       8.503  -8.002  -0.930  1.00  0.00     0.023 C 
BRANCH  75  76
ATOM     76  C   UNL     1       7.614  -8.034  -2.171  1.00  0.00     0.116 C 
BRANCH  76  77
ATOM     77  N   UNL     1       6.261  -7.567  -1.921  1.00  0.00    -0.353 N 
ATOM     78  C   UNL     1       5.546  -6.571  -2.541  1.00  0.00     0.265 C 
ATOM     79  H   UNL     1       5.785  -8.035  -1.197  1.00  0.00     0.163 HD
ATOM     80  O   UNL     1       4.365  -6.440  -2.202  1.00  0.00    -0.271 OA
BRANCH  78  81
ATOM     81  C   UNL     1       6.236  -5.684  -3.592  1.00  0.00     0.319 C 
ATOM     82  F   UNL     1       6.861  -4.611  -3.027  1.00  0.00    -0.224 F 
BRANCH  81  83
ATOM     83  S   UNL     1       5.096  -5.153  -4.902  1.00  0.00    -0.061 SA
BRANCH  83  84
ATOM     84  C   UNL     1       4.242  -3.846  -4.164  1.00  0.00     0.076 A 
ATOM     85  C   UNL     1       4.460  -2.491  -4.171  1.00  0.00     0.043 A 
ATOM     86  N   UNL     1       3.089  -4.097  -3.476  1.00  0.00    -0.350 N 
ATOM     87  C   UNL     1       3.355  -1.883  -3.510  1.00  0.00     0.001 A 
ATOM     88  C   UNL     1       2.499  -2.909  -3.104  1.00  0.00     0.046 A 
ATOM     89  H   UNL     1       2.733  -4.992  -3.275  1.00  0.00     0.167 HD
ATOM     90  C   UNL     1       2.994  -0.550  -3.234  1.00  0.00     0.010 A 
ATOM     91  C   UNL     1       1.288  -2.666  -2.445  1.00  0.00     0.027 A 
ATOM     92  C   UNL     1       1.784  -0.290  -2.579  1.00  0.00     0.001 A 
ATOM     93  C   UNL     1       0.944  -1.334  -2.195  1.00  0.00     0.002 A 
ENDBRANCH  83  84
ENDBRANCH  81  83
ENDBRANCH  78  81
ENDBRANCH  76  77
ENDBRANCH  75  76
ENDBRANCH   1  75
TORSDOF 16
