REMARK SMILES NC(=O)c1cc(NC(=O)/C=C\C(=O)NCCCCNC(=O)c2ccc(-c3c4nc(c(-c5c(F)cc(S(=O)(=O)[O-])cc5F)c5ccc([nH]5)c(-c5c(F)cc(S(=O)(=O)[O-])cc5F)c5nc(c(-c6c(F)cc(S(=O)(=O)[O-])cc6F)c6ccc3[nH]6)C=C5)C=C4)cc2)ccc1N1CCOCC1
REMARK SMILES IDX 16 1 15 2 14 3 12 4 13 5 11 7 10 8 8 9 7 10 9 12 6 13 4 14
REMARK SMILES IDX 5 15 90 16 89 17 88 18 2 19 1 20 3 23 91 24 92 25 96 26
REMARK SMILES IDX 93 27 95 28 94 29 17 30 18 31 19 32 20 33 21 35 22 36 23 37
REMARK SMILES IDX 87 38 24 39 86 40 25 41 26 42 27 43 80 44 28 45 85 46 79 47
REMARK SMILES IDX 81 48 29 49 84 50 78 51 77 52 30 54 64 55 43 56 63 57 44 58
REMARK SMILES IDX 47 59 62 60 82 61 45 62 46 63 61 65 83 66 48 67 31 68 32 69
REMARK SMILES IDX 41 70 33 71 34 72 40 73 42 74 35 75 36 76 37 77 38 78 39 79
REMARK SMILES IDX 65 80 66 81 75 82 67 83 68 84 74 85 76 86 69 87 70 88 71 89
REMARK SMILES IDX 72 90 73 91 49 92 50 93 59 94 51 95 52 96 58 97 60 98 53 99
REMARK SMILES IDX 54 100 55 101 56 102 57 103
REMARK H PARENT 14 6 7 11 1 21 1 22 19 34 81 53 47 64
REMARK Flexibility Score: inf
ROOT
ATOM      1  C   UNL     1       0.437   7.780   1.009  1.00  0.00     0.023 C 
ENDROOT
BRANCH   1   2
ATOM      2  C   UNL     1      -0.568   7.118   0.074  1.00  0.00     0.116 C 
BRANCH   2   3
ATOM      3  N   UNL     1      -0.227   5.784  -0.365  1.00  0.00    -0.353 N 
ATOM      4  C   UNL     1      -0.822   4.627   0.016  1.00  0.00     0.244 C 
ATOM      5  O   UNL     1      -0.983   3.718  -0.793  1.00  0.00    -0.270 OA
ATOM      6  H   UNL     1       0.514   5.708  -1.009  1.00  0.00     0.163 HD
BRANCH   4   7
ATOM      7  C   UNL     1      -1.328   4.455   1.389  1.00  0.00     0.077 C 
ATOM      8  C   UNL     1      -0.642   4.501   2.541  1.00  0.00     0.077 C 
BRANCH   8   9
ATOM      9  C   UNL     1       0.755   4.891   2.849  1.00  0.00     0.248 C 
ATOM     10  N   UNL     1       1.813   4.653   2.034  1.00  0.00    -0.322 N 
ATOM     11  H   UNL     1       2.586   5.238   2.209  1.00  0.00     0.170 HD
ATOM     12  O   UNL     1       0.940   5.526   3.891  1.00  0.00    -0.270 OA
BRANCH  10  13
ATOM     13  C   UNL     1       2.023   3.742   0.996  1.00  0.00     0.042 A 
ATOM     14  C   UNL     1       1.563   1.686  -0.214  1.00  0.00     0.064 A 
ATOM     15  C   UNL     1       1.321   2.551   0.872  1.00  0.00     0.042 A 
ATOM     16  C   UNL     1       2.555   1.966  -1.170  1.00  0.00     0.050 A 
ATOM     17  C   UNL     1       3.249   3.182  -1.009  1.00  0.00     0.029 A 
ATOM     18  C   UNL     1       3.012   4.042   0.064  1.00  0.00     0.028 A 
BRANCH  14  19
ATOM     19  C   UNL     1       0.754   0.450  -0.190  1.00  0.00     0.250 C 
ATOM     20  N   UNL     1       1.057  -0.418   0.825  1.00  0.00    -0.366 N 
ATOM     21  H   UNL     1       0.564  -1.265   0.911  1.00  0.00     0.159 HD
ATOM     22  H   UNL     1       1.769  -0.194   1.467  1.00  0.00     0.159 HD
ATOM     23  O   UNL     1      -0.146   0.214  -0.979  1.00  0.00    -0.269 OA
ENDBRANCH  14  19
BRANCH  16  24
ATOM     24  N   UNL     1       2.991   1.139  -2.191  1.00  0.00    -0.366 N 
ATOM     25  C   UNL     1       2.119   0.308  -3.032  1.00  0.00     0.145 C 
ATOM     26  C   UNL     1       4.369   0.629  -2.092  1.00  0.00     0.145 C 
ATOM     27  C   UNL     1       2.220  -1.183  -2.647  1.00  0.00     0.181 C 
ATOM     28  C   UNL     1       4.314  -0.821  -1.596  1.00  0.00     0.181 C 
ATOM     29  O   UNL     1       3.583  -1.642  -2.523  1.00  0.00    -0.378 OA
ENDBRANCH  16  24
ENDBRANCH  10  13
ENDBRANCH   8   9
ENDBRANCH   4   7
ENDBRANCH   2   3
ENDBRANCH   1   2
BRANCH   1  30
ATOM     30  C   UNL     1       1.883   7.840   0.516  1.00  0.00     0.023 C 
BRANCH  30  31
ATOM     31  C   UNL     1       2.077   8.447  -0.865  1.00  0.00     0.116 C 
BRANCH  31  32
ATOM     32  N   UNL     1       1.542   9.793  -0.929  1.00  0.00    -0.352 N 
ATOM     33  C   UNL     1       2.149  10.950  -1.340  1.00  0.00     0.251 C 
ATOM     34  H   UNL     1       0.607   9.890  -0.635  1.00  0.00     0.163 HD
ATOM     35  O   UNL     1       1.636  12.029  -1.058  1.00  0.00    -0.269 OA
BRANCH  33  36
ATOM     36  C   UNL     1       3.399  10.902  -2.130  1.00  0.00     0.039 A 
ATOM     37  C   UNL     1       4.353  11.905  -1.938  1.00  0.00     0.014 A 
ATOM     38  C   UNL     1       3.592   9.931  -3.118  1.00  0.00     0.014 A 
ATOM     39  C   UNL     1       5.493  11.940  -2.741  1.00  0.00     0.010 A 
ATOM     40  C   UNL     1       4.765   9.920  -3.864  1.00  0.00     0.010 A 
ATOM     41  C   UNL     1       5.704  10.950  -3.714  1.00  0.00    -0.014 A 
BRANCH  41  42
ATOM     42  C   UNL     1       6.855  11.027  -4.646  1.00  0.00     0.031 A 
ATOM     43  C   UNL     1       6.605  11.246  -6.116  1.00  0.00     0.074 A 
ATOM     44  C   UNL     1       8.107  10.864  -4.180  1.00  0.00     0.049 A 
ATOM     45  N   UNL     1       7.460  11.293  -7.104  1.00  0.00    -0.248 NA
ATOM     46  C   UNL     1       5.201  11.399  -6.535  1.00  0.00     0.031 C 
ATOM     47  C   UNL     1       8.461  10.604  -2.784  1.00  0.00     0.029 A 
ATOM     48  N   UNL     1       9.312  10.888  -4.831  1.00  0.00    -0.354 N 
ATOM     49  C   UNL     1       6.699  11.458  -8.257  1.00  0.00     0.074 A 
ATOM     50  C   UNL     1       5.311  11.442  -7.853  1.00  0.00     0.031 C 
ATOM     51  C   UNL     1       9.797  10.514  -2.680  1.00  0.00     0.029 A 
ATOM     52  C   UNL     1      10.389  10.680  -4.004  1.00  0.00     0.049 A 
ATOM     53  H   UNL     1       9.399  11.039  -5.800  1.00  0.00     0.167 HD
ATOM     54  C   UNL     1       7.120  11.634  -9.532  1.00  0.00     0.037 A 
ATOM     55  C   UNL     1      11.706  10.631  -4.285  1.00  0.00     0.037 A 
ATOM     56  C   UNL     1       8.508  11.683  -9.913  1.00  0.00     0.049 A 
ATOM     57  C   UNL     1      12.154  10.863  -5.702  1.00  0.00     0.074 A 
ATOM     58  C   UNL     1       9.052  11.906 -11.165  1.00  0.00     0.029 A 
ATOM     59  N   UNL     1       9.572  11.510  -9.038  1.00  0.00    -0.354 N 
ATOM     60  N   UNL     1      11.424  11.068  -6.775  1.00  0.00    -0.248 NA
ATOM     61  C   UNL     1      13.601  10.877  -5.946  1.00  0.00     0.031 C 
ATOM     62  C   UNL     1      10.445  11.831 -11.054  1.00  0.00     0.029 A 
ATOM     63  C   UNL     1      10.770  11.614  -9.723  1.00  0.00     0.049 A 
ATOM     64  H   UNL     1       9.487  11.339  -8.072  1.00  0.00     0.167 HD
ATOM     65  C   UNL     1      12.325  11.270  -7.814  1.00  0.00     0.074 A 
ATOM     66  C   UNL     1      13.652  11.170  -7.239  1.00  0.00     0.031 C 
ATOM     67  C   UNL     1      12.079  11.521  -9.125  1.00  0.00     0.037 A 
BRANCH  54  68
ATOM     68  C   UNL     1       6.068  11.789 -10.599  1.00  0.00     0.058 A 
ATOM     69  C   UNL     1       5.240  12.922 -10.664  1.00  0.00     0.135 A 
ATOM     70  C   UNL     1       5.890  10.796 -11.576  1.00  0.00     0.135 A 
ATOM     71  F   UNL     1       5.354  13.897  -9.747  1.00  0.00    -0.206 F 
ATOM     72  C   UNL     1       4.248  13.047 -11.631  1.00  0.00     0.059 A 
ATOM     73  C   UNL     1       4.924  10.915 -12.573  1.00  0.00     0.059 A 
ATOM     74  F   UNL     1       6.652   9.691 -11.565  1.00  0.00    -0.206 F 
ATOM     75  C   UNL     1       4.095  12.035 -12.580  1.00  0.00     0.060 A 
BRANCH  75  76
ATOM     76  S   UNL     1       2.798  12.207 -13.824  1.00  0.00     0.124 S 
ATOM     77  O   UNL     1       1.600  11.948 -13.031  1.00  0.00    -0.237 OA
ATOM     78  O   UNL     1       2.974  13.585 -14.271  1.00  0.00    -0.237 OA
ATOM     79  O   UNL     1       3.133  11.184 -14.809  1.00  0.00    -0.744 OA
ENDBRANCH  75  76
ENDBRANCH  54  68
BRANCH  55  80
ATOM     80  C   UNL     1      12.687  10.399  -3.192  1.00  0.00     0.058 A 
ATOM     81  C   UNL     1      13.523  11.431  -2.740  1.00  0.00     0.135 A 
ATOM     82  C   UNL     1      12.787   9.153  -2.555  1.00  0.00     0.135 A 
ATOM     83  F   UNL     1      13.466  12.641  -3.318  1.00  0.00    -0.206 F 
ATOM     84  C   UNL     1      14.433  11.234  -1.708  1.00  0.00     0.059 A 
ATOM     85  C   UNL     1      13.671   8.938  -1.503  1.00  0.00     0.059 A 
ATOM     86  F   UNL     1      11.994   8.138  -2.934  1.00  0.00    -0.206 F 
ATOM     87  C   UNL     1      14.498   9.983  -1.092  1.00  0.00     0.060 A 
BRANCH  87  88
ATOM     88  S   UNL     1      15.643   9.754   0.286  1.00  0.00     0.124 S 
ATOM     89  O   UNL     1      16.928   9.729  -0.402  1.00  0.00    -0.237 OA
ATOM     90  O   UNL     1      15.377  10.933   1.104  1.00  0.00    -0.237 OA
ATOM     91  O   UNL     1      15.214   8.486   0.870  1.00  0.00    -0.744 OA
ENDBRANCH  87  88
ENDBRANCH  55  80
BRANCH  67  92
ATOM     92  C   UNL     1      13.269  11.759 -10.014  1.00  0.00     0.058 A 
ATOM     93  C   UNL     1      14.135  10.721 -10.389  1.00  0.00     0.135 A 
ATOM     94  C   UNL     1      13.523  13.043 -10.522  1.00  0.00     0.135 A 
ATOM     95  F   UNL     1      13.938   9.476  -9.928  1.00  0.00    -0.206 F 
ATOM     96  C   UNL     1      15.234  10.955 -11.209  1.00  0.00     0.059 A 
ATOM     97  C   UNL     1      14.598  13.294 -11.368  1.00  0.00     0.059 A 
ATOM     98  F   UNL     1      12.716  14.068 -10.205  1.00  0.00    -0.206 F 
ATOM     99  C   UNL     1      15.459  12.246 -11.691  1.00  0.00     0.060 A 
BRANCH  99 100
ATOM    100  S   UNL     1      16.883  12.537 -12.761  1.00  0.00     0.124 S 
ATOM    101  O   UNL     1      17.981  12.504 -11.801  1.00  0.00    -0.237 OA
ATOM    102  O   UNL     1      16.815  11.410 -13.686  1.00  0.00    -0.237 OA
ATOM    103  O   UNL     1      16.603  13.843 -13.351  1.00  0.00    -0.744 OA
ENDBRANCH  99 100
ENDBRANCH  67  92
ENDBRANCH  41  42
ENDBRANCH  33  36
ENDBRANCH  31  32
ENDBRANCH  30  31
ENDBRANCH   1  30
TORSDOF 18
