REMARK SMILES C=CCn1nc(C(=O)NCCCCNC(=O)c2ccc(-c3c4nc(c(-c5c(F)cc(S(=O)(=O)[O-])cc5F)c5ccc([nH]5)c(-c5c(F)cc(S(=O)(=O)[O-])cc5F)c5nc(c(-c6c(F)cc(S(=O)(=O)[O-])cc6F)c6ccc3[nH]6)C=C5)C=C4)cc2)c2c1CC[C@@H]([NH+]1CCC(C(C)(C)O)CC1)C2
REMARK SMILES IDX 11 1 10 2 9 3 7 4 8 5 6 7 4 8 5 9 84 10 83 11 85 12 98 13
REMARK SMILES IDX 86 14 87 15 3 16 2 17 1 18 88 19 89 20 97 21 90 23 96 24
REMARK SMILES IDX 91 25 92 26 93 27 94 28 95 29 12 31 13 32 14 33 15 34 16 36
REMARK SMILES IDX 17 37 18 38 82 39 19 40 81 41 20 42 21 43 22 44 75 45 23 46
REMARK SMILES IDX 80 47 74 48 76 49 24 50 79 51 73 52 72 53 25 55 59 56 38 57
REMARK SMILES IDX 58 58 39 59 42 60 57 61 77 62 40 63 41 64 56 66 78 67 43 68
REMARK SMILES IDX 26 69 27 70 36 71 28 72 29 73 35 74 37 75 30 76 31 77 32 78
REMARK SMILES IDX 33 79 34 80 60 81 61 82 70 83 62 84 63 85 69 86 71 87 64 88
REMARK SMILES IDX 65 89 66 90 67 91 68 92 44 93 45 94 54 95 46 96 47 97 53 98
REMARK SMILES IDX 55 99 48 100 49 101 50 102 51 103 52 104
REMARK H PARENT 9 6 88 22 95 30 14 35 76 54 42 65
REMARK Flexibility Score: inf
ROOT
ATOM      1  C   UNL     1      -4.070  -5.728   5.207  1.00  0.00     0.023 C 
ENDROOT
BRANCH   1   2
ATOM      2  C   UNL     1      -2.532  -5.734   5.093  1.00  0.00     0.116 C 
BRANCH   2   3
ATOM      3  N   UNL     1      -2.076  -5.711   3.710  1.00  0.00    -0.351 N 
ATOM      4  C   UNL     1      -1.649  -4.748   2.815  1.00  0.00     0.272 C 
ATOM      5  O   UNL     1      -1.251  -5.218   1.741  1.00  0.00    -0.267 OA
ATOM      6  H   UNL     1      -2.070  -6.611   3.311  1.00  0.00     0.163 HD
BRANCH   4   7
ATOM      7  C   UNL     1      -1.646  -3.277   3.056  1.00  0.00     0.153 A 
ATOM      8  N   UNL     1      -1.196  -1.208   2.595  1.00  0.00    -0.265 N 
ATOM      9  N   UNL     1      -0.983  -2.475   2.186  1.00  0.00    -0.167 NA
ATOM     10  C   UNL     1      -1.879  -1.159   3.775  1.00  0.00     0.043 A 
ATOM     11  C   UNL     1      -2.312  -2.447   3.999  1.00  0.00     0.012 A 
ATOM     12  C   UNL     1      -2.258   0.040   4.568  1.00  0.00     0.062 C 
ATOM     13  C   UNL     1      -3.363  -2.735   4.990  1.00  0.00     0.105 C 
ATOM     14  C   UNL     1      -3.296  -0.329   5.649  1.00  0.00     0.072 C 
ATOM     15  C   UNL     1      -4.240  -1.526   5.366  1.00  0.00     0.189 C 
BRANCH   8  16
ATOM     16  C   UNL     1      -0.948  -0.104   1.664  1.00  0.00     0.171 C 
BRANCH  16  17
ATOM     17  C   UNL     1       0.505   0.138   1.376  1.00  0.00    -0.011 C 
ATOM     18  C   UNL     1       1.038   0.140   0.145  1.00  0.00     0.006 C 
ENDBRANCH  16  17
ENDBRANCH   8  16
BRANCH  15  19
ATOM     19  N   UNL     1      -5.442  -1.493   4.502  1.00  0.00    -0.332 N 
ATOM     20  C   UNL     1      -5.330  -1.186   3.090  1.00  0.00     0.262 C 
ATOM     21  C   UNL     1      -6.621  -0.852   5.058  1.00  0.00     0.262 C 
ATOM     22  H   UNL     1      -5.566  -2.505   4.516  1.00  0.00     0.348 HD
ATOM     23  C   UNL     1      -5.201   0.298   2.796  1.00  0.00     0.068 C 
ATOM     24  C   UNL     1      -6.529   0.660   5.019  1.00  0.00     0.068 C 
ATOM     25  C   UNL     1      -6.033   1.263   3.677  1.00  0.00     0.031 C 
BRANCH  25  26
ATOM     26  C   UNL     1      -5.317   2.642   3.913  1.00  0.00     0.062 C 
ATOM     27  C   UNL     1      -4.665   3.217   2.652  1.00  0.00     0.042 C 
ATOM     28  C   UNL     1      -6.292   3.660   4.513  1.00  0.00     0.042 C 
BRANCH  26  29
ATOM     29  O   UNL     1      -4.260   2.481   4.862  1.00  0.00    -0.390 OA
ATOM     30  H   UNL     1      -3.615   1.841   4.521  1.00  0.00     0.211 HD
ENDBRANCH  26  29
ENDBRANCH  25  26
ENDBRANCH  15  19
ENDBRANCH   4   7
ENDBRANCH   2   3
ENDBRANCH   1   2
BRANCH   1  31
ATOM     31  C   UNL     1      -4.742  -7.032   5.635  1.00  0.00     0.023 C 
BRANCH  31  32
ATOM     32  C   UNL     1      -4.553  -7.362   7.111  1.00  0.00     0.116 C 
BRANCH  32  33
ATOM     33  N   UNL     1      -5.291  -6.465   8.002  1.00  0.00    -0.352 N 
ATOM     34  C   UNL     1      -5.136  -6.347   9.373  1.00  0.00     0.251 C 
ATOM     35  H   UNL     1      -5.968  -5.886   7.583  1.00  0.00     0.163 HD
ATOM     36  O   UNL     1      -6.042  -5.945  10.081  1.00  0.00    -0.269 OA
BRANCH  34  37
ATOM     37  C   UNL     1      -3.827  -6.709   9.950  1.00  0.00     0.039 A 
ATOM     38  C   UNL     1      -3.742  -7.551  11.060  1.00  0.00     0.014 A 
ATOM     39  C   UNL     1      -2.679  -6.234   9.312  1.00  0.00     0.014 A 
ATOM     40  C   UNL     1      -2.485  -7.993  11.467  1.00  0.00     0.010 A 
ATOM     41  C   UNL     1      -1.447  -6.740   9.662  1.00  0.00     0.010 A 
ATOM     42  C   UNL     1      -1.341  -7.610  10.745  1.00  0.00    -0.014 A 
BRANCH  42  43
ATOM     43  C   UNL     1      -0.062  -8.278  10.999  1.00  0.00     0.031 A 
ATOM     44  C   UNL     1      -0.126  -9.764  10.879  1.00  0.00     0.074 A 
ATOM     45  C   UNL     1       1.120  -7.633  11.107  1.00  0.00     0.049 A 
ATOM     46  N   UNL     1      -0.028 -10.636  11.826  1.00  0.00    -0.248 NA
ATOM     47  C   UNL     1      -0.513 -10.347   9.582  1.00  0.00     0.031 C 
ATOM     48  C   UNL     1       1.379  -6.202  10.930  1.00  0.00     0.029 A 
ATOM     49  N   UNL     1       2.372  -8.139  11.297  1.00  0.00    -0.354 N 
ATOM     50  C   UNL     1      -0.080 -11.884  11.207  1.00  0.00     0.074 A 
ATOM     51  C   UNL     1      -0.597 -11.645   9.887  1.00  0.00     0.031 C 
ATOM     52  C   UNL     1       2.708  -5.995  10.791  1.00  0.00     0.029 A 
ATOM     53  C   UNL     1       3.408  -7.246  11.023  1.00  0.00     0.049 A 
ATOM     54  H   UNL     1       2.533  -9.061  11.603  1.00  0.00     0.167 HD
ATOM     55  C   UNL     1       0.561 -12.960  11.746  1.00  0.00     0.037 A 
ATOM     56  C   UNL     1       4.739  -7.516  10.969  1.00  0.00     0.037 A 
ATOM     57  C   UNL     1       0.927 -12.697  13.118  1.00  0.00     0.049 A 
ATOM     58  C   UNL     1       4.954  -8.776  11.724  1.00  0.00     0.074 A 
ATOM     59  C   UNL     1       0.237 -12.350  14.264  1.00  0.00     0.029 A 
ATOM     60  N   UNL     1       2.246 -12.403  13.369  1.00  0.00    -0.354 N 
ATOM     61  N   UNL     1       4.792  -8.887  13.014  1.00  0.00    -0.248 NA
ATOM     62  C   UNL     1       4.914 -10.027  10.982  1.00  0.00     0.031 C 
ATOM     63  C   UNL     1       1.091 -11.434  14.945  1.00  0.00     0.029 A 
ATOM     64  C   UNL     1       2.283 -11.336  14.227  1.00  0.00     0.049 A 
ATOM     65  H   UNL     1       3.026 -12.875  12.998  1.00  0.00     0.167 HD
ATOM     66  C   UNL     1       4.187 -10.122  13.186  1.00  0.00     0.074 A 
ATOM     67  C   UNL     1       4.383 -10.820  11.917  1.00  0.00     0.031 C 
ATOM     68  C   UNL     1       3.337 -10.346  14.231  1.00  0.00     0.037 A 
BRANCH  55  69
ATOM     69  C   UNL     1       1.227 -14.071  10.952  1.00  0.00     0.058 A 
ATOM     70  C   UNL     1       1.832 -15.139  11.654  1.00  0.00     0.135 A 
ATOM     71  C   UNL     1       1.560 -13.992   9.582  1.00  0.00     0.135 A 
ATOM     72  F   UNL     1       1.583 -15.330  12.960  1.00  0.00    -0.206 F 
ATOM     73  C   UNL     1       2.775 -15.986  11.070  1.00  0.00     0.059 A 
ATOM     74  C   UNL     1       2.456 -14.860   8.967  1.00  0.00     0.059 A 
ATOM     75  F   UNL     1       1.109 -13.019   8.783  1.00  0.00    -0.206 F 
ATOM     76  C   UNL     1       3.094 -15.825   9.728  1.00  0.00     0.060 A 
BRANCH  76  77
ATOM     77  S   UNL     1       4.376 -16.852   8.993  1.00  0.00     0.124 S 
ATOM     78  O   UNL     1       5.570 -16.343   9.656  1.00  0.00    -0.237 OA
ATOM     79  O   UNL     1       3.947 -18.192   9.384  1.00  0.00    -0.237 OA
ATOM     80  O   UNL     1       4.266 -16.556   7.568  1.00  0.00    -0.744 OA
ENDBRANCH  76  77
ENDBRANCH  55  69
BRANCH  56  81
ATOM     81  C   UNL     1       5.797  -6.922  10.103  1.00  0.00     0.058 A 
ATOM     82  C   UNL     1       7.161  -7.202  10.321  1.00  0.00     0.135 A 
ATOM     83  C   UNL     1       5.487  -6.311   8.871  1.00  0.00     0.135 A 
ATOM     84  F   UNL     1       7.556  -7.793  11.460  1.00  0.00    -0.206 F 
ATOM     85  C   UNL     1       8.144  -6.957   9.353  1.00  0.00     0.059 A 
ATOM     86  C   UNL     1       6.450  -6.046   7.896  1.00  0.00     0.059 A 
ATOM     87  F   UNL     1       4.217  -6.039   8.536  1.00  0.00    -0.206 F 
ATOM     88  C   UNL     1       7.773  -6.401   8.131  1.00  0.00     0.060 A 
BRANCH  88  89
ATOM     89  S   UNL     1       8.998  -6.268   6.804  1.00  0.00     0.124 S 
ATOM     90  O   UNL     1       9.869  -5.208   7.301  1.00  0.00    -0.237 OA
ATOM     91  O   UNL     1       9.575  -7.608   6.780  1.00  0.00    -0.237 OA
ATOM     92  O   UNL     1       8.194  -5.918   5.636  1.00  0.00    -0.744 OA
ENDBRANCH  88  89
ENDBRANCH  56  81
BRANCH  68  93
ATOM     93  C   UNL     1       3.344  -9.379  15.386  1.00  0.00     0.058 A 
ATOM     94  C   UNL     1       2.990  -8.020  15.307  1.00  0.00     0.135 A 
ATOM     95  C   UNL     1       3.571  -9.908  16.667  1.00  0.00     0.135 A 
ATOM     96  F   UNL     1       2.659  -7.457  14.137  1.00  0.00    -0.206 F 
ATOM     97  C   UNL     1       2.905  -7.218  16.448  1.00  0.00     0.059 A 
ATOM     98  C   UNL     1       3.457  -9.136  17.818  1.00  0.00     0.059 A 
ATOM     99  F   UNL     1       3.857 -11.212  16.815  1.00  0.00    -0.206 F 
ATOM    100  C   UNL     1       3.135  -7.787  17.700  1.00  0.00     0.060 A 
BRANCH 100 101
ATOM    101  S   UNL     1       2.947  -6.772  19.182  1.00  0.00     0.124 S 
ATOM    102  O   UNL     1       4.108  -5.893  19.101  1.00  0.00    -0.237 OA
ATOM    103  O   UNL     1       1.651  -6.134  18.967  1.00  0.00    -0.237 OA
ATOM    104  O   UNL     1       2.978  -7.747  20.270  1.00  0.00    -0.744 OA
ENDBRANCH 100 101
ENDBRANCH  68  93
ENDBRANCH  42  43
ENDBRANCH  34  37
ENDBRANCH  32  33
ENDBRANCH  31  32
ENDBRANCH   1  31
TORSDOF 19
