REMARK SMILES CC(C)n1c2c(c3ccccc31)[C@@H](c1ccccc1)N(CC(=O)NCCCCNC(=O)c1ccc(-c3c4nc(c(-c5c(F)cc(S(=O)(=O)[O-])cc5F)c5ccc([nH]5)c(-c5c(F)cc(S(=O)(=O)[O-])cc5F)c5nc(c(-c6c(F)cc(S(=O)(=O)[O-])cc6F)c6ccc3[nH]6)C=C5)C=C4)cc1)C2=O
REMARK SMILES IDX 27 1 26 2 25 3 24 4 22 5 23 6 21 8 20 9 4 10 5 11 12 12 6 13
REMARK SMILES IDX 98 14 7 15 11 16 13 17 99 18 8 19 10 20 9 21 2 22 1 23 3 24
REMARK SMILES IDX 14 25 15 26 19 27 16 28 18 29 17 30 28 31 29 32 30 33 31 35
REMARK SMILES IDX 32 36 33 37 97 38 34 39 96 40 35 41 36 42 37 43 90 44 38 45
REMARK SMILES IDX 95 46 89 47 91 48 39 49 94 50 88 51 87 52 40 54 74 55 53 56
REMARK SMILES IDX 73 57 54 58 57 59 72 60 92 61 55 62 56 63 71 65 93 66 58 67
REMARK SMILES IDX 41 68 42 69 51 70 43 71 44 72 50 73 52 74 45 75 46 76 47 77
REMARK SMILES IDX 48 78 49 79 75 80 76 81 85 82 77 83 78 84 84 85 86 86 79 87
REMARK SMILES IDX 80 88 81 89 82 90 83 91 59 92 60 93 69 94 61 95 62 96 68 97
REMARK SMILES IDX 70 98 63 99 64 100 65 101 66 102 67 103
REMARK H PARENT 24 7 29 34 91 53 57 64
REMARK Flexibility Score: inf
ROOT
ATOM      1  C   UNL     1      -2.633  -0.790   6.080  1.00  0.00     0.023 C 
ENDROOT
BRANCH   1   2
ATOM      2  C   UNL     1      -2.308  -1.279   4.663  1.00  0.00     0.023 C 
BRANCH   2   3
ATOM      3  C   UNL     1      -2.517  -2.778   4.444  1.00  0.00     0.116 C 
BRANCH   3   4
ATOM      4  N   UNL     1      -3.919  -3.118   4.329  1.00  0.00    -0.355 N 
ATOM      5  C   UNL     1      -4.587  -3.546   3.217  1.00  0.00     0.239 C 
ATOM      6  O   UNL     1      -5.793  -3.788   3.305  1.00  0.00    -0.273 OA
ATOM      7  H   UNL     1      -4.455  -3.032   5.151  1.00  0.00     0.163 HD
BRANCH   5   8
ATOM      8  C   UNL     1      -3.841  -3.697   1.885  1.00  0.00     0.220 C 
BRANCH   8   9
ATOM      9  N   UNL     1      -3.458  -2.406   1.341  1.00  0.00    -0.317 N 
ATOM     10  N   UNL     1      -1.409   0.529   1.150  1.00  0.00    -0.334 N 
ATOM     11  C   UNL     1      -2.231  -0.562   1.129  1.00  0.00     0.114 A 
ATOM     12  C   UNL     1      -2.228   1.664   1.190  1.00  0.00     0.049 A 
ATOM     13  C   UNL     1      -3.538  -0.168   1.101  1.00  0.00     0.018 A 
ATOM     14  C   UNL     1      -2.131  -1.979   1.237  1.00  0.00     0.272 C 
ATOM     15  C   UNL     1      -3.575   1.226   1.190  1.00  0.00     0.006 A 
ATOM     16  C   UNL     1      -1.954   3.043   1.253  1.00  0.00     0.027 A 
ATOM     17  C   UNL     1      -4.455  -1.331   1.087  1.00  0.00     0.150 C 
ATOM     18  O   UNL     1      -1.121  -2.662   1.339  1.00  0.00    -0.267 OA
ATOM     19  C   UNL     1      -4.627   2.158   1.279  1.00  0.00     0.011 A 
ATOM     20  C   UNL     1      -3.017   3.950   1.349  1.00  0.00     0.002 A 
ATOM     21  C   UNL     1      -4.335   3.517   1.366  1.00  0.00     0.001 A 
BRANCH  10  22
ATOM     22  C   UNL     1       0.051   0.404   1.197  1.00  0.00     0.082 C 
ATOM     23  C   UNL     1       0.604  -0.101  -0.142  1.00  0.00     0.031 C 
ATOM     24  C   UNL     1       0.847   1.635   1.632  1.00  0.00     0.031 C 
ENDBRANCH  10  22
BRANCH  17  25
ATOM     25  C   UNL     1      -5.085  -1.480  -0.292  1.00  0.00    -0.021 A 
ATOM     26  C   UNL     1      -6.052  -2.487  -0.476  1.00  0.00     0.006 A 
ATOM     27  C   UNL     1      -4.733  -0.712  -1.419  1.00  0.00     0.006 A 
ATOM     28  C   UNL     1      -6.604  -2.744  -1.734  1.00  0.00     0.000 A 
ATOM     29  C   UNL     1      -5.303  -0.952  -2.672  1.00  0.00     0.000 A 
ATOM     30  C   UNL     1      -6.227  -1.977  -2.832  1.00  0.00     0.000 A 
ENDBRANCH  17  25
ENDBRANCH   8   9
ENDBRANCH   5   8
ENDBRANCH   3   4
ENDBRANCH   2   3
ENDBRANCH   1   2
BRANCH   1  31
ATOM     31  C   UNL     1      -2.032  -1.655   7.186  1.00  0.00     0.116 C 
BRANCH  31  32
ATOM     32  N   UNL     1      -0.601  -1.839   7.057  1.00  0.00    -0.352 N 
ATOM     33  C   UNL     1       0.500  -1.230   7.583  1.00  0.00     0.251 C 
ATOM     34  H   UNL     1      -0.369  -2.576   6.447  1.00  0.00     0.163 HD
ATOM     35  O   UNL     1       1.584  -1.767   7.336  1.00  0.00    -0.269 OA
BRANCH  33  36
ATOM     36  C   UNL     1       0.483   0.053   8.328  1.00  0.00     0.039 A 
ATOM     37  C   UNL     1      -0.662   0.751   8.716  1.00  0.00     0.014 A 
ATOM     38  C   UNL     1       1.742   0.640   8.542  1.00  0.00     0.014 A 
ATOM     39  C   UNL     1      -0.571   2.069   9.127  1.00  0.00     0.010 A 
ATOM     40  C   UNL     1       1.843   1.944   8.993  1.00  0.00     0.010 A 
ATOM     41  C   UNL     1       0.678   2.678   9.189  1.00  0.00    -0.014 A 
BRANCH  41  42
ATOM     42  C   UNL     1       0.737   4.096   9.508  1.00  0.00     0.031 A 
ATOM     43  C   UNL     1       0.215   4.447  10.863  1.00  0.00     0.074 A 
ATOM     44  C   UNL     1       1.337   4.960   8.662  1.00  0.00     0.049 A 
ATOM     45  N   UNL     1      -0.724   5.280  11.179  1.00  0.00    -0.248 NA
ATOM     46  C   UNL     1       0.707   3.652  12.005  1.00  0.00     0.031 C 
ATOM     47  C   UNL     1       2.064   4.662   7.422  1.00  0.00     0.029 A 
ATOM     48  N   UNL     1       1.531   6.297   8.802  1.00  0.00    -0.354 N 
ATOM     49  C   UNL     1      -0.800   5.264  12.572  1.00  0.00     0.074 A 
ATOM     50  C   UNL     1      -0.007   4.147  13.015  1.00  0.00     0.031 C 
ATOM     51  C   UNL     1       2.830   5.723   7.082  1.00  0.00     0.029 A 
ATOM     52  C   UNL     1       2.536   6.816   7.987  1.00  0.00     0.049 A 
ATOM     53  H   UNL     1       1.008   6.852   9.425  1.00  0.00     0.167 HD
ATOM     54  C   UNL     1      -1.355   6.281  13.287  1.00  0.00     0.037 A 
ATOM     55  C   UNL     1       3.136   8.025   8.151  1.00  0.00     0.037 A 
ATOM     56  C   UNL     1      -2.183   7.121  12.469  1.00  0.00     0.049 A 
ATOM     57  C   UNL     1       2.209   8.845   8.981  1.00  0.00     0.074 A 
ATOM     58  C   UNL     1      -3.373   6.932  11.794  1.00  0.00     0.029 A 
ATOM     59  N   UNL     1      -1.622   8.253  11.931  1.00  0.00    -0.354 N 
ATOM     60  N   UNL     1       1.022   9.218   8.579  1.00  0.00    -0.248 NA
ATOM     61  C   UNL     1       2.394   8.800  10.425  1.00  0.00     0.031 C 
ATOM     62  C   UNL     1      -3.219   7.650  10.572  1.00  0.00     0.029 A 
ATOM     63  C   UNL     1      -1.981   8.294  10.606  1.00  0.00     0.049 A 
ATOM     64  H   UNL     1      -1.067   8.912  12.407  1.00  0.00     0.167 HD
ATOM     65  C   UNL     1       0.200   9.060   9.687  1.00  0.00     0.074 A 
ATOM     66  C   UNL     1       1.114   8.834  10.807  1.00  0.00     0.031 C 
ATOM     67  C   UNL     1      -1.142   8.838   9.560  1.00  0.00     0.037 A 
BRANCH  54  68
ATOM     68  C   UNL     1      -0.897   6.678  14.663  1.00  0.00     0.058 A 
ATOM     69  C   UNL     1      -1.703   7.495  15.478  1.00  0.00     0.135 A 
ATOM     70  C   UNL     1       0.432   6.489  15.104  1.00  0.00     0.135 A 
ATOM     71  F   UNL     1      -2.974   7.758  15.136  1.00  0.00    -0.206 F 
ATOM     72  C   UNL     1      -1.212   8.108  16.633  1.00  0.00     0.059 A 
ATOM     73  C   UNL     1       0.928   7.049  16.275  1.00  0.00     0.059 A 
ATOM     74  F   UNL     1       1.330   5.822  14.366  1.00  0.00    -0.206 F 
ATOM     75  C   UNL     1       0.109   7.884  17.018  1.00  0.00     0.060 A 
BRANCH  75  76
ATOM     76  S   UNL     1       0.766   8.740  18.461  1.00  0.00     0.124 S 
ATOM     77  O   UNL     1       0.718  10.132  18.026  1.00  0.00    -0.237 OA
ATOM     78  O   UNL     1      -0.190   8.361  19.497  1.00  0.00    -0.237 OA
ATOM     79  O   UNL     1       2.103   8.173  18.612  1.00  0.00    -0.744 OA
ENDBRANCH  75  76
ENDBRANCH  54  68
BRANCH  55  80
ATOM     80  C   UNL     1       4.599   8.307   8.061  1.00  0.00     0.058 A 
ATOM     81  C   UNL     1       5.091   9.624   8.034  1.00  0.00     0.135 A 
ATOM     82  C   UNL     1       5.557   7.295   8.286  1.00  0.00     0.135 A 
ATOM     83  F   UNL     1       4.249  10.653   7.853  1.00  0.00    -0.206 F 
ATOM     84  C   UNL     1       6.443   9.924   8.258  1.00  0.00     0.059 A 
ATOM     85  C   UNL     1       6.907   7.568   8.504  1.00  0.00     0.059 A 
ATOM     86  F   UNL     1       5.195   6.009   8.393  1.00  0.00    -0.206 F 
ATOM     87  C   UNL     1       7.341   8.887   8.514  1.00  0.00     0.060 A 
BRANCH  87  88
ATOM     88  S   UNL     1       9.049   9.274   8.971  1.00  0.00     0.124 S 
ATOM     89  O   UNL     1       9.566   9.864   7.741  1.00  0.00    -0.237 OA
ATOM     90  O   UNL     1       8.866  10.191  10.091  1.00  0.00    -0.237 OA
ATOM     91  O   UNL     1       9.611   7.972   9.321  1.00  0.00    -0.744 OA
ENDBRANCH  87  88
ENDBRANCH  55  80
BRANCH  67  92
ATOM     92  C   UNL     1      -1.763   8.960   8.189  1.00  0.00     0.058 A 
ATOM     93  C   UNL     1      -1.475   8.106   7.108  1.00  0.00     0.135 A 
ATOM     94  C   UNL     1      -2.815   9.870   8.014  1.00  0.00     0.135 A 
ATOM     95  F   UNL     1      -0.557   7.136   7.224  1.00  0.00    -0.206 F 
ATOM     96  C   UNL     1      -2.172   8.180   5.898  1.00  0.00     0.059 A 
ATOM     97  C   UNL     1      -3.544   9.942   6.829  1.00  0.00     0.059 A 
ATOM     98  F   UNL     1      -3.186  10.668   9.029  1.00  0.00    -0.206 F 
ATOM     99  C   UNL     1      -3.208   9.103   5.769  1.00  0.00     0.060 A 
BRANCH  99 100
ATOM    100  S   UNL     1      -4.147   9.166   4.226  1.00  0.00     0.124 S 
ATOM    101  O   UNL     1      -3.155   9.670   3.282  1.00  0.00    -0.237 OA
ATOM    102  O   UNL     1      -4.546   7.774   4.039  1.00  0.00    -0.237 OA
ATOM    103  O   UNL     1      -5.242  10.084   4.529  1.00  0.00    -0.744 OA
ENDBRANCH  99 100
ENDBRANCH  67  92
ENDBRANCH  41  42
ENDBRANCH  33  36
ENDBRANCH  31  32
ENDBRANCH   1  31
TORSDOF 17
