REMARK SMILES O=C(NCCCCNC(=O)c1ccc(Cl)cc1-c1ccc(O)c(F)c1)c1ccc(-c2c3nc(c(-c4c(F)cc(S(=O)(=O)[O-])cc4F)c4ccc([nH]4)c(-c4c(F)cc(S(=O)(=O)[O-])cc4F)c4nc(c(-c5c(F)cc(S(=O)(=O)[O-])cc5F)c5ccc2[nH]5)C=C4)C=C3)cc1
REMARK SMILES IDX 5 1 4 2 3 3 1 4 2 5 26 7 27 8 91 9 28 10 90 11 29 12 30 13
REMARK SMILES IDX 31 14 84 15 32 16 89 17 83 18 85 19 33 20 88 21 82 22 81 23
REMARK SMILES IDX 34 25 68 26 47 27 67 28 48 29 51 30 66 31 86 32 49 33 50 34
REMARK SMILES IDX 65 36 87 37 52 38 35 39 36 40 45 41 37 42 38 43 44 44 46 45
REMARK SMILES IDX 39 46 40 47 41 48 42 49 43 50 69 51 70 52 79 53 71 54 72 55
REMARK SMILES IDX 78 56 80 57 73 58 74 59 75 60 76 61 77 62 53 63 54 64 63 65
REMARK SMILES IDX 55 66 56 67 62 68 64 69 57 70 58 71 59 72 60 73 61 74 6 75
REMARK SMILES IDX 7 76 8 77 9 78 10 80 11 81 12 82 17 83 13 84 16 85 14 86
REMARK SMILES IDX 15 87 18 88 19 89 25 90 20 91 23 92 21 93 24 94 22 95
REMARK H PARENT 3 6 85 24 51 35 8 79 22 96
REMARK Flexibility Score: inf
ROOT
ATOM      1  C   UNL     1       4.941   0.347  -2.846  1.00  0.00     0.023 C 
ENDROOT
BRANCH   1   2
ATOM      2  C   UNL     1       4.615   0.608  -1.383  1.00  0.00     0.116 C 
BRANCH   2   3
ATOM      3  N   UNL     1       3.187   0.623  -1.099  1.00  0.00    -0.352 N 
ATOM      4  O   UNL     1       1.255  -0.034  -0.134  1.00  0.00    -0.269 OA
ATOM      5  C   UNL     1       2.481  -0.094  -0.157  1.00  0.00     0.251 C 
ATOM      6  H   UNL     1       2.651   1.231  -1.658  1.00  0.00     0.163 HD
BRANCH   5   7
ATOM      7  C   UNL     1       3.205  -0.961   0.800  1.00  0.00     0.039 A 
ATOM      8  C   UNL     1       4.358  -0.501   1.437  1.00  0.00     0.014 A 
ATOM      9  C   UNL     1       2.747  -2.261   1.039  1.00  0.00     0.014 A 
ATOM     10  C   UNL     1       5.146  -1.389   2.157  1.00  0.00     0.010 A 
ATOM     11  C   UNL     1       3.490  -3.124   1.854  1.00  0.00     0.010 A 
ATOM     12  C   UNL     1       4.718  -2.708   2.387  1.00  0.00    -0.014 A 
BRANCH  12  13
ATOM     13  C   UNL     1       5.563  -3.587   3.240  1.00  0.00     0.031 A 
ATOM     14  C   UNL     1       6.215  -4.830   2.695  1.00  0.00     0.074 A 
ATOM     15  C   UNL     1       5.803  -3.199   4.508  1.00  0.00     0.049 A 
ATOM     16  N   UNL     1       7.051  -5.644   3.290  1.00  0.00    -0.248 NA
ATOM     17  C   UNL     1       5.886  -5.218   1.315  1.00  0.00     0.031 C 
ATOM     18  C   UNL     1       5.200  -2.029   5.155  1.00  0.00     0.029 A 
ATOM     19  N   UNL     1       6.638  -3.711   5.466  1.00  0.00    -0.354 N 
ATOM     20  C   UNL     1       7.341  -6.642   2.366  1.00  0.00     0.074 A 
ATOM     21  C   UNL     1       6.569  -6.348   1.177  1.00  0.00     0.031 C 
ATOM     22  C   UNL     1       5.734  -1.874   6.374  1.00  0.00     0.029 A 
ATOM     23  C   UNL     1       6.670  -2.965   6.621  1.00  0.00     0.049 A 
ATOM     24  H   UNL     1       7.164  -4.533   5.340  1.00  0.00     0.167 HD
ATOM     25  C   UNL     1       8.182  -7.698   2.495  1.00  0.00     0.037 A 
ATOM     26  C   UNL     1       7.367  -3.138   7.758  1.00  0.00     0.037 A 
ATOM     27  C   UNL     1       8.958  -7.978   3.679  1.00  0.00     0.049 A 
ATOM     28  C   UNL     1       8.307  -4.302   7.864  1.00  0.00     0.074 A 
ATOM     29  C   UNL     1       9.840  -9.021   3.905  1.00  0.00     0.029 A 
ATOM     30  N   UNL     1       8.950  -7.208   4.833  1.00  0.00    -0.354 N 
ATOM     31  N   UNL     1       8.572  -5.227   6.973  1.00  0.00    -0.248 NA
ATOM     32  C   UNL     1       9.041  -4.448   9.127  1.00  0.00     0.031 C 
ATOM     33  C   UNL     1      10.344  -8.898   5.205  1.00  0.00     0.029 A 
ATOM     34  C   UNL     1       9.806  -7.757   5.776  1.00  0.00     0.049 A 
ATOM     35  H   UNL     1       8.416  -6.392   4.964  1.00  0.00     0.167 HD
ATOM     36  C   UNL     1       9.499  -6.071   7.570  1.00  0.00     0.074 A 
ATOM     37  C   UNL     1       9.778  -5.522   8.882  1.00  0.00     0.031 C 
ATOM     38  C   UNL     1      10.059  -7.205   7.083  1.00  0.00     0.037 A 
BRANCH  25  39
ATOM     39  C   UNL     1       8.315  -8.639   1.327  1.00  0.00     0.058 A 
ATOM     40  C   UNL     1       9.028  -8.279   0.173  1.00  0.00     0.135 A 
ATOM     41  C   UNL     1       7.783  -9.937   1.389  1.00  0.00     0.135 A 
ATOM     42  F   UNL     1       9.544  -7.045   0.054  1.00  0.00    -0.206 F 
ATOM     43  C   UNL     1       9.197  -9.168  -0.885  1.00  0.00     0.059 A 
ATOM     44  C   UNL     1       7.958 -10.850   0.351  1.00  0.00     0.059 A 
ATOM     45  F   UNL     1       7.093 -10.334   2.469  1.00  0.00    -0.206 F 
ATOM     46  C   UNL     1       8.659 -10.452  -0.786  1.00  0.00     0.060 A 
BRANCH  46  47
ATOM     47  S   UNL     1       8.905 -11.599  -2.160  1.00  0.00     0.124 S 
ATOM     48  O   UNL     1       7.986 -11.058  -3.157  1.00  0.00    -0.237 OA
ATOM     49  O   UNL     1      10.325 -11.437  -2.454  1.00  0.00    -0.237 OA
ATOM     50  O   UNL     1       8.528 -12.891  -1.595  1.00  0.00    -0.744 OA
ENDBRANCH  46  47
ENDBRANCH  25  39
BRANCH  26  51
ATOM     51  C   UNL     1       7.182  -2.189   8.886  1.00  0.00     0.058 A 
ATOM     52  C   UNL     1       8.194  -1.294   9.261  1.00  0.00     0.135 A 
ATOM     53  C   UNL     1       5.971  -2.145   9.595  1.00  0.00     0.135 A 
ATOM     54  F   UNL     1       9.369  -1.300   8.613  1.00  0.00    -0.206 F 
ATOM     55  C   UNL     1       8.019  -0.398  10.310  1.00  0.00     0.059 A 
ATOM     56  C   UNL     1       5.762  -1.239  10.628  1.00  0.00     0.059 A 
ATOM     57  F   UNL     1       4.965  -2.967   9.259  1.00  0.00    -0.206 F 
ATOM     58  C   UNL     1       6.798  -0.378  10.987  1.00  0.00     0.060 A 
BRANCH  58  59
ATOM     59  S   UNL     1       6.553   0.820  12.316  1.00  0.00     0.124 S 
ATOM     60  O   UNL     1       7.256   0.177  13.420  1.00  0.00    -0.237 OA
ATOM     61  O   UNL     1       7.179   2.021  11.772  1.00  0.00    -0.237 OA
ATOM     62  O   UNL     1       5.100   0.884  12.441  1.00  0.00    -0.744 OA
ENDBRANCH  58  59
ENDBRANCH  26  51
BRANCH  38  63
ATOM     63  C   UNL     1      11.025  -7.919   7.983  1.00  0.00     0.058 A 
ATOM     64  C   UNL     1      10.583  -8.639   9.105  1.00  0.00     0.135 A 
ATOM     65  C   UNL     1      12.405  -7.882   7.727  1.00  0.00     0.135 A 
ATOM     66  F   UNL     1       9.274  -8.698   9.396  1.00  0.00    -0.206 F 
ATOM     67  C   UNL     1      11.479  -9.265   9.965  1.00  0.00     0.059 A 
ATOM     68  C   UNL     1      13.317  -8.521   8.560  1.00  0.00     0.059 A 
ATOM     69  F   UNL     1      12.877  -7.215   6.662  1.00  0.00    -0.206 F 
ATOM     70  C   UNL     1      12.845  -9.193   9.688  1.00  0.00     0.060 A 
BRANCH  70  71
ATOM     71  S   UNL     1      14.002 -10.002  10.813  1.00  0.00     0.124 S 
ATOM     72  O   UNL     1      14.046  -9.052  11.920  1.00  0.00    -0.237 OA
ATOM     73  O   UNL     1      13.336 -11.270  11.093  1.00  0.00    -0.237 OA
ATOM     74  O   UNL     1      15.225 -10.105  10.023  1.00  0.00    -0.744 OA
ENDBRANCH  70  71
ENDBRANCH  38  63
ENDBRANCH  12  13
ENDBRANCH   5   7
ENDBRANCH   2   3
ENDBRANCH   1   2
BRANCH   1  75
ATOM     75  C   UNL     1       4.465   1.413  -3.828  1.00  0.00     0.023 C 
BRANCH  75  76
ATOM     76  C   UNL     1       4.865   2.846  -3.491  1.00  0.00     0.116 C 
BRANCH  76  77
ATOM     77  N   UNL     1       6.303   3.033  -3.369  1.00  0.00    -0.352 N 
ATOM     78  C   UNL     1       7.111   3.970  -3.968  1.00  0.00     0.251 C 
ATOM     79  H   UNL     1       6.762   2.399  -2.773  1.00  0.00     0.163 HD
ATOM     80  O   UNL     1       8.312   4.006  -3.727  1.00  0.00    -0.269 OA
BRANCH  78  81
ATOM     81  C   UNL     1       6.509   4.944  -4.904  1.00  0.00     0.047 A 
ATOM     82  C   UNL     1       5.542   5.827  -4.392  1.00  0.00     0.016 A 
ATOM     83  C   UNL     1       6.904   5.002  -6.256  1.00  0.00    -0.004 A 
ATOM     84  C   UNL     1       4.892   6.721  -5.239  1.00  0.00     0.021 A 
ATOM     85  C   UNL     1       6.228   5.915  -7.091  1.00  0.00     0.030 A 
ATOM     86  C   UNL     1       5.227   6.750  -6.589  1.00  0.00     0.041 A 
ATOM     87  Cl  UNL     1       4.407   7.831  -7.646  1.00  0.00    -0.084 Cl
BRANCH  83  88
ATOM     88  C   UNL     1       7.993   4.188  -6.827  1.00  0.00    -0.014 A 
ATOM     89  C   UNL     1       7.918   2.786  -6.899  1.00  0.00     0.013 A 
ATOM     90  C   UNL     1       9.146   4.816  -7.329  1.00  0.00     0.052 A 
ATOM     91  C   UNL     1       8.964   2.033  -7.448  1.00  0.00     0.050 A 
ATOM     92  C   UNL     1      10.180   4.066  -7.881  1.00  0.00     0.165 A 
ATOM     93  C   UNL     1      10.094   2.679  -7.940  1.00  0.00     0.151 A 
ATOM     94  F   UNL     1      11.260   4.703  -8.357  1.00  0.00    -0.203 F 
BRANCH  93  95
ATOM     95  O   UNL     1      11.126   1.972  -8.487  1.00  0.00    -0.505 OA
ATOM     96  H   UNL     1      11.081   1.037  -8.533  1.00  0.00     0.293 HD
ENDBRANCH  93  95
ENDBRANCH  83  88
ENDBRANCH  78  81
ENDBRANCH  76  77
ENDBRANCH  75  76
ENDBRANCH   1  75
TORSDOF 16
