REMARK SMILES O=C(NCCCCNC(=O)[C@H]1CCCN(c2cc(-c3ccccn3)nc(-c3ccccc3F)n2)C1)c1ccc(-c2c3nc(c(-c4c(F)cc(S(=O)(=O)[O-])cc4F)c4ccc([nH]4)c(-c4c(F)cc(S(=O)(=O)[O-])cc4F)c4nc(c(-c5c(F)cc(S(=O)(=O)[O-])cc5F)c5ccc2[nH]5)C=C4)C=C3)cc1
REMARK SMILES IDX 5 1 4 2 3 3 1 4 2 5 36 7 37 8 101 9 38 10 100 11 39 12 40 13
REMARK SMILES IDX 41 14 94 15 42 16 99 17 93 18 95 19 43 20 98 21 92 22 91 23
REMARK SMILES IDX 44 25 78 26 57 27 77 28 58 29 61 30 76 31 96 32 59 33 60 34
REMARK SMILES IDX 75 36 97 37 62 38 45 39 46 40 55 41 47 42 48 43 54 44 56 45
REMARK SMILES IDX 49 46 50 47 51 48 52 49 53 50 79 51 80 52 89 53 81 54 82 55
REMARK SMILES IDX 88 56 90 57 83 58 84 59 85 60 86 61 87 62 63 63 64 64 73 65
REMARK SMILES IDX 65 66 66 67 72 68 74 69 67 70 68 71 69 72 70 73 71 74 6 75
REMARK SMILES IDX 7 76 8 77 9 78 10 80 11 81 12 82 35 83 13 84 15 85 14 86
REMARK SMILES IDX 16 87 17 88 34 89 18 90 26 91 25 92 19 93 20 94 24 95 21 96
REMARK SMILES IDX 23 97 22 98 27 99 28 100 32 101 29 102 31 103 33 104 30 105
REMARK H PARENT 3 6 95 24 61 35 8 79
REMARK Flexibility Score: inf
ROOT
ATOM      1  C   UNL     1       8.500   0.462  -8.487  1.00  0.00     0.023 C 
ENDROOT
BRANCH   1   2
ATOM      2  C   UNL     1      10.018   0.353  -8.475  1.00  0.00     0.116 C 
BRANCH   2   3
ATOM      3  N   UNL     1      10.504  -0.828  -7.779  1.00  0.00    -0.352 N 
ATOM      4  O   UNL     1      11.732  -2.702  -7.498  1.00  0.00    -0.269 OA
ATOM      5  C   UNL     1      11.521  -1.679  -8.144  1.00  0.00     0.251 C 
ATOM      6  H   UNL     1      10.045  -1.047  -6.936  1.00  0.00     0.163 HD
BRANCH   5   7
ATOM      7  C   UNL     1      12.334  -1.371  -9.341  1.00  0.00     0.039 A 
ATOM      8  C   UNL     1      12.819  -0.079  -9.553  1.00  0.00     0.014 A 
ATOM      9  C   UNL     1      12.593  -2.379 -10.275  1.00  0.00     0.014 A 
ATOM     10  C   UNL     1      13.430   0.237 -10.760  1.00  0.00     0.010 A 
ATOM     11  C   UNL     1      13.285  -2.077 -11.453  1.00  0.00     0.010 A 
ATOM     12  C   UNL     1      13.681  -0.758 -11.720  1.00  0.00    -0.014 A 
BRANCH  12  13
ATOM     13  C   UNL     1      14.415  -0.385 -12.957  1.00  0.00     0.031 A 
ATOM     14  C   UNL     1      13.754  -0.430 -14.308  1.00  0.00     0.074 A 
ATOM     15  C   UNL     1      15.673   0.084 -12.832  1.00  0.00     0.049 A 
ATOM     16  N   UNL     1      14.232  -0.048 -15.465  1.00  0.00    -0.248 NA
ATOM     17  C   UNL     1      12.390  -0.977 -14.377  1.00  0.00     0.031 C 
ATOM     18  C   UNL     1      16.418   0.161 -11.571  1.00  0.00     0.029 A 
ATOM     19  N   UNL     1      16.530   0.625 -13.754  1.00  0.00    -0.354 N 
ATOM     20  C   UNL     1      13.238  -0.316 -16.399  1.00  0.00     0.074 A 
ATOM     21  C   UNL     1      12.135  -0.914 -15.678  1.00  0.00     0.031 C 
ATOM     22  C   UNL     1      17.581   0.791 -11.784  1.00  0.00     0.029 A 
ATOM     23  C   UNL     1      17.694   1.109 -13.203  1.00  0.00     0.049 A 
ATOM     24  H   UNL     1      16.333   0.663 -14.718  1.00  0.00     0.167 HD
ATOM     25  C   UNL     1      13.245  -0.073 -17.732  1.00  0.00     0.037 A 
ATOM     26  C   UNL     1      18.735   1.744 -13.772  1.00  0.00     0.037 A 
ATOM     27  C   UNL     1      14.338   0.547 -18.438  1.00  0.00     0.049 A 
ATOM     28  C   UNL     1      18.712   2.001 -15.250  1.00  0.00     0.074 A 
ATOM     29  C   UNL     1      14.431   0.846 -19.787  1.00  0.00     0.029 A 
ATOM     30  N   UNL     1      15.522   0.973 -17.855  1.00  0.00    -0.354 N 
ATOM     31  N   UNL     1      17.764   1.733 -16.114  1.00  0.00    -0.248 NA
ATOM     32  C   UNL     1      19.904   2.631 -15.832  1.00  0.00     0.031 C 
ATOM     33  C   UNL     1      15.681   1.426 -20.024  1.00  0.00     0.029 A 
ATOM     34  C   UNL     1      16.354   1.521 -18.818  1.00  0.00     0.049 A 
ATOM     35  H   UNL     1      15.739   0.898 -16.897  1.00  0.00     0.167 HD
ATOM     36  C   UNL     1      18.246   2.157 -17.346  1.00  0.00     0.074 A 
ATOM     37  C   UNL     1      19.557   2.728 -17.108  1.00  0.00     0.031 C 
ATOM     38  C   UNL     1      17.661   2.071 -18.564  1.00  0.00     0.037 A 
BRANCH  25  39
ATOM     39  C   UNL     1      12.037  -0.470 -18.534  1.00  0.00     0.058 A 
ATOM     40  C   UNL     1      12.092  -1.565 -19.412  1.00  0.00     0.135 A 
ATOM     41  C   UNL     1      10.862   0.296 -18.515  1.00  0.00     0.135 A 
ATOM     42  F   UNL     1      13.190  -2.335 -19.465  1.00  0.00    -0.206 F 
ATOM     43  C   UNL     1      11.034  -1.870 -20.262  1.00  0.00     0.059 A 
ATOM     44  C   UNL     1       9.784  -0.001 -19.345  1.00  0.00     0.059 A 
ATOM     45  F   UNL     1      10.751   1.340 -17.678  1.00  0.00    -0.206 F 
ATOM     46  C   UNL     1       9.887  -1.075 -20.229  1.00  0.00     0.060 A 
BRANCH  46  47
ATOM     47  S   UNL     1       8.524  -1.479 -21.343  1.00  0.00     0.124 S 
ATOM     48  O   UNL     1       9.068  -1.086 -22.638  1.00  0.00    -0.237 OA
ATOM     49  O   UNL     1       8.366  -2.914 -21.127  1.00  0.00    -0.237 OA
ATOM     50  O   UNL     1       7.426  -0.656 -20.845  1.00  0.00    -0.744 OA
ENDBRANCH  46  47
ENDBRANCH  25  39
BRANCH  26  51
ATOM     51  C   UNL     1      19.879   2.182 -12.933  1.00  0.00     0.058 A 
ATOM     52  C   UNL     1      20.753   1.250 -12.353  1.00  0.00     0.135 A 
ATOM     53  C   UNL     1      20.098   3.542 -12.666  1.00  0.00     0.135 A 
ATOM     54  F   UNL     1      20.578  -0.062 -12.570  1.00  0.00    -0.206 F 
ATOM     55  C   UNL     1      21.789   1.647 -11.517  1.00  0.00     0.059 A 
ATOM     56  C   UNL     1      21.144   3.966 -11.853  1.00  0.00     0.059 A 
ATOM     57  F   UNL     1      19.293   4.469 -13.207  1.00  0.00    -0.206 F 
ATOM     58  C   UNL     1      21.973   3.008 -11.268  1.00  0.00     0.060 A 
BRANCH  58  59
ATOM     59  S   UNL     1      23.327   3.510 -10.184  1.00  0.00     0.124 S 
ATOM     60  O   UNL     1      22.778   3.190  -8.870  1.00  0.00    -0.237 OA
ATOM     61  O   UNL     1      24.421   2.659 -10.639  1.00  0.00    -0.237 OA
ATOM     62  O   UNL     1      23.479   4.931 -10.475  1.00  0.00    -0.744 OA
ENDBRANCH  58  59
ENDBRANCH  26  51
BRANCH  38  63
ATOM     63  C   UNL     1      18.441   2.597 -19.733  1.00  0.00     0.058 A 
ATOM     64  C   UNL     1      18.089   3.811 -20.342  1.00  0.00     0.135 A 
ATOM     65  C   UNL     1      19.521   1.878 -20.269  1.00  0.00     0.135 A 
ATOM     66  F   UNL     1      17.062   4.534 -19.867  1.00  0.00    -0.206 F 
ATOM     67  C   UNL     1      18.780   4.294 -21.447  1.00  0.00     0.059 A 
ATOM     68  C   UNL     1      20.239   2.353 -21.361  1.00  0.00     0.059 A 
ATOM     69  F   UNL     1      19.902   0.718 -19.711  1.00  0.00    -0.206 F 
ATOM     70  C   UNL     1      19.854   3.557 -21.951  1.00  0.00     0.060 A 
BRANCH  70  71
ATOM     71  S   UNL     1      20.773   4.216 -23.358  1.00  0.00     0.124 S 
ATOM     72  O   UNL     1      19.868   3.928 -24.465  1.00  0.00    -0.237 OA
ATOM     73  O   UNL     1      20.916   5.626 -23.005  1.00  0.00    -0.237 OA
ATOM     74  O   UNL     1      22.013   3.446 -23.340  1.00  0.00    -0.744 OA
ENDBRANCH  70  71
ENDBRANCH  38  63
ENDBRANCH  12  13
ENDBRANCH   5   7
ENDBRANCH   2   3
ENDBRANCH   1   2
BRANCH   1  75
ATOM     75  C   UNL     1       7.842   0.560  -7.111  1.00  0.00     0.023 C 
BRANCH  75  76
ATOM     76  C   UNL     1       8.354   1.695  -6.223  1.00  0.00     0.116 C 
BRANCH  76  77
ATOM     77  N   UNL     1       8.150   3.004  -6.822  1.00  0.00    -0.356 N 
ATOM     78  C   UNL     1       7.320   4.018  -6.439  1.00  0.00     0.224 C 
ATOM     79  H   UNL     1       8.691   3.187  -7.623  1.00  0.00     0.163 HD
ATOM     80  O   UNL     1       7.337   5.063  -7.090  1.00  0.00    -0.275 OA
BRANCH  78  81
ATOM     81  C   UNL     1       6.401   3.823  -5.246  1.00  0.00     0.098 C 
ATOM     82  C   UNL     1       5.825   5.159  -4.742  1.00  0.00     0.017 C 
ATOM     83  C   UNL     1       5.251   2.907  -5.652  1.00  0.00     0.131 C 
ATOM     84  C   UNL     1       4.838   4.931  -3.593  1.00  0.00     0.022 C 
ATOM     85  N   UNL     1       4.322   2.751  -4.542  1.00  0.00    -0.356 N 
ATOM     86  C   UNL     1       3.726   3.950  -3.978  1.00  0.00     0.118 C 
BRANCH  85  87
ATOM     87  C   UNL     1       4.064   1.487  -4.065  1.00  0.00     0.133 A 
ATOM     88  C   UNL     1       2.765   1.069  -3.874  1.00  0.00     0.077 A 
ATOM     89  N   UNL     1       5.100   0.659  -3.849  1.00  0.00    -0.211 NA
ATOM     90  C   UNL     1       2.566  -0.245  -3.496  1.00  0.00     0.095 A 
ATOM     91  C   UNL     1       4.819  -0.594  -3.439  1.00  0.00     0.165 A 
ATOM     92  N   UNL     1       3.588  -1.090  -3.261  1.00  0.00    -0.226 NA
BRANCH  90  93
ATOM     93  C   UNL     1       1.212  -0.802  -3.402  1.00  0.00     0.089 A 
ATOM     94  C   UNL     1       0.411  -0.940  -4.538  1.00  0.00     0.030 A 
ATOM     95  N   UNL     1       0.771  -1.136  -2.162  1.00  0.00    -0.255 NA
ATOM     96  C   UNL     1      -0.880  -1.443  -4.401  1.00  0.00     0.004 A 
ATOM     97  C   UNL     1      -0.480  -1.636  -2.062  1.00  0.00     0.112 A 
ATOM     98  C   UNL     1      -1.335  -1.801  -3.139  1.00  0.00     0.020 A 
ENDBRANCH  90  93
BRANCH  91  99
ATOM     99  C   UNL     1       5.942  -1.454  -3.081  1.00  0.00     0.055 A 
ATOM    100  C   UNL     1       6.848  -1.079  -2.071  1.00  0.00     0.015 A 
ATOM    101  C   UNL     1       6.138  -2.692  -3.703  1.00  0.00     0.134 A 
ATOM    102  C   UNL     1       7.895  -1.926  -1.690  1.00  0.00     0.001 A 
ATOM    103  C   UNL     1       7.187  -3.537  -3.336  1.00  0.00     0.040 A 
ATOM    104  F   UNL     1       5.324  -3.091  -4.693  1.00  0.00    -0.206 F 
ATOM    105  C   UNL     1       8.064  -3.156  -2.323  1.00  0.00     0.003 A 
ENDBRANCH  91  99
ENDBRANCH  85  87
ENDBRANCH  78  81
ENDBRANCH  76  77
ENDBRANCH  75  76
ENDBRANCH   1  75
TORSDOF 17
