REMARK SMILES Cc1ccc2c(c1)c(-c1ccnc3c(C)cccc13)c(C)n2CC(=O)NCCCCNC(=O)c1ccc(-c2c3nc(c(-c4c(F)cc(S(=O)(=O)[O-])cc4F)c4ccc([nH]4)c(-c4c(F)cc(S(=O)(=O)[O-])cc4F)c4nc(c(-c5c(F)cc(S(=O)(=O)[O-])cc5F)c5ccc2[nH]5)C=C4)C=C3)cc1
REMARK SMILES IDX 29 1 28 2 27 3 26 4 24 5 25 6 23 8 22 9 1 10 2 11 3 12 7 13
REMARK SMILES IDX 4 14 6 15 5 16 8 17 20 18 21 19 9 20 10 21 19 22 11 23 13 24
REMARK SMILES IDX 18 25 12 26 14 27 17 28 15 29 16 30 30 31 31 32 32 33 33 35
REMARK SMILES IDX 34 36 35 37 99 38 36 39 98 40 37 41 38 42 39 43 92 44 40 45
REMARK SMILES IDX 97 46 91 47 93 48 41 49 96 50 90 51 89 52 42 54 76 55 55 56
REMARK SMILES IDX 75 57 56 58 59 59 74 60 94 61 57 62 58 63 73 65 95 66 60 67
REMARK SMILES IDX 43 68 44 69 53 70 45 71 46 72 52 73 54 74 47 75 48 76 49 77
REMARK SMILES IDX 50 78 51 79 77 80 78 81 87 82 79 83 80 84 86 85 88 86 81 87
REMARK SMILES IDX 82 88 83 89 84 90 85 91 61 92 62 93 71 94 63 95 64 96 70 97
REMARK SMILES IDX 72 98 65 99 66 100 67 101 68 102 69 103
REMARK H PARENT 26 7 31 34 93 53 59 64
REMARK Flexibility Score: inf
ROOT
ATOM      1  C   UNL     1       4.193  -1.803   6.176  1.00  0.00     0.023 C 
ENDROOT
BRANCH   1   2
ATOM      2  C   UNL     1       3.096  -1.991   5.118  1.00  0.00     0.023 C 
BRANCH   2   3
ATOM      3  C   UNL     1       2.571  -3.418   4.986  1.00  0.00     0.116 C 
BRANCH   3   4
ATOM      4  N   UNL     1       1.840  -3.854   6.160  1.00  0.00    -0.355 N 
ATOM      5  C   UNL     1       0.513  -4.149   6.291  1.00  0.00     0.239 C 
ATOM      6  O   UNL     1       0.124  -4.575   7.382  1.00  0.00    -0.273 OA
ATOM      7  H   UNL     1       2.377  -3.951   6.979  1.00  0.00     0.163 HD
BRANCH   5   8
ATOM      8  C   UNL     1      -0.436  -4.037   5.113  1.00  0.00     0.222 C 
BRANCH   8   9
ATOM      9  N   UNL     1      -0.665  -2.666   4.669  1.00  0.00    -0.335 N 
ATOM     10  C   UNL     1       0.890   0.142   0.017  1.00  0.00     0.044 C 
ATOM     11  C   UNL     1       0.401  -0.668   1.182  1.00  0.00    -0.050 A 
ATOM     12  C   UNL     1       0.532  -2.057   1.165  1.00  0.00     0.005 A 
ATOM     13  C   UNL     1      -0.132  -0.037   2.317  1.00  0.00     0.014 A 
ATOM     14  C   UNL     1       0.151  -2.836   2.261  1.00  0.00     0.027 A 
ATOM     15  C   UNL     1      -0.514  -0.801   3.443  1.00  0.00     0.008 A 
ATOM     16  C   UNL     1      -0.340  -2.185   3.409  1.00  0.00     0.049 A 
ATOM     17  C   UNL     1      -1.065  -0.477   4.717  1.00  0.00     0.011 A 
ATOM     18  C   UNL     1      -1.205  -1.653   5.439  1.00  0.00     0.024 A 
ATOM     19  C   UNL     1      -1.752  -1.849   6.816  1.00  0.00     0.065 C 
BRANCH  17  20
ATOM     20  C   UNL     1      -1.441   0.830   5.246  1.00  0.00    -0.005 A 
ATOM     21  C   UNL     1      -2.631   1.392   4.790  1.00  0.00     0.029 A 
ATOM     22  C   UNL     1      -0.644   1.519   6.197  1.00  0.00     0.008 A 
ATOM     23  C   UNL     1      -3.007   2.606   5.316  1.00  0.00     0.112 A 
ATOM     24  C   UNL     1      -1.121   2.762   6.675  1.00  0.00     0.074 A 
ATOM     25  C   UNL     1       0.594   1.027   6.674  1.00  0.00     0.011 A 
ATOM     26  N   UNL     1      -2.295   3.275   6.243  1.00  0.00    -0.256 NA
ATOM     27  C   UNL     1      -0.342   3.459   7.613  1.00  0.00    -0.025 A 
ATOM     28  C   UNL     1       1.362   1.738   7.587  1.00  0.00     0.001 A 
ATOM     29  C   UNL     1      -0.775   4.787   8.180  1.00  0.00     0.047 C 
ATOM     30  C   UNL     1       0.895   2.954   8.052  1.00  0.00     0.005 A 
ENDBRANCH  17  20
ENDBRANCH   8   9
ENDBRANCH   5   8
ENDBRANCH   3   4
ENDBRANCH   2   3
ENDBRANCH   1   2
BRANCH   1  31
ATOM     31  C   UNL     1       5.380  -2.756   6.025  1.00  0.00     0.116 C 
BRANCH  31  32
ATOM     32  N   UNL     1       5.989  -2.709   4.713  1.00  0.00    -0.352 N 
ATOM     33  C   UNL     1       7.020  -2.011   4.150  1.00  0.00     0.251 C 
ATOM     34  H   UNL     1       5.560  -3.325   4.076  1.00  0.00     0.163 HD
ATOM     35  O   UNL     1       7.328  -2.351   3.003  1.00  0.00    -0.269 OA
BRANCH  33  36
ATOM     36  C   UNL     1       7.739  -0.871   4.782  1.00  0.00     0.039 A 
ATOM     37  C   UNL     1       7.513  -0.378   6.067  1.00  0.00     0.014 A 
ATOM     38  C   UNL     1       8.677  -0.211   3.964  1.00  0.00     0.014 A 
ATOM     39  C   UNL     1       8.135   0.791   6.491  1.00  0.00     0.010 A 
ATOM     40  C   UNL     1       9.310   0.952   4.388  1.00  0.00     0.010 A 
ATOM     41  C   UNL     1       8.996   1.479   5.635  1.00  0.00    -0.014 A 
BRANCH  41  42
ATOM     42  C   UNL     1       9.591   2.719   6.124  1.00  0.00     0.031 A 
ATOM     43  C   UNL     1      10.441   2.576   7.343  1.00  0.00     0.074 A 
ATOM     44  C   UNL     1       9.462   3.898   5.484  1.00  0.00     0.049 A 
ATOM     45  N   UNL     1      10.259   3.098   8.512  1.00  0.00    -0.248 NA
ATOM     46  C   UNL     1      11.569   1.633   7.281  1.00  0.00     0.031 C 
ATOM     47  C   UNL     1       8.883   4.157   4.163  1.00  0.00     0.029 A 
ATOM     48  N   UNL     1       9.919   5.125   5.859  1.00  0.00    -0.354 N 
ATOM     49  C   UNL     1      11.352   2.707   9.286  1.00  0.00     0.074 A 
ATOM     50  C   UNL     1      12.046   1.701   8.525  1.00  0.00     0.031 C 
ATOM     51  C   UNL     1       9.236   5.397   3.757  1.00  0.00     0.029 A 
ATOM     52  C   UNL     1       9.945   6.064   4.836  1.00  0.00     0.049 A 
ATOM     53  H   UNL     1      10.206   5.329   6.778  1.00  0.00     0.167 HD
ATOM     54  C   UNL     1      11.712   3.369  10.422  1.00  0.00     0.037 A 
ATOM     55  C   UNL     1      10.569   7.270   4.859  1.00  0.00     0.037 A 
ATOM     56  C   UNL     1      10.644   4.197  10.914  1.00  0.00     0.049 A 
ATOM     57  C   UNL     1      10.760   7.635   6.289  1.00  0.00     0.074 A 
ATOM     58  C   UNL     1       9.364   3.953  11.375  1.00  0.00     0.029 A 
ATOM     59  N   UNL     1      10.697   5.545  10.658  1.00  0.00    -0.354 N 
ATOM     60  N   UNL     1       9.781   7.915   7.105  1.00  0.00    -0.248 NA
ATOM     61  C   UNL     1      12.009   7.243   6.927  1.00  0.00     0.031 C 
ATOM     62  C   UNL     1       8.588   5.049  10.900  1.00  0.00     0.029 A 
ATOM     63  C   UNL     1       9.449   5.918  10.227  1.00  0.00     0.049 A 
ATOM     64  H   UNL     1      11.480   6.132  10.764  1.00  0.00     0.167 HD
ATOM     65  C   UNL     1      10.146   7.337   8.312  1.00  0.00     0.074 A 
ATOM     66  C   UNL     1      11.563   7.011   8.165  1.00  0.00     0.031 C 
ATOM     67  C   UNL     1       9.210   6.924   9.217  1.00  0.00     0.037 A 
BRANCH  54  68
ATOM     68  C   UNL     1      13.132   3.518  10.911  1.00  0.00     0.058 A 
ATOM     69  C   UNL     1      13.379   4.053  12.193  1.00  0.00     0.135 A 
ATOM     70  C   UNL     1      14.257   3.428  10.062  1.00  0.00     0.135 A 
ATOM     71  F   UNL     1      12.381   4.188  13.082  1.00  0.00    -0.206 F 
ATOM     72  C   UNL     1      14.632   4.535  12.573  1.00  0.00     0.059 A 
ATOM     73  C   UNL     1      15.525   3.854  10.439  1.00  0.00     0.059 A 
ATOM     74  F   UNL     1      14.158   3.016   8.792  1.00  0.00    -0.206 F 
ATOM     75  C   UNL     1      15.695   4.449  11.679  1.00  0.00     0.060 A 
BRANCH  75  76
ATOM     76  S   UNL     1      17.279   5.189  12.114  1.00  0.00     0.124 S 
ATOM     77  O   UNL     1      16.942   6.608  12.131  1.00  0.00    -0.237 OA
ATOM     78  O   UNL     1      17.551   4.579  13.411  1.00  0.00    -0.237 OA
ATOM     79  O   UNL     1      18.159   4.762  11.029  1.00  0.00    -0.744 OA
ENDBRANCH  75  76
ENDBRANCH  54  68
BRANCH  55  80
ATOM     80  C   UNL     1      11.319   7.928   3.753  1.00  0.00     0.058 A 
ATOM     81  C   UNL     1      11.768   9.258   3.863  1.00  0.00     0.135 A 
ATOM     82  C   UNL     1      11.857   7.185   2.682  1.00  0.00     0.135 A 
ATOM     83  F   UNL     1      11.328  10.038   4.862  1.00  0.00    -0.206 F 
ATOM     84  C   UNL     1      12.729   9.798   2.999  1.00  0.00     0.059 A 
ATOM     85  C   UNL     1      12.805   7.705   1.802  1.00  0.00     0.059 A 
ATOM     86  F   UNL     1      11.550   5.891   2.510  1.00  0.00    -0.206 F 
ATOM     87  C   UNL     1      13.260   9.004   1.983  1.00  0.00     0.060 A 
BRANCH  87  88
ATOM     88  S   UNL     1      14.630   9.629   0.982  1.00  0.00     0.124 S 
ATOM     89  O   UNL     1      13.990  10.702   0.228  1.00  0.00    -0.237 OA
ATOM     90  O   UNL     1      15.588  10.047   2.000  1.00  0.00    -0.237 OA
ATOM     91  O   UNL     1      15.032   8.467   0.193  1.00  0.00    -0.744 OA
ENDBRANCH  87  88
ENDBRANCH  55  80
BRANCH  67  92
ATOM     92  C   UNL     1       7.775   7.335   9.007  1.00  0.00     0.058 A 
ATOM     93  C   UNL     1       6.988   6.923   7.917  1.00  0.00     0.135 A 
ATOM     94  C   UNL     1       7.122   8.018  10.044  1.00  0.00     0.135 A 
ATOM     95  F   UNL     1       7.509   6.177   6.933  1.00  0.00    -0.206 F 
ATOM     96  C   UNL     1       5.621   7.201   7.848  1.00  0.00     0.059 A 
ATOM     97  C   UNL     1       5.754   8.279  10.012  1.00  0.00     0.059 A 
ATOM     98  F   UNL     1       7.804   8.384  11.142  1.00  0.00    -0.206 F 
ATOM     99  C   UNL     1       5.010   7.872   8.906  1.00  0.00     0.060 A 
BRANCH  99 100
ATOM    100  S   UNL     1       3.224   8.135   8.868  1.00  0.00     0.124 S 
ATOM    101  O   UNL     1       3.079   9.097   7.776  1.00  0.00    -0.237 OA
ATOM    102  O   UNL     1       2.715   6.790   8.598  1.00  0.00    -0.237 OA
ATOM    103  O   UNL     1       2.922   8.649  10.195  1.00  0.00    -0.744 OA
ENDBRANCH  99 100
ENDBRANCH  67  92
ENDBRANCH  41  42
ENDBRANCH  33  36
ENDBRANCH  31  32
ENDBRANCH   1  31
TORSDOF 16
