REMARK SMILES CC(=O)Nc1ccc(/N=C2\C(=O)N(c3ccc(NC(C)=O)cc3)[C@H](c3ccccc3)[C@H]2CC(=O)NCCCCNC(=O)c2ccc(-c3c4nc(c(-c5c(F)cc(S(=O)(=O)[O-])cc5F)c5ccc([nH]5)c(-c5c(F)cc(S(=O)(=O)[O-])cc5F)c5nc(c(-c6c(F)cc(S(=O)(=O)[O-])cc6F)c6ccc3[nH]6)C=C5)C=C4)cc2)cc1
REMARK SMILES IDX 37 1 36 2 35 3 33 4 34 5 32 7 31 8 9 9 10 10 11 11 12 12
REMARK SMILES IDX 13 13 24 14 8 15 5 16 6 17 110 18 7 19 109 20 4 21 1 22 2 23
REMARK SMILES IDX 3 24 14 26 15 27 23 28 16 29 22 30 17 31 18 32 19 33 20 35
REMARK SMILES IDX 21 36 25 37 26 38 30 39 27 40 29 41 28 42 38 43 39 44 40 45
REMARK SMILES IDX 41 46 42 48 43 49 44 50 108 51 45 52 107 53 46 54 47 55
REMARK SMILES IDX 48 56 101 57 49 58 106 59 100 60 102 61 50 62 105 63 99 64
REMARK SMILES IDX 98 65 51 67 85 68 64 69 84 70 65 71 68 72 83 73 103 74 66 75
REMARK SMILES IDX 67 76 82 78 104 79 69 80 52 81 53 82 62 83 54 84 55 85 61 86
REMARK SMILES IDX 63 87 56 88 57 89 58 90 59 91 60 92 86 93 87 94 96 95 88 96
REMARK SMILES IDX 89 97 95 98 97 99 90 100 91 101 92 102 93 103 94 104 70 105
REMARK SMILES IDX 71 106 80 107 72 108 73 109 79 110 81 111 74 112 75 113
REMARK SMILES IDX 76 114 77 115 78 116
REMARK H PARENT 35 6 4 25 18 34 40 47 102 66 68 77
REMARK Flexibility Score: inf
ROOT
ATOM      1  C   UNL     1       4.989   2.486   6.215  1.00  0.00     0.023 C 
ENDROOT
BRANCH   1   2
ATOM      2  C   UNL     1       6.469   2.753   6.481  1.00  0.00     0.116 C 
BRANCH   2   3
ATOM      3  N   UNL     1       7.098   1.687   7.250  1.00  0.00    -0.356 N 
ATOM      4  C   UNL     1       7.442   0.424   6.881  1.00  0.00     0.220 C 
ATOM      5  O   UNL     1       8.008  -0.310   7.693  1.00  0.00    -0.275 OA
ATOM      6  H   UNL     1       7.306   1.917   8.184  1.00  0.00     0.163 HD
BRANCH   4   7
ATOM      7  C   UNL     1       7.117  -0.084   5.496  1.00  0.00     0.112 C 
BRANCH   7   8
ATOM      8  C   UNL     1       6.111  -1.242   5.604  1.00  0.00     0.081 C 
ATOM      9  N   UNL     1       3.912  -0.412   4.916  1.00  0.00    -0.247 NA
ATOM     10  C   UNL     1       5.021  -1.009   4.605  1.00  0.00     0.112 C 
ATOM     11  C   UNL     1       5.428  -1.660   3.312  1.00  0.00     0.273 C 
ATOM     12  O   UNL     1       5.069  -1.271   2.221  1.00  0.00    -0.267 OA
ATOM     13  N   UNL     1       6.232  -2.728   3.686  1.00  0.00    -0.299 N 
ATOM     14  C   UNL     1       6.656  -2.607   5.088  1.00  0.00     0.131 C 
BRANCH   9  15
ATOM     15  C   UNL     1       2.886  -0.203   3.977  1.00  0.00     0.064 A 
ATOM     16  C   UNL     1       0.910   0.408   2.047  1.00  0.00     0.041 A 
ATOM     17  C   UNL     1       1.341   1.376   2.953  1.00  0.00     0.028 A 
ATOM     18  C   UNL     1       1.391  -0.893   2.183  1.00  0.00     0.028 A 
ATOM     19  C   UNL     1       2.325   1.072   3.897  1.00  0.00     0.030 A 
ATOM     20  C   UNL     1       2.350  -1.200   3.161  1.00  0.00     0.030 A 
BRANCH  16  21
ATOM     21  N   UNL     1      -0.028   0.811   1.085  1.00  0.00    -0.326 N 
ATOM     22  C   UNL     1       0.539  -0.719  -0.797  1.00  0.00     0.114 C 
ATOM     23  C   UNL     1      -0.344   0.306  -0.142  1.00  0.00     0.221 C 
ATOM     24  O   UNL     1      -1.333   0.745  -0.735  1.00  0.00    -0.275 OA
ATOM     25  H   UNL     1      -0.553   1.604   1.341  1.00  0.00     0.169 HD
ENDBRANCH  16  21
ENDBRANCH   9  15
BRANCH  13  26
ATOM     26  C   UNL     1       6.602  -3.760   2.778  1.00  0.00     0.045 A 
ATOM     27  C   UNL     1       6.718  -3.492   1.407  1.00  0.00     0.028 A 
ATOM     28  C   UNL     1       6.730  -5.092   3.178  1.00  0.00     0.028 A 
ATOM     29  C   UNL     1       6.880  -4.516   0.463  1.00  0.00     0.028 A 
ATOM     30  C   UNL     1       6.856  -6.123   2.233  1.00  0.00     0.028 A 
ATOM     31  C   UNL     1       6.903  -5.846   0.866  1.00  0.00     0.041 A 
BRANCH  31  32
ATOM     32  N   UNL     1       6.898  -6.940  -0.022  1.00  0.00    -0.326 N 
ATOM     33  C   UNL     1       6.955  -6.895  -1.403  1.00  0.00     0.221 C 
ATOM     34  H   UNL     1       6.848  -7.835   0.385  1.00  0.00     0.169 HD
ATOM     35  C   UNL     1       6.701  -8.238  -2.042  1.00  0.00     0.114 C 
ATOM     36  O   UNL     1       7.200  -5.915  -2.099  1.00  0.00    -0.275 OA
ENDBRANCH  31  32
ENDBRANCH  13  26
BRANCH  14  37
ATOM     37  C   UNL     1       6.266  -3.737   6.027  1.00  0.00    -0.024 A 
ATOM     38  C   UNL     1       7.282  -4.481   6.660  1.00  0.00     0.006 A 
ATOM     39  C   UNL     1       4.929  -4.059   6.306  1.00  0.00     0.006 A 
ATOM     40  C   UNL     1       6.970  -5.529   7.527  1.00  0.00     0.000 A 
ATOM     41  C   UNL     1       4.622  -5.099   7.187  1.00  0.00     0.000 A 
ATOM     42  C   UNL     1       5.639  -5.837   7.791  1.00  0.00     0.000 A 
ENDBRANCH  14  37
ENDBRANCH   7   8
ENDBRANCH   4   7
ENDBRANCH   2   3
ENDBRANCH   1   2
BRANCH   1  43
ATOM     43  C   UNL     1       4.064   3.677   6.490  1.00  0.00     0.023 C 
BRANCH  43  44
ATOM     44  C   UNL     1       4.266   4.901   5.596  1.00  0.00     0.116 C 
BRANCH  44  45
ATOM     45  N   UNL     1       3.983   4.633   4.195  1.00  0.00    -0.352 N 
ATOM     46  C   UNL     1       3.032   5.136   3.340  1.00  0.00     0.251 C 
ATOM     47  H   UNL     1       4.583   3.969   3.784  1.00  0.00     0.163 HD
ATOM     48  O   UNL     1       2.913   4.616   2.231  1.00  0.00    -0.269 OA
BRANCH  46  49
ATOM     49  C   UNL     1       2.126   6.251   3.712  1.00  0.00     0.039 A 
ATOM     50  C   UNL     1       0.807   6.209   3.239  1.00  0.00     0.014 A 
ATOM     51  C   UNL     1       2.550   7.362   4.444  1.00  0.00     0.014 A 
ATOM     52  C   UNL     1      -0.097   7.227   3.561  1.00  0.00     0.010 A 
ATOM     53  C   UNL     1       1.635   8.355   4.808  1.00  0.00     0.010 A 
ATOM     54  C   UNL     1       0.298   8.290   4.386  1.00  0.00    -0.014 A 
BRANCH  54  55
ATOM     55  C   UNL     1      -0.666   9.330   4.830  1.00  0.00     0.031 A 
ATOM     56  C   UNL     1      -0.461  10.768   4.453  1.00  0.00     0.074 A 
ATOM     57  C   UNL     1      -1.690   9.010   5.645  1.00  0.00     0.049 A 
ATOM     58  N   UNL     1      -0.972  11.838   5.003  1.00  0.00    -0.248 NA
ATOM     59  C   UNL     1       0.460  11.038   3.340  1.00  0.00     0.031 C 
ATOM     60  C   UNL     1      -2.015   7.666   6.123  1.00  0.00     0.029 A 
ATOM     61  N   UNL     1      -2.643   9.810   6.227  1.00  0.00    -0.354 N 
ATOM     62  C   UNL     1      -0.346  12.912   4.387  1.00  0.00     0.074 A 
ATOM     63  C   UNL     1       0.511  12.365   3.354  1.00  0.00     0.031 C 
ATOM     64  C   UNL     1      -3.103   7.730   6.909  1.00  0.00     0.029 A 
ATOM     65  C   UNL     1      -3.529   9.122   7.019  1.00  0.00     0.049 A 
ATOM     66  H   UNL     1      -2.686  10.784   6.090  1.00  0.00     0.167 HD
ATOM     67  C   UNL     1      -0.435  14.226   4.705  1.00  0.00     0.037 A 
ATOM     68  C   UNL     1      -4.557   9.563   7.768  1.00  0.00     0.037 A 
ATOM     69  C   UNL     1      -1.331  14.759   5.696  1.00  0.00     0.049 A 
ATOM     70  C   UNL     1      -4.847  11.030   7.846  1.00  0.00     0.074 A 
ATOM     71  C   UNL     1      -1.378  16.026   6.252  1.00  0.00     0.029 A 
ATOM     72  N   UNL     1      -2.394  14.051   6.231  1.00  0.00    -0.354 N 
ATOM     73  N   UNL     1      -4.119  12.028   7.412  1.00  0.00    -0.248 NA
ATOM     74  C   UNL     1      -6.093  11.434   8.512  1.00  0.00     0.031 C 
ATOM     75  C   UNL     1      -2.507  16.097   7.086  1.00  0.00     0.029 A 
ATOM     76  C   UNL     1      -3.153  14.873   7.046  1.00  0.00     0.049 A 
ATOM     77  H   UNL     1      -2.582  13.101   6.058  1.00  0.00     0.167 HD
ATOM     78  C   UNL     1      -4.790  13.181   7.795  1.00  0.00     0.074 A 
ATOM     79  C   UNL     1      -6.014  12.758   8.447  1.00  0.00     0.031 C 
ATOM     80  C   UNL     1      -4.393  14.469   7.657  1.00  0.00     0.037 A 
BRANCH  67  81
ATOM     81  C   UNL     1       0.533  15.141   4.026  1.00  0.00     0.058 A 
ATOM     82  C   UNL     1       0.233  15.766   2.809  1.00  0.00     0.135 A 
ATOM     83  C   UNL     1       1.804  15.351   4.586  1.00  0.00     0.135 A 
ATOM     84  F   UNL     1      -0.961  15.574   2.228  1.00  0.00    -0.206 F 
ATOM     85  C   UNL     1       1.174  16.553   2.149  1.00  0.00     0.059 A 
ATOM     86  C   UNL     1       2.757  16.134   3.947  1.00  0.00     0.059 A 
ATOM     87  F   UNL     1       2.138  14.762   5.744  1.00  0.00    -0.206 F 
ATOM     88  C   UNL     1       2.438  16.717   2.719  1.00  0.00     0.060 A 
BRANCH  88  89
ATOM     89  S   UNL     1       3.713  17.670   1.867  1.00  0.00     0.124 S 
ATOM     90  O   UNL     1       4.589  16.609   1.378  1.00  0.00    -0.237 OA
ATOM     91  O   UNL     1       2.967  18.392   0.842  1.00  0.00    -0.237 OA
ATOM     92  O   UNL     1       4.258  18.496   2.940  1.00  0.00    -0.744 OA
ENDBRANCH  88  89
ENDBRANCH  67  81
BRANCH  68  93
ATOM     93  C   UNL     1      -5.378   8.583   8.512  1.00  0.00     0.058 A 
ATOM     94  C   UNL     1      -6.495   7.986   7.912  1.00  0.00     0.135 A 
ATOM     95  C   UNL     1      -5.015   8.170   9.800  1.00  0.00     0.135 A 
ATOM     96  F   UNL     1      -6.872   8.356   6.679  1.00  0.00    -0.206 F 
ATOM     97  C   UNL     1      -7.223   6.995   8.561  1.00  0.00     0.059 A 
ATOM     98  C   UNL     1      -5.724   7.178  10.467  1.00  0.00     0.059 A 
ATOM     99  F   UNL     1      -3.944   8.710  10.401  1.00  0.00    -0.206 F 
ATOM    100  C   UNL     1      -6.825   6.594   9.837  1.00  0.00     0.060 A 
BRANCH 100 101
ATOM    101  S   UNL     1      -7.685   5.235  10.662  1.00  0.00     0.124 S 
ATOM    102  O   UNL     1      -8.586   5.956  11.552  1.00  0.00    -0.237 OA
ATOM    103  O   UNL     1      -8.319   4.527   9.553  1.00  0.00    -0.237 OA
ATOM    104  O   UNL     1      -6.590   4.516  11.307  1.00  0.00    -0.744 OA
ENDBRANCH 100 101
ENDBRANCH  68  93
BRANCH  80 105
ATOM    105  C   UNL     1      -5.291  15.521   8.226  1.00  0.00     0.058 A 
ATOM    106  C   UNL     1      -5.133  15.960   9.549  1.00  0.00     0.135 A 
ATOM    107  C   UNL     1      -6.317  16.087   7.458  1.00  0.00     0.135 A 
ATOM    108  F   UNL     1      -4.165  15.442  10.322  1.00  0.00    -0.206 F 
ATOM    109  C   UNL     1      -5.973  16.923  10.099  1.00  0.00     0.059 A 
ATOM    110  C   UNL     1      -7.171  17.051   7.988  1.00  0.00     0.059 A 
ATOM    111  F   UNL     1      -6.512  15.688   6.192  1.00  0.00    -0.206 F 
ATOM    112  C   UNL     1      -6.997  17.454   9.313  1.00  0.00     0.060 A 
BRANCH 112 113
ATOM    113  S   UNL     1      -8.093  18.706  10.017  1.00  0.00     0.124 S 
ATOM    114  O   UNL     1      -9.141  17.879  10.606  1.00  0.00    -0.237 OA
ATOM    115  O   UNL     1      -7.228  19.401  10.966  1.00  0.00    -0.237 OA
ATOM    116  O   UNL     1      -8.488  19.491   8.851  1.00  0.00    -0.744 OA
ENDBRANCH 112 113
ENDBRANCH  80 105
ENDBRANCH  54  55
ENDBRANCH  46  49
ENDBRANCH  44  45
ENDBRANCH  43  44
ENDBRANCH   1  43
TORSDOF 20
