REMARK SMILES CC1(C)[C@H](C(=O)NCCCCNC(=O)c2ccc(-c3c4nc(c(-c5c(F)cc(S(=O)(=O)[O-])cc5F)c5ccc([nH]5)c(-c5c(F)cc(S(=O)(=O)[O-])cc5F)c5nc(c(-c6c(F)cc(S(=O)(=O)[O-])cc6F)c6ccc3[nH]6)C=C5)C=C4)cc2)[C@@H]1C(=O)Nc1ccc(NC(=O)C2CCC2)cc1
REMARK SMILES IDX 9 1 8 2 7 3 5 4 6 5 4 7 1 8 2 9 3 10 81 11 82 12 83 13 84 14
REMARK SMILES IDX 85 16 86 17 97 18 87 19 96 20 88 21 89 22 90 23 91 25 92 26
REMARK SMILES IDX 93 27 95 28 94 29 10 30 11 31 12 32 13 33 14 35 15 36 16 37
REMARK SMILES IDX 80 38 17 39 79 40 18 41 19 42 20 43 73 44 21 45 78 46 72 47
REMARK SMILES IDX 74 48 22 49 77 50 71 51 70 52 23 54 57 55 36 56 56 57 37 58
REMARK SMILES IDX 40 59 55 60 75 61 38 62 39 63 54 65 76 66 41 67 24 68 25 69
REMARK SMILES IDX 34 70 26 71 27 72 33 73 35 74 28 75 29 76 30 77 31 78 32 79
REMARK SMILES IDX 58 80 59 81 68 82 60 83 61 84 67 85 69 86 62 87 63 88 64 89
REMARK SMILES IDX 65 90 66 91 42 92 43 93 52 94 44 95 45 96 51 97 53 98 46 99
REMARK SMILES IDX 47 100 48 101 49 102 50 103
REMARK H PARENT 7 6 84 15 89 24 12 34 74 53 40 64
REMARK Flexibility Score: inf
ROOT
ATOM      1  C   UNL     1       0.466   4.177  -0.759  1.00  0.00     0.023 C 
ENDROOT
BRANCH   1   2
ATOM      2  C   UNL     1      -0.519   3.076  -0.380  1.00  0.00     0.116 C 
BRANCH   2   3
ATOM      3  N   UNL     1      -0.813   2.220  -1.508  1.00  0.00    -0.356 N 
ATOM      4  C   UNL     1      -0.890   0.875  -1.717  1.00  0.00     0.224 C 
ATOM      5  O   UNL     1      -1.173   0.541  -2.870  1.00  0.00    -0.275 OA
ATOM      6  H   UNL     1      -1.004   2.734  -2.325  1.00  0.00     0.163 HD
BRANCH   4   7
ATOM      7  C   UNL     1      -0.685  -0.233  -0.750  1.00  0.00     0.098 C 
ATOM      8  C   UNL     1       1.162  -1.786   0.124  1.00  0.00     0.013 C 
ATOM      9  C   UNL     1       0.500  -0.426   0.181  1.00  0.00    -0.011 C 
ATOM     10  C   UNL     1       1.507   0.678   0.384  1.00  0.00     0.013 C 
ATOM     11  C   UNL     1      -0.947  -0.370   0.717  1.00  0.00     0.098 C 
BRANCH  11  12
ATOM     12  C   UNL     1      -1.486   0.655   1.631  1.00  0.00     0.228 C 
ATOM     13  O   UNL     1      -0.820   1.038   2.589  1.00  0.00    -0.274 OA
ATOM     14  N   UNL     1      -2.760   1.148   1.451  1.00  0.00    -0.326 N 
ATOM     15  H   UNL     1      -3.148   1.657   2.199  1.00  0.00     0.169 HD
BRANCH  14  16
ATOM     16  C   UNL     1      -3.555   0.998   0.312  1.00  0.00     0.041 A 
ATOM     17  C   UNL     1      -3.813   2.160  -0.400  1.00  0.00     0.028 A 
ATOM     18  C   UNL     1      -3.986  -0.227  -0.190  1.00  0.00     0.028 A 
ATOM     19  C   UNL     1      -4.304   2.073  -1.693  1.00  0.00     0.028 A 
ATOM     20  C   UNL     1      -4.671  -0.267  -1.416  1.00  0.00     0.028 A 
ATOM     21  C   UNL     1      -4.838   0.898  -2.178  1.00  0.00     0.041 A 
BRANCH  21  22
ATOM     22  N   UNL     1      -5.532   0.820  -3.389  1.00  0.00    -0.326 N 
ATOM     23  C   UNL     1      -6.019   1.760  -4.277  1.00  0.00     0.227 C 
ATOM     24  H   UNL     1      -5.713  -0.105  -3.670  1.00  0.00     0.169 HD
ATOM     25  O   UNL     1      -6.575   1.266  -5.277  1.00  0.00    -0.274 OA
BRANCH  23  26
ATOM     26  C   UNL     1      -5.926   3.302  -4.111  1.00  0.00     0.079 C 
ATOM     27  C   UNL     1      -7.191   4.066  -4.651  1.00  0.00     0.013 C 
ATOM     28  C   UNL     1      -6.203   4.097  -2.792  1.00  0.00     0.013 C 
ATOM     29  C   UNL     1      -6.883   5.176  -3.641  1.00  0.00     0.002 C 
ENDBRANCH  23  26
ENDBRANCH  21  22
ENDBRANCH  14  16
ENDBRANCH  11  12
ENDBRANCH   4   7
ENDBRANCH   2   3
ENDBRANCH   1   2
BRANCH   1  30
ATOM     30  C   UNL     1      -0.139   5.297  -1.615  1.00  0.00     0.023 C 
BRANCH  30  31
ATOM     31  C   UNL     1      -1.322   6.039  -0.991  1.00  0.00     0.116 C 
BRANCH  31  32
ATOM     32  N   UNL     1      -1.017   6.594   0.321  1.00  0.00    -0.352 N 
ATOM     33  C   UNL     1      -1.103   7.896   0.754  1.00  0.00     0.251 C 
ATOM     34  H   UNL     1      -0.704   5.945   0.992  1.00  0.00     0.163 HD
ATOM     35  O   UNL     1      -0.662   8.215   1.854  1.00  0.00    -0.269 OA
BRANCH  33  36
ATOM     36  C   UNL     1      -1.707   8.909  -0.131  1.00  0.00     0.039 A 
ATOM     37  C   UNL     1      -0.978  10.058  -0.445  1.00  0.00     0.014 A 
ATOM     38  C   UNL     1      -2.966   8.688  -0.695  1.00  0.00     0.014 A 
ATOM     39  C   UNL     1      -1.470  10.940  -1.409  1.00  0.00     0.010 A 
ATOM     40  C   UNL     1      -3.426   9.536  -1.696  1.00  0.00     0.010 A 
ATOM     41  C   UNL     1      -2.671  10.655  -2.080  1.00  0.00    -0.014 A 
BRANCH  41  42
ATOM     42  C   UNL     1      -3.128  11.474  -3.231  1.00  0.00     0.031 A 
ATOM     43  C   UNL     1      -4.414  12.245  -3.148  1.00  0.00     0.074 A 
ATOM     44  C   UNL     1      -2.432  11.434  -4.385  1.00  0.00     0.049 A 
ATOM     45  N   UNL     1      -5.038  12.909  -4.085  1.00  0.00    -0.248 NA
ATOM     46  C   UNL     1      -5.100  12.248  -1.847  1.00  0.00     0.031 C 
ATOM     47  C   UNL     1      -1.190  10.687  -4.599  1.00  0.00     0.029 A 
ATOM     48  N   UNL     1      -2.680  12.018  -5.602  1.00  0.00    -0.354 N 
ATOM     49  C   UNL     1      -6.195  13.399  -3.494  1.00  0.00     0.074 A 
ATOM     50  C   UNL     1      -6.208  12.919  -2.129  1.00  0.00     0.031 C 
ATOM     51  C   UNL     1      -0.780  10.867  -5.865  1.00  0.00     0.029 A 
ATOM     52  C   UNL     1      -1.750  11.702  -6.565  1.00  0.00     0.049 A 
ATOM     53  H   UNL     1      -3.451  12.606  -5.771  1.00  0.00     0.167 HD
ATOM     54  C   UNL     1      -7.150  14.192  -4.037  1.00  0.00     0.037 A 
ATOM     55  C   UNL     1      -1.694  12.031  -7.871  1.00  0.00     0.037 A 
ATOM     56  C   UNL     1      -7.119  14.680  -5.391  1.00  0.00     0.049 A 
ATOM     57  C   UNL     1      -2.783  12.885  -8.459  1.00  0.00     0.074 A 
ATOM     58  C   UNL     1      -8.002  15.545  -6.013  1.00  0.00     0.029 A 
ATOM     59  N   UNL     1      -6.162  14.339  -6.335  1.00  0.00    -0.354 N 
ATOM     60  N   UNL     1      -3.837  13.395  -7.869  1.00  0.00    -0.248 NA
ATOM     61  C   UNL     1      -2.681  13.202  -9.890  1.00  0.00     0.031 C 
ATOM     62  C   UNL     1      -7.603  15.692  -7.346  1.00  0.00     0.029 A 
ATOM     63  C   UNL     1      -6.449  14.951  -7.544  1.00  0.00     0.049 A 
ATOM     64  H   UNL     1      -5.391  13.749  -6.170  1.00  0.00     0.167 HD
ATOM     65  C   UNL     1      -4.517  14.105  -8.851  1.00  0.00     0.074 A 
ATOM     66  C   UNL     1      -3.748  13.970 -10.072  1.00  0.00     0.031 C 
ATOM     67  C   UNL     1      -5.674  14.803  -8.751  1.00  0.00     0.037 A 
BRANCH  54  68
ATOM     68  C   UNL     1      -8.308  14.582  -3.162  1.00  0.00     0.058 A 
ATOM     69  C   UNL     1      -8.154  15.488  -2.100  1.00  0.00     0.135 A 
ATOM     70  C   UNL     1      -9.591  14.064  -3.400  1.00  0.00     0.135 A 
ATOM     71  F   UNL     1      -6.946  16.002  -1.819  1.00  0.00    -0.206 F 
ATOM     72  C   UNL     1      -9.223  15.841  -1.284  1.00  0.00     0.059 A 
ATOM     73  C   UNL     1     -10.681  14.424  -2.613  1.00  0.00     0.059 A 
ATOM     74  F   UNL     1      -9.794  13.195  -4.402  1.00  0.00    -0.206 F 
ATOM     75  C   UNL     1     -10.483  15.300  -1.546  1.00  0.00     0.060 A 
BRANCH  75  76
ATOM     76  S   UNL     1     -11.859  15.759  -0.472  1.00  0.00     0.124 S 
ATOM     77  O   UNL     1     -11.554  14.992   0.733  1.00  0.00    -0.237 OA
ATOM     78  O   UNL     1     -11.699  17.205  -0.358  1.00  0.00    -0.237 OA
ATOM     79  O   UNL     1     -13.034  15.317  -1.216  1.00  0.00    -0.744 OA
ENDBRANCH  75  76
ENDBRANCH  54  68
BRANCH  55  80
ATOM     80  C   UNL     1      -0.562  11.551  -8.707  1.00  0.00     0.058 A 
ATOM     81  C   UNL     1       0.432  12.438  -9.144  1.00  0.00     0.135 A 
ATOM     82  C   UNL     1      -0.435  10.199  -9.060  1.00  0.00     0.135 A 
ATOM     83  F   UNL     1       0.350  13.741  -8.838  1.00  0.00    -0.206 F 
ATOM     84  C   UNL     1       1.511  12.003  -9.907  1.00  0.00     0.059 A 
ATOM     85  C   UNL     1       0.646   9.736  -9.803  1.00  0.00     0.059 A 
ATOM     86  F   UNL     1      -1.353   9.308  -8.652  1.00  0.00    -0.206 F 
ATOM     87  C   UNL     1       1.612  10.648 -10.227  1.00  0.00     0.060 A 
BRANCH  87  88
ATOM     88  S   UNL     1       3.051  10.084 -11.162  1.00  0.00     0.124 S 
ATOM     89  O   UNL     1       2.743  10.576 -12.500  1.00  0.00    -0.237 OA
ATOM     90  O   UNL     1       4.147  10.755 -10.471  1.00  0.00    -0.237 OA
ATOM     91  O   UNL     1       3.010   8.634 -10.995  1.00  0.00    -0.744 OA
ENDBRANCH  87  88
ENDBRANCH  55  80
BRANCH  67  92
ATOM     92  C   UNL     1      -6.183  15.484  -9.991  1.00  0.00     0.058 A 
ATOM     93  C   UNL     1      -6.795  14.758 -11.023  1.00  0.00     0.135 A 
ATOM     94  C   UNL     1      -6.127  16.881 -10.112  1.00  0.00     0.135 A 
ATOM     95  F   UNL     1      -6.863  13.419 -10.960  1.00  0.00    -0.206 F 
ATOM     96  C   UNL     1      -7.331  15.394 -12.138  1.00  0.00     0.059 A 
ATOM     97  C   UNL     1      -6.677  17.541 -11.206  1.00  0.00     0.059 A 
ATOM     98  F   UNL     1      -5.556  17.621  -9.148  1.00  0.00    -0.206 F 
ATOM     99  C   UNL     1      -7.274  16.788 -12.216  1.00  0.00     0.060 A 
BRANCH  99 100
ATOM    100  S   UNL     1      -8.032  17.605 -13.637  1.00  0.00     0.124 S 
ATOM    101  O   UNL     1      -7.072  17.308 -14.694  1.00  0.00    -0.237 OA
ATOM    102  O   UNL     1      -9.319  16.924 -13.739  1.00  0.00    -0.237 OA
ATOM    103  O   UNL     1      -8.101  19.004 -13.226  1.00  0.00    -0.744 OA
ENDBRANCH  99 100
ENDBRANCH  67  92
ENDBRANCH  41  42
ENDBRANCH  33  36
ENDBRANCH  31  32
ENDBRANCH  30  31
ENDBRANCH   1  30
TORSDOF 18
