REMARK SMILES O=C(NCCCCNC(=O)c1csc(S(=O)(=O)Nc2ccc(F)cc2)c1)c1ccc(-c2c3nc(c(-c4c(F)cc(S(=O)(=O)[O-])cc4F)c4ccc([nH]4)c(-c4c(F)cc(S(=O)(=O)[O-])cc4F)c4nc(c(-c5c(F)cc(S(=O)(=O)[O-])cc5F)c5ccc2[nH]5)C=C4)C=C3)cc1
REMARK SMILES IDX 5 1 4 2 3 3 1 4 2 5 27 7 28 8 92 9 29 10 91 11 30 12 31 13
REMARK SMILES IDX 32 14 85 15 33 16 90 17 84 18 86 19 34 20 89 21 83 22 82 23
REMARK SMILES IDX 35 25 69 26 48 27 68 28 49 29 52 30 67 31 87 32 50 33 51 34
REMARK SMILES IDX 66 36 88 37 53 38 36 39 37 40 46 41 38 42 39 43 45 44 47 45
REMARK SMILES IDX 40 46 41 47 42 48 43 49 44 50 70 51 71 52 80 53 72 54 73 55
REMARK SMILES IDX 79 56 81 57 74 58 75 59 76 60 77 61 78 62 54 63 55 64 64 65
REMARK SMILES IDX 56 66 57 67 63 68 65 69 58 70 59 71 60 72 61 73 62 74 6 75
REMARK SMILES IDX 7 76 8 77 9 78 10 80 11 81 12 82 26 83 13 84 14 85 15 86
REMARK SMILES IDX 16 87 17 88 18 89 19 91 20 92 25 93 21 94 24 95 22 96 23 97
REMARK H PARENT 3 6 86 24 52 35 8 79 18 90
REMARK Flexibility Score: inf
ROOT
ATOM      1  C   UNL     1       5.105  -0.259   2.622  1.00  0.00     0.023 C 
ENDROOT
BRANCH   1   2
ATOM      2  C   UNL     1       4.691  -0.629   1.202  1.00  0.00     0.116 C 
BRANCH   2   3
ATOM      3  N   UNL     1       3.251  -0.709   1.027  1.00  0.00    -0.352 N 
ATOM      4  O   UNL     1       1.225  -0.235   0.181  1.00  0.00    -0.269 OA
ATOM      5  C   UNL     1       2.444  -0.118   0.086  1.00  0.00     0.251 C 
ATOM      6  H   UNL     1       2.782  -1.274   1.684  1.00  0.00     0.163 HD
BRANCH   5   7
ATOM      7  C   UNL     1       3.029   0.682  -1.012  1.00  0.00     0.039 A 
ATOM      8  C   UNL     1       4.129   0.225  -1.744  1.00  0.00     0.014 A 
ATOM      9  C   UNL     1       2.442   1.911  -1.326  1.00  0.00     0.014 A 
ATOM     10  C   UNL     1       4.713   1.047  -2.706  1.00  0.00     0.010 A 
ATOM     11  C   UNL     1       2.992   2.708  -2.332  1.00  0.00     0.010 A 
ATOM     12  C   UNL     1       4.148   2.295  -3.011  1.00  0.00    -0.014 A 
BRANCH  12  13
ATOM     13  C   UNL     1       4.739   3.148  -4.071  1.00  0.00     0.031 A 
ATOM     14  C   UNL     1       5.380   4.463  -3.729  1.00  0.00     0.074 A 
ATOM     15  C   UNL     1       4.673   2.741  -5.352  1.00  0.00     0.049 A 
ATOM     16  N   UNL     1       5.882   5.366  -4.532  1.00  0.00    -0.248 NA
ATOM     17  C   UNL     1       5.465   4.812  -2.303  1.00  0.00     0.031 C 
ATOM     18  C   UNL     1       4.076   1.484  -5.804  1.00  0.00     0.029 A 
ATOM     19  N   UNL     1       5.104   3.341  -6.508  1.00  0.00    -0.354 N 
ATOM     20  C   UNL     1       6.318   6.401  -3.714  1.00  0.00     0.074 A 
ATOM     21  C   UNL     1       6.011   6.020  -2.352  1.00  0.00     0.031 C 
ATOM     22  C   UNL     1       4.193   1.397  -7.137  1.00  0.00     0.029 A 
ATOM     23  C   UNL     1       4.822   2.616  -7.640  1.00  0.00     0.049 A 
ATOM     24  H   UNL     1       5.570   4.208  -6.525  1.00  0.00     0.167 HD
ATOM     25  C   UNL     1       6.921   7.560  -4.071  1.00  0.00     0.037 A 
ATOM     26  C   UNL     1       5.019   2.905  -8.941  1.00  0.00     0.037 A 
ATOM     27  C   UNL     1       7.242   7.921  -5.427  1.00  0.00     0.049 A 
ATOM     28  C   UNL     1       5.656   4.209  -9.317  1.00  0.00     0.074 A 
ATOM     29  C   UNL     1       7.907   9.047  -5.881  1.00  0.00     0.029 A 
ATOM     30  N   UNL     1       6.915   7.171  -6.547  1.00  0.00    -0.354 N 
ATOM     31  N   UNL     1       6.091   5.164  -8.530  1.00  0.00    -0.248 NA
ATOM     32  C   UNL     1       5.821   4.486 -10.750  1.00  0.00     0.031 C 
ATOM     33  C   UNL     1       7.946   8.997  -7.278  1.00  0.00     0.029 A 
ATOM     34  C   UNL     1       7.337   7.822  -7.693  1.00  0.00     0.049 A 
ATOM     35  H   UNL     1       6.450   6.303  -6.529  1.00  0.00     0.167 HD
ATOM     36  C   UNL     1       6.588   6.152  -9.370  1.00  0.00     0.074 A 
ATOM     37  C   UNL     1       6.405   5.678 -10.728  1.00  0.00     0.031 C 
ATOM     38  C   UNL     1       7.145   7.342  -9.040  1.00  0.00     0.037 A 
BRANCH  25  39
ATOM     39  C   UNL     1       7.254   8.537  -2.979  1.00  0.00     0.058 A 
ATOM     40  C   UNL     1       6.505   9.715  -2.829  1.00  0.00     0.135 A 
ATOM     41  C   UNL     1       8.328   8.325  -2.100  1.00  0.00     0.135 A 
ATOM     42  F   UNL     1       5.465   9.963  -3.640  1.00  0.00    -0.206 F 
ATOM     43  C   UNL     1       6.807  10.648  -1.842  1.00  0.00     0.059 A 
ATOM     44  C   UNL     1       8.636   9.236  -1.094  1.00  0.00     0.059 A 
ATOM     45  F   UNL     1       9.063   7.205  -2.190  1.00  0.00    -0.206 F 
ATOM     46  C   UNL     1       7.873  10.399  -0.977  1.00  0.00     0.060 A 
BRANCH  46  47
ATOM     47  S   UNL     1       8.206  11.576   0.351  1.00  0.00     0.124 S 
ATOM     48  O   UNL     1       8.874  12.656  -0.364  1.00  0.00    -0.237 OA
ATOM     49  O   UNL     1       6.865  11.873   0.847  1.00  0.00    -0.237 OA
ATOM     50  O   UNL     1       9.045  10.813   1.272  1.00  0.00    -0.744 OA
ENDBRANCH  46  47
ENDBRANCH  25  39
BRANCH  26  51
ATOM     51  C   UNL     1       4.595   1.913  -9.960  1.00  0.00     0.058 A 
ATOM     52  C   UNL     1       3.235   1.690 -10.226  1.00  0.00     0.135 A 
ATOM     53  C   UNL     1       5.534   1.082 -10.585  1.00  0.00     0.135 A 
ATOM     54  F   UNL     1       2.300   2.455  -9.642  1.00  0.00    -0.206 F 
ATOM     55  C   UNL     1       2.818   0.639 -11.035  1.00  0.00     0.059 A 
ATOM     56  C   UNL     1       5.142   0.036 -11.414  1.00  0.00     0.059 A 
ATOM     57  F   UNL     1       6.845   1.269 -10.365  1.00  0.00    -0.206 F 
ATOM     58  C   UNL     1       3.779  -0.195 -11.607  1.00  0.00     0.060 A 
BRANCH  58  59
ATOM     59  S   UNL     1       3.218  -1.611 -12.576  1.00  0.00     0.124 S 
ATOM     60  O   UNL     1       2.681  -2.481 -11.534  1.00  0.00    -0.237 OA
ATOM     61  O   UNL     1       2.235  -1.004 -13.467  1.00  0.00    -0.237 OA
ATOM     62  O   UNL     1       4.439  -2.084 -13.221  1.00  0.00    -0.744 OA
ENDBRANCH  58  59
ENDBRANCH  26  51
BRANCH  38  63
ATOM     63  C   UNL     1       7.611   8.233 -10.154  1.00  0.00     0.058 A 
ATOM     64  C   UNL     1       8.980   8.381 -10.422  1.00  0.00     0.135 A 
ATOM     65  C   UNL     1       6.708   9.036 -10.868  1.00  0.00     0.135 A 
ATOM     66  F   UNL     1       9.882   7.635  -9.764  1.00  0.00    -0.206 F 
ATOM     67  C   UNL     1       9.443   9.323 -11.334  1.00  0.00     0.059 A 
ATOM     68  C   UNL     1       7.148   9.973 -11.798  1.00  0.00     0.059 A 
ATOM     69  F   UNL     1       5.388   8.918 -10.656  1.00  0.00    -0.206 F 
ATOM     70  C   UNL     1       8.520  10.126 -12.005  1.00  0.00     0.060 A 
BRANCH  70  71
ATOM     71  S   UNL     1       9.139  11.377 -13.150  1.00  0.00     0.124 S 
ATOM     72  O   UNL     1       9.713  12.359 -12.236  1.00  0.00    -0.237 OA
ATOM     73  O   UNL     1      10.097  10.618 -13.949  1.00  0.00    -0.237 OA
ATOM     74  O   UNL     1       7.941  11.807 -13.864  1.00  0.00    -0.744 OA
ENDBRANCH  70  71
ENDBRANCH  38  63
ENDBRANCH  12  13
ENDBRANCH   5   7
ENDBRANCH   2   3
ENDBRANCH   1   2
BRANCH   1  75
ATOM     75  C   UNL     1       4.580  -1.170   3.732  1.00  0.00     0.023 C 
BRANCH  75  76
ATOM     76  C   UNL     1       4.740  -2.670   3.497  1.00  0.00     0.116 C 
BRANCH  76  77
ATOM     77  N   UNL     1       6.124  -3.088   3.349  1.00  0.00    -0.352 N 
ATOM     78  C   UNL     1       6.905  -3.883   4.150  1.00  0.00     0.252 C 
ATOM     79  H   UNL     1       6.574  -2.746   2.543  1.00  0.00     0.163 HD
ATOM     80  O   UNL     1       8.097  -4.012   3.885  1.00  0.00    -0.269 OA
BRANCH  78  81
ATOM     81  C   UNL     1       6.327  -4.473   5.350  1.00  0.00     0.051 A 
ATOM     82  C   UNL     1       5.148  -5.188   5.425  1.00  0.00     0.080 A 
ATOM     83  C   UNL     1       6.968  -4.456   6.629  1.00  0.00     0.048 A 
ATOM     84  S   UNL     1       4.707  -5.549   7.037  1.00  0.00    -0.130 S 
ATOM     85  C   UNL     1       6.125  -4.814   7.663  1.00  0.00     0.141 A 
BRANCH  85  86
ATOM     86  S   UNL     1       6.260  -4.755   9.438  1.00  0.00     0.271 S 
ATOM     87  O   UNL     1       4.915  -4.608   9.949  1.00  0.00    -0.200 OA
ATOM     88  O   UNL     1       7.067  -5.909   9.784  1.00  0.00    -0.200 OA
BRANCH  86  89
ATOM     89  N   UNL     1       7.117  -3.403  10.013  1.00  0.00    -0.279 N 
ATOM     90  H   UNL     1       7.010  -3.110  10.946  1.00  0.00     0.180 HD
BRANCH  89  91
ATOM     91  C   UNL     1       7.989  -2.700   9.137  1.00  0.00     0.049 A 
ATOM     92  C   UNL     1       7.450  -1.710   8.309  1.00  0.00     0.030 A 
ATOM     93  C   UNL     1       9.343  -3.035   9.053  1.00  0.00     0.030 A 
ATOM     94  C   UNL     1       8.266  -1.055   7.386  1.00  0.00     0.041 A 
ATOM     95  C   UNL     1      10.159  -2.369   8.135  1.00  0.00     0.041 A 
ATOM     96  C   UNL     1       9.614  -1.390   7.308  1.00  0.00     0.123 A 
ATOM     97  F   UNL     1      10.397  -0.768   6.418  1.00  0.00    -0.207 F 
ENDBRANCH  89  91
ENDBRANCH  86  89
ENDBRANCH  85  86
ENDBRANCH  78  81
ENDBRANCH  76  77
ENDBRANCH  75  76
ENDBRANCH   1  75
TORSDOF 17
