REMARK SMILES Cn1c(C[NH+](C)C)nnc1[C@@H]1CCC[N@@H+](Cc2ccccc2C(=O)NCCCCNC(=O)c2ccc(-c3c4nc(c(-c5c(F)cc(S(=O)(=O)[O-])cc5F)c5ccc([nH]5)c(-c5c(F)cc(S(=O)(=O)[O-])cc5F)c5nc(c(-c6c(F)cc(S(=O)(=O)[O-])cc6F)c6ccc3[nH]6)C=C5)C=C4)cc2)C1
REMARK SMILES IDX 26 1 25 2 23 3 24 4 22 6 17 7 18 8 19 9 21 10 20 11 16 12
REMARK SMILES IDX 15 13 11 14 12 15 99 16 13 17 14 18 10 20 3 21 8 22 2 23
REMARK SMILES IDX 9 24 1 25 4 26 5 27 6 28 7 29 27 31 28 32 29 33 30 34 31 35
REMARK SMILES IDX 32 37 33 38 34 39 98 40 35 41 97 42 36 43 37 44 38 45 91 46
REMARK SMILES IDX 39 47 96 48 90 49 92 50 40 51 95 52 89 53 88 54 41 56 75 57
REMARK SMILES IDX 54 58 74 59 55 60 58 61 73 62 93 63 56 64 57 65 72 67 94 68
REMARK SMILES IDX 59 69 42 70 43 71 52 72 44 73 45 74 51 75 53 76 46 77 47 78
REMARK SMILES IDX 48 79 49 80 50 81 76 82 77 83 86 84 78 85 79 86 85 87 87 88
REMARK SMILES IDX 80 89 81 90 82 91 83 92 84 93 60 94 61 95 70 96 62 97 63 98
REMARK SMILES IDX 69 99 71 100 64 101 65 102 66 103 67 104 68 105
REMARK H PARENT 25 5 15 19 5 30 30 36 92 55 58 66
REMARK Flexibility Score: inf
ROOT
ATOM      1  C   UNL     1       2.239  -1.691   4.833  1.00  0.00     0.116 C 
ENDROOT
BRANCH   1   2
ATOM      2  N   UNL     1       2.590  -1.823   3.421  1.00  0.00    -0.352 N 
ATOM      3  C   UNL     1       3.678  -2.359   2.757  1.00  0.00     0.251 C 
ATOM      4  O   UNL     1       3.647  -2.555   1.541  1.00  0.00    -0.269 OA
ATOM      5  H   UNL     1       1.909  -1.452   2.814  1.00  0.00     0.163 HD
BRANCH   3   6
ATOM      6  C   UNL     1       4.914  -2.816   3.368  1.00  0.00     0.048 A 
ATOM      7  C   UNL     1       5.036  -3.629   4.491  1.00  0.00     0.019 A 
ATOM      8  C   UNL     1       6.315  -3.547   5.100  1.00  0.00     0.010 A 
ATOM      9  C   UNL     1       7.426  -2.941   4.466  1.00  0.00     0.001 A 
ATOM     10  C   UNL     1       6.052  -2.403   2.628  1.00  0.00     0.014 A 
ATOM     11  C   UNL     1       7.316  -2.470   3.170  1.00  0.00     0.001 A 
BRANCH   7  12
ATOM     12  C   UNL     1       3.940  -4.522   5.125  1.00  0.00     0.299 C 
BRANCH  12  13
ATOM     13  N   UNL     1       2.809  -5.164   4.371  1.00  0.00    -0.331 N 
ATOM     14  C   UNL     1       1.230  -4.843   2.093  1.00  0.00     0.113 C 
ATOM     15  C   UNL     1       0.612  -6.185   2.502  1.00  0.00     0.023 C 
ATOM     16  C   UNL     1       2.174  -4.494   3.257  1.00  0.00     0.274 C 
ATOM     17  C   UNL     1       1.197  -6.891   3.785  1.00  0.00     0.062 C 
ATOM     18  C   UNL     1       2.641  -6.581   4.279  1.00  0.00     0.262 C 
ATOM     19  H   UNL     1       2.308  -4.905   5.221  1.00  0.00     0.348 HD
BRANCH  14  20
ATOM     20  C   UNL     1       0.228  -3.640   1.686  1.00  0.00     0.141 A 
ATOM     21  C   UNL     1      -0.621  -1.575   1.249  1.00  0.00     0.187 A 
ATOM     22  N   UNL     1      -1.589  -2.357   1.690  1.00  0.00    -0.129 NA
ATOM     23  N   UNL     1       0.469  -2.418   1.015  1.00  0.00    -0.313 N 
ATOM     24  N   UNL     1      -1.067  -3.617   1.963  1.00  0.00    -0.135 NA
ATOM     25  C   UNL     1       1.578  -1.961   0.223  1.00  0.00     0.153 C 
BRANCH  21  26
ATOM     26  C   UNL     1      -0.537  -0.049   1.455  1.00  0.00     0.340 C 
BRANCH  26  27
ATOM     27  N   UNL     1      -0.691   0.957   0.399  1.00  0.00    -0.333 N 
ATOM     28  C   UNL     1       0.156   0.879  -0.765  1.00  0.00     0.332 C 
ATOM     29  C   UNL     1      -2.064   1.324   0.093  1.00  0.00     0.332 C 
ATOM     30  H   UNL     1      -0.278   1.752   0.886  1.00  0.00     0.348 HD
ENDBRANCH  26  27
ENDBRANCH  21  26
ENDBRANCH  14  20
ENDBRANCH  12  13
ENDBRANCH   7  12
ENDBRANCH   3   6
ENDBRANCH   1   2
BRANCH   1  31
ATOM     31  C   UNL     1       0.966  -0.868   5.090  1.00  0.00     0.023 C 
BRANCH  31  32
ATOM     32  C   UNL     1      -0.477  -1.366   4.799  1.00  0.00     0.023 C 
BRANCH  32  33
ATOM     33  C   UNL     1      -1.011  -2.794   4.983  1.00  0.00     0.116 C 
BRANCH  33  34
ATOM     34  N   UNL     1      -1.399  -3.113   6.343  1.00  0.00    -0.352 N 
ATOM     35  C   UNL     1      -2.642  -3.350   6.891  1.00  0.00     0.251 C 
ATOM     36  H   UNL     1      -0.651  -3.170   6.981  1.00  0.00     0.163 HD
ATOM     37  O   UNL     1      -2.723  -3.435   8.117  1.00  0.00    -0.269 OA
BRANCH  35  38
ATOM     38  C   UNL     1      -3.890  -3.493   6.081  1.00  0.00     0.039 A 
ATOM     39  C   UNL     1      -5.059  -2.881   6.557  1.00  0.00     0.014 A 
ATOM     40  C   UNL     1      -3.978  -4.307   4.947  1.00  0.00     0.014 A 
ATOM     41  C   UNL     1      -6.283  -3.041   5.886  1.00  0.00     0.010 A 
ATOM     42  C   UNL     1      -5.198  -4.435   4.253  1.00  0.00     0.010 A 
ATOM     43  C   UNL     1      -6.368  -3.803   4.710  1.00  0.00    -0.014 A 
BRANCH  43  44
ATOM     44  C   UNL     1      -7.660  -3.920   3.959  1.00  0.00     0.031 A 
ATOM     45  C   UNL     1      -8.368  -5.247   3.820  1.00  0.00     0.074 A 
ATOM     46  C   UNL     1      -8.197  -2.831   3.368  1.00  0.00     0.049 A 
ATOM     47  N   UNL     1      -9.478  -5.535   3.183  1.00  0.00    -0.248 NA
ATOM     48  C   UNL     1      -7.740  -6.406   4.471  1.00  0.00     0.031 C 
ATOM     49  C   UNL     1      -7.611  -1.490   3.388  1.00  0.00     0.029 A 
ATOM     50  N   UNL     1      -9.347  -2.675   2.627  1.00  0.00    -0.354 N 
ATOM     51  C   UNL     1      -9.676  -6.903   3.348  1.00  0.00     0.074 A 
ATOM     52  C   UNL     1      -8.545  -7.395   4.107  1.00  0.00     0.031 C 
ATOM     53  C   UNL     1      -8.406  -0.649   2.707  1.00  0.00     0.029 A 
ATOM     54  C   UNL     1      -9.541  -1.392   2.165  1.00  0.00     0.049 A 
ATOM     55  H   UNL     1      -9.973  -3.413   2.445  1.00  0.00     0.167 HD
ATOM     56  C   UNL     1     -10.708  -7.677   2.924  1.00  0.00     0.037 A 
ATOM     57  C   UNL     1     -10.508  -0.869   1.383  1.00  0.00     0.037 A 
ATOM     58  C   UNL     1     -11.838  -7.188   2.170  1.00  0.00     0.049 A 
ATOM     59  C   UNL     1     -11.632  -1.751   0.902  1.00  0.00     0.074 A 
ATOM     60  C   UNL     1     -12.951  -7.888   1.736  1.00  0.00     0.029 A 
ATOM     61  N   UNL     1     -11.996  -5.882   1.729  1.00  0.00    -0.354 N 
ATOM     62  N   UNL     1     -11.831  -3.028   1.124  1.00  0.00    -0.248 NA
ATOM     63  C   UNL     1     -12.667  -1.119   0.071  1.00  0.00     0.031 C 
ATOM     64  C   UNL     1     -13.754  -7.020   0.988  1.00  0.00     0.029 A 
ATOM     65  C   UNL     1     -13.175  -5.762   1.008  1.00  0.00     0.049 A 
ATOM     66  H   UNL     1     -11.364  -5.147   1.902  1.00  0.00     0.167 HD
ATOM     67  C   UNL     1     -13.026  -3.345   0.485  1.00  0.00     0.074 A 
ATOM     68  C   UNL     1     -13.512  -2.123  -0.120  1.00  0.00     0.031 C 
ATOM     69  C   UNL     1     -13.661  -4.542   0.410  1.00  0.00     0.037 A 
BRANCH  56  70
ATOM     70  C   UNL     1     -10.669  -9.146   3.264  1.00  0.00     0.058 A 
ATOM     71  C   UNL     1     -10.823  -9.603   4.584  1.00  0.00     0.135 A 
ATOM     72  C   UNL     1     -10.521 -10.114   2.256  1.00  0.00     0.135 A 
ATOM     73  F   UNL     1     -10.964  -8.726   5.590  1.00  0.00    -0.206 F 
ATOM     74  C   UNL     1     -10.791 -10.959   4.895  1.00  0.00     0.059 A 
ATOM     75  C   UNL     1     -10.518 -11.478   2.541  1.00  0.00     0.059 A 
ATOM     76  F   UNL     1     -10.381  -9.740   0.974  1.00  0.00    -0.206 F 
ATOM     77  C   UNL     1     -10.636 -11.890   3.869  1.00  0.00     0.060 A 
BRANCH  77  78
ATOM     78  S   UNL     1     -10.593 -13.647   4.282  1.00  0.00     0.124 S 
ATOM     79  O   UNL     1      -9.291 -13.755   4.950  1.00  0.00    -0.237 OA
ATOM     80  O   UNL     1     -11.758 -13.784   5.167  1.00  0.00    -0.237 OA
ATOM     81  O   UNL     1     -10.700 -14.310   3.005  1.00  0.00    -0.744 OA
ENDBRANCH  77  78
ENDBRANCH  56  70
BRANCH  57  82
ATOM     82  C   UNL     1     -10.463   0.573   1.008  1.00  0.00     0.058 A 
ATOM     83  C   UNL     1     -11.404   1.485   1.509  1.00  0.00     0.135 A 
ATOM     84  C   UNL     1      -9.472   1.070   0.146  1.00  0.00     0.135 A 
ATOM     85  F   UNL     1     -12.381   1.061   2.325  1.00  0.00    -0.206 F 
ATOM     86  C   UNL     1     -11.374   2.833   1.160  1.00  0.00     0.059 A 
ATOM     87  C   UNL     1      -9.403   2.418  -0.194  1.00  0.00     0.059 A 
ATOM     88  F   UNL     1      -8.541   0.244  -0.355  1.00  0.00    -0.206 F 
ATOM     89  C   UNL     1     -10.365   3.291   0.312  1.00  0.00     0.060 A 
BRANCH  89  90
ATOM     90  S   UNL     1     -10.301   5.050  -0.092  1.00  0.00     0.124 S 
ATOM     91  O   UNL     1     -11.453   5.192  -0.978  1.00  0.00    -0.237 OA
ATOM     92  O   UNL     1     -10.431   5.671   1.225  1.00  0.00    -0.237 OA
ATOM     93  O   UNL     1      -8.997   5.205  -0.723  1.00  0.00    -0.744 OA
ENDBRANCH  89  90
ENDBRANCH  57  82
BRANCH  69  94
ATOM     94  C   UNL     1     -14.977  -4.591  -0.321  1.00  0.00     0.058 A 
ATOM     95  C   UNL     1     -15.058  -4.471  -1.717  1.00  0.00     0.135 A 
ATOM     96  C   UNL     1     -16.173  -4.814   0.384  1.00  0.00     0.135 A 
ATOM     97  F   UNL     1     -13.949  -4.250  -2.442  1.00  0.00    -0.206 F 
ATOM     98  C   UNL     1     -16.276  -4.548  -2.386  1.00  0.00     0.059 A 
ATOM     99  C   UNL     1     -17.398  -4.925  -0.268  1.00  0.00     0.059 A 
ATOM    100  F   UNL     1     -16.156  -4.945   1.720  1.00  0.00    -0.206 F 
ATOM    101  C   UNL     1     -17.442  -4.779  -1.653  1.00  0.00     0.060 A 
BRANCH 101 102
ATOM    102  S   UNL     1     -19.010  -4.911  -2.538  1.00  0.00     0.124 S 
ATOM    103  O   UNL     1     -19.245  -3.526  -2.932  1.00  0.00    -0.237 OA
ATOM    104  O   UNL     1     -18.680  -5.832  -3.621  1.00  0.00    -0.237 OA
ATOM    105  O   UNL     1     -19.926  -5.440  -1.531  1.00  0.00    -0.744 OA
ENDBRANCH 101 102
ENDBRANCH  69  94
ENDBRANCH  43  44
ENDBRANCH  35  38
ENDBRANCH  33  34
ENDBRANCH  32  33
ENDBRANCH  31  32
ENDBRANCH   1  31
TORSDOF 19
