REMARK SMILES O=C(NCCCCNC(=O)[C@H]1Sc2[nH]c(=O)sc2[C@H]2c3cc(Br)cc(Br)c3OC(=O)[C@H]21)c1ccc(-c2c3nc(c(-c4c(F)cc(S(=O)(=O)[O-])cc4F)c4ccc([nH]4)c(-c4c(F)cc(S(=O)(=O)[O-])cc4F)c4nc(c(-c5c(F)cc(S(=O)(=O)[O-])cc5F)c5ccc2[nH]5)C=C4)C=C3)cc1
REMARK SMILES IDX 4 1 3 2 1 3 2 4 32 6 33 7 97 8 34 9 96 10 35 11 36 12 37 13
REMARK SMILES IDX 90 14 38 15 95 16 89 17 91 18 39 19 94 20 88 21 87 22 40 24
REMARK SMILES IDX 74 25 53 26 73 27 54 28 57 29 72 30 92 31 55 32 56 33 71 35
REMARK SMILES IDX 93 36 58 37 41 38 42 39 51 40 43 41 44 42 50 43 52 44 45 45
REMARK SMILES IDX 46 46 47 47 48 48 49 49 75 50 76 51 85 52 77 53 78 54 84 55
REMARK SMILES IDX 86 56 79 57 80 58 81 59 82 60 83 61 59 62 60 63 69 64 61 65
REMARK SMILES IDX 62 66 68 67 70 68 63 69 64 70 65 71 66 72 67 73 5 74 6 75
REMARK SMILES IDX 7 76 8 77 9 78 10 80 11 81 12 82 31 83 13 84 19 85 29 86
REMARK SMILES IDX 14 87 18 88 20 89 28 90 30 91 15 92 17 94 21 95 27 96 16 97
REMARK SMILES IDX 22 98 25 99 23 100 24 101 26 102
REMARK H PARENT 3 5 91 23 57 34 8 79 14 93
REMARK Flexibility Score: inf
ROOT
ATOM      1  C   UNL     1       4.745  -0.240  -1.001  1.00  0.00     0.116 C 
ENDROOT
BRANCH   1   2
ATOM      2  N   UNL     1       3.369   0.206  -1.063  1.00  0.00    -0.352 N 
ATOM      3  O   UNL     1       1.277   0.726  -0.571  1.00  0.00    -0.269 OA
ATOM      4  C   UNL     1       2.333   0.229  -0.171  1.00  0.00     0.251 C 
ATOM      5  H   UNL     1       3.124   0.574  -1.943  1.00  0.00     0.163 HD
BRANCH   4   6
ATOM      6  C   UNL     1       2.386  -0.353   1.195  1.00  0.00     0.039 A 
ATOM      7  C   UNL     1       3.554  -0.601   1.917  1.00  0.00     0.014 A 
ATOM      8  C   UNL     1       1.147  -0.656   1.787  1.00  0.00     0.014 A 
ATOM      9  C   UNL     1       3.497  -1.236   3.152  1.00  0.00     0.010 A 
ATOM     10  C   UNL     1       1.083  -1.256   3.040  1.00  0.00     0.010 A 
ATOM     11  C   UNL     1       2.263  -1.583   3.703  1.00  0.00    -0.014 A 
BRANCH  11  12
ATOM     12  C   UNL     1       2.260  -2.172   5.039  1.00  0.00     0.031 A 
ATOM     13  C   UNL     1       2.791  -1.294   6.127  1.00  0.00     0.074 A 
ATOM     14  C   UNL     1       1.678  -3.356   5.314  1.00  0.00     0.049 A 
ATOM     15  N   UNL     1       3.767  -1.513   6.949  1.00  0.00    -0.248 NA
ATOM     16  C   UNL     1       2.203   0.052   6.250  1.00  0.00     0.031 C 
ATOM     17  C   UNL     1       0.852  -4.182   4.429  1.00  0.00     0.029 A 
ATOM     18  N   UNL     1       1.605  -4.013   6.503  1.00  0.00    -0.354 N 
ATOM     19  C   UNL     1       3.799  -0.417   7.813  1.00  0.00     0.074 A 
ATOM     20  C   UNL     1       2.907   0.567   7.257  1.00  0.00     0.031 C 
ATOM     21  C   UNL     1       0.174  -5.084   5.173  1.00  0.00     0.029 A 
ATOM     22  C   UNL     1       0.616  -4.986   6.553  1.00  0.00     0.049 A 
ATOM     23  H   UNL     1       2.201  -3.816   7.261  1.00  0.00     0.167 HD
ATOM     24  C   UNL     1       4.411  -0.453   9.030  1.00  0.00     0.037 A 
ATOM     25  C   UNL     1       0.136  -5.591   7.669  1.00  0.00     0.037 A 
ATOM     26  C   UNL     1       5.341  -1.541   9.137  1.00  0.00     0.049 A 
ATOM     27  C   UNL     1       1.150  -5.414   8.742  1.00  0.00     0.074 A 
ATOM     28  C   UNL     1       6.495  -1.903   8.469  1.00  0.00     0.029 A 
ATOM     29  N   UNL     1       4.960  -2.656   9.841  1.00  0.00    -0.354 N 
ATOM     30  N   UNL     1       2.336  -5.957   8.730  1.00  0.00    -0.248 NA
ATOM     31  C   UNL     1       0.995  -4.277   9.637  1.00  0.00     0.031 C 
ATOM     32  C   UNL     1       6.453  -3.326   8.404  1.00  0.00     0.029 A 
ATOM     33  C   UNL     1       5.301  -3.741   9.073  1.00  0.00     0.049 A 
ATOM     34  H   UNL     1       4.527  -2.674  10.725  1.00  0.00     0.167 HD
ATOM     35  C   UNL     1       3.173  -5.000   9.286  1.00  0.00     0.074 A 
ATOM     36  C   UNL     1       2.278  -4.026   9.905  1.00  0.00     0.031 C 
ATOM     37  C   UNL     1       4.500  -4.939   8.966  1.00  0.00     0.037 A 
BRANCH  24  38
ATOM     38  C   UNL     1       3.931   0.318  10.236  1.00  0.00     0.058 A 
ATOM     39  C   UNL     1       4.756   0.445  11.371  1.00  0.00     0.135 A 
ATOM     40  C   UNL     1       2.582   0.695  10.415  1.00  0.00     0.135 A 
ATOM     41  F   UNL     1       6.051   0.095  11.317  1.00  0.00    -0.206 F 
ATOM     42  C   UNL     1       4.263   0.864  12.609  1.00  0.00     0.059 A 
ATOM     43  C   UNL     1       2.081   1.166  11.623  1.00  0.00     0.059 A 
ATOM     44  F   UNL     1       1.667   0.529   9.450  1.00  0.00    -0.206 F 
ATOM     45  C   UNL     1       2.918   1.208  12.726  1.00  0.00     0.060 A 
BRANCH  45  46
ATOM     46  S   UNL     1       2.251   1.632  14.346  1.00  0.00     0.124 S 
ATOM     47  O   UNL     1       2.327   0.350  15.037  1.00  0.00    -0.237 OA
ATOM     48  O   UNL     1       3.183   2.659  14.798  1.00  0.00    -0.237 OA
ATOM     49  O   UNL     1       0.905   2.107  14.040  1.00  0.00    -0.744 OA
ENDBRANCH  45  46
ENDBRANCH  24  38
BRANCH  25  50
ATOM     50  C   UNL     1      -1.278  -5.950   7.962  1.00  0.00     0.058 A 
ATOM     51  C   UNL     1      -1.607  -6.778   9.050  1.00  0.00     0.135 A 
ATOM     52  C   UNL     1      -2.352  -5.262   7.359  1.00  0.00     0.135 A 
ATOM     53  F   UNL     1      -0.645  -7.451   9.699  1.00  0.00    -0.206 F 
ATOM     54  C   UNL     1      -2.913  -6.878   9.543  1.00  0.00     0.059 A 
ATOM     55  C   UNL     1      -3.663  -5.357   7.824  1.00  0.00     0.059 A 
ATOM     56  F   UNL     1      -2.147  -4.396   6.356  1.00  0.00    -0.206 F 
ATOM     57  C   UNL     1      -3.932  -6.145   8.934  1.00  0.00     0.060 A 
BRANCH  57  58
ATOM     58  S   UNL     1      -5.583  -6.133   9.672  1.00  0.00     0.124 S 
ATOM     59  O   UNL     1      -6.019  -7.509   9.460  1.00  0.00    -0.237 OA
ATOM     60  O   UNL     1      -5.298  -5.760  11.053  1.00  0.00    -0.237 OA
ATOM     61  O   UNL     1      -6.296  -5.125   8.892  1.00  0.00    -0.744 OA
ENDBRANCH  57  58
ENDBRANCH  25  50
BRANCH  37  62
ATOM     62  C   UNL     1       5.112  -6.095   8.219  1.00  0.00     0.058 A 
ATOM     63  C   UNL     1       4.754  -6.470   6.912  1.00  0.00     0.135 A 
ATOM     64  C   UNL     1       6.223  -6.738   8.788  1.00  0.00     0.135 A 
ATOM     65  F   UNL     1       3.774  -5.833   6.257  1.00  0.00    -0.206 F 
ATOM     66  C   UNL     1       5.446  -7.463   6.216  1.00  0.00     0.059 A 
ATOM     67  C   UNL     1       6.946  -7.709   8.101  1.00  0.00     0.059 A 
ATOM     68  F   UNL     1       6.654  -6.380  10.009  1.00  0.00    -0.206 F 
ATOM     69  C   UNL     1       6.546  -8.075   6.818  1.00  0.00     0.060 A 
BRANCH  69  70
ATOM     70  S   UNL     1       7.491  -9.295   5.881  1.00  0.00     0.124 S 
ATOM     71  O   UNL     1       6.559 -10.415   5.805  1.00  0.00    -0.237 OA
ATOM     72  O   UNL     1       7.750  -8.598   4.625  1.00  0.00    -0.237 OA
ATOM     73  O   UNL     1       8.672  -9.524   6.711  1.00  0.00    -0.744 OA
ENDBRANCH  69  70
ENDBRANCH  37  62
ENDBRANCH  11  12
ENDBRANCH   4   6
ENDBRANCH   1   2
BRANCH   1  74
ATOM     74  C   UNL     1       4.914  -1.751  -1.125  1.00  0.00     0.023 C 
BRANCH  74  75
ATOM     75  C   UNL     1       4.354  -2.335  -2.425  1.00  0.00     0.023 C 
BRANCH  75  76
ATOM     76  C   UNL     1       4.791  -1.627  -3.714  1.00  0.00     0.116 C 
BRANCH  76  77
ATOM     77  N   UNL     1       6.231  -1.441  -3.826  1.00  0.00    -0.355 N 
ATOM     78  C   UNL     1       7.123  -1.919  -4.743  1.00  0.00     0.234 C 
ATOM     79  H   UNL     1       6.628  -0.876  -3.124  1.00  0.00     0.163 HD
ATOM     80  O   UNL     1       8.326  -1.731  -4.542  1.00  0.00    -0.274 OA
BRANCH  78  81
ATOM     81  C   UNL     1       6.618  -2.644  -5.998  1.00  0.00     0.157 C 
ATOM     82  S   UNL     1       7.525  -1.891  -7.425  1.00  0.00    -0.093 SA
ATOM     83  C   UNL     1       6.479  -4.185  -5.881  1.00  0.00     0.135 C 
ATOM     84  C   UNL     1       7.689  -3.176  -8.505  1.00  0.00     0.091 A 
ATOM     85  C   UNL     1       7.250  -5.072  -6.895  1.00  0.00     0.082 C 
ATOM     86  C   UNL     1       6.675  -4.773  -4.471  1.00  0.00     0.317 C 
ATOM     87  N   UNL     1       8.094  -2.923  -9.782  1.00  0.00    -0.307 N 
ATOM     88  C   UNL     1       7.554  -4.469  -8.224  1.00  0.00     0.049 A 
ATOM     89  C   UNL     1       8.437  -5.705  -6.190  1.00  0.00     0.007 A 
ATOM     90  O   UNL     1       6.842  -6.139  -4.483  1.00  0.00    -0.425 OA
ATOM     91  O   UNL     1       6.572  -4.168  -3.418  1.00  0.00    -0.251 OA
ATOM     92  C   UNL     1       8.287  -4.012 -10.583  1.00  0.00     0.305 A 
ATOM     93  H   UNL     1       8.239  -2.006 -10.108  1.00  0.00     0.171 HD
ATOM     94  S   UNL     1       7.841  -5.446  -9.656  1.00  0.00    -0.078 S 
ATOM     95  C   UNL     1       9.760  -5.743  -6.631  1.00  0.00     0.024 A 
ATOM     96  C   UNL     1       8.133  -6.298  -4.957  1.00  0.00     0.148 A 
ATOM     97  O   UNL     1       8.705  -4.023 -11.735  1.00  0.00    -0.257 OA
ATOM     98  C   UNL     1      10.729  -6.398  -5.862  1.00  0.00     0.019 A 
ATOM     99  C   UNL     1       9.085  -6.985  -4.207  1.00  0.00     0.062 A 
ATOM    100  Br  UNL     1      12.523  -6.415  -6.458  1.00  0.00    -0.051 Br
ATOM    101  C   UNL     1      10.397  -7.033  -4.663  1.00  0.00     0.035 A 
ATOM    102  Br  UNL     1       8.638  -7.822  -2.572  1.00  0.00    -0.047 Br
ENDBRANCH  78  81
ENDBRANCH  76  77
ENDBRANCH  75  76
ENDBRANCH  74  75
ENDBRANCH   1  74
TORSDOF 14
