REMARK SMILES O=C1NC(=S)S/C1=C\c1ccc(OCc2cn(-c3ccc(C(=O)NCCCCNC(=O)c4ccc(-c5c6nc(c(-c7c(F)cc(S(=O)(=O)[O-])cc7F)c7ccc([nH]7)c(-c7c(F)cc(S(=O)(=O)[O-])cc7F)c7nc(c(-c8c(F)cc(S(=O)(=O)[O-])cc8F)c8ccc5[nH]8)C=C7)C=C6)cc4)cc3)nn2)cc1
REMARK SMILES IDX 25 1 24 2 22 3 23 4 21 6 18 7 19 8 99 9 20 10 98 11 17 12
REMARK SMILES IDX 15 13 16 14 101 15 100 16 14 17 13 18 12 19 9 20 10 21
REMARK SMILES IDX 103 22 11 23 102 24 8 25 1 26 2 27 3 28 7 29 4 30 6 32 5 33
REMARK SMILES IDX 26 34 27 35 28 36 29 37 30 38 31 40 32 41 33 42 97 43 34 44
REMARK SMILES IDX 96 45 35 46 36 47 37 48 90 49 38 50 95 51 89 52 91 53 39 54
REMARK SMILES IDX 94 55 88 56 87 57 40 59 74 60 53 61 73 62 54 63 57 64 72 65
REMARK SMILES IDX 92 66 55 67 56 68 71 70 93 71 58 72 41 73 42 74 51 75 43 76
REMARK SMILES IDX 44 77 50 78 52 79 45 80 46 81 47 82 48 83 49 84 75 85 76 86
REMARK SMILES IDX 85 87 77 88 78 89 84 90 86 91 79 92 80 93 81 94 82 95 83 96
REMARK SMILES IDX 59 97 60 98 69 99 61 100 62 101 68 102 70 103 63 104 64 105
REMARK SMILES IDX 65 106 66 107 67 108
REMARK H PARENT 24 5 3 31 29 39 91 58 57 69
REMARK Flexibility Score: inf
ROOT
ATOM      1  C   UNL     1       6.427  10.872   0.885  1.00  0.00     0.116 C 
ENDROOT
BRANCH   1   2
ATOM      2  N   UNL     1       7.040  10.052  -0.141  1.00  0.00    -0.352 N 
ATOM      3  C   UNL     1       6.569   9.050  -0.950  1.00  0.00     0.251 C 
ATOM      4  O   UNL     1       7.378   8.514  -1.707  1.00  0.00    -0.269 OA
ATOM      5  H   UNL     1       7.991  10.257  -0.287  1.00  0.00     0.163 HD
BRANCH   3   6
ATOM      6  C   UNL     1       5.143   8.610  -0.994  1.00  0.00     0.039 A 
ATOM      7  C   UNL     1       2.461   7.822  -1.315  1.00  0.00     0.066 A 
ATOM      8  C   UNL     1       3.401   7.503  -2.300  1.00  0.00     0.029 A 
ATOM      9  C   UNL     1       2.864   8.474  -0.149  1.00  0.00     0.029 A 
ATOM     10  C   UNL     1       4.725   7.926  -2.150  1.00  0.00     0.016 A 
ATOM     11  C   UNL     1       4.209   8.812   0.025  1.00  0.00     0.016 A 
BRANCH   7  12
ATOM     12  N   UNL     1       1.110   7.465  -1.489  1.00  0.00    -0.220 N 
ATOM     13  C   UNL     1      -1.063   7.291  -1.383  1.00  0.00     0.120 A 
ATOM     14  C   UNL     1      -0.008   8.067  -0.956  1.00  0.00     0.144 A 
ATOM     15  N   UNL     1      -0.568   6.288  -2.177  1.00  0.00    -0.131 NA
ATOM     16  N   UNL     1       0.744   6.422  -2.262  1.00  0.00    -0.062 NA
BRANCH  13  17
ATOM     17  C   UNL     1      -2.536   7.462  -1.202  1.00  0.00     0.289 C 
BRANCH  17  18
ATOM     18  O   UNL     1      -3.122   6.720  -0.117  1.00  0.00    -0.487 OA
BRANCH  18  19
ATOM     19  C   UNL     1      -3.147   5.354  -0.197  1.00  0.00     0.119 A 
ATOM     20  C   UNL     1      -2.932   2.559  -0.016  1.00  0.00    -0.024 A 
ATOM     21  C   UNL     1      -3.368   3.300   1.085  1.00  0.00     0.012 A 
ATOM     22  C   UNL     1      -2.705   3.212  -1.229  1.00  0.00     0.012 A 
ATOM     23  C   UNL     1      -3.469   4.693   0.992  1.00  0.00     0.047 A 
ATOM     24  C   UNL     1      -2.844   4.597  -1.325  1.00  0.00     0.047 A 
BRANCH  20  25
ATOM     25  C   UNL     1      -2.690   1.119   0.090  1.00  0.00     0.029 C 
ATOM     26  O   UNL     1      -2.197  -1.749   0.156  1.00  0.00    -0.268 OA
ATOM     27  C   UNL     1      -1.302  -0.929   0.112  1.00  0.00     0.263 C 
ATOM     28  N   UNL     1       0.033  -1.231   0.065  1.00  0.00    -0.307 N 
ATOM     29  C   UNL     1      -1.477   0.549   0.086  1.00  0.00     0.080 C 
ATOM     30  C   UNL     1       0.925  -0.204   0.024  1.00  0.00     0.145 C 
ATOM     31  H   UNL     1       0.339  -2.167   0.061  1.00  0.00     0.171 HD
ATOM     32  S   UNL     1       0.070   1.319   0.033  1.00  0.00    -0.055 SA
ATOM     33  S   UNL     1       2.565  -0.424  -0.020  1.00  0.00    -0.052 S 
ENDBRANCH  20  25
ENDBRANCH  18  19
ENDBRANCH  17  18
ENDBRANCH  13  17
ENDBRANCH   7  12
ENDBRANCH   3   6
ENDBRANCH   1   2
BRANCH   1  34
ATOM     34  C   UNL     1       6.622  10.254   2.275  1.00  0.00     0.023 C 
BRANCH  34  35
ATOM     35  C   UNL     1       8.036  10.411   2.855  1.00  0.00     0.023 C 
BRANCH  35  36
ATOM     36  C   UNL     1       8.424  11.843   3.209  1.00  0.00     0.116 C 
BRANCH  36  37
ATOM     37  N   UNL     1       7.560  12.427   4.236  1.00  0.00    -0.352 N 
ATOM     38  C   UNL     1       7.408  13.762   4.566  1.00  0.00     0.251 C 
ATOM     39  H   UNL     1       7.019  11.790   4.757  1.00  0.00     0.163 HD
ATOM     40  O   UNL     1       6.986  14.094   5.664  1.00  0.00    -0.269 OA
BRANCH  38  41
ATOM     41  C   UNL     1       7.750  14.774   3.552  1.00  0.00     0.039 A 
ATOM     42  C   UNL     1       8.494  15.912   3.867  1.00  0.00     0.014 A 
ATOM     43  C   UNL     1       7.349  14.521   2.244  1.00  0.00     0.014 A 
ATOM     44  C   UNL     1       8.914  16.745   2.830  1.00  0.00     0.010 A 
ATOM     45  C   UNL     1       7.891  15.250   1.216  1.00  0.00     0.010 A 
ATOM     46  C   UNL     1       8.632  16.392   1.500  1.00  0.00    -0.014 A 
BRANCH  46  47
ATOM     47  C   UNL     1       9.193  17.149   0.384  1.00  0.00     0.031 A 
ATOM     48  C   UNL     1      10.672  17.334   0.421  1.00  0.00     0.074 A 
ATOM     49  C   UNL     1       8.480  17.469  -0.718  1.00  0.00     0.049 A 
ATOM     50  N   UNL     1      11.323  18.436   0.599  1.00  0.00    -0.248 NA
ATOM     51  C   UNL     1      11.533  16.141   0.390  1.00  0.00     0.031 C 
ATOM     52  C   UNL     1       7.098  17.107  -1.057  1.00  0.00     0.029 A 
ATOM     53  N   UNL     1       8.895  18.114  -1.839  1.00  0.00    -0.354 N 
ATOM     54  C   UNL     1      12.674  18.117   0.477  1.00  0.00     0.074 A 
ATOM     55  C   UNL     1      12.746  16.680   0.536  1.00  0.00     0.031 C 
ATOM     56  C   UNL     1       6.883  17.321  -2.374  1.00  0.00     0.029 A 
ATOM     57  C   UNL     1       8.039  17.997  -2.929  1.00  0.00     0.049 A 
ATOM     58  H   UNL     1       9.736  18.624  -1.877  1.00  0.00     0.167 HD
ATOM     59  C   UNL     1      13.596  19.055   0.113  1.00  0.00     0.037 A 
ATOM     60  C   UNL     1       8.277  18.415  -4.198  1.00  0.00     0.037 A 
ATOM     61  C   UNL     1      13.050  20.386   0.226  1.00  0.00     0.049 A 
ATOM     62  C   UNL     1       9.337  19.454  -4.111  1.00  0.00     0.074 A 
ATOM     63  C   UNL     1      12.499  21.122   1.260  1.00  0.00     0.029 A 
ATOM     64  N   UNL     1      12.651  21.019  -0.928  1.00  0.00    -0.354 N 
ATOM     65  N   UNL     1       9.163  20.614  -3.536  1.00  0.00    -0.248 NA
ATOM     66  C   UNL     1      10.722  19.021  -4.228  1.00  0.00     0.031 C 
ATOM     67  C   UNL     1      11.399  21.811   0.670  1.00  0.00     0.029 A 
ATOM     68  C   UNL     1      11.395  21.522  -0.695  1.00  0.00     0.049 A 
ATOM     69  H   UNL     1      13.167  21.095  -1.763  1.00  0.00     0.167 HD
ATOM     70  C   UNL     1      10.341  20.847  -2.840  1.00  0.00     0.074 A 
ATOM     71  C   UNL     1      11.294  19.874  -3.374  1.00  0.00     0.031 C 
ATOM     72  C   UNL     1      10.360  21.604  -1.702  1.00  0.00     0.037 A 
BRANCH  59  73
ATOM     73  C   UNL     1      14.858  18.778  -0.675  1.00  0.00     0.058 A 
ATOM     74  C   UNL     1      15.795  19.818  -0.864  1.00  0.00     0.135 A 
ATOM     75  C   UNL     1      15.050  17.637  -1.485  1.00  0.00     0.135 A 
ATOM     76  F   UNL     1      15.716  20.949  -0.145  1.00  0.00    -0.206 F 
ATOM     77  C   UNL     1      16.785  19.766  -1.845  1.00  0.00     0.059 A 
ATOM     78  C   UNL     1      16.065  17.542  -2.431  1.00  0.00     0.059 A 
ATOM     79  F   UNL     1      14.206  16.600  -1.472  1.00  0.00    -0.206 F 
ATOM     80  C   UNL     1      16.898  18.629  -2.638  1.00  0.00     0.060 A 
BRANCH  80  81
ATOM     81  S   UNL     1      18.093  18.606  -3.986  1.00  0.00     0.124 S 
ATOM     82  O   UNL     1      17.511  19.578  -4.904  1.00  0.00    -0.237 OA
ATOM     83  O   UNL     1      19.319  19.017  -3.310  1.00  0.00    -0.237 OA
ATOM     84  O   UNL     1      18.066  17.217  -4.433  1.00  0.00    -0.744 OA
ENDBRANCH  80  81
ENDBRANCH  59  73
BRANCH  60  85
ATOM     85  C   UNL     1       7.880  17.763  -5.476  1.00  0.00     0.058 A 
ATOM     86  C   UNL     1       8.048  18.420  -6.708  1.00  0.00     0.135 A 
ATOM     87  C   UNL     1       7.601  16.382  -5.545  1.00  0.00     0.135 A 
ATOM     88  F   UNL     1       8.326  19.732  -6.740  1.00  0.00    -0.206 F 
ATOM     89  C   UNL     1       8.011  17.739  -7.931  1.00  0.00     0.059 A 
ATOM     90  C   UNL     1       7.548  15.684  -6.752  1.00  0.00     0.059 A 
ATOM     91  F   UNL     1       7.463  15.646  -4.433  1.00  0.00    -0.206 F 
ATOM     92  C   UNL     1       7.786  16.363  -7.940  1.00  0.00     0.060 A 
BRANCH  92  93
ATOM     93  S   UNL     1       7.941  15.446  -9.492  1.00  0.00     0.124 S 
ATOM     94  O   UNL     1       6.761  15.890 -10.225  1.00  0.00    -0.237 OA
ATOM     95  O   UNL     1       9.224  15.918 -10.002  1.00  0.00    -0.237 OA
ATOM     96  O   UNL     1       7.921  14.050  -9.063  1.00  0.00    -0.744 OA
ENDBRANCH  92  93
ENDBRANCH  60  85
BRANCH  72  97
ATOM     97  C   UNL     1       9.130  22.403  -1.345  1.00  0.00     0.058 A 
ATOM     98  C   UNL     1       7.871  21.845  -1.054  1.00  0.00     0.135 A 
ATOM     99  C   UNL     1       9.274  23.783  -1.134  1.00  0.00     0.135 A 
ATOM    100  F   UNL     1       7.670  20.523  -1.119  1.00  0.00    -0.206 F 
ATOM    101  C   UNL     1       6.798  22.626  -0.620  1.00  0.00     0.059 A 
ATOM    102  C   UNL     1       8.228  24.576  -0.670  1.00  0.00     0.059 A 
ATOM    103  F   UNL     1      10.467  24.371  -1.328  1.00  0.00    -0.206 F 
ATOM    104  C   UNL     1       6.986  23.994  -0.430  1.00  0.00     0.060 A 
BRANCH 104 105
ATOM    105  S   UNL     1       5.616  24.992   0.193  1.00  0.00     0.124 S 
ATOM    106  O   UNL     1       4.722  25.037  -0.959  1.00  0.00    -0.237 OA
ATOM    107  O   UNL     1       5.144  24.210   1.332  1.00  0.00    -0.237 OA
ATOM    108  O   UNL     1       6.250  26.261   0.541  1.00  0.00    -0.744 OA
ENDBRANCH 104 105
ENDBRANCH  72  97
ENDBRANCH  46  47
ENDBRANCH  38  41
ENDBRANCH  36  37
ENDBRANCH  35  36
ENDBRANCH  34  35
ENDBRANCH   1  34
TORSDOF 19
