REMARK SMILES C[C@H]1[C@H](C(=O)NCCCCNC(=O)c2ccc(-c3c4nc(c(-c5c(F)cc(S(=O)(=O)[O-])cc5F)c5ccc([nH]5)c(-c5c(F)cc(S(=O)(=O)[O-])cc5F)c5nc(c(-c6c(F)cc(S(=O)(=O)[O-])cc6F)c6ccc3[nH]6)C=C5)C=C4)cc2)CC[N@@H+]1[C@@H](c1ccccc1)c1ccco1
REMARK SMILES IDX 9 1 8 2 7 3 6 4 4 5 5 6 3 8 1 9 2 10 82 11 80 12 81 13 83 15
REMARK SMILES IDX 84 16 85 17 89 18 86 19 88 20 87 21 90 22 91 23 94 24 92 25
REMARK SMILES IDX 93 26 10 27 11 28 12 29 13 31 14 32 15 33 79 34 16 35 78 36
REMARK SMILES IDX 17 37 18 38 19 39 72 40 20 41 77 42 71 43 73 44 21 45 76 46
REMARK SMILES IDX 70 47 69 48 22 50 56 51 35 52 55 53 36 54 39 55 54 56 74 57
REMARK SMILES IDX 37 58 38 59 53 61 75 62 40 63 23 64 24 65 33 66 25 67 26 68
REMARK SMILES IDX 32 69 34 70 27 71 28 72 29 73 30 74 31 75 57 76 58 77 67 78
REMARK SMILES IDX 59 79 60 80 66 81 68 82 61 83 62 84 63 85 64 86 65 87 41 88
REMARK SMILES IDX 42 89 51 90 43 91 44 92 50 93 52 94 45 95 46 96 47 97 48 98
REMARK SMILES IDX 49 99
REMARK H PARENT 6 7 82 14 11 30 73 49 39 60
REMARK Flexibility Score: inf
ROOT
ATOM      1  C   UNL     1       0.493   1.479   5.604  1.00  0.00     0.023 C 
ENDROOT
BRANCH   1   2
ATOM      2  C   UNL     1       0.573   0.830   4.216  1.00  0.00     0.023 C 
BRANCH   2   3
ATOM      3  C   UNL     1      -0.397   1.395   3.172  1.00  0.00     0.116 C 
BRANCH   3   4
ATOM      4  N   UNL     1       0.219   2.400   2.329  1.00  0.00    -0.356 N 
ATOM      5  C   UNL     1       0.476   2.433   0.996  1.00  0.00     0.229 C 
ATOM      6  O   UNL     1       0.944   3.494   0.561  1.00  0.00    -0.275 OA
ATOM      7  H   UNL     1       0.504   3.208   2.812  1.00  0.00     0.163 HD
BRANCH   5   8
ATOM      8  C   UNL     1       0.191   1.300   0.007  1.00  0.00     0.142 C 
ATOM      9  C   UNL     1       2.012  -0.394  -0.343  1.00  0.00     0.076 C 
ATOM     10  C   UNL     1       0.673  -0.117   0.354  1.00  0.00     0.194 C 
ATOM     11  N   UNL     1      -0.342  -1.062  -0.180  1.00  0.00    -0.319 N 
ATOM     12  C   UNL     1      -1.265   1.126  -0.383  1.00  0.00     0.081 C 
ATOM     13  C   UNL     1      -1.287  -0.283  -0.972  1.00  0.00     0.264 C 
ATOM     14  H   UNL     1       0.084  -1.739  -0.813  1.00  0.00     0.349 HD
BRANCH  11  15
ATOM     15  C   UNL     1      -0.875  -2.035   0.805  1.00  0.00     0.283 C 
BRANCH  15  16
ATOM     16  C   UNL     1      -1.826  -1.575   1.917  1.00  0.00     0.017 A 
ATOM     17  C   UNL     1      -1.627  -2.099   3.207  1.00  0.00     0.010 A 
ATOM     18  C   UNL     1      -2.991  -0.819   1.706  1.00  0.00     0.010 A 
ATOM     19  C   UNL     1      -2.526  -1.831   4.237  1.00  0.00     0.001 A 
ATOM     20  C   UNL     1      -3.842  -0.475   2.759  1.00  0.00     0.001 A 
ATOM     21  C   UNL     1      -3.604  -0.978   4.030  1.00  0.00     0.000 A 
ENDBRANCH  15  16
BRANCH  15  22
ATOM     22  C   UNL     1      -1.359  -3.349   0.221  1.00  0.00     0.165 A 
ATOM     23  C   UNL     1      -0.690  -4.469  -0.239  1.00  0.00     0.052 A 
ATOM     24  O   UNL     1      -2.685  -3.655   0.385  1.00  0.00    -0.463 OA
ATOM     25  C   UNL     1      -1.633  -5.530  -0.240  1.00  0.00     0.042 A 
ATOM     26  C   UNL     1      -2.829  -4.982   0.156  1.00  0.00     0.195 A 
ENDBRANCH  15  22
ENDBRANCH  11  15
ENDBRANCH   5   8
ENDBRANCH   3   4
ENDBRANCH   2   3
ENDBRANCH   1   2
BRANCH   1  27
ATOM     27  C   UNL     1      -0.825   1.302   6.361  1.00  0.00     0.116 C 
BRANCH  27  28
ATOM     28  N   UNL     1      -1.187  -0.086   6.600  1.00  0.00    -0.352 N 
ATOM     29  C   UNL     1      -1.948  -0.650   7.606  1.00  0.00     0.251 C 
ATOM     30  H   UNL     1      -0.834  -0.725   5.939  1.00  0.00     0.163 HD
ATOM     31  O   UNL     1      -2.166  -1.847   7.621  1.00  0.00    -0.269 OA
BRANCH  29  32
ATOM     32  C   UNL     1      -2.417   0.199   8.720  1.00  0.00     0.039 A 
ATOM     33  C   UNL     1      -2.166  -0.247  10.021  1.00  0.00     0.014 A 
ATOM     34  C   UNL     1      -2.986   1.451   8.495  1.00  0.00     0.014 A 
ATOM     35  C   UNL     1      -2.344   0.626  11.090  1.00  0.00     0.010 A 
ATOM     36  C   UNL     1      -3.086   2.348   9.550  1.00  0.00     0.010 A 
ATOM     37  C   UNL     1      -2.725   1.954  10.847  1.00  0.00    -0.014 A 
BRANCH  37  38
ATOM     38  C   UNL     1      -2.665   2.970  11.923  1.00  0.00     0.031 A 
ATOM     39  C   UNL     1      -3.917   3.657  12.375  1.00  0.00     0.074 A 
ATOM     40  C   UNL     1      -1.456   3.328  12.403  1.00  0.00     0.049 A 
ATOM     41  N   UNL     1      -4.059   4.625  13.240  1.00  0.00    -0.248 NA
ATOM     42  C   UNL     1      -5.175   3.224  11.743  1.00  0.00     0.031 C 
ATOM     43  C   UNL     1      -0.172   2.773  11.961  1.00  0.00     0.029 A 
ATOM     44  N   UNL     1      -1.102   4.248  13.355  1.00  0.00    -0.354 N 
ATOM     45  C   UNL     1      -5.414   4.929  13.245  1.00  0.00     0.074 A 
ATOM     46  C   UNL     1      -6.043   4.083  12.256  1.00  0.00     0.031 C 
ATOM     47  C   UNL     1       0.823   3.341  12.661  1.00  0.00     0.029 A 
ATOM     48  C   UNL     1       0.254   4.322  13.576  1.00  0.00     0.049 A 
ATOM     49  H   UNL     1      -1.757   4.805  13.836  1.00  0.00     0.167 HD
ATOM     50  C   UNL     1      -6.072   5.819  14.025  1.00  0.00     0.037 A 
ATOM     51  C   UNL     1       0.956   5.095  14.427  1.00  0.00     0.037 A 
ATOM     52  C   UNL     1      -5.422   6.631  15.020  1.00  0.00     0.049 A 
ATOM     53  C   UNL     1       0.197   6.039  15.318  1.00  0.00     0.074 A 
ATOM     54  C   UNL     1      -5.987   7.527  15.909  1.00  0.00     0.029 A 
ATOM     55  N   UNL     1      -4.053   6.638  15.259  1.00  0.00    -0.354 N 
ATOM     56  N   UNL     1      -1.096   6.266  15.361  1.00  0.00    -0.248 NA
ATOM     57  C   UNL     1       0.980   6.822  16.280  1.00  0.00     0.031 C 
ATOM     58  C   UNL     1      -4.956   8.096  16.665  1.00  0.00     0.029 A 
ATOM     59  C   UNL     1      -3.753   7.527  16.275  1.00  0.00     0.049 A 
ATOM     60  H   UNL     1      -3.393   6.090  14.775  1.00  0.00     0.167 HD
ATOM     61  C   UNL     1      -1.284   7.202  16.369  1.00  0.00     0.074 A 
ATOM     62  C   UNL     1       0.027   7.487  16.919  1.00  0.00     0.031 C 
ATOM     63  C   UNL     1      -2.433   7.779  16.800  1.00  0.00     0.037 A 
BRANCH  50  64
ATOM     64  C   UNL     1      -7.559   5.942  13.834  1.00  0.00     0.058 A 
ATOM     65  C   UNL     1      -8.434   4.906  14.201  1.00  0.00     0.135 A 
ATOM     66  C   UNL     1      -8.119   7.102  13.276  1.00  0.00     0.135 A 
ATOM     67  F   UNL     1      -7.952   3.766  14.722  1.00  0.00    -0.206 F 
ATOM     68  C   UNL     1      -9.805   4.999  13.985  1.00  0.00     0.059 A 
ATOM     69  C   UNL     1      -9.492   7.228  13.077  1.00  0.00     0.059 A 
ATOM     70  F   UNL     1      -7.331   8.123  12.905  1.00  0.00    -0.206 F 
ATOM     71  C   UNL     1     -10.325   6.163  13.418  1.00  0.00     0.060 A 
BRANCH  71  72
ATOM     72  S   UNL     1     -12.105   6.262  13.132  1.00  0.00     0.124 S 
ATOM     73  O   UNL     1     -12.262   5.386  11.974  1.00  0.00    -0.237 OA
ATOM     74  O   UNL     1     -12.652   5.756  14.386  1.00  0.00    -0.237 OA
ATOM     75  O   UNL     1     -12.330   7.681  12.880  1.00  0.00    -0.744 OA
ENDBRANCH  71  72
ENDBRANCH  50  64
BRANCH  51  76
ATOM     76  C   UNL     1       2.437   4.969  14.507  1.00  0.00     0.058 A 
ATOM     77  C   UNL     1       3.050   4.374  15.619  1.00  0.00     0.135 A 
ATOM     78  C   UNL     1       3.268   5.408  13.464  1.00  0.00     0.135 A 
ATOM     79  F   UNL     1       2.300   3.938  16.643  1.00  0.00    -0.206 F 
ATOM     80  C   UNL     1       4.432   4.230  15.704  1.00  0.00     0.059 A 
ATOM     81  C   UNL     1       4.651   5.255  13.515  1.00  0.00     0.059 A 
ATOM     82  F   UNL     1       2.733   5.964  12.366  1.00  0.00    -0.206 F 
ATOM     83  C   UNL     1       5.225   4.673  14.645  1.00  0.00     0.060 A 
BRANCH  83  84
ATOM     84  S   UNL     1       7.013   4.432  14.741  1.00  0.00     0.124 S 
ATOM     85  O   UNL     1       7.395   5.453  15.709  1.00  0.00    -0.237 OA
ATOM     86  O   UNL     1       7.114   3.049  15.198  1.00  0.00    -0.237 OA
ATOM     87  O   UNL     1       7.457   4.664  13.370  1.00  0.00    -0.744 OA
ENDBRANCH  83  84
ENDBRANCH  51  76
BRANCH  63  88
ATOM     88  C   UNL     1      -2.320   8.755  17.935  1.00  0.00     0.058 A 
ATOM     89  C   UNL     1      -1.809  10.046  17.741  1.00  0.00     0.135 A 
ATOM     90  C   UNL     1      -2.781   8.410  19.215  1.00  0.00     0.135 A 
ATOM     91  F   UNL     1      -1.349  10.418  16.536  1.00  0.00    -0.206 F 
ATOM     92  C   UNL     1      -1.741  10.961  18.785  1.00  0.00     0.059 A 
ATOM     93  C   UNL     1      -2.746   9.317  20.268  1.00  0.00     0.059 A 
ATOM     94  F   UNL     1      -3.287   7.188  19.445  1.00  0.00    -0.206 F 
ATOM     95  C   UNL     1      -2.214  10.587  20.045  1.00  0.00     0.060 A 
BRANCH  95  96
ATOM     96  S   UNL     1      -2.160  11.796  21.383  1.00  0.00     0.124 S 
ATOM     97  O   UNL     1      -0.743  11.781  21.733  1.00  0.00    -0.237 OA
ATOM     98  O   UNL     1      -2.639  13.009  20.729  1.00  0.00    -0.237 OA
ATOM     99  O   UNL     1      -3.061  11.234  22.385  1.00  0.00    -0.744 OA
ENDBRANCH  95  96
ENDBRANCH  63  88
ENDBRANCH  37  38
ENDBRANCH  29  32
ENDBRANCH  27  28
ENDBRANCH   1  27
TORSDOF 17
