REMARK SMILES O=C(NCCCCNC(=O)[C@@H]1CCCC[C@H]1C(=O)Nc1cccc(-c2nnc(-c3ccccc3)o2)c1)c1ccc(-c2c3nc(c(-c4c(F)cc(S(=O)(=O)[O-])cc4F)c4ccc([nH]4)c(-c4c(F)cc(S(=O)(=O)[O-])cc4F)c4nc(c(-c5c(F)cc(S(=O)(=O)[O-])cc5F)c5ccc2[nH]5)C=C4)C=C3)cc1
REMARK SMILES IDX 6 1 5 2 4 3 3 4 1 5 2 6 37 8 38 9 102 10 39 11 101 12 40 13
REMARK SMILES IDX 41 14 42 15 95 16 43 17 100 18 94 19 96 20 44 21 99 22 93 23
REMARK SMILES IDX 92 24 45 26 79 27 58 28 78 29 59 30 62 31 77 32 97 33 60 34
REMARK SMILES IDX 61 35 76 37 98 38 63 39 46 40 47 41 56 42 48 43 49 44 55 45
REMARK SMILES IDX 57 46 50 47 51 48 52 49 53 50 54 51 80 52 81 53 90 54 82 55
REMARK SMILES IDX 83 56 89 57 91 58 84 59 85 60 86 61 87 62 88 63 64 64 65 65
REMARK SMILES IDX 74 66 66 67 67 68 73 69 75 70 68 71 69 72 70 73 71 74 72 75
REMARK SMILES IDX 7 76 8 77 9 78 10 80 11 81 12 82 16 83 13 84 15 85 14 86
REMARK SMILES IDX 17 87 18 88 19 89 20 91 21 92 36 93 22 94 24 95 23 96 25 97
REMARK SMILES IDX 26 98 35 99 27 100 28 101 29 102 30 103 34 104 31 105 33 106
REMARK SMILES IDX 32 107
REMARK H PARENT 3 7 96 25 62 36 8 79 19 90
REMARK Flexibility Score: inf
ROOT
ATOM      1  C   UNL     1       4.481  -3.646   0.214  1.00  0.00     0.023 C 
ENDROOT
BRANCH   1   2
ATOM      2  C   UNL     1       4.899  -2.446   1.061  1.00  0.00     0.023 C 
BRANCH   2   3
ATOM      3  C   UNL     1       4.437  -1.101   0.523  1.00  0.00     0.116 C 
BRANCH   3   4
ATOM      4  N   UNL     1       2.989  -0.984   0.433  1.00  0.00    -0.352 N 
ATOM      5  O   UNL     1       0.991   0.061   0.484  1.00  0.00    -0.269 OA
ATOM      6  C   UNL     1       2.215   0.148   0.522  1.00  0.00     0.251 C 
ATOM      7  H   UNL     1       2.500  -1.827   0.288  1.00  0.00     0.163 HD
BRANCH   6   8
ATOM      8  C   UNL     1       2.867   1.459   0.718  1.00  0.00     0.039 A 
ATOM      9  C   UNL     1       3.985   1.827  -0.033  1.00  0.00     0.014 A 
ATOM     10  C   UNL     1       2.383   2.300   1.723  1.00  0.00     0.014 A 
ATOM     11  C   UNL     1       4.727   2.941   0.342  1.00  0.00     0.010 A 
ATOM     12  C   UNL     1       3.083   3.463   2.043  1.00  0.00     0.010 A 
ATOM     13  C   UNL     1       4.292   3.760   1.394  1.00  0.00    -0.014 A 
BRANCH  13  14
ATOM     14  C   UNL     1       5.122   4.910   1.828  1.00  0.00     0.031 A 
ATOM     15  C   UNL     1       5.744   4.923   3.199  1.00  0.00     0.074 A 
ATOM     16  C   UNL     1       5.331   5.930   0.976  1.00  0.00     0.049 A 
ATOM     17  N   UNL     1       6.458   5.857   3.773  1.00  0.00    -0.248 NA
ATOM     18  C   UNL     1       5.528   3.734   4.039  1.00  0.00     0.031 C 
ATOM     19  C   UNL     1       4.791   6.017  -0.382  1.00  0.00     0.029 A 
ATOM     20  N   UNL     1       6.060   7.081   1.120  1.00  0.00    -0.354 N 
ATOM     21  C   UNL     1       6.741   5.389   5.052  1.00  0.00     0.074 A 
ATOM     22  C   UNL     1       6.112   4.091   5.174  1.00  0.00     0.031 C 
ATOM     23  C   UNL     1       5.237   7.142  -0.960  1.00  0.00     0.029 A 
ATOM     24  C   UNL     1       6.043   7.883   0.004  1.00  0.00     0.049 A 
ATOM     25  H   UNL     1       6.548   7.312   1.943  1.00  0.00     0.167 HD
ATOM     26  C   UNL     1       7.462   5.987   6.032  1.00  0.00     0.037 A 
ATOM     27  C   UNL     1       6.601   9.088  -0.212  1.00  0.00     0.037 A 
ATOM     28  C   UNL     1       8.111   7.265   5.886  1.00  0.00     0.049 A 
ATOM     29  C   UNL     1       7.393   9.732   0.887  1.00  0.00     0.074 A 
ATOM     30  C   UNL     1       8.891   7.946   6.804  1.00  0.00     0.029 A 
ATOM     31  N   UNL     1       8.059   8.052   4.745  1.00  0.00    -0.354 N 
ATOM     32  N   UNL     1       7.648   9.278   2.091  1.00  0.00    -0.248 NA
ATOM     33  C   UNL     1       7.969  11.052   0.602  1.00  0.00     0.031 C 
ATOM     34  C   UNL     1       9.284   9.161   6.228  1.00  0.00     0.029 A 
ATOM     35  C   UNL     1       8.781   9.218   4.938  1.00  0.00     0.049 A 
ATOM     36  H   UNL     1       7.579   7.816   3.918  1.00  0.00     0.167 HD
ATOM     37  C   UNL     1       8.430  10.249   2.704  1.00  0.00     0.074 A 
ATOM     38  C   UNL     1       8.612  11.310   1.733  1.00  0.00     0.031 C 
ATOM     39  C   UNL     1       8.950  10.261   3.956  1.00  0.00     0.037 A 
BRANCH  26  40
ATOM     40  C   UNL     1       7.554   5.278   7.355  1.00  0.00     0.058 A 
ATOM     41  C   UNL     1       8.332   4.122   7.527  1.00  0.00     0.135 A 
ATOM     42  C   UNL     1       6.851   5.764   8.470  1.00  0.00     0.135 A 
ATOM     43  F   UNL     1       9.011   3.604   6.492  1.00  0.00    -0.206 F 
ATOM     44  C   UNL     1       8.377   3.450   8.746  1.00  0.00     0.059 A 
ATOM     45  C   UNL     1       6.901   5.123   9.704  1.00  0.00     0.059 A 
ATOM     46  F   UNL     1       6.094   6.867   8.362  1.00  0.00    -0.206 F 
ATOM     47  C   UNL     1       7.650   3.954   9.826  1.00  0.00     0.060 A 
BRANCH  47  48
ATOM     48  S   UNL     1       7.689   3.058  11.394  1.00  0.00     0.124 S 
ATOM     49  O   UNL     1       6.781   1.949  11.115  1.00  0.00    -0.237 OA
ATOM     50  O   UNL     1       9.099   2.704  11.521  1.00  0.00    -0.237 OA
ATOM     51  O   UNL     1       7.204   4.040  12.358  1.00  0.00    -0.744 OA
ENDBRANCH  47  48
ENDBRANCH  26  40
BRANCH  27  52
ATOM     52  C   UNL     1       6.431   9.741  -1.534  1.00  0.00     0.058 A 
ATOM     53  C   UNL     1       7.494   9.804  -2.445  1.00  0.00     0.135 A 
ATOM     54  C   UNL     1       5.187  10.250  -1.940  1.00  0.00     0.135 A 
ATOM     55  F   UNL     1       8.702   9.334  -2.099  1.00  0.00    -0.206 F 
ATOM     56  C   UNL     1       7.331  10.343  -3.717  1.00  0.00     0.059 A 
ATOM     57  C   UNL     1       4.993  10.773  -3.214  1.00  0.00     0.059 A 
ATOM     58  F   UNL     1       4.135  10.194  -1.109  1.00  0.00    -0.206 F 
ATOM     59  C   UNL     1       6.073  10.816  -4.095  1.00  0.00     0.060 A 
BRANCH  59  60
ATOM     60  S   UNL     1       5.846  11.423  -5.781  1.00  0.00     0.124 S 
ATOM     61  O   UNL     1       6.481  12.734  -5.709  1.00  0.00    -0.237 OA
ATOM     62  O   UNL     1       6.548  10.415  -6.569  1.00  0.00    -0.237 OA
ATOM     63  O   UNL     1       4.395  11.430  -5.940  1.00  0.00    -0.744 OA
ENDBRANCH  59  60
ENDBRANCH  27  52
BRANCH  39  64
ATOM     64  C   UNL     1       9.792  11.445   4.332  1.00  0.00     0.058 A 
ATOM     65  C   UNL     1       9.217  12.688   4.636  1.00  0.00     0.135 A 
ATOM     66  C   UNL     1      11.188  11.325   4.417  1.00  0.00     0.135 A 
ATOM     67  F   UNL     1       7.887  12.855   4.561  1.00  0.00    -0.206 F 
ATOM     68  C   UNL     1      10.002  13.781   4.989  1.00  0.00     0.059 A 
ATOM     69  C   UNL     1      11.989  12.399   4.788  1.00  0.00     0.059 A 
ATOM     70  F   UNL     1      11.783  10.153   4.143  1.00  0.00    -0.206 F 
ATOM     71  C   UNL     1      11.388  13.627   5.060  1.00  0.00     0.060 A 
BRANCH  71  72
ATOM     72  S   UNL     1      12.397  15.045   5.538  1.00  0.00     0.124 S 
ATOM     73  O   UNL     1      12.428  15.814   4.299  1.00  0.00    -0.237 OA
ATOM     74  O   UNL     1      11.623  15.630   6.629  1.00  0.00    -0.237 OA
ATOM     75  O   UNL     1      13.665  14.438   5.934  1.00  0.00    -0.744 OA
ENDBRANCH  71  72
ENDBRANCH  39  64
ENDBRANCH  13  14
ENDBRANCH   6   8
ENDBRANCH   3   4
ENDBRANCH   2   3
ENDBRANCH   1   2
BRANCH   1  76
ATOM     76  C   UNL     1       5.165  -3.745  -1.152  1.00  0.00     0.116 C 
BRANCH  76  77
ATOM     77  N   UNL     1       6.545  -4.161  -1.012  1.00  0.00    -0.356 N 
ATOM     78  C   UNL     1       7.093  -5.408  -1.015  1.00  0.00     0.223 C 
ATOM     79  H   UNL     1       7.190  -3.426  -0.895  1.00  0.00     0.163 HD
ATOM     80  O   UNL     1       8.283  -5.495  -0.714  1.00  0.00    -0.275 OA
BRANCH  78  81
ATOM     81  C   UNL     1       6.263  -6.630  -1.427  1.00  0.00     0.091 C 
ATOM     82  C   UNL     1       5.173  -6.978  -0.400  1.00  0.00     0.014 C 
ATOM     83  C   UNL     1       7.182  -7.846  -1.692  1.00  0.00     0.091 C 
ATOM     84  C   UNL     1       4.405  -8.239  -0.771  1.00  0.00     0.001 C 
ATOM     85  C   UNL     1       6.409  -9.152  -1.950  1.00  0.00     0.014 C 
ATOM     86  C   UNL     1       5.344  -9.423  -0.894  1.00  0.00     0.001 C 
BRANCH  83  87
ATOM     87  C   UNL     1       8.317  -7.690  -2.729  1.00  0.00     0.228 C 
ATOM     88  O   UNL     1       9.492  -7.842  -2.368  1.00  0.00    -0.274 OA
ATOM     89  N   UNL     1       8.128  -7.592  -4.082  1.00  0.00    -0.326 N 
ATOM     90  H   UNL     1       8.956  -7.557  -4.613  1.00  0.00     0.169 HD
BRANCH  89  91
ATOM     91  C   UNL     1       6.952  -7.533  -4.830  1.00  0.00     0.041 A 
ATOM     92  C   UNL     1       6.693  -8.552  -5.747  1.00  0.00     0.026 A 
ATOM     93  C   UNL     1       6.039  -6.496  -4.673  1.00  0.00     0.040 A 
ATOM     94  C   UNL     1       5.450  -8.619  -6.375  1.00  0.00     0.003 A 
ATOM     95  C   UNL     1       4.761  -6.591  -5.235  1.00  0.00     0.041 A 
ATOM     96  C   UNL     1       4.471  -7.666  -6.085  1.00  0.00     0.014 A 
BRANCH  95  97
ATOM     97  C   UNL     1       3.707  -5.696  -4.798  1.00  0.00     0.248 A 
ATOM     98  N   UNL     1       2.550  -6.001  -4.249  1.00  0.00    -0.107 NA
ATOM     99  O   UNL     1       3.942  -4.347  -4.844  1.00  0.00    -0.416 OA
ATOM    100  N   UNL     1       1.973  -4.809  -3.876  1.00  0.00    -0.107 NA
ATOM    101  C   UNL     1       2.794  -3.855  -4.268  1.00  0.00     0.248 A 
BRANCH 101 102
ATOM    102  C   UNL     1       2.663  -2.413  -4.134  1.00  0.00     0.039 A 
ATOM    103  C   UNL     1       1.879  -1.883  -3.098  1.00  0.00     0.014 A 
ATOM    104  C   UNL     1       3.260  -1.532  -5.046  1.00  0.00     0.014 A 
ATOM    105  C   UNL     1       1.691  -0.505  -2.980  1.00  0.00     0.001 A 
ATOM    106  C   UNL     1       3.065  -0.152  -4.929  1.00  0.00     0.001 A 
ATOM    107  C   UNL     1       2.283   0.360  -3.895  1.00  0.00     0.000 A 
ENDBRANCH 101 102
ENDBRANCH  95  97
ENDBRANCH  89  91
ENDBRANCH  83  87
ENDBRANCH  78  81
ENDBRANCH  76  77
ENDBRANCH   1  76
TORSDOF 18
