REMARK SMILES O=C(NCCCCNC(=O)[C@@H]1CC[C@@H](CN2C(=O)CC3(CCCC3)CC2=O)O1)c1ccc(-c2c3nc(c(-c4c(F)cc(S(=O)(=O)[O-])cc4F)c4ccc([nH]4)c(-c4c(F)cc(S(=O)(=O)[O-])cc4F)c4nc(c(-c5c(F)cc(S(=O)(=O)[O-])cc5F)c5ccc2[nH]5)C=C4)C=C3)cc1
REMARK SMILES IDX 5 1 4 2 3 3 1 4 2 5 29 7 30 8 94 9 31 10 93 11 32 12 33 13
REMARK SMILES IDX 34 14 87 15 35 16 92 17 86 18 88 19 36 20 91 21 85 22 84 23
REMARK SMILES IDX 37 25 71 26 50 27 70 28 51 29 54 30 69 31 89 32 52 33 53 34
REMARK SMILES IDX 68 36 90 37 55 38 38 39 39 40 48 41 40 42 41 43 47 44 49 45
REMARK SMILES IDX 42 46 43 47 44 48 45 49 46 50 72 51 73 52 82 53 74 54 75 55
REMARK SMILES IDX 81 56 83 57 76 58 77 59 78 60 79 61 80 62 56 63 57 64 66 65
REMARK SMILES IDX 58 66 59 67 65 68 67 69 60 70 61 71 62 72 63 73 64 74 6 75
REMARK SMILES IDX 7 76 8 77 9 78 10 80 11 81 12 82 28 83 13 84 14 85 15 86
REMARK SMILES IDX 16 87 17 88 26 89 18 90 19 91 25 92 27 93 20 94 21 95 24 96
REMARK SMILES IDX 22 97 23 98
REMARK H PARENT 3 6 88 24 54 35 8 79
REMARK Flexibility Score: inf
ROOT
ATOM      1  C   UNL     1       4.982  -1.121  -2.531  1.00  0.00     0.023 C 
ENDROOT
BRANCH   1   2
ATOM      2  C   UNL     1       4.654  -0.296  -1.290  1.00  0.00     0.116 C 
BRANCH   2   3
ATOM      3  N   UNL     1       3.229  -0.061  -1.119  1.00  0.00    -0.352 N 
ATOM      4  O   UNL     1       1.266   0.012  -0.009  1.00  0.00    -0.269 OA
ATOM      5  C   UNL     1       2.489  -0.086   0.043  1.00  0.00     0.251 C 
ATOM      6  H   UNL     1       2.727   0.144  -1.941  1.00  0.00     0.163 HD
BRANCH   5   7
ATOM      7  C   UNL     1       3.170  -0.266   1.346  1.00  0.00     0.039 A 
ATOM      8  C   UNL     1       4.323   0.458   1.656  1.00  0.00     0.014 A 
ATOM      9  C   UNL     1       2.648  -1.178   2.270  1.00  0.00     0.014 A 
ATOM     10  C   UNL     1       5.027   0.173   2.823  1.00  0.00     0.010 A 
ATOM     11  C   UNL     1       3.318  -1.411   3.476  1.00  0.00     0.010 A 
ATOM     12  C   UNL     1       4.531  -0.760   3.748  1.00  0.00    -0.014 A 
BRANCH  12  13
ATOM     13  C   UNL     1       5.277  -0.998   5.012  1.00  0.00     0.031 A 
ATOM     14  C   UNL     1       5.926  -2.326   5.296  1.00  0.00     0.074 A 
ATOM     15  C   UNL     1       5.403   0.017   5.889  1.00  0.00     0.049 A 
ATOM     16  N   UNL     1       6.637  -2.689   6.334  1.00  0.00    -0.248 NA
ATOM     17  C   UNL     1       5.753  -3.385   4.290  1.00  0.00     0.031 C 
ATOM     18  C   UNL     1       4.808   1.347   5.728  1.00  0.00     0.029 A 
ATOM     19  N   UNL     1       6.083   0.101   7.077  1.00  0.00    -0.354 N 
ATOM     20  C   UNL     1       6.989  -4.015   6.114  1.00  0.00     0.074 A 
ATOM     21  C   UNL     1       6.388  -4.404   4.855  1.00  0.00     0.031 C 
ATOM     22  C   UNL     1       5.182   2.124   6.754  1.00  0.00     0.029 A 
ATOM     23  C   UNL     1       6.000   1.338   7.671  1.00  0.00     0.049 A 
ATOM     24  H   UNL     1       6.584  -0.652   7.466  1.00  0.00     0.167 HD
ATOM     25  C   UNL     1       7.752  -4.829   6.885  1.00  0.00     0.037 A 
ATOM     26  C   UNL     1       6.512   1.788   8.832  1.00  0.00     0.037 A 
ATOM     27  C   UNL     1       8.354  -4.433   8.133  1.00  0.00     0.049 A 
ATOM     28  C   UNL     1       7.340   0.861   9.674  1.00  0.00     0.074 A 
ATOM     29  C   UNL     1       9.150  -5.183   8.983  1.00  0.00     0.029 A 
ATOM     30  N   UNL     1       8.230  -3.178   8.711  1.00  0.00    -0.354 N 
ATOM     31  N   UNL     1       7.672  -0.386   9.441  1.00  0.00    -0.248 NA
ATOM     32  C   UNL     1       7.862   1.400  10.936  1.00  0.00     0.031 C 
ATOM     33  C   UNL     1       9.481  -4.391  10.089  1.00  0.00     0.029 A 
ATOM     34  C   UNL     1       8.925  -3.136   9.910  1.00  0.00     0.049 A 
ATOM     35  H   UNL     1       7.723  -2.427   8.326  1.00  0.00     0.167 HD
ATOM     36  C   UNL     1       8.450  -0.779  10.522  1.00  0.00     0.074 A 
ATOM     37  C   UNL     1       8.558   0.370  11.399  1.00  0.00     0.031 C 
ATOM     38  C   UNL     1       9.020  -1.984  10.770  1.00  0.00     0.037 A 
BRANCH  25  39
ATOM     39  C   UNL     1       7.978  -6.237   6.405  1.00  0.00     0.058 A 
ATOM     40  C   UNL     1       8.840  -6.518   5.333  1.00  0.00     0.135 A 
ATOM     41  C   UNL     1       7.364  -7.322   7.052  1.00  0.00     0.135 A 
ATOM     42  F   UNL     1       9.441  -5.518   4.670  1.00  0.00    -0.206 F 
ATOM     43  C   UNL     1       9.068  -7.823   4.905  1.00  0.00     0.059 A 
ATOM     44  C   UNL     1       7.595  -8.636   6.655  1.00  0.00     0.059 A 
ATOM     45  F   UNL     1       6.532  -7.110   8.084  1.00  0.00    -0.206 F 
ATOM     46  C   UNL     1       8.439  -8.876   5.572  1.00  0.00     0.060 A 
BRANCH  46  47
ATOM     47  S   UNL     1       8.746 -10.563   5.006  1.00  0.00     0.124 S 
ATOM     48  O   UNL     1       7.952 -10.607   3.782  1.00  0.00    -0.237 OA
ATOM     49  O   UNL     1      10.194 -10.575   4.822  1.00  0.00    -0.237 OA
ATOM     50  O   UNL     1       8.250 -11.386   6.105  1.00  0.00    -0.744 OA
ENDBRANCH  46  47
ENDBRANCH  25  39
BRANCH  26  51
ATOM     51  C   UNL     1       6.244   3.184   9.264  1.00  0.00     0.058 A 
ATOM     52  C   UNL     1       7.259   4.150   9.263  1.00  0.00     0.135 A 
ATOM     53  C   UNL     1       4.959   3.582   9.665  1.00  0.00     0.135 A 
ATOM     54  F   UNL     1       8.504   3.816   8.891  1.00  0.00    -0.206 F 
ATOM     55  C   UNL     1       7.015   5.461   9.661  1.00  0.00     0.059 A 
ATOM     56  C   UNL     1       4.684   4.891  10.042  1.00  0.00     0.059 A 
ATOM     57  F   UNL     1       3.950   2.697   9.664  1.00  0.00    -0.206 F 
ATOM     58  C   UNL     1       5.723   5.821  10.049  1.00  0.00     0.060 A 
BRANCH  58  59
ATOM     59  S   UNL     1       5.399   7.534  10.520  1.00  0.00     0.124 S 
ATOM     60  O   UNL     1       5.934   7.569  11.876  1.00  0.00    -0.237 OA
ATOM     61  O   UNL     1       6.152   8.280   9.517  1.00  0.00    -0.237 OA
ATOM     62  O   UNL     1       3.947   7.641  10.409  1.00  0.00    -0.744 OA
ENDBRANCH  58  59
ENDBRANCH  26  51
BRANCH  38  63
ATOM     63  C   UNL     1       9.825  -2.109  12.032  1.00  0.00     0.058 A 
ATOM     64  C   UNL     1       9.209  -2.198  13.289  1.00  0.00     0.135 A 
ATOM     65  C   UNL     1      11.227  -2.165  11.980  1.00  0.00     0.135 A 
ATOM     66  F   UNL     1       7.872  -2.140  13.392  1.00  0.00    -0.206 F 
ATOM     67  C   UNL     1       9.957  -2.311  14.457  1.00  0.00     0.059 A 
ATOM     68  C   UNL     1      11.993  -2.300  13.133  1.00  0.00     0.059 A 
ATOM     69  F   UNL     1      11.863  -2.092  10.800  1.00  0.00    -0.206 F 
ATOM     70  C   UNL     1      11.349  -2.358  14.368  1.00  0.00     0.060 A 
BRANCH  70  71
ATOM     71  S   UNL     1      12.311  -2.525  15.887  1.00  0.00     0.124 S 
ATOM     72  O   UNL     1      12.257  -1.167  16.418  1.00  0.00    -0.237 OA
ATOM     73  O   UNL     1      11.554  -3.527  16.631  1.00  0.00    -0.237 OA
ATOM     74  O   UNL     1      13.620  -2.964  15.412  1.00  0.00    -0.744 OA
ENDBRANCH  70  71
ENDBRANCH  38  63
ENDBRANCH  12  13
ENDBRANCH   5   7
ENDBRANCH   2   3
ENDBRANCH   1   2
BRANCH   1  75
ATOM     75  C   UNL     1       4.656  -0.454  -3.872  1.00  0.00     0.023 C 
BRANCH  75  76
ATOM     76  C   UNL     1       5.371   0.877  -4.119  1.00  0.00     0.116 C 
BRANCH  76  77
ATOM     77  N   UNL     1       6.814   0.716  -4.179  1.00  0.00    -0.354 N 
ATOM     78  C   UNL     1       7.624   0.631  -5.281  1.00  0.00     0.249 C 
ATOM     79  H   UNL     1       7.271   0.659  -3.309  1.00  0.00     0.163 HD
ATOM     80  O   UNL     1       8.831   0.453  -5.116  1.00  0.00    -0.272 OA
BRANCH  78  81
ATOM     81  C   UNL     1       6.989   0.757  -6.672  1.00  0.00     0.207 C 
ATOM     82  C   UNL     1       7.849   0.239  -7.812  1.00  0.00     0.045 C 
ATOM     83  O   UNL     1       6.706   2.132  -6.982  1.00  0.00    -0.363 OA
ATOM     84  C   UNL     1       7.332   1.042  -8.983  1.00  0.00     0.037 C 
ATOM     85  C   UNL     1       7.090   2.405  -8.347  1.00  0.00     0.139 C 
BRANCH  85  86
ATOM     86  C   UNL     1       6.020   3.285  -9.038  1.00  0.00     0.160 C 
BRANCH  86  87
ATOM     87  N   UNL     1       4.713   2.629  -8.972  1.00  0.00    -0.280 N 
ATOM     88  C   UNL     1       4.200   2.029 -10.103  1.00  0.00     0.229 C 
ATOM     89  C   UNL     1       3.995   2.751  -7.794  1.00  0.00     0.229 C 
ATOM     90  O   UNL     1       4.633   2.245 -11.236  1.00  0.00    -0.274 OA
ATOM     91  C   UNL     1       3.143   0.967  -9.894  1.00  0.00     0.108 C 
ATOM     92  C   UNL     1       3.190   1.531  -7.444  1.00  0.00     0.108 C 
ATOM     93  O   UNL     1       4.046   3.722  -7.045  1.00  0.00    -0.274 OA
ATOM     94  C   UNL     1       2.327   1.037  -8.597  1.00  0.00    -0.012 C 
ATOM     95  C   UNL     1       1.786  -0.383  -8.264  1.00  0.00     0.008 C 
ATOM     96  C   UNL     1       1.062   1.915  -8.754  1.00  0.00     0.008 C 
ATOM     97  C   UNL     1       0.303  -0.211  -7.988  1.00  0.00     0.001 C 
ATOM     98  C   UNL     1      -0.088   0.927  -8.910  1.00  0.00     0.001 C 
ENDBRANCH  86  87
ENDBRANCH  85  86
ENDBRANCH  78  81
ENDBRANCH  76  77
ENDBRANCH  75  76
ENDBRANCH   1  75
TORSDOF 16
