REMARK SMILES Cc1ccc(-c2nc(C)c(C(=O)N3CCC(C(=O)NCCCCNC(=O)c4ccc(-c5c6nc(c(-c7c(F)cc(S(=O)(=O)[O-])cc7F)c7ccc([nH]7)c(-c7c(F)cc(S(=O)(=O)[O-])cc7F)c7nc(c(-c8c(F)cc(S(=O)(=O)[O-])cc8F)c8ccc5[nH]8)C=C7)C=C6)cc4)CC3)s2)o1
REMARK SMILES IDX 22 1 21 2 20 3 19 4 17 5 18 6 16 8 11 9 12 10 13 11 14 12
REMARK SMILES IDX 94 13 15 14 93 15 10 16 6 17 7 18 95 19 8 20 9 21 5 22 1 23
REMARK SMILES IDX 2 24 3 25 96 26 4 27 23 28 24 29 25 30 26 32 27 33 28 34
REMARK SMILES IDX 92 35 29 36 91 37 30 38 31 39 32 40 85 41 33 42 90 43 84 44
REMARK SMILES IDX 86 45 34 46 89 47 83 48 82 49 35 51 69 52 48 53 68 54 49 55
REMARK SMILES IDX 52 56 67 57 87 58 50 59 51 60 66 62 88 63 53 64 36 65 37 66
REMARK SMILES IDX 46 67 38 68 39 69 45 70 47 71 40 72 41 73 42 74 43 75 44 76
REMARK SMILES IDX 70 77 71 78 80 79 72 80 73 81 79 82 81 83 74 84 75 85 76 86
REMARK SMILES IDX 77 87 78 88 54 89 55 90 64 91 56 92 57 93 63 94 65 95 58 96
REMARK SMILES IDX 59 97 60 98 61 99 62 100
REMARK H PARENT 19 7 24 31 86 50 52 61
REMARK Flexibility Score: inf
ROOT
ATOM      1  C   UNL     1     -11.743   5.140   3.179  1.00  0.00     0.023 C 
ENDROOT
BRANCH   1   2
ATOM      2  C   UNL     1     -10.285   5.080   2.729  1.00  0.00     0.023 C 
BRANCH   2   3
ATOM      3  C   UNL     1     -10.088   4.730   1.257  1.00  0.00     0.116 C 
BRANCH   3   4
ATOM      4  N   UNL     1     -10.542   5.794   0.377  1.00  0.00    -0.356 N 
ATOM      5  C   UNL     1      -9.853   6.596  -0.480  1.00  0.00     0.223 C 
ATOM      6  O   UNL     1     -10.481   7.438  -1.126  1.00  0.00    -0.275 OA
ATOM      7  H   UNL     1     -11.512   5.964   0.406  1.00  0.00     0.163 HD
BRANCH   5   8
ATOM      8  C   UNL     1      -8.349   6.460  -0.663  1.00  0.00     0.082 C 
ATOM      9  C   UNL     1      -5.316   4.117   0.780  1.00  0.00     0.265 C 
ATOM     10  O   UNL     1      -5.591   4.051   1.980  1.00  0.00    -0.268 OA
ATOM     11  N   UNL     1      -5.913   5.102  -0.005  1.00  0.00    -0.338 N 
ATOM     12  C   UNL     1      -6.126   6.423   0.560  1.00  0.00     0.120 C 
ATOM     13  C   UNL     1      -6.483   4.860  -1.323  1.00  0.00     0.120 C 
ATOM     14  C   UNL     1      -7.595   6.787   0.632  1.00  0.00     0.035 C 
ATOM     15  C   UNL     1      -7.984   5.119  -1.321  1.00  0.00     0.035 C 
BRANCH   9  16
ATOM     16  C   UNL     1      -4.283   3.295   0.163  1.00  0.00     0.115 A 
ATOM     17  C   UNL     1      -2.514   1.657  -0.157  1.00  0.00     0.159 A 
ATOM     18  N   UNL     1      -2.417   2.601  -1.064  1.00  0.00    -0.237 NA
ATOM     19  S   UNL     1      -3.864   1.782   0.885  1.00  0.00    -0.105 S 
ATOM     20  C   UNL     1      -3.406   3.553  -0.884  1.00  0.00     0.062 A 
ATOM     21  C   UNL     1      -3.326   4.740  -1.774  1.00  0.00     0.068 C 
BRANCH  17  22
ATOM     22  C   UNL     1      -1.504   0.645  -0.027  1.00  0.00     0.162 A 
ATOM     23  C   UNL     1       2.012  -0.062  -0.015  1.00  0.00     0.087 C 
ATOM     24  C   UNL     1       0.544  -0.200   0.035  1.00  0.00     0.101 A 
ATOM     25  C   UNL     1      -0.313  -1.260   0.217  1.00  0.00     0.046 A 
ATOM     26  O   UNL     1      -0.166   0.947  -0.129  1.00  0.00    -0.459 OA
ATOM     27  C   UNL     1      -1.624  -0.718   0.193  1.00  0.00     0.054 A 
ENDBRANCH  17  22
ENDBRANCH   9  16
ENDBRANCH   5   8
ENDBRANCH   3   4
ENDBRANCH   2   3
ENDBRANCH   1   2
BRANCH   1  28
ATOM     28  C   UNL     1     -12.568   3.897   2.868  1.00  0.00     0.116 C 
BRANCH  28  29
ATOM     29  N   UNL     1     -11.992   2.675   3.409  1.00  0.00    -0.352 N 
ATOM     30  C   UNL     1     -12.626   1.638   4.049  1.00  0.00     0.251 C 
ATOM     31  H   UNL     1     -11.018   2.578   3.301  1.00  0.00     0.163 HD
ATOM     32  O   UNL     1     -11.974   0.724   4.545  1.00  0.00    -0.269 OA
BRANCH  30  33
ATOM     33  C   UNL     1     -14.099   1.655   4.167  1.00  0.00     0.039 A 
ATOM     34  C   UNL     1     -14.678   1.458   5.422  1.00  0.00     0.014 A 
ATOM     35  C   UNL     1     -14.898   1.915   3.050  1.00  0.00     0.014 A 
ATOM     36  C   UNL     1     -16.059   1.592   5.571  1.00  0.00     0.010 A 
ATOM     37  C   UNL     1     -16.264   2.119   3.214  1.00  0.00     0.010 A 
ATOM     38  C   UNL     1     -16.858   1.962   4.476  1.00  0.00    -0.014 A 
BRANCH  38  39
ATOM     39  C   UNL     1     -18.316   2.199   4.631  1.00  0.00     0.031 A 
ATOM     40  C   UNL     1     -19.301   1.322   3.905  1.00  0.00     0.074 A 
ATOM     41  C   UNL     1     -18.748   3.248   5.360  1.00  0.00     0.049 A 
ATOM     42  N   UNL     1     -20.604   1.420   3.846  1.00  0.00    -0.248 NA
ATOM     43  C   UNL     1     -18.748   0.206   3.119  1.00  0.00     0.031 C 
ATOM     44  C   UNL     1     -17.889   4.205   6.063  1.00  0.00     0.029 A 
ATOM     45  N   UNL     1     -20.019   3.698   5.619  1.00  0.00    -0.354 N 
ATOM     46  C   UNL     1     -21.022   0.402   2.998  1.00  0.00     0.074 A 
ATOM     47  C   UNL     1     -19.834  -0.281   2.536  1.00  0.00     0.031 C 
ATOM     48  C   UNL     1     -18.657   5.114   6.686  1.00  0.00     0.029 A 
ATOM     49  C   UNL     1     -20.059   4.830   6.400  1.00  0.00     0.049 A 
ATOM     50  H   UNL     1     -20.827   3.251   5.277  1.00  0.00     0.167 HD
ATOM     51  C   UNL     1     -22.284   0.057   2.651  1.00  0.00     0.037 A 
ATOM     52  C   UNL     1     -21.107   5.559   6.829  1.00  0.00     0.037 A 
ATOM     53  C   UNL     1     -23.465   0.704   3.159  1.00  0.00     0.049 A 
ATOM     54  C   UNL     1     -22.501   5.133   6.450  1.00  0.00     0.074 A 
ATOM     55  C   UNL     1     -24.789   0.363   2.946  1.00  0.00     0.029 A 
ATOM     56  N   UNL     1     -23.465   1.821   3.980  1.00  0.00    -0.354 N 
ATOM     57  N   UNL     1     -22.880   4.113   5.718  1.00  0.00    -0.248 NA
ATOM     58  C   UNL     1     -23.609   5.954   6.957  1.00  0.00     0.031 C 
ATOM     59  C   UNL     1     -25.592   1.299   3.606  1.00  0.00     0.029 A 
ATOM     60  C   UNL     1     -24.767   2.197   4.264  1.00  0.00     0.049 A 
ATOM     61  H   UNL     1     -22.660   2.280   4.312  1.00  0.00     0.167 HD
ATOM     62  C   UNL     1     -24.270   4.151   5.707  1.00  0.00     0.074 A 
ATOM     63  C   UNL     1     -24.665   5.288   6.511  1.00  0.00     0.031 C 
ATOM     64  C   UNL     1     -25.142   3.319   5.086  1.00  0.00     0.037 A 
BRANCH  51  65
ATOM     65  C   UNL     1     -22.468  -1.081   1.687  1.00  0.00     0.058 A 
ATOM     66  C   UNL     1     -22.250  -2.413   2.068  1.00  0.00     0.135 A 
ATOM     67  C   UNL     1     -22.943  -0.840   0.388  1.00  0.00     0.135 A 
ATOM     68  F   UNL     1     -21.779  -2.698   3.293  1.00  0.00    -0.206 F 
ATOM     69  C   UNL     1     -22.487  -3.468   1.193  1.00  0.00     0.059 A 
ATOM     70  C   UNL     1     -23.211  -1.880  -0.497  1.00  0.00     0.059 A 
ATOM     71  F   UNL     1     -23.164   0.418  -0.029  1.00  0.00    -0.206 F 
ATOM     72  C   UNL     1     -22.974  -3.191  -0.086  1.00  0.00     0.060 A 
BRANCH  72  73
ATOM     73  S   UNL     1     -23.319  -4.573  -1.195  1.00  0.00     0.124 S 
ATOM     74  O   UNL     1     -21.971  -4.992  -1.566  1.00  0.00    -0.237 OA
ATOM     75  O   UNL     1     -24.052  -5.492  -0.330  1.00  0.00    -0.237 OA
ATOM     76  O   UNL     1     -24.103  -3.964  -2.265  1.00  0.00    -0.744 OA
ENDBRANCH  72  73
ENDBRANCH  51  65
BRANCH  52  77
ATOM     77  C   UNL     1     -20.893   6.763   7.678  1.00  0.00     0.058 A 
ATOM     78  C   UNL     1     -21.282   6.771   9.026  1.00  0.00     0.135 A 
ATOM     79  C   UNL     1     -20.331   7.936   7.153  1.00  0.00     0.135 A 
ATOM     80  F   UNL     1     -21.829   5.674   9.572  1.00  0.00    -0.206 F 
ATOM     81  C   UNL     1     -21.157   7.910   9.815  1.00  0.00     0.059 A 
ATOM     82  C   UNL     1     -20.171   9.080   7.929  1.00  0.00     0.059 A 
ATOM     83  F   UNL     1     -19.924   7.975   5.875  1.00  0.00    -0.206 F 
ATOM     84  C   UNL     1     -20.606   9.063   9.254  1.00  0.00     0.060 A 
BRANCH  84  85
ATOM     85  S   UNL     1     -20.444  10.537  10.284  1.00  0.00     0.124 S 
ATOM     86  O   UNL     1     -21.819  11.021  10.321  1.00  0.00    -0.237 OA
ATOM     87  O   UNL     1     -19.926   9.987  11.533  1.00  0.00    -0.237 OA
ATOM     88  O   UNL     1     -19.502  11.364   9.536  1.00  0.00    -0.744 OA
ENDBRANCH  84  85
ENDBRANCH  52  77
BRANCH  64  89
ATOM     89  C   UNL     1     -26.608   3.575   5.289  1.00  0.00     0.058 A 
ATOM     90  C   UNL     1     -27.263   4.647   4.664  1.00  0.00     0.135 A 
ATOM     91  C   UNL     1     -27.377   2.703   6.077  1.00  0.00     0.135 A 
ATOM     92  F   UNL     1     -26.571   5.512   3.906  1.00  0.00    -0.206 F 
ATOM     93  C   UNL     1     -28.628   4.859   4.830  1.00  0.00     0.059 A 
ATOM     94  C   UNL     1     -28.748   2.881   6.235  1.00  0.00     0.059 A 
ATOM     95  F   UNL     1     -26.800   1.656   6.687  1.00  0.00    -0.206 F 
ATOM     96  C   UNL     1     -29.362   3.969   5.617  1.00  0.00     0.060 A 
BRANCH  96  97
ATOM     97  S   UNL     1     -31.139   4.232   5.796  1.00  0.00     0.124 S 
ATOM     98  O   UNL     1     -31.177   5.347   6.735  1.00  0.00    -0.237 OA
ATOM     99  O   UNL     1     -31.550   4.539   4.429  1.00  0.00    -0.237 OA
ATOM    100  O   UNL     1     -31.620   2.955   6.316  1.00  0.00    -0.744 OA
ENDBRANCH  96  97
ENDBRANCH  64  89
ENDBRANCH  38  39
ENDBRANCH  30  33
ENDBRANCH  28  29
ENDBRANCH   1  28
TORSDOF 16
