REMARK SMILES O=C(NCCCCNC(=O)[C@H]1CCCN(c2ccc(O)nn2)C1)c1ccc(-c2c3nc(c(-c4c(F)cc(S(=O)(=O)[O-])cc4F)c4ccc([nH]4)c(-c4c(F)cc(S(=O)(=O)[O-])cc4F)c4nc(c(-c5c(F)cc(S(=O)(=O)[O-])cc5F)c5ccc2[nH]5)C=C4)C=C3)cc1
REMARK SMILES IDX 5 1 4 2 3 3 1 4 2 5 24 7 25 8 89 9 26 10 88 11 27 12 28 13
REMARK SMILES IDX 29 14 82 15 30 16 87 17 81 18 83 19 31 20 86 21 80 22 79 23
REMARK SMILES IDX 32 25 66 26 45 27 65 28 46 29 49 30 64 31 84 32 47 33 48 34
REMARK SMILES IDX 63 36 85 37 50 38 33 39 34 40 43 41 35 42 36 43 42 44 44 45
REMARK SMILES IDX 37 46 38 47 39 48 40 49 41 50 67 51 68 52 77 53 69 54 70 55
REMARK SMILES IDX 76 56 78 57 71 58 72 59 73 60 74 61 75 62 51 63 52 64 61 65
REMARK SMILES IDX 53 66 54 67 60 68 62 69 55 70 56 71 57 72 58 73 59 74 6 75
REMARK SMILES IDX 7 76 8 77 9 78 10 80 11 81 12 82 23 83 13 84 15 85 14 86
REMARK SMILES IDX 16 87 17 88 22 89 18 90 21 91 19 92 20 93
REMARK H PARENT 3 6 83 24 49 35 8 79 20 94
REMARK Flexibility Score: inf
ROOT
ATOM      1  C   UNL     1       2.105  -3.141   8.450  1.00  0.00     0.023 C 
ENDROOT
BRANCH   1   2
ATOM      2  C   UNL     1       0.931  -3.658   7.620  1.00  0.00     0.116 C 
BRANCH   2   3
ATOM      3  N   UNL     1       1.079  -5.039   7.189  1.00  0.00    -0.352 N 
ATOM      4  O   UNL     1       0.301  -7.069   6.535  1.00  0.00    -0.269 OA
ATOM      5  C   UNL     1       0.068  -5.901   6.824  1.00  0.00     0.251 C 
ATOM      6  H   UNL     1       1.996  -5.395   7.153  1.00  0.00     0.163 HD
BRANCH   5   7
ATOM      7  C   UNL     1      -1.315  -5.388   6.840  1.00  0.00     0.039 A 
ATOM      8  C   UNL     1      -1.671  -4.313   6.020  1.00  0.00     0.014 A 
ATOM      9  C   UNL     1      -2.221  -5.923   7.757  1.00  0.00     0.014 A 
ATOM     10  C   UNL     1      -2.909  -3.702   6.195  1.00  0.00     0.010 A 
ATOM     11  C   UNL     1      -3.476  -5.331   7.904  1.00  0.00     0.010 A 
ATOM     12  C   UNL     1      -3.814  -4.196   7.149  1.00  0.00    -0.014 A 
BRANCH  12  13
ATOM     13  C   UNL     1      -5.115  -3.517   7.350  1.00  0.00     0.031 A 
ATOM     14  C   UNL     1      -5.361  -2.689   8.581  1.00  0.00     0.074 A 
ATOM     15  C   UNL     1      -6.057  -3.618   6.394  1.00  0.00     0.049 A 
ATOM     16  N   UNL     1      -6.439  -2.037   8.933  1.00  0.00    -0.248 NA
ATOM     17  C   UNL     1      -4.249  -2.569   9.539  1.00  0.00     0.031 C 
ATOM     18  C   UNL     1      -5.910  -4.364   5.143  1.00  0.00     0.029 A 
ATOM     19  N   UNL     1      -7.315  -3.081   6.317  1.00  0.00    -0.354 N 
ATOM     20  C   UNL     1      -6.137  -1.420  10.141  1.00  0.00     0.074 A 
ATOM     21  C   UNL     1      -4.783  -1.803  10.482  1.00  0.00     0.031 C 
ATOM     22  C   UNL     1      -7.023  -4.213   4.409  1.00  0.00     0.029 A 
ATOM     23  C   UNL     1      -7.978  -3.401   5.156  1.00  0.00     0.049 A 
ATOM     24  H   UNL     1      -7.707  -2.520   7.025  1.00  0.00     0.167 HD
ATOM     25  C   UNL     1      -6.913  -0.598  10.886  1.00  0.00     0.037 A 
ATOM     26  C   UNL     1      -9.221  -3.084   4.749  1.00  0.00     0.037 A 
ATOM     27  C   UNL     1      -8.265  -0.232  10.545  1.00  0.00     0.049 A 
ATOM     28  C   UNL     1     -10.093  -2.251   5.644  1.00  0.00     0.074 A 
ATOM     29  C   UNL     1      -9.146   0.567  11.253  1.00  0.00     0.029 A 
ATOM     30  N   UNL     1      -8.928  -0.635   9.396  1.00  0.00    -0.354 N 
ATOM     31  N   UNL     1      -9.803  -1.705   6.801  1.00  0.00    -0.248 NA
ATOM     32  C   UNL     1     -11.466  -2.002   5.185  1.00  0.00     0.031 C 
ATOM     33  C   UNL     1     -10.352   0.624  10.545  1.00  0.00     0.029 A 
ATOM     34  C   UNL     1     -10.209  -0.110   9.379  1.00  0.00     0.049 A 
ATOM     35  H   UNL     1      -8.545  -1.211   8.695  1.00  0.00     0.167 HD
ATOM     36  C   UNL     1     -10.952  -1.032   7.199  1.00  0.00     0.074 A 
ATOM     37  C   UNL     1     -11.936  -1.229   6.154  1.00  0.00     0.031 C 
ATOM     38  C   UNL     1     -11.173  -0.317   8.329  1.00  0.00     0.037 A 
BRANCH  25  39
ATOM     39  C   UNL     1      -6.327  -0.025  12.146  1.00  0.00     0.058 A 
ATOM     40  C   UNL     1      -5.400   1.028  12.101  1.00  0.00     0.135 A 
ATOM     41  C   UNL     1      -6.752  -0.472  13.407  1.00  0.00     0.135 A 
ATOM     42  F   UNL     1      -4.947   1.479  10.920  1.00  0.00    -0.206 F 
ATOM     43  C   UNL     1      -4.913   1.618  13.263  1.00  0.00     0.059 A 
ATOM     44  C   UNL     1      -6.292   0.116  14.583  1.00  0.00     0.059 A 
ATOM     45  F   UNL     1      -7.634  -1.479  13.505  1.00  0.00    -0.206 F 
ATOM     46  C   UNL     1      -5.369   1.158  14.500  1.00  0.00     0.060 A 
BRANCH  46  47
ATOM     47  S   UNL     1      -4.749   1.958  15.995  1.00  0.00     0.124 S 
ATOM     48  O   UNL     1      -3.368   1.488  16.025  1.00  0.00    -0.237 OA
ATOM     49  O   UNL     1      -4.931   3.373  15.689  1.00  0.00    -0.237 OA
ATOM     50  O   UNL     1      -5.613   1.431  17.047  1.00  0.00    -0.744 OA
ENDBRANCH  46  47
ENDBRANCH  25  39
BRANCH  26  51
ATOM     51  C   UNL     1      -9.717  -3.559   3.432  1.00  0.00     0.058 A 
ATOM     52  C   UNL     1      -9.917  -2.659   2.376  1.00  0.00     0.135 A 
ATOM     53  C   UNL     1     -10.002  -4.913   3.205  1.00  0.00     0.135 A 
ATOM     54  F   UNL     1      -9.663  -1.353   2.549  1.00  0.00    -0.206 F 
ATOM     55  C   UNL     1     -10.401  -3.082   1.143  1.00  0.00     0.059 A 
ATOM     56  C   UNL     1     -10.465  -5.365   1.974  1.00  0.00     0.059 A 
ATOM     57  F   UNL     1      -9.812  -5.814   4.182  1.00  0.00    -0.206 F 
ATOM     58  C   UNL     1     -10.674  -4.438   0.953  1.00  0.00     0.060 A 
BRANCH  58  59
ATOM     59  S   UNL     1     -11.275  -4.984  -0.660  1.00  0.00     0.124 S 
ATOM     60  O   UNL     1     -12.660  -4.529  -0.624  1.00  0.00    -0.237 OA
ATOM     61  O   UNL     1     -10.391  -4.269  -1.576  1.00  0.00    -0.237 OA
ATOM     62  O   UNL     1     -11.082  -6.430  -0.617  1.00  0.00    -0.744 OA
ENDBRANCH  58  59
ENDBRANCH  26  51
BRANCH  38  63
ATOM     63  C   UNL     1     -12.524   0.320   8.481  1.00  0.00     0.058 A 
ATOM     64  C   UNL     1     -13.655  -0.437   8.819  1.00  0.00     0.135 A 
ATOM     65  C   UNL     1     -12.681   1.706   8.320  1.00  0.00     0.135 A 
ATOM     66  F   UNL     1     -13.557  -1.767   8.976  1.00  0.00    -0.206 F 
ATOM     67  C   UNL     1     -14.904   0.156   8.973  1.00  0.00     0.059 A 
ATOM     68  C   UNL     1     -13.916   2.322   8.489  1.00  0.00     0.059 A 
ATOM     69  F   UNL     1     -11.626   2.473   8.003  1.00  0.00    -0.206 F 
ATOM     70  C   UNL     1     -15.024   1.537   8.804  1.00  0.00     0.060 A 
BRANCH  70  71
ATOM     71  S   UNL     1     -16.645   2.298   9.031  1.00  0.00     0.124 S 
ATOM     72  O   UNL     1     -17.326   1.910   7.800  1.00  0.00    -0.237 OA
ATOM     73  O   UNL     1     -17.125   1.655  10.251  1.00  0.00    -0.237 OA
ATOM     74  O   UNL     1     -16.338   3.719   9.158  1.00  0.00    -0.744 OA
ENDBRANCH  70  71
ENDBRANCH  38  63
ENDBRANCH  12  13
ENDBRANCH   5   7
ENDBRANCH   2   3
ENDBRANCH   1   2
BRANCH   1  75
ATOM     75  C   UNL     1       3.462  -3.161   7.739  1.00  0.00     0.023 C 
BRANCH  75  76
ATOM     76  C   UNL     1       3.524  -2.273   6.496  1.00  0.00     0.116 C 
BRANCH  76  77
ATOM     77  N   UNL     1       4.274  -1.049   6.718  1.00  0.00    -0.356 N 
ATOM     78  C   UNL     1       5.587  -0.726   6.664  1.00  0.00     0.224 C 
ATOM     79  H   UNL     1       3.700  -0.287   6.963  1.00  0.00     0.163 HD
ATOM     80  O   UNL     1       5.853   0.473   6.825  1.00  0.00    -0.275 OA
BRANCH  78  81
ATOM     81  C   UNL     1       6.740  -1.712   6.509  1.00  0.00     0.098 C 
ATOM     82  C   UNL     1       7.392  -1.992   7.872  1.00  0.00     0.017 C 
ATOM     83  C   UNL     1       6.468  -3.008   5.767  1.00  0.00     0.131 C 
ATOM     84  C   UNL     1       8.624  -2.891   7.721  1.00  0.00     0.022 C 
ATOM     85  N   UNL     1       7.707  -3.791   5.652  1.00  0.00    -0.354 N 
ATOM     86  C   UNL     1       8.312  -4.166   6.932  1.00  0.00     0.118 C 
BRANCH  85  87
ATOM     87  C   UNL     1       7.630  -4.805   4.689  1.00  0.00     0.151 A 
ATOM     88  C   UNL     1       7.562  -4.451   3.341  1.00  0.00     0.054 A 
ATOM     89  N   UNL     1       7.586  -6.111   5.043  1.00  0.00    -0.129 NA
ATOM     90  C   UNL     1       7.412  -5.433   2.372  1.00  0.00     0.074 A 
ATOM     91  N   UNL     1       7.422  -7.089   4.095  1.00  0.00    -0.110 NA
ATOM     92  C   UNL     1       7.333  -6.731   2.805  1.00  0.00     0.231 A 
BRANCH  92  93
ATOM     93  O   UNL     1       7.142  -7.744   1.920  1.00  0.00    -0.492 OA
ATOM     94  H   UNL     1       7.072  -7.559   1.004  1.00  0.00     0.295 HD
ENDBRANCH  92  93
ENDBRANCH  85  87
ENDBRANCH  78  81
ENDBRANCH  76  77
ENDBRANCH  75  76
ENDBRANCH   1  75
TORSDOF 16
