REMARK SMILES Cc1ccc(C(=O)N2C[C@@H](C(=O)NCCCCNC(=O)c3ccc(-c4c5nc(c(-c6c(F)cc(S(=O)(=O)[O-])cc6F)c6ccc([nH]6)c(-c6c(F)cc(S(=O)(=O)[O-])cc6F)c6nc(c(-c7c(F)cc(S(=O)(=O)[O-])cc7F)c7ccc4[nH]7)C=C6)C=C5)cc3)C[C@H](C(=O)N3CCOCC3)C2)cc1F
REMARK SMILES IDX 16 1 15 2 14 3 13 4 11 5 12 6 10 8 8 9 9 10 97 11 88 12
REMARK SMILES IDX 87 13 6 14 7 15 5 16 1 17 2 18 3 19 99 20 4 21 98 22 100 23
REMARK SMILES IDX 89 24 90 25 91 26 92 27 96 28 93 29 95 30 94 31 17 32 18 33
REMARK SMILES IDX 19 34 20 36 21 37 22 38 86 39 23 40 85 41 24 42 25 43 26 44
REMARK SMILES IDX 79 45 27 46 84 47 78 48 80 49 28 50 83 51 77 52 76 53 29 55
REMARK SMILES IDX 63 56 42 57 62 58 43 59 46 60 61 61 81 62 44 63 45 64 60 66
REMARK SMILES IDX 82 67 47 68 30 69 31 70 40 71 32 72 33 73 39 74 41 75 34 76
REMARK SMILES IDX 35 77 36 78 37 79 38 80 64 81 65 82 74 83 66 84 67 85 73 86
REMARK SMILES IDX 75 87 68 88 69 89 70 90 71 91 72 92 48 93 49 94 58 95 50 96
REMARK SMILES IDX 51 97 57 98 59 99 52 100 53 101 54 102 55 103 56 104
REMARK H PARENT 13 7 18 35 80 54 46 65
REMARK Flexibility Score: inf
ROOT
ATOM      1  C   UNL     1     -10.642   1.099   1.158  1.00  0.00     0.023 C 
ENDROOT
BRANCH   1   2
ATOM      2  C   UNL     1      -9.252   1.078   0.517  1.00  0.00     0.023 C 
BRANCH   2   3
ATOM      3  C   UNL     1      -8.096   0.749   1.464  1.00  0.00     0.116 C 
BRANCH   3   4
ATOM      4  N   UNL     1      -8.273  -0.543   2.104  1.00  0.00    -0.356 N 
ATOM      5  C   UNL     1      -7.725  -1.757   1.846  1.00  0.00     0.224 C 
ATOM      6  O   UNL     1      -8.188  -2.737   2.436  1.00  0.00    -0.275 OA
ATOM      7  H   UNL     1      -8.903  -0.536   2.861  1.00  0.00     0.163 HD
BRANCH   5   8
ATOM      8  C   UNL     1      -6.569  -1.938   0.878  1.00  0.00     0.099 C 
ATOM      9  N   UNL     1      -4.252  -1.173   0.401  1.00  0.00    -0.337 N 
ATOM     10  C   UNL     1      -5.327  -1.222   1.382  1.00  0.00     0.133 C 
ATOM     11  C   UNL     1      -4.599  -0.719  -0.942  1.00  0.00     0.133 C 
ATOM     12  C   UNL     1      -5.775  -1.502  -1.551  1.00  0.00     0.099 C 
ATOM     13  C   UNL     1      -6.944  -1.684  -0.586  1.00  0.00     0.030 C 
BRANCH   9  14
ATOM     14  C   UNL     1      -2.960  -1.379   0.869  1.00  0.00     0.254 C 
ATOM     15  O   UNL     1      -2.706  -2.141   1.800  1.00  0.00    -0.269 OA
BRANCH  14  16
ATOM     16  C   UNL     1      -1.835  -0.583   0.325  1.00  0.00     0.042 A 
ATOM     17  C   UNL     1       1.691   1.804  -0.281  1.00  0.00     0.047 C 
ATOM     18  C   UNL     1       0.444   0.982  -0.152  1.00  0.00    -0.015 A 
ATOM     19  C   UNL     1      -0.816   1.585  -0.063  1.00  0.00     0.007 A 
ATOM     20  C   UNL     1       0.537  -0.409  -0.039  1.00  0.00     0.126 A 
ATOM     21  C   UNL     1      -1.953   0.806   0.181  1.00  0.00     0.014 A 
ATOM     22  C   UNL     1      -0.585  -1.193   0.204  1.00  0.00     0.053 A 
ATOM     23  F   UNL     1       1.737  -1.002  -0.113  1.00  0.00    -0.207 F 
ENDBRANCH  14  16
ENDBRANCH   9  14
BRANCH  12  24
ATOM     24  C   UNL     1      -5.231  -2.683  -2.368  1.00  0.00     0.227 C 
ATOM     25  O   UNL     1      -4.940  -2.476  -3.554  1.00  0.00    -0.275 OA
ATOM     26  N   UNL     1      -4.827  -3.844  -1.760  1.00  0.00    -0.338 N 
ATOM     27  C   UNL     1      -5.583  -4.689  -0.837  1.00  0.00     0.148 C 
ATOM     28  C   UNL     1      -3.589  -4.480  -2.206  1.00  0.00     0.148 C 
ATOM     29  C   UNL     1      -4.702  -5.079   0.357  1.00  0.00     0.181 C 
ATOM     30  C   UNL     1      -2.756  -4.863  -0.976  1.00  0.00     0.181 C 
ATOM     31  O   UNL     1      -3.501  -5.731  -0.102  1.00  0.00    -0.378 OA
ENDBRANCH  12  24
ENDBRANCH   5   8
ENDBRANCH   3   4
ENDBRANCH   2   3
ENDBRANCH   1   2
BRANCH   1  32
ATOM     32  C   UNL     1     -10.778   2.057   2.322  1.00  0.00     0.116 C 
BRANCH  32  33
ATOM     33  N   UNL     1     -10.430   3.427   1.978  1.00  0.00    -0.352 N 
ATOM     34  C   UNL     1     -11.013   4.439   2.739  1.00  0.00     0.251 C 
ATOM     35  H   UNL     1      -9.810   3.630   1.241  1.00  0.00     0.163 HD
ATOM     36  O   UNL     1     -12.061   4.961   2.424  1.00  0.00    -0.269 OA
BRANCH  34  37
ATOM     37  C   UNL     1     -10.404   4.601   4.098  1.00  0.00     0.039 A 
ATOM     38  C   UNL     1     -11.079   5.332   5.081  1.00  0.00     0.014 A 
ATOM     39  C   UNL     1      -9.299   3.819   4.444  1.00  0.00     0.014 A 
ATOM     40  C   UNL     1     -10.720   5.175   6.423  1.00  0.00     0.010 A 
ATOM     41  C   UNL     1      -9.016   3.582   5.763  1.00  0.00     0.010 A 
ATOM     42  C   UNL     1      -9.724   4.252   6.759  1.00  0.00    -0.014 A 
BRANCH  42  43
ATOM     43  C   UNL     1      -9.370   3.863   8.119  1.00  0.00     0.031 A 
ATOM     44  C   UNL     1     -10.383   3.315   9.046  1.00  0.00     0.074 A 
ATOM     45  C   UNL     1      -8.069   3.944   8.479  1.00  0.00     0.049 A 
ATOM     46  N   UNL     1     -10.322   3.408  10.331  1.00  0.00    -0.248 NA
ATOM     47  C   UNL     1     -11.569   2.601   8.582  1.00  0.00     0.031 C 
ATOM     48  C   UNL     1      -7.420   3.462   9.689  1.00  0.00     0.029 A 
ATOM     49  N   UNL     1      -7.034   4.609   7.840  1.00  0.00    -0.354 N 
ATOM     50  C   UNL     1     -11.255   2.540  10.864  1.00  0.00     0.074 A 
ATOM     51  C   UNL     1     -12.068   2.140   9.736  1.00  0.00     0.031 C 
ATOM     52  C   UNL     1      -6.262   4.135   9.845  1.00  0.00     0.029 A 
ATOM     53  C   UNL     1      -6.224   5.167   8.817  1.00  0.00     0.049 A 
ATOM     54  H   UNL     1      -6.898   4.673   6.867  1.00  0.00     0.167 HD
ATOM     55  C   UNL     1     -11.122   2.140  12.166  1.00  0.00     0.037 A 
ATOM     56  C   UNL     1      -6.201   6.517   9.052  1.00  0.00     0.037 A 
ATOM     57  C   UNL     1      -9.962   2.795  12.778  1.00  0.00     0.049 A 
ATOM     58  C   UNL     1      -6.656   6.849  10.456  1.00  0.00     0.074 A 
ATOM     59  C   UNL     1      -8.655   2.368  12.953  1.00  0.00     0.029 A 
ATOM     60  N   UNL     1      -9.959   4.171  12.990  1.00  0.00    -0.354 N 
ATOM     61  N   UNL     1      -7.462   6.098  11.157  1.00  0.00    -0.248 NA
ATOM     62  C   UNL     1      -6.201   8.023  11.194  1.00  0.00     0.031 C 
ATOM     63  C   UNL     1      -7.848   3.509  13.178  1.00  0.00     0.029 A 
ATOM     64  C   UNL     1      -8.665   4.628  13.167  1.00  0.00     0.049 A 
ATOM     65  H   UNL     1     -10.763   4.738  13.012  1.00  0.00     0.167 HD
ATOM     66  C   UNL     1      -7.614   6.634  12.409  1.00  0.00     0.074 A 
ATOM     67  C   UNL     1      -6.803   7.838  12.382  1.00  0.00     0.031 C 
ATOM     68  C   UNL     1      -8.376   6.040  13.375  1.00  0.00     0.037 A 
BRANCH  55  69
ATOM     69  C   UNL     1     -11.810   0.930  12.790  1.00  0.00     0.058 A 
ATOM     70  C   UNL     1     -11.205   0.228  13.861  1.00  0.00     0.135 A 
ATOM     71  C   UNL     1     -13.037   0.382  12.365  1.00  0.00     0.135 A 
ATOM     72  F   UNL     1     -10.090   0.674  14.454  1.00  0.00    -0.206 F 
ATOM     73  C   UNL     1     -11.708  -0.968  14.381  1.00  0.00     0.059 A 
ATOM     74  C   UNL     1     -13.541  -0.838  12.840  1.00  0.00     0.059 A 
ATOM     75  F   UNL     1     -13.832   1.036  11.509  1.00  0.00    -0.206 F 
ATOM     76  C   UNL     1     -12.862  -1.514  13.843  1.00  0.00     0.060 A 
BRANCH  76  77
ATOM     77  S   UNL     1     -13.467  -3.083  14.496  1.00  0.00     0.124 S 
ATOM     78  O   UNL     1     -12.328  -3.969  14.272  1.00  0.00    -0.237 OA
ATOM     79  O   UNL     1     -13.747  -2.748  15.888  1.00  0.00    -0.237 OA
ATOM     80  O   UNL     1     -14.641  -3.365  13.673  1.00  0.00    -0.744 OA
ENDBRANCH  76  77
ENDBRANCH  55  69
BRANCH  56  81
ATOM     81  C   UNL     1      -6.483   7.338   7.830  1.00  0.00     0.058 A 
ATOM     82  C   UNL     1      -5.534   7.289   6.790  1.00  0.00     0.135 A 
ATOM     83  C   UNL     1      -7.792   7.717   7.485  1.00  0.00     0.135 A 
ATOM     84  F   UNL     1      -4.261   6.958   7.062  1.00  0.00    -0.206 F 
ATOM     85  C   UNL     1      -5.902   7.408   5.453  1.00  0.00     0.059 A 
ATOM     86  C   UNL     1      -8.182   7.849   6.146  1.00  0.00     0.059 A 
ATOM     87  F   UNL     1      -8.737   7.823   8.430  1.00  0.00    -0.206 F 
ATOM     88  C   UNL     1      -7.244   7.614   5.138  1.00  0.00     0.060 A 
BRANCH  88  89
ATOM     89  S   UNL     1      -7.742   7.413   3.408  1.00  0.00     0.124 S 
ATOM     90  O   UNL     1      -6.863   8.354   2.722  1.00  0.00    -0.237 OA
ATOM     91  O   UNL     1      -7.449   6.000   3.168  1.00  0.00    -0.237 OA
ATOM     92  O   UNL     1      -9.156   7.764   3.415  1.00  0.00    -0.744 OA
ENDBRANCH  88  89
ENDBRANCH  56  81
BRANCH  68  93
ATOM     93  C   UNL     1      -8.804   6.698  14.664  1.00  0.00     0.058 A 
ATOM     94  C   UNL     1      -8.986   8.084  14.802  1.00  0.00     0.135 A 
ATOM     95  C   UNL     1      -9.186   5.918  15.782  1.00  0.00     0.135 A 
ATOM     96  F   UNL     1      -8.788   8.922  13.774  1.00  0.00    -0.206 F 
ATOM     97  C   UNL     1      -9.425   8.666  15.990  1.00  0.00     0.059 A 
ATOM     98  C   UNL     1      -9.685   6.474  16.957  1.00  0.00     0.059 A 
ATOM     99  F   UNL     1      -9.102   4.579  15.766  1.00  0.00    -0.206 F 
ATOM    100  C   UNL     1      -9.770   7.854  17.064  1.00  0.00     0.060 A 
BRANCH 100 101
ATOM    101  S   UNL     1     -10.386   8.604  18.580  1.00  0.00     0.124 S 
ATOM    102  O   UNL     1      -9.144   8.856  19.303  1.00  0.00    -0.237 OA
ATOM    103  O   UNL     1     -11.083   9.791  18.092  1.00  0.00    -0.237 OA
ATOM    104  O   UNL     1     -11.247   7.568  19.140  1.00  0.00    -0.744 OA
ENDBRANCH 100 101
ENDBRANCH  68  93
ENDBRANCH  42  43
ENDBRANCH  34  37
ENDBRANCH  32  33
ENDBRANCH   1  32
TORSDOF 17
