REMARK SMILES C[NH2+][C@@]1(C(=O)NCCCCNC(=O)c2ccc(-c3c4nc(c(-c5c(F)cc(S(=O)(=O)[O-])cc5F)c5ccc([nH]5)c(-c5c(F)cc(S(=O)(=O)[O-])cc5F)c5nc(c(-c6c(F)cc(S(=O)(=O)[O-])cc6F)c6ccc3[nH]6)C=C5)C=C4)cc2)CC[C@H](Oc2cccc(C)c2)C1
REMARK SMILES IDX 9 1 8 2 7 3 6 4 4 5 5 6 3 8 80 9 91 10 81 11 82 12 2 13 1 14
REMARK SMILES IDX 83 17 84 18 85 19 90 20 86 21 88 22 87 23 89 24 10 25 11 26
REMARK SMILES IDX 12 27 13 29 14 30 15 31 79 32 16 33 78 34 17 35 18 36 19 37
REMARK SMILES IDX 72 38 20 39 77 40 71 41 73 42 21 43 76 44 70 45 69 46 22 48
REMARK SMILES IDX 56 49 35 50 55 51 36 52 39 53 54 54 74 55 37 56 38 57 53 59
REMARK SMILES IDX 75 60 40 61 23 62 24 63 33 64 25 65 26 66 32 67 34 68 27 69
REMARK SMILES IDX 28 70 29 71 30 72 31 73 57 74 58 75 67 76 59 77 60 78 66 79
REMARK SMILES IDX 68 80 61 81 62 82 63 83 64 84 65 85 41 86 42 87 51 88 43 89
REMARK SMILES IDX 44 90 50 91 52 92 45 93 46 94 47 95 48 96 49 97
REMARK H PARENT 6 7 2 15 2 16 11 28 73 47 39 58
REMARK Flexibility Score: inf
ROOT
ATOM      1  C   UNL     1      -5.103  -0.289   4.360  1.00  0.00     0.023 C 
ENDROOT
BRANCH   1   2
ATOM      2  C   UNL     1      -4.283  -0.282   3.080  1.00  0.00     0.023 C 
BRANCH   2   3
ATOM      3  C   UNL     1      -3.506   0.995   2.807  1.00  0.00     0.116 C 
BRANCH   3   4
ATOM      4  N   UNL     1      -2.115   0.868   3.159  1.00  0.00    -0.351 N 
ATOM      5  C   UNL     1      -0.997   0.722   2.409  1.00  0.00     0.281 C 
ATOM      6  O   UNL     1       0.053   0.578   3.059  1.00  0.00    -0.268 OA
ATOM      7  H   UNL     1      -1.946   0.891   4.128  1.00  0.00     0.163 HD
BRANCH   5   8
ATOM      8  C   UNL     1      -0.934   0.694   0.819  1.00  0.00     0.179 C 
ATOM      9  C   UNL     1      -1.619   1.888   0.138  1.00  0.00     0.083 C 
ATOM     10  C   UNL     1      -1.635  -0.562   0.272  1.00  0.00     0.124 C 
ATOM     11  C   UNL     1      -2.872   1.385  -0.572  1.00  0.00     0.052 C 
ATOM     12  C   UNL     1      -2.780  -0.136  -0.669  1.00  0.00     0.180 C 
BRANCH   8  13
ATOM     13  N   UNL     1       0.523   0.873   0.517  1.00  0.00    -0.336 N 
ATOM     14  C   UNL     1       1.150  -0.038  -0.416  1.00  0.00     0.331 C 
ATOM     15  H   UNL     1       0.640   1.815   0.142  1.00  0.00     0.346 HD
ATOM     16  H   UNL     1       0.989   0.683   1.404  1.00  0.00     0.346 HD
ENDBRANCH   8  13
BRANCH  12  17
ATOM     17  O   UNL     1      -3.893  -0.939  -0.271  1.00  0.00    -0.490 OA
BRANCH  17  18
ATOM     18  C   UNL     1      -5.204  -0.650  -0.460  1.00  0.00     0.119 A 
ATOM     19  C   UNL     1      -5.745   0.372  -1.224  1.00  0.00     0.046 A 
ATOM     20  C   UNL     1      -6.063  -1.472   0.286  1.00  0.00     0.049 A 
ATOM     21  C   UNL     1      -7.117   0.640  -1.149  1.00  0.00     0.004 A 
ATOM     22  C   UNL     1      -7.428  -1.193   0.401  1.00  0.00    -0.047 A 
ATOM     23  C   UNL     1      -7.950  -0.125  -0.329  1.00  0.00     0.003 A 
ATOM     24  C   UNL     1      -8.305  -2.000   1.312  1.00  0.00     0.044 C 
ENDBRANCH  17  18
ENDBRANCH  12  17
ENDBRANCH   5   8
ENDBRANCH   3   4
ENDBRANCH   2   3
ENDBRANCH   1   2
BRANCH   1  25
ATOM     25  C   UNL     1      -6.114   0.846   4.493  1.00  0.00     0.116 C 
BRANCH  25  26
ATOM     26  N   UNL     1      -6.995   1.037   3.344  1.00  0.00    -0.352 N 
ATOM     27  C   UNL     1      -8.326   1.395   3.353  1.00  0.00     0.251 C 
ATOM     28  H   UNL     1      -6.591   0.893   2.458  1.00  0.00     0.163 HD
ATOM     29  O   UNL     1      -8.962   1.543   2.313  1.00  0.00    -0.269 OA
BRANCH  27  30
ATOM     30  C   UNL     1      -8.999   1.538   4.654  1.00  0.00     0.039 A 
ATOM     31  C   UNL     1     -10.095   0.721   4.938  1.00  0.00     0.014 A 
ATOM     32  C   UNL     1      -8.453   2.377   5.628  1.00  0.00     0.014 A 
ATOM     33  C   UNL     1     -10.594   0.676   6.239  1.00  0.00     0.010 A 
ATOM     34  C   UNL     1      -8.894   2.263   6.937  1.00  0.00     0.010 A 
ATOM     35  C   UNL     1      -9.964   1.409   7.256  1.00  0.00    -0.014 A 
BRANCH  35  36
ATOM     36  C   UNL     1     -10.409   1.338   8.668  1.00  0.00     0.031 A 
ATOM     37  C   UNL     1     -10.898   2.593   9.335  1.00  0.00     0.074 A 
ATOM     38  C   UNL     1     -10.267   0.197   9.369  1.00  0.00     0.049 A 
ATOM     39  N   UNL     1     -11.133   2.821  10.599  1.00  0.00    -0.248 NA
ATOM     40  C   UNL     1     -11.098   3.763   8.463  1.00  0.00     0.031 C 
ATOM     41  C   UNL     1      -9.758  -1.071   8.840  1.00  0.00     0.029 A 
ATOM     42  N   UNL     1     -10.516  -0.075  10.691  1.00  0.00    -0.354 N 
ATOM     43  C   UNL     1     -11.456   4.170  10.681  1.00  0.00     0.074 A 
ATOM     44  C   UNL     1     -11.348   4.717   9.347  1.00  0.00     0.031 C 
ATOM     45  C   UNL     1      -9.746  -1.987   9.823  1.00  0.00     0.029 A 
ATOM     46  C   UNL     1     -10.207  -1.363  11.059  1.00  0.00     0.049 A 
ATOM     47  H   UNL     1     -10.883   0.591  11.317  1.00  0.00     0.167 HD
ATOM     48  C   UNL     1     -11.829   4.883  11.769  1.00  0.00     0.037 A 
ATOM     49  C   UNL     1     -10.276  -1.964  12.263  1.00  0.00     0.037 A 
ATOM     50  C   UNL     1     -11.999   4.311  13.077  1.00  0.00     0.049 A 
ATOM     51  C   UNL     1     -10.759  -1.169  13.445  1.00  0.00     0.074 A 
ATOM     52  C   UNL     1     -12.441   4.922  14.235  1.00  0.00     0.029 A 
ATOM     53  N   UNL     1     -11.750   2.982  13.392  1.00  0.00    -0.354 N 
ATOM     54  N   UNL     1     -11.093   0.099  13.502  1.00  0.00    -0.248 NA
ATOM     55  C   UNL     1     -10.881  -1.883  14.723  1.00  0.00     0.031 C 
ATOM     56  C   UNL     1     -12.444   3.966  15.257  1.00  0.00     0.029 A 
ATOM     57  C   UNL     1     -12.033   2.753  14.727  1.00  0.00     0.049 A 
ATOM     58  H   UNL     1     -11.421   2.303  12.759  1.00  0.00     0.167 HD
ATOM     59  C   UNL     1     -11.485   0.329  14.816  1.00  0.00     0.074 A 
ATOM     60  C   UNL     1     -11.357  -0.933  15.517  1.00  0.00     0.031 C 
ATOM     61  C   UNL     1     -11.911   1.480  15.392  1.00  0.00     0.037 A 
BRANCH  48  62
ATOM     62  C   UNL     1     -12.086   6.351  11.578  1.00  0.00     0.058 A 
ATOM     63  C   UNL     1     -13.204   6.817  10.867  1.00  0.00     0.135 A 
ATOM     64  C   UNL     1     -11.201   7.304  12.106  1.00  0.00     0.135 A 
ATOM     65  F   UNL     1     -14.069   5.947  10.322  1.00  0.00    -0.206 F 
ATOM     66  C   UNL     1     -13.415   8.174  10.652  1.00  0.00     0.059 A 
ATOM     67  C   UNL     1     -11.408   8.669  11.928  1.00  0.00     0.059 A 
ATOM     68  F   UNL     1     -10.115   6.914  12.791  1.00  0.00    -0.206 F 
ATOM     69  C   UNL     1     -12.508   9.093  11.182  1.00  0.00     0.060 A 
BRANCH  69  70
ATOM     70  S   UNL     1     -12.787  10.852  10.887  1.00  0.00     0.124 S 
ATOM     71  O   UNL     1     -12.339  10.989   9.505  1.00  0.00    -0.237 OA
ATOM     72  O   UNL     1     -14.225  10.983  11.102  1.00  0.00    -0.237 OA
ATOM     73  O   UNL     1     -11.946  11.500  11.888  1.00  0.00    -0.744 OA
ENDBRANCH  69  70
ENDBRANCH  48  62
BRANCH  49  74
ATOM     74  C   UNL     1      -9.907  -3.398  12.402  1.00  0.00     0.058 A 
ATOM     75  C   UNL     1     -10.895  -4.376  12.586  1.00  0.00     0.135 A 
ATOM     76  C   UNL     1      -8.571  -3.823  12.335  1.00  0.00     0.135 A 
ATOM     77  F   UNL     1     -12.186  -4.018  12.662  1.00  0.00    -0.206 F 
ATOM     78  C   UNL     1     -10.574  -5.724  12.710  1.00  0.00     0.059 A 
ATOM     79  C   UNL     1      -8.226  -5.168  12.436  1.00  0.00     0.059 A 
ATOM     80  F   UNL     1      -7.590  -2.928  12.143  1.00  0.00    -0.206 F 
ATOM     81  C   UNL     1      -9.235  -6.111  12.631  1.00  0.00     0.060 A 
BRANCH  81  82
ATOM     82  S   UNL     1      -8.833  -7.869  12.733  1.00  0.00     0.124 S 
ATOM     83  O   UNL     1      -8.986  -8.123  14.161  1.00  0.00    -0.237 OA
ATOM     84  O   UNL     1      -9.843  -8.467  11.866  1.00  0.00    -0.237 OA
ATOM     85  O   UNL     1      -7.467  -7.929  12.223  1.00  0.00    -0.744 OA
ENDBRANCH  81  82
ENDBRANCH  49  74
BRANCH  61  86
ATOM     86  C   UNL     1     -12.304   1.419  16.839  1.00  0.00     0.058 A 
ATOM     87  C   UNL     1     -11.343   1.371  17.859  1.00  0.00     0.135 A 
ATOM     88  C   UNL     1     -13.658   1.475  17.207  1.00  0.00     0.135 A 
ATOM     89  F   UNL     1     -10.037   1.311  17.555  1.00  0.00    -0.206 F 
ATOM     90  C   UNL     1     -11.712   1.364  19.200  1.00  0.00     0.059 A 
ATOM     91  C   UNL     1     -14.048   1.491  18.541  1.00  0.00     0.059 A 
ATOM     92  F   UNL     1     -14.613   1.533  16.266  1.00  0.00    -0.206 F 
ATOM     93  C   UNL     1     -13.067   1.425  19.531  1.00  0.00     0.060 A 
BRANCH  93  94
ATOM     94  S   UNL     1     -13.534   1.459  21.274  1.00  0.00     0.124 S 
ATOM     95  O   UNL     1     -13.374   0.058  21.647  1.00  0.00    -0.237 OA
ATOM     96  O   UNL     1     -12.557   2.382  21.844  1.00  0.00    -0.237 OA
ATOM     97  O   UNL     1     -14.908   1.951  21.247  1.00  0.00    -0.744 OA
ENDBRANCH  93  94
ENDBRANCH  61  86
ENDBRANCH  35  36
ENDBRANCH  27  30
ENDBRANCH  25  26
ENDBRANCH   1  25
TORSDOF 17
