REMARK SMILES Cc1cc(NC(=O)/C=C/c2ccco2)cc(C(=O)NCCCCNC(=O)c2ccc(-c3c4nc(c(-c5c(F)cc(S(=O)(=O)[O-])cc5F)c5ccc([nH]5)c(-c5c(F)cc(S(=O)(=O)[O-])cc5F)c5nc(c(-c6c(F)cc(S(=O)(=O)[O-])cc6F)c6ccc3[nH]6)C=C5)C=C4)cc2)c1O
REMARK SMILES IDX 21 1 20 2 19 3 17 4 18 5 16 7 1 8 2 9 3 10 93 11 4 12 15 13
REMARK SMILES IDX 94 14 5 16 6 17 7 19 8 20 9 21 10 22 11 23 14 24 12 25 13 26
REMARK SMILES IDX 22 27 23 28 24 29 25 30 26 32 27 33 28 34 92 35 29 36 91 37
REMARK SMILES IDX 30 38 31 39 32 40 85 41 33 42 90 43 84 44 86 45 34 46 89 47
REMARK SMILES IDX 83 48 82 49 35 51 69 52 48 53 68 54 49 55 52 56 67 57 87 58
REMARK SMILES IDX 50 59 51 60 66 62 88 63 53 64 36 65 37 66 46 67 38 68 39 69
REMARK SMILES IDX 45 70 47 71 40 72 41 73 42 74 43 75 44 76 70 77 71 78 80 79
REMARK SMILES IDX 72 80 73 81 79 82 81 83 74 84 75 85 76 86 77 87 78 88 54 89
REMARK SMILES IDX 55 90 64 91 56 92 57 93 63 94 65 95 58 96 59 97 60 98 61 99
REMARK SMILES IDX 62 100
REMARK H PARENT 19 6 94 15 5 18 24 31 86 50 52 61
REMARK Flexibility Score: inf
ROOT
ATOM      1  C   UNL     1       3.382   3.817  -2.601  1.00  0.00     0.023 C 
ENDROOT
BRANCH   1   2
ATOM      2  C   UNL     1       2.699   3.211  -1.377  1.00  0.00     0.116 C 
BRANCH   2   3
ATOM      3  N   UNL     1       1.316   3.578  -1.120  1.00  0.00    -0.352 N 
ATOM      4  C   UNL     1       0.298   2.859  -0.501  1.00  0.00     0.255 C 
ATOM      5  O   UNL     1      -0.722   3.468  -0.176  1.00  0.00    -0.269 OA
ATOM      6  H   UNL     1       1.060   4.475  -1.433  1.00  0.00     0.163 HD
BRANCH   4   7
ATOM      7  C   UNL     1       0.397   1.384  -0.228  1.00  0.00     0.083 A 
ATOM      8  C   UNL     1      -1.745  -1.790  -0.408  1.00  0.00     0.048 C 
ATOM      9  C   UNL     1      -0.577  -0.859  -0.239  1.00  0.00    -0.006 A 
ATOM     10  C   UNL     1       0.676  -1.389   0.103  1.00  0.00     0.033 A 
ATOM     11  C   UNL     1      -0.699   0.530  -0.423  1.00  0.00     0.131 A 
ATOM     12  C   UNL     1       1.772  -0.559   0.350  1.00  0.00     0.042 A 
ATOM     13  C   UNL     1       1.587   0.823   0.255  1.00  0.00     0.044 A 
BRANCH  11  14
ATOM     14  O   UNL     1      -1.899   1.027  -0.851  1.00  0.00    -0.507 OA
ATOM     15  H   UNL     1      -2.626   0.450  -0.979  1.00  0.00     0.293 HD
ENDBRANCH  11  14
BRANCH  12  16
ATOM     16  N   UNL     1       3.018  -1.193   0.560  1.00  0.00    -0.322 N 
ATOM     17  C   UNL     1       4.233  -0.729   0.996  1.00  0.00     0.248 C 
ATOM     18  H   UNL     1       3.013  -2.155   0.353  1.00  0.00     0.170 HD
ATOM     19  O   UNL     1       5.264  -1.362   0.797  1.00  0.00    -0.270 OA
BRANCH  17  20
ATOM     20  C   UNL     1       4.227   0.482   1.824  1.00  0.00     0.075 C 
ATOM     21  C   UNL     1       4.730   1.628   1.348  1.00  0.00     0.053 C 
BRANCH  21  22
ATOM     22  C   UNL     1       4.288   2.841   1.948  1.00  0.00     0.126 A 
ATOM     23  C   UNL     1       4.786   4.129   1.826  1.00  0.00     0.050 A 
ATOM     24  O   UNL     1       3.106   2.926   2.658  1.00  0.00    -0.465 OA
ATOM     25  C   UNL     1       3.838   5.017   2.394  1.00  0.00     0.042 A 
ATOM     26  C   UNL     1       2.835   4.229   2.893  1.00  0.00     0.195 A 
ENDBRANCH  21  22
ENDBRANCH  17  20
ENDBRANCH  12  16
ENDBRANCH   4   7
ENDBRANCH   2   3
ENDBRANCH   1   2
BRANCH   1  27
ATOM     27  C   UNL     1       3.757   5.302  -2.587  1.00  0.00     0.023 C 
BRANCH  27  28
ATOM     28  C   UNL     1       4.678   5.834  -1.483  1.00  0.00     0.116 C 
BRANCH  28  29
ATOM     29  N   UNL     1       5.949   5.142  -1.317  1.00  0.00    -0.352 N 
ATOM     30  C   UNL     1       7.119   5.623  -0.756  1.00  0.00     0.251 C 
ATOM     31  H   UNL     1       5.980   4.215  -1.645  1.00  0.00     0.163 HD
ATOM     32  O   UNL     1       8.094   4.883  -0.643  1.00  0.00    -0.269 OA
BRANCH  30  33
ATOM     33  C   UNL     1       7.218   7.041  -0.328  1.00  0.00     0.039 A 
ATOM     34  C   UNL     1       8.238   7.833  -0.863  1.00  0.00     0.014 A 
ATOM     35  C   UNL     1       6.290   7.608   0.548  1.00  0.00     0.014 A 
ATOM     36  C   UNL     1       8.242   9.213  -0.630  1.00  0.00     0.010 A 
ATOM     37  C   UNL     1       6.271   8.990   0.752  1.00  0.00     0.010 A 
ATOM     38  C   UNL     1       7.215   9.812   0.121  1.00  0.00    -0.014 A 
BRANCH  38  39
ATOM     39  C   UNL     1       7.023  11.289   0.104  1.00  0.00     0.031 A 
ATOM     40  C   UNL     1       7.185  12.128   1.339  1.00  0.00     0.074 A 
ATOM     41  C   UNL     1       6.607  11.866  -1.043  1.00  0.00     0.049 A 
ATOM     42  N   UNL     1       7.030  13.420   1.479  1.00  0.00    -0.248 NA
ATOM     43  C   UNL     1       7.547  11.427   2.579  1.00  0.00     0.031 C 
ATOM     44  C   UNL     1       6.340  11.153  -2.296  1.00  0.00     0.029 A 
ATOM     45  N   UNL     1       6.326  13.176  -1.345  1.00  0.00    -0.354 N 
ATOM     46  C   UNL     1       7.277  13.694   2.819  1.00  0.00     0.074 A 
ATOM     47  C   UNL     1       7.550  12.422   3.458  1.00  0.00     0.031 C 
ATOM     48  C   UNL     1       5.960  12.034  -3.233  1.00  0.00     0.029 A 
ATOM     49  C   UNL     1       5.924  13.369  -2.646  1.00  0.00     0.049 A 
ATOM     50  H   UNL     1       6.406  13.908  -0.691  1.00  0.00     0.167 HD
ATOM     51  C   UNL     1       7.292  14.893   3.452  1.00  0.00     0.037 A 
ATOM     52  C   UNL     1       5.564  14.491  -3.299  1.00  0.00     0.037 A 
ATOM     53  C   UNL     1       7.023  16.157   2.812  1.00  0.00     0.049 A 
ATOM     54  C   UNL     1       5.596  15.809  -2.578  1.00  0.00     0.074 A 
ATOM     55  C   UNL     1       7.072  17.427   3.363  1.00  0.00     0.029 A 
ATOM     56  N   UNL     1       6.647  16.316   1.486  1.00  0.00    -0.354 N 
ATOM     57  N   UNL     1       5.918  16.056  -1.331  1.00  0.00    -0.248 NA
ATOM     58  C   UNL     1       5.227  17.002  -3.353  1.00  0.00     0.031 C 
ATOM     59  C   UNL     1       6.688  18.349   2.382  1.00  0.00     0.029 A 
ATOM     60  C   UNL     1       6.443  17.658   1.207  1.00  0.00     0.049 A 
ATOM     61  H   UNL     1       6.540  15.582   0.839  1.00  0.00     0.167 HD
ATOM     62  C   UNL     1       5.819  17.434  -1.180  1.00  0.00     0.074 A 
ATOM     63  C   UNL     1       5.412  17.969  -2.463  1.00  0.00     0.031 C 
ATOM     64  C   UNL     1       6.049  18.186  -0.076  1.00  0.00     0.037 A 
BRANCH  51  65
ATOM     65  C   UNL     1       7.619  14.901   4.920  1.00  0.00     0.058 A 
ATOM     66  C   UNL     1       8.920  14.647   5.382  1.00  0.00     0.135 A 
ATOM     67  C   UNL     1       6.635  15.212   5.874  1.00  0.00     0.135 A 
ATOM     68  F   UNL     1       9.897  14.338   4.514  1.00  0.00    -0.206 F 
ATOM     69  C   UNL     1       9.228  14.667   6.738  1.00  0.00     0.059 A 
ATOM     70  C   UNL     1       6.926  15.263   7.234  1.00  0.00     0.059 A 
ATOM     71  F   UNL     1       5.376  15.471   5.487  1.00  0.00    -0.206 F 
ATOM     72  C   UNL     1       8.223  14.972   7.658  1.00  0.00     0.060 A 
BRANCH  72  73
ATOM     73  S   UNL     1       8.636  14.985   9.415  1.00  0.00     0.124 S 
ATOM     74  O   UNL     1       8.736  13.557   9.699  1.00  0.00    -0.237 OA
ATOM     75  O   UNL     1       9.894  15.724   9.437  1.00  0.00    -0.237 OA
ATOM     76  O   UNL     1       7.500  15.668  10.026  1.00  0.00    -0.744 OA
ENDBRANCH  72  73
ENDBRANCH  51  65
BRANCH  52  77
ATOM     77  C   UNL     1       5.174  14.417  -4.732  1.00  0.00     0.058 A 
ATOM     78  C   UNL     1       6.022  14.908  -5.734  1.00  0.00     0.135 A 
ATOM     79  C   UNL     1       3.961  13.832  -5.127  1.00  0.00     0.135 A 
ATOM     80  F   UNL     1       7.191  15.479  -5.403  1.00  0.00    -0.206 F 
ATOM     81  C   UNL     1       5.678  14.836  -7.080  1.00  0.00     0.059 A 
ATOM     82  C   UNL     1       3.604  13.727  -6.468  1.00  0.00     0.059 A 
ATOM     83  F   UNL     1       3.125  13.329  -4.206  1.00  0.00    -0.206 F 
ATOM     84  C   UNL     1       4.466  14.241  -7.436  1.00  0.00     0.060 A 
BRANCH  84  85
ATOM     85  S   UNL     1       4.052  14.102  -9.189  1.00  0.00     0.124 S 
ATOM     86  O   UNL     1       3.675  15.473  -9.511  1.00  0.00    -0.237 OA
ATOM     87  O   UNL     1       5.308  13.631  -9.765  1.00  0.00    -0.237 OA
ATOM     88  O   UNL     1       2.965  13.128  -9.198  1.00  0.00    -0.744 OA
ENDBRANCH  84  85
ENDBRANCH  52  77
BRANCH  64  89
ATOM     89  C   UNL     1       5.905  19.677  -0.208  1.00  0.00     0.058 A 
ATOM     90  C   UNL     1       4.647  20.294  -0.292  1.00  0.00     0.135 A 
ATOM     91  C   UNL     1       7.041  20.503  -0.191  1.00  0.00     0.135 A 
ATOM     92  F   UNL     1       3.531  19.549  -0.323  1.00  0.00    -0.206 F 
ATOM     93  C   UNL     1       4.520  21.678  -0.368  1.00  0.00     0.059 A 
ATOM     94  C   UNL     1       6.936  21.890  -0.242  1.00  0.00     0.059 A 
ATOM     95  F   UNL     1       8.267  19.965  -0.106  1.00  0.00    -0.206 F 
ATOM     96  C   UNL     1       5.671  22.468  -0.339  1.00  0.00     0.060 A 
BRANCH  96  97
ATOM     97  S   UNL     1       5.492  24.265  -0.387  1.00  0.00     0.124 S 
ATOM     98  O   UNL     1       5.169  24.490  -1.792  1.00  0.00    -0.237 OA
ATOM     99  O   UNL     1       4.404  24.497   0.558  1.00  0.00    -0.237 OA
ATOM    100  O   UNL     1       6.801  24.748   0.043  1.00  0.00    -0.744 OA
ENDBRANCH  96  97
ENDBRANCH  64  89
ENDBRANCH  38  39
ENDBRANCH  30  33
ENDBRANCH  28  29
ENDBRANCH  27  28
ENDBRANCH   1  27
TORSDOF 18
