REMARK SMILES COc1ccc(CCN2C(=O)C[C@@H](C(=O)NCCCCNC(=O)c3ccc(-c4c5nc(c(-c6c(F)cc(S(=O)(=O)[O-])cc6F)c6ccc([nH]6)c(-c6c(F)cc(S(=O)(=O)[O-])cc6F)c6nc(c(-c7c(F)cc(S(=O)(=O)[O-])cc7F)c7ccc4[nH]7)C=C6)C=C5)cc3)S/C2=[NH+]\c2ccc(F)cc2)cc1OC
REMARK SMILES IDX 18 1 17 2 16 3 14 4 15 5 13 7 9 8 10 9 91 10 11 11 12 12
REMARK SMILES IDX 90 13 92 14 8 16 7 17 6 18 3 19 4 20 101 21 5 22 100 23 2 24
REMARK SMILES IDX 1 25 102 26 103 27 93 28 94 29 99 30 95 31 98 32 96 33 97 34
REMARK SMILES IDX 19 35 20 36 21 37 22 38 23 40 24 41 25 42 89 43 26 44 88 45
REMARK SMILES IDX 27 46 28 47 29 48 82 49 30 50 87 51 81 52 83 53 31 54 86 55
REMARK SMILES IDX 80 56 79 57 32 59 66 60 45 61 65 62 46 63 49 64 64 65 84 66
REMARK SMILES IDX 47 67 48 68 63 70 85 71 50 72 33 73 34 74 43 75 35 76 36 77
REMARK SMILES IDX 42 78 44 79 37 80 38 81 39 82 40 83 41 84 67 85 68 86 77 87
REMARK SMILES IDX 69 88 70 89 76 90 78 91 71 92 72 93 73 94 74 95 75 96 51 97
REMARK SMILES IDX 52 98 61 99 53 100 54 101 60 102 62 103 55 104 56 105 57 106
REMARK SMILES IDX 58 107 59 108
REMARK H PARENT 16 6 92 15 21 39 83 58 49 69
REMARK Flexibility Score: inf
ROOT
ATOM      1  C   UNL     1      -0.752  -4.524 -11.368  1.00  0.00     0.023 C 
ENDROOT
BRANCH   1   2
ATOM      2  C   UNL     1      -1.329  -3.266 -10.726  1.00  0.00     0.116 C 
BRANCH   2   3
ATOM      3  N   UNL     1      -2.755  -3.366 -10.469  1.00  0.00    -0.355 N 
ATOM      4  C   UNL     1      -3.457  -3.296  -9.301  1.00  0.00     0.234 C 
ATOM      5  O   UNL     1      -4.686  -3.384  -9.363  1.00  0.00    -0.274 OA
ATOM      6  H   UNL     1      -3.308  -3.507 -11.272  1.00  0.00     0.163 HD
BRANCH   4   7
ATOM      7  C   UNL     1      -2.763  -3.096  -7.950  1.00  0.00     0.160 C 
ATOM      8  N   UNL     1       0.051  -2.718  -6.949  1.00  0.00    -0.191 N 
ATOM      9  C   UNL     1      -0.594  -1.721  -7.678  1.00  0.00     0.311 C 
ATOM     10  C   UNL     1      -0.422  -4.016  -6.708  1.00  0.00     0.319 C 
ATOM     11  O   UNL     1       0.012  -0.759  -8.161  1.00  0.00    -0.247 OA
ATOM     12  C   UNL     1      -2.087  -1.757  -7.845  1.00  0.00     0.153 C 
ATOM     13  S   UNL     1      -1.832  -4.562  -7.571  1.00  0.00    -0.024 SA
ATOM     14  N   UNL     1       0.254  -4.818  -5.938  1.00  0.00    -0.235 N 
ATOM     15  H   UNL     1       1.059  -4.487  -5.479  1.00  0.00     0.313 HD
BRANCH   8  16
ATOM     16  C   UNL     1       1.488  -2.482  -6.693  1.00  0.00     0.251 C 
BRANCH  16  17
ATOM     17  C   UNL     1       1.890  -1.205  -5.926  1.00  0.00     0.082 C 
BRANCH  17  18
ATOM     18  C   UNL     1       1.648  -1.201  -4.435  1.00  0.00    -0.040 A 
ATOM     19  C   UNL     1       1.263  -1.049  -1.647  1.00  0.00     0.160 A 
ATOM     20  C   UNL     1       0.190  -1.329  -2.505  1.00  0.00     0.051 A 
ATOM     21  C   UNL     1       2.542  -0.846  -2.173  1.00  0.00     0.160 A 
ATOM     22  C   UNL     1       0.378  -1.388  -3.889  1.00  0.00     0.008 A 
ATOM     23  C   UNL     1       2.715  -0.922  -3.563  1.00  0.00     0.054 A 
BRANCH  19  24
ATOM     24  O   UNL     1       1.050  -1.069  -0.294  1.00  0.00    -0.493 OA
ATOM     25  C   UNL     1       0.178  -0.022   0.131  1.00  0.00     0.278 C 
ENDBRANCH  19  24
BRANCH  21  26
ATOM     26  O   UNL     1       3.707  -0.573  -1.508  1.00  0.00    -0.493 OA
ATOM     27  C   UNL     1       3.635  -0.234  -0.132  1.00  0.00     0.278 C 
ENDBRANCH  21  26
ENDBRANCH  17  18
ENDBRANCH  16  17
ENDBRANCH   8  16
BRANCH  14  28
ATOM     28  C   UNL     1      -0.154  -6.151  -5.754  1.00  0.00     0.125 A 
ATOM     29  C   UNL     1      -0.909  -6.498  -4.628  1.00  0.00     0.055 A 
ATOM     30  C   UNL     1       0.153  -7.136  -6.705  1.00  0.00     0.055 A 
ATOM     31  C   UNL     1      -1.409  -7.793  -4.488  1.00  0.00     0.043 A 
ATOM     32  C   UNL     1      -0.356  -8.430  -6.571  1.00  0.00     0.043 A 
ATOM     33  C   UNL     1      -1.140  -8.743  -5.468  1.00  0.00     0.123 A 
ATOM     34  F   UNL     1      -1.648  -9.976  -5.347  1.00  0.00    -0.207 F 
ENDBRANCH  14  28
ENDBRANCH   4   7
ENDBRANCH   2   3
ENDBRANCH   1   2
BRANCH   1  35
ATOM     35  C   UNL     1      -1.315  -4.860 -12.748  1.00  0.00     0.023 C 
BRANCH  35  36
ATOM     36  C   UNL     1      -1.276  -3.723 -13.762  1.00  0.00     0.116 C 
BRANCH  36  37
ATOM     37  N   UNL     1       0.069  -3.239 -14.029  1.00  0.00    -0.352 N 
ATOM     38  C   UNL     1       0.650  -2.942 -15.244  1.00  0.00     0.251 C 
ATOM     39  H   UNL     1       0.640  -3.105 -13.238  1.00  0.00     0.163 HD
ATOM     40  O   UNL     1       1.835  -2.659 -15.309  1.00  0.00    -0.269 OA
BRANCH  38  41
ATOM     41  C   UNL     1      -0.177  -3.014 -16.469  1.00  0.00     0.039 A 
ATOM     42  C   UNL     1       0.292  -3.750 -17.559  1.00  0.00     0.014 A 
ATOM     43  C   UNL     1      -1.433  -2.402 -16.517  1.00  0.00     0.014 A 
ATOM     44  C   UNL     1      -0.533  -3.939 -18.669  1.00  0.00     0.010 A 
ATOM     45  C   UNL     1      -2.281  -2.654 -17.591  1.00  0.00     0.010 A 
ATOM     46  C   UNL     1      -1.843  -3.428 -18.676  1.00  0.00    -0.014 A 
BRANCH  46  47
ATOM     47  C   UNL     1      -2.774  -3.700 -19.802  1.00  0.00     0.031 A 
ATOM     48  C   UNL     1      -3.301  -2.563 -20.634  1.00  0.00     0.074 A 
ATOM     49  C   UNL     1      -3.203  -4.958 -20.026  1.00  0.00     0.049 A 
ATOM     50  N   UNL     1      -4.186  -2.586 -21.597  1.00  0.00    -0.248 NA
ATOM     51  C   UNL     1      -2.789  -1.219 -20.321  1.00  0.00     0.031 C 
ATOM     52  C   UNL     1      -2.806  -6.139 -19.255  1.00  0.00     0.029 A 
ATOM     53  N   UNL     1      -4.079  -5.454 -20.959  1.00  0.00    -0.354 N 
ATOM     54  C   UNL     1      -4.348  -1.263 -21.994  1.00  0.00     0.074 A 
ATOM     55  C   UNL     1      -3.511  -0.458 -21.131  1.00  0.00     0.031 C 
ATOM     56  C   UNL     1      -3.421  -7.222 -19.758  1.00  0.00     0.029 A 
ATOM     57  C   UNL     1      -4.285  -6.811 -20.860  1.00  0.00     0.049 A 
ATOM     58  H   UNL     1      -4.520  -4.891 -21.636  1.00  0.00     0.167 HD
ATOM     59  C   UNL     1      -5.105  -0.767 -23.001  1.00  0.00     0.037 A 
ATOM     60  C   UNL     1      -5.086  -7.630 -21.570  1.00  0.00     0.037 A 
ATOM     61  C   UNL     1      -5.914  -1.577 -23.874  1.00  0.00     0.049 A 
ATOM     62  C   UNL     1      -5.915  -7.057 -22.687  1.00  0.00     0.074 A 
ATOM     63  C   UNL     1      -6.670  -1.177 -24.962  1.00  0.00     0.029 A 
ATOM     64  N   UNL     1      -6.072  -2.951 -23.761  1.00  0.00    -0.354 N 
ATOM     65  N   UNL     1      -6.006  -5.811 -23.090  1.00  0.00    -0.248 NA
ATOM     66  C   UNL     1      -6.745  -7.998 -23.451  1.00  0.00     0.031 C 
ATOM     67  C   UNL     1      -7.319  -2.303 -25.481  1.00  0.00     0.029 A 
ATOM     68  C   UNL     1      -6.929  -3.412 -24.747  1.00  0.00     0.049 A 
ATOM     69  H   UNL     1      -5.640  -3.515 -23.079  1.00  0.00     0.167 HD
ATOM     70  C   UNL     1      -6.881  -5.825 -24.171  1.00  0.00     0.074 A 
ATOM     71  C   UNL     1      -7.284  -7.202 -24.365  1.00  0.00     0.031 C 
ATOM     72  C   UNL     1      -7.312  -4.789 -24.933  1.00  0.00     0.037 A 
BRANCH  59  73
ATOM     73  C   UNL     1      -5.088   0.721 -23.217  1.00  0.00     0.058 A 
ATOM     74  C   UNL     1      -3.953   1.379 -23.718  1.00  0.00     0.135 A 
ATOM     75  C   UNL     1      -6.228   1.496 -22.951  1.00  0.00     0.135 A 
ATOM     76  F   UNL     1      -2.830   0.690 -23.975  1.00  0.00    -0.206 F 
ATOM     77  C   UNL     1      -3.937   2.756 -23.915  1.00  0.00     0.059 A 
ATOM     78  C   UNL     1      -6.245   2.871 -23.169  1.00  0.00     0.059 A 
ATOM     79  F   UNL     1      -7.341   0.919 -22.471  1.00  0.00    -0.206 F 
ATOM     80  C   UNL     1      -5.089   3.494 -23.637  1.00  0.00     0.060 A 
BRANCH  80  81
ATOM     81  S   UNL     1      -5.052   5.279 -23.901  1.00  0.00     0.124 S 
ATOM     82  O   UNL     1      -4.228   5.721 -22.780  1.00  0.00    -0.237 OA
ATOM     83  O   UNL     1      -4.438   5.387 -25.220  1.00  0.00    -0.237 OA
ATOM     84  O   UNL     1      -6.459   5.662 -23.834  1.00  0.00    -0.744 OA
ENDBRANCH  80  81
ENDBRANCH  59  73
BRANCH  60  85
ATOM     85  C   UNL     1      -5.126  -9.084 -21.258  1.00  0.00     0.058 A 
ATOM     86  C   UNL     1      -4.566 -10.025 -22.135  1.00  0.00     0.135 A 
ATOM     87  C   UNL     1      -5.710  -9.561 -20.075  1.00  0.00     0.135 A 
ATOM     88  F   UNL     1      -4.002  -9.619 -23.283  1.00  0.00    -0.206 F 
ATOM     89  C   UNL     1      -4.598 -11.388 -21.860  1.00  0.00     0.059 A 
ATOM     90  C   UNL     1      -5.732 -10.918 -19.765  1.00  0.00     0.059 A 
ATOM     91  F   UNL     1      -6.245  -8.701 -19.194  1.00  0.00    -0.206 F 
ATOM     92  C   UNL     1      -5.182 -11.825 -20.669  1.00  0.00     0.060 A 
BRANCH  92  93
ATOM     93  S   UNL     1      -5.173 -13.592 -20.298  1.00  0.00     0.124 S 
ATOM     94  O   UNL     1      -6.186 -14.091 -21.221  1.00  0.00    -0.237 OA
ATOM     95  O   UNL     1      -3.794 -13.963 -20.602  1.00  0.00    -0.237 OA
ATOM     96  O   UNL     1      -5.529 -13.639 -18.883  1.00  0.00    -0.744 OA
ENDBRANCH  92  93
ENDBRANCH  60  85
BRANCH  72  97
ATOM     97  C   UNL     1      -8.240  -5.106 -26.073  1.00  0.00     0.058 A 
ATOM     98  C   UNL     1      -9.583  -5.451 -25.858  1.00  0.00     0.135 A 
ATOM     99  C   UNL     1      -7.793  -5.002 -27.401  1.00  0.00     0.135 A 
ATOM    100  F   UNL     1     -10.058  -5.570 -24.608  1.00  0.00    -0.206 F 
ATOM    101  C   UNL     1     -10.447  -5.702 -26.919  1.00  0.00     0.059 A 
ATOM    102  C   UNL     1      -8.646  -5.222 -28.478  1.00  0.00     0.059 A 
ATOM    103  F   UNL     1      -6.520  -4.665 -27.662  1.00  0.00    -0.206 F 
ATOM    104  C   UNL     1      -9.969  -5.582 -28.226  1.00  0.00     0.060 A 
BRANCH 104 105
ATOM    105  S   UNL     1     -11.111  -5.869 -29.595  1.00  0.00     0.124 S 
ATOM    106  O   UNL     1     -11.244  -7.322 -29.567  1.00  0.00    -0.237 OA
ATOM    107  O   UNL     1     -12.291  -5.116 -29.181  1.00  0.00    -0.237 OA
ATOM    108  O   UNL     1     -10.402  -5.325 -30.749  1.00  0.00    -0.744 OA
ENDBRANCH 104 105
ENDBRANCH  72  97
ENDBRANCH  46  47
ENDBRANCH  38  41
ENDBRANCH  36  37
ENDBRANCH  35  36
ENDBRANCH   1  35
TORSDOF 20
