REMARK SMILES Cc1ccc(C[N@H+]2CCC[C@@H](C(=O)NCCCCNC(=O)c3ccc(-c4c5nc(c(-c6c(F)cc(S(=O)(=O)[O-])cc6F)c6ccc([nH]6)c(-c6c(F)cc(S(=O)(=O)[O-])cc6F)c6nc(c(-c7c(F)cc(S(=O)(=O)[O-])cc7F)c7ccc4[nH]7)C=C6)C=C5)cc3)C2)o1
REMARK SMILES IDX 17 1 16 2 15 3 14 4 12 5 13 6 11 8 7 9 8 10 88 11 9 13 10 14
REMARK SMILES IDX 6 15 5 16 1 17 2 18 3 19 89 20 4 21 18 22 19 23 20 24 21 26
REMARK SMILES IDX 22 27 23 28 87 29 24 30 86 31 25 32 26 33 27 34 80 35 28 36
REMARK SMILES IDX 85 37 79 38 81 39 29 40 84 41 78 42 77 43 30 45 64 46 43 47
REMARK SMILES IDX 63 48 44 49 47 50 62 51 82 52 45 53 46 54 61 56 83 57 48 58
REMARK SMILES IDX 31 59 32 60 41 61 33 62 34 63 40 64 42 65 35 66 36 67 37 68
REMARK SMILES IDX 38 69 39 70 65 71 66 72 75 73 67 74 68 75 74 76 76 77 69 78
REMARK SMILES IDX 70 79 71 80 72 81 73 82 49 83 50 84 59 85 51 86 52 87 58 88
REMARK SMILES IDX 60 89 53 90 54 91 55 92 56 93 57 94
REMARK H PARENT 14 7 7 12 19 25 81 44 47 55
REMARK Flexibility Score: inf
ROOT
ATOM      1  C   UNL     1       0.545   8.878   3.926  1.00  0.00     0.023 C 
ENDROOT
BRANCH   1   2
ATOM      2  C   UNL     1      -0.686   7.977   3.794  1.00  0.00     0.023 C 
BRANCH   2   3
ATOM      3  C   UNL     1      -0.771   7.209   2.478  1.00  0.00     0.116 C 
BRANCH   3   4
ATOM      4  N   UNL     1       0.323   6.266   2.348  1.00  0.00    -0.356 N 
ATOM      5  C   UNL     1       0.319   4.906   2.346  1.00  0.00     0.228 C 
ATOM      6  O   UNL     1       1.405   4.326   2.309  1.00  0.00    -0.275 OA
ATOM      7  H   UNL     1       1.212   6.677   2.244  1.00  0.00     0.163 HD
BRANCH   5   8
ATOM      8  C   UNL     1      -0.995   4.146   2.383  1.00  0.00     0.133 C 
ATOM      9  N   UNL     1      -2.253   2.368   1.213  1.00  0.00    -0.328 N 
ATOM     10  C   UNL     1      -2.413   1.609   2.461  1.00  0.00     0.262 C 
ATOM     11  C   UNL     1      -1.000   3.145   1.225  1.00  0.00     0.276 C 
ATOM     12  H   UNL     1      -3.033   3.023   1.165  1.00  0.00     0.348 HD
ATOM     13  C   UNL     1      -2.406   2.538   3.681  1.00  0.00     0.062 C 
ATOM     14  C   UNL     1      -1.156   3.415   3.717  1.00  0.00     0.025 C 
BRANCH   9  15
ATOM     15  C   UNL     1      -2.357   1.518   0.007  1.00  0.00     0.338 C 
BRANCH  15  16
ATOM     16  C   UNL     1      -1.370   0.402  -0.086  1.00  0.00     0.158 A 
ATOM     17  C   UNL     1       2.139  -0.199  -0.217  1.00  0.00     0.087 C 
ATOM     18  C   UNL     1       0.676  -0.386  -0.189  1.00  0.00     0.101 A 
ATOM     19  C   UNL     1      -0.153  -1.479  -0.065  1.00  0.00     0.046 A 
ATOM     20  O   UNL     1      -0.064   0.751  -0.264  1.00  0.00    -0.460 OA
ATOM     21  C   UNL     1      -1.475  -0.971  -0.005  1.00  0.00     0.052 A 
ENDBRANCH  15  16
ENDBRANCH   9  15
ENDBRANCH   5   8
ENDBRANCH   3   4
ENDBRANCH   2   3
ENDBRANCH   1   2
BRANCH   1  22
ATOM     22  C   UNL     1       0.751   9.873   2.788  1.00  0.00     0.116 C 
BRANCH  22  23
ATOM     23  N   UNL     1      -0.386  10.761   2.600  1.00  0.00    -0.352 N 
ATOM     24  C   UNL     1      -0.399  12.123   2.422  1.00  0.00     0.251 C 
ATOM     25  H   UNL     1      -1.269  10.326   2.601  1.00  0.00     0.163 HD
ATOM     26  O   UNL     1      -1.468  12.729   2.413  1.00  0.00    -0.269 OA
BRANCH  24  27
ATOM     27  C   UNL     1       0.875  12.858   2.276  1.00  0.00     0.039 A 
ATOM     28  C   UNL     1       1.078  14.014   3.034  1.00  0.00     0.014 A 
ATOM     29  C   UNL     1       1.874  12.398   1.413  1.00  0.00     0.014 A 
ATOM     30  C   UNL     1       2.310  14.670   2.979  1.00  0.00     0.010 A 
ATOM     31  C   UNL     1       3.123  13.014   1.410  1.00  0.00     0.010 A 
ATOM     32  C   UNL     1       3.356  14.153   2.196  1.00  0.00    -0.014 A 
BRANCH  32  33
ATOM     33  C   UNL     1       4.702  14.782   2.197  1.00  0.00     0.031 A 
ATOM     34  C   UNL     1       5.256  15.387   0.935  1.00  0.00     0.074 A 
ATOM     35  C   UNL     1       5.453  14.746   3.317  1.00  0.00     0.049 A 
ATOM     36  N   UNL     1       6.437  15.907   0.719  1.00  0.00    -0.248 NA
ATOM     37  C   UNL     1       4.378  15.384  -0.246  1.00  0.00     0.031 C 
ATOM     38  C   UNL     1       5.048  14.143   4.589  1.00  0.00     0.029 A 
ATOM     39  N   UNL     1       6.720  15.214   3.563  1.00  0.00    -0.354 N 
ATOM     40  C   UNL     1       6.450  16.276  -0.621  1.00  0.00     0.074 A 
ATOM     41  C   UNL     1       5.176  15.881  -1.181  1.00  0.00     0.031 C 
ATOM     42  C   UNL     1       6.039  14.293   5.484  1.00  0.00     0.029 A 
ATOM     43  C   UNL     1       7.162  14.967   4.842  1.00  0.00     0.049 A 
ATOM     44  H   UNL     1       7.261  15.684   2.888  1.00  0.00     0.167 HD
ATOM     45  C   UNL     1       7.428  16.906  -1.315  1.00  0.00     0.037 A 
ATOM     46  C   UNL     1       8.344  15.242   5.429  1.00  0.00     0.037 A 
ATOM     47  C   UNL     1       8.680  17.329  -0.744  1.00  0.00     0.049 A 
ATOM     48  C   UNL     1       9.409  15.952   4.636  1.00  0.00     0.074 A 
ATOM     49  C   UNL     1       9.705  18.034  -1.350  1.00  0.00     0.029 A 
ATOM     50  N   UNL     1       9.077  17.090   0.563  1.00  0.00    -0.354 N 
ATOM     51  N   UNL     1       9.377  16.354   3.388  1.00  0.00    -0.248 NA
ATOM     52  C   UNL     1      10.668  16.252   5.332  1.00  0.00     0.031 C 
ATOM     53  C   UNL     1      10.740  18.187  -0.421  1.00  0.00     0.029 A 
ATOM     54  C   UNL     1      10.340  17.618   0.777  1.00  0.00     0.049 A 
ATOM     55  H   UNL     1       8.542  16.614   1.238  1.00  0.00     0.167 HD
ATOM     56  C   UNL     1      10.597  16.981   3.159  1.00  0.00     0.074 A 
ATOM     57  C   UNL     1      11.340  16.914   4.400  1.00  0.00     0.031 C 
ATOM     58  C   UNL     1      11.060  17.559   2.023  1.00  0.00     0.037 A 
BRANCH  45  59
ATOM     59  C   UNL     1       7.184  17.192  -2.771  1.00  0.00     0.058 A 
ATOM     60  C   UNL     1       6.276  18.180  -3.184  1.00  0.00     0.135 A 
ATOM     61  C   UNL     1       7.914  16.518  -3.763  1.00  0.00     0.135 A 
ATOM     62  F   UNL     1       5.540  18.843  -2.278  1.00  0.00    -0.206 F 
ATOM     63  C   UNL     1       6.089  18.478  -4.530  1.00  0.00     0.059 A 
ATOM     64  C   UNL     1       7.763  16.818  -5.114  1.00  0.00     0.059 A 
ATOM     65  F   UNL     1       8.794  15.563  -3.423  1.00  0.00    -0.206 F 
ATOM     66  C   UNL     1       6.840  17.795  -5.487  1.00  0.00     0.060 A 
BRANCH  66  67
ATOM     67  S   UNL     1       6.608  18.218  -7.227  1.00  0.00     0.124 S 
ATOM     68  O   UNL     1       5.301  17.627  -7.498  1.00  0.00    -0.237 OA
ATOM     69  O   UNL     1       6.650  19.677  -7.201  1.00  0.00    -0.237 OA
ATOM     70  O   UNL     1       7.738  17.573  -7.888  1.00  0.00    -0.744 OA
ENDBRANCH  66  67
ENDBRANCH  45  59
BRANCH  46  71
ATOM     71  C   UNL     1       8.585  14.860   6.846  1.00  0.00     0.058 A 
ATOM     72  C   UNL     1       8.689  15.835   7.849  1.00  0.00     0.135 A 
ATOM     73  C   UNL     1       8.730  13.516   7.224  1.00  0.00     0.135 A 
ATOM     74  F   UNL     1       8.563  17.134   7.537  1.00  0.00    -0.206 F 
ATOM     75  C   UNL     1       8.958  15.496   9.171  1.00  0.00     0.059 A 
ATOM     76  C   UNL     1       8.973  13.150   8.544  1.00  0.00     0.059 A 
ATOM     77  F   UNL     1       8.620  12.543   6.306  1.00  0.00    -0.206 F 
ATOM     78  C   UNL     1       9.101  14.149   9.509  1.00  0.00     0.060 A 
BRANCH  78  79
ATOM     79  S   UNL     1       9.428  13.716  11.231  1.00  0.00     0.124 S 
ATOM     80  O   UNL     1      10.831  14.088  11.366  1.00  0.00    -0.237 OA
ATOM     81  O   UNL     1       8.472  14.556  11.947  1.00  0.00    -0.237 OA
ATOM     82  O   UNL     1       9.146  12.284  11.275  1.00  0.00    -0.744 OA
ENDBRANCH  78  79
ENDBRANCH  46  71
BRANCH  58  83
ATOM     83  C   UNL     1      12.416  18.206   2.078  1.00  0.00     0.058 A 
ATOM     84  C   UNL     1      13.595  17.447   2.123  1.00  0.00     0.135 A 
ATOM     85  C   UNL     1      12.536  19.604   2.029  1.00  0.00     0.135 A 
ATOM     86  F   UNL     1      13.535  16.107   2.176  1.00  0.00    -0.206 F 
ATOM     87  C   UNL     1      14.847  18.052   2.140  1.00  0.00     0.059 A 
ATOM     88  C   UNL     1      13.778  20.230   2.019  1.00  0.00     0.059 A 
ATOM     89  F   UNL     1      11.439  20.376   1.975  1.00  0.00    -0.206 F 
ATOM     90  C   UNL     1      14.929  19.445   2.086  1.00  0.00     0.060 A 
BRANCH  90  91
ATOM     91  S   UNL     1      16.560  20.218   2.072  1.00  0.00     0.124 S 
ATOM     92  O   UNL     1      16.969  20.066   3.464  1.00  0.00    -0.237 OA
ATOM     93  O   UNL     1      17.286  19.401   1.105  1.00  0.00    -0.237 OA
ATOM     94  O   UNL     1      16.284  21.587   1.645  1.00  0.00    -0.744 OA
ENDBRANCH  90  91
ENDBRANCH  58  83
ENDBRANCH  32  33
ENDBRANCH  24  27
ENDBRANCH  22  23
ENDBRANCH   1  22
TORSDOF 16
