REMARK SMILES CC1(CNS(=O)(=O)Cc2ccc(C(=O)NCCCCNC(=O)c3ccc(-c4c5nc(c(-c6c(F)cc(S(=O)(=O)[O-])cc6F)c6ccc([nH]6)c(-c6c(F)cc(S(=O)(=O)[O-])cc6F)c6nc(c(-c7c(F)cc(S(=O)(=O)[O-])cc7F)c7ccc4[nH]7)C=C6)C=C5)cc3)cc2)COC1
REMARK SMILES IDX 16 1 15 2 13 3 14 4 12 6 9 7 10 8 90 9 11 10 89 11 8 12 5 13
REMARK SMILES IDX 6 14 7 15 4 16 3 18 2 19 1 20 91 21 93 22 92 23 17 24 18 25
REMARK SMILES IDX 19 26 20 27 21 28 22 30 23 31 24 32 88 33 25 34 87 35 26 36
REMARK SMILES IDX 27 37 28 38 81 39 29 40 86 41 80 42 82 43 30 44 85 45 79 46
REMARK SMILES IDX 78 47 31 49 65 50 44 51 64 52 45 53 48 54 63 55 83 56 46 57
REMARK SMILES IDX 47 58 62 60 84 61 49 62 32 63 33 64 42 65 34 66 35 67 41 68
REMARK SMILES IDX 43 69 36 70 37 71 38 72 39 73 40 74 66 75 67 76 76 77 68 78
REMARK SMILES IDX 69 79 75 80 77 81 70 82 71 83 72 84 73 85 74 86 50 87 51 88
REMARK SMILES IDX 60 89 52 90 53 91 59 92 61 93 54 94 55 95 56 96 57 97 58 98
REMARK H PARENT 15 5 4 17 20 29 82 48 48 59
REMARK Flexibility Score: inf
ROOT
ATOM      1  C   UNL     1       1.716   7.197  -3.717  1.00  0.00     0.116 C 
ENDROOT
BRANCH   1   2
ATOM      2  N   UNL     1       2.011   6.765  -2.366  1.00  0.00    -0.352 N 
ATOM      3  C   UNL     1       2.000   5.518  -1.795  1.00  0.00     0.251 C 
ATOM      4  O   UNL     1       2.323   5.415  -0.612  1.00  0.00    -0.269 OA
ATOM      5  H   UNL     1       2.263   7.492  -1.752  1.00  0.00     0.163 HD
BRANCH   3   6
ATOM      6  C   UNL     1       1.665   4.285  -2.559  1.00  0.00     0.039 A 
ATOM      7  C   UNL     1       1.128   1.857  -3.892  1.00  0.00    -0.032 A 
ATOM      8  C   UNL     1       2.030   1.895  -2.822  1.00  0.00     0.005 A 
ATOM      9  C   UNL     1       0.501   3.041  -4.288  1.00  0.00     0.005 A 
ATOM     10  C   UNL     1       2.291   3.097  -2.159  1.00  0.00     0.014 A 
ATOM     11  C   UNL     1       0.743   4.233  -3.606  1.00  0.00     0.014 A 
BRANCH   7  12
ATOM     12  C   UNL     1       0.795   0.565  -4.585  1.00  0.00     0.189 C 
BRANCH  12  13
ATOM     13  S   UNL     1      -0.782  -0.078  -3.987  1.00  0.00     0.215 S 
ATOM     14  O   UNL     1      -0.958  -1.417  -4.516  1.00  0.00    -0.212 OA
ATOM     15  O   UNL     1      -1.818   0.913  -4.154  1.00  0.00    -0.212 OA
BRANCH  13  16
ATOM     16  N   UNL     1      -0.549  -0.235  -2.323  1.00  0.00    -0.214 NA
ATOM     17  H   UNL     1      -0.089   0.615  -1.997  1.00  0.00     0.141 HD
BRANCH  16  18
ATOM     18  C   UNL     1       0.254  -1.378  -1.860  1.00  0.00     0.110 C 
BRANCH  18  19
ATOM     19  C   UNL     1       0.515  -1.350  -0.353  1.00  0.00     0.028 C 
ATOM     20  C   UNL     1       1.167  -0.076   0.163  1.00  0.00     0.018 C 
ATOM     21  C   UNL     1       1.235  -2.636   0.101  1.00  0.00     0.170 C 
ATOM     22  C   UNL     1      -0.644  -1.902   0.499  1.00  0.00     0.170 C 
ATOM     23  O   UNL     1      -0.022  -3.214   0.539  1.00  0.00    -0.380 OA
ENDBRANCH  18  19
ENDBRANCH  16  18
ENDBRANCH  13  16
ENDBRANCH  12  13
ENDBRANCH   7  12
ENDBRANCH   3   6
ENDBRANCH   1   2
BRANCH   1  24
ATOM     24  C   UNL     1       0.282   7.724  -3.807  1.00  0.00     0.023 C 
BRANCH  24  25
ATOM     25  C   UNL     1       0.107   9.147  -3.276  1.00  0.00     0.023 C 
BRANCH  25  26
ATOM     26  C   UNL     1       0.910  10.202  -4.023  1.00  0.00     0.116 C 
BRANCH  26  27
ATOM     27  N   UNL     1       0.620  10.231  -5.448  1.00  0.00    -0.352 N 
ATOM     28  C   UNL     1       0.625  11.312  -6.293  1.00  0.00     0.251 C 
ATOM     29  H   UNL     1       0.392   9.366  -5.858  1.00  0.00     0.163 HD
ATOM     30  O   UNL     1       0.223  11.192  -7.446  1.00  0.00    -0.269 OA
BRANCH  28  31
ATOM     31  C   UNL     1       1.087  12.621  -5.789  1.00  0.00     0.039 A 
ATOM     32  C   UNL     1       0.328  13.758  -6.072  1.00  0.00     0.014 A 
ATOM     33  C   UNL     1       2.256  12.721  -5.030  1.00  0.00     0.014 A 
ATOM     34  C   UNL     1       0.730  14.994  -5.566  1.00  0.00     0.010 A 
ATOM     35  C   UNL     1       2.604  13.937  -4.453  1.00  0.00     0.010 A 
ATOM     36  C   UNL     1       1.861  15.091  -4.738  1.00  0.00    -0.014 A 
BRANCH  36  37
ATOM     37  C   UNL     1       2.314  16.402  -4.213  1.00  0.00     0.031 A 
ATOM     38  C   UNL     1       3.652  16.951  -4.634  1.00  0.00     0.074 A 
ATOM     39  C   UNL     1       1.543  17.079  -3.340  1.00  0.00     0.049 A 
ATOM     40  N   UNL     1       4.239  18.062  -4.273  1.00  0.00    -0.248 NA
ATOM     41  C   UNL     1       4.449  16.128  -5.559  1.00  0.00     0.031 C 
ATOM     42  C   UNL     1       0.251  16.623  -2.821  1.00  0.00     0.029 A 
ATOM     43  N   UNL     1       1.733  18.295  -2.734  1.00  0.00    -0.354 N 
ATOM     44  C   UNL     1       5.472  18.065  -4.915  1.00  0.00     0.074 A 
ATOM     45  C   UNL     1       5.579  16.815  -5.632  1.00  0.00     0.031 C 
ATOM     46  C   UNL     1      -0.248  17.561  -2.000  1.00  0.00     0.029 A 
ATOM     47  C   UNL     1       0.700  18.667  -1.907  1.00  0.00     0.049 A 
ATOM     48  H   UNL     1       2.534  18.849  -2.878  1.00  0.00     0.167 HD
ATOM     49  C   UNL     1       6.416  19.035  -4.934  1.00  0.00     0.037 A 
ATOM     50  C   UNL     1       0.537  19.777  -1.160  1.00  0.00     0.037 A 
ATOM     51  C   UNL     1       6.288  20.289  -4.240  1.00  0.00     0.049 A 
ATOM     52  C   UNL     1       1.598  20.845  -1.202  1.00  0.00     0.074 A 
ATOM     53  C   UNL     1       7.162  21.362  -4.232  1.00  0.00     0.029 A 
ATOM     54  N   UNL     1       5.217  20.639  -3.430  1.00  0.00    -0.354 N 
ATOM     55  N   UNL     1       2.729  20.860  -1.866  1.00  0.00    -0.248 NA
ATOM     56  C   UNL     1       1.353  22.054  -0.404  1.00  0.00     0.031 C 
ATOM     57  C   UNL     1       6.642  22.341  -3.380  1.00  0.00     0.029 A 
ATOM     58  C   UNL     1       5.415  21.905  -2.905  1.00  0.00     0.049 A 
ATOM     59  H   UNL     1       4.432  20.072  -3.255  1.00  0.00     0.167 HD
ATOM     60  C   UNL     1       3.313  22.093  -1.597  1.00  0.00     0.074 A 
ATOM     61  C   UNL     1       2.405  22.799  -0.716  1.00  0.00     0.031 C 
ATOM     62  C   UNL     1       4.492  22.598  -2.040  1.00  0.00     0.037 A 
BRANCH  49  63
ATOM     63  C   UNL     1       7.665  18.780  -5.736  1.00  0.00     0.058 A 
ATOM     64  C   UNL     1       7.642  18.712  -7.139  1.00  0.00     0.135 A 
ATOM     65  C   UNL     1       8.905  18.627  -5.096  1.00  0.00     0.135 A 
ATOM     66  F   UNL     1       6.481  18.833  -7.803  1.00  0.00    -0.206 F 
ATOM     67  C   UNL     1       8.796  18.470  -7.876  1.00  0.00     0.059 A 
ATOM     68  C   UNL     1      10.079  18.417  -5.816  1.00  0.00     0.059 A 
ATOM     69  F   UNL     1       8.988  18.680  -3.757  1.00  0.00    -0.206 F 
ATOM     70  C   UNL     1      10.011  18.324  -7.205  1.00  0.00     0.060 A 
BRANCH  70  71
ATOM     71  S   UNL     1      11.500  18.017  -8.178  1.00  0.00     0.124 S 
ATOM     72  O   UNL     1      11.283  16.640  -8.613  1.00  0.00    -0.237 OA
ATOM     73  O   UNL     1      11.405  19.033  -9.220  1.00  0.00    -0.237 OA
ATOM     74  O   UNL     1      12.581  18.207  -7.216  1.00  0.00    -0.744 OA
ENDBRANCH  70  71
ENDBRANCH  49  63
BRANCH  50  75
ATOM     75  C   UNL     1      -0.691  19.949  -0.338  1.00  0.00     0.058 A 
ATOM     76  C   UNL     1      -1.654  20.915  -0.668  1.00  0.00     0.135 A 
ATOM     77  C   UNL     1      -0.931  19.149   0.790  1.00  0.00     0.135 A 
ATOM     78  F   UNL     1      -1.470  21.707  -1.735  1.00  0.00    -0.206 F 
ATOM     79  C   UNL     1      -2.798  21.099   0.102  1.00  0.00     0.059 A 
ATOM     80  C   UNL     1      -2.081  19.294   1.560  1.00  0.00     0.059 A 
ATOM     81  F   UNL     1      -0.052  18.197   1.139  1.00  0.00    -0.206 F 
ATOM     82  C   UNL     1      -3.003  20.282   1.215  1.00  0.00     0.060 A 
BRANCH  82  83
ATOM     83  S   UNL     1      -4.509  20.504   2.186  1.00  0.00     0.124 S 
ATOM     84  O   UNL     1      -4.241  21.770   2.858  1.00  0.00    -0.237 OA
ATOM     85  O   UNL     1      -5.538  20.535   1.151  1.00  0.00    -0.237 OA
ATOM     86  O   UNL     1      -4.531  19.324   3.046  1.00  0.00    -0.744 OA
ENDBRANCH  82  83
ENDBRANCH  50  75
BRANCH  62  87
ATOM     87  C   UNL     1       4.844  24.002  -1.628  1.00  0.00     0.058 A 
ATOM     88  C   UNL     1       5.209  24.322  -0.311  1.00  0.00     0.135 A 
ATOM     89  C   UNL     1       4.859  25.033  -2.582  1.00  0.00     0.135 A 
ATOM     90  F   UNL     1       5.208  23.374   0.640  1.00  0.00    -0.206 F 
ATOM     91  C   UNL     1       5.544  25.622   0.053  1.00  0.00     0.059 A 
ATOM     92  C   UNL     1       5.223  26.333  -2.247  1.00  0.00     0.059 A 
ATOM     93  F   UNL     1       4.533  24.779  -3.859  1.00  0.00    -0.206 F 
ATOM     94  C   UNL     1       5.549  26.621  -0.922  1.00  0.00     0.060 A 
BRANCH  94  95
ATOM     95  S   UNL     1       6.007  28.299  -0.441  1.00  0.00     0.124 S 
ATOM     96  O   UNL     1       4.825  28.724   0.302  1.00  0.00    -0.237 OA
ATOM     97  O   UNL     1       7.211  28.078   0.354  1.00  0.00    -0.237 OA
ATOM     98  O   UNL     1       6.221  28.973  -1.718  1.00  0.00    -0.744 OA
ENDBRANCH  94  95
ENDBRANCH  62  87
ENDBRANCH  36  37
ENDBRANCH  28  31
ENDBRANCH  26  27
ENDBRANCH  25  26
ENDBRANCH  24  25
ENDBRANCH   1  24
TORSDOF 19
