REMARK SMILES Cc1ccc(OCC(=O)NNC(=O)[C@H]2CCCC[C@@H]2C(=O)NCCCCNC(=O)c2ccc(-c3c4nc(c(-c5c(F)cc(S(=O)(=O)[O-])cc5F)c5ccc([nH]5)c(-c5c(F)cc(S(=O)(=O)[O-])cc5F)c5nc(c(-c6c(F)cc(S(=O)(=O)[O-])cc6F)c6ccc3[nH]6)C=C5)C=C4)cc2)cc1
REMARK SMILES IDX 23 1 22 2 20 3 21 4 19 6 14 7 15 8 16 9 18 10 17 11 12 12
REMARK SMILES IDX 11 13 13 15 10 16 8 17 9 18 7 20 6 21 5 22 1 23 2 24 3 25
REMARK SMILES IDX 97 26 4 27 96 28 24 29 25 30 26 31 27 32 28 33 29 35 30 36
REMARK SMILES IDX 31 37 95 38 32 39 94 40 33 41 34 42 35 43 88 44 36 45 93 46
REMARK SMILES IDX 87 47 89 48 37 49 92 50 86 51 85 52 38 54 72 55 51 56 71 57
REMARK SMILES IDX 52 58 55 59 70 60 90 61 53 62 54 63 69 65 91 66 56 67 39 68
REMARK SMILES IDX 40 69 49 70 41 71 42 72 48 73 50 74 43 75 44 76 45 77 46 78
REMARK SMILES IDX 47 79 73 80 74 81 83 82 75 83 76 84 82 85 84 86 77 87 78 88
REMARK SMILES IDX 79 89 80 90 81 91 57 92 58 93 67 94 59 95 60 96 66 97 68 98
REMARK SMILES IDX 61 99 62 100 63 101 64 102 65 103
REMARK H PARENT 22 5 11 14 10 19 27 34 89 53 55 64
REMARK Flexibility Score: inf
ROOT
ATOM      1  C   UNL     1      -6.448   4.410   5.948  1.00  0.00     0.116 C 
ENDROOT
BRANCH   1   2
ATOM      2  N   UNL     1      -6.233   3.514   4.815  1.00  0.00    -0.356 N 
ATOM      3  C   UNL     1      -5.408   2.476   4.547  1.00  0.00     0.223 C 
ATOM      4  O   UNL     1      -5.597   1.933   3.446  1.00  0.00    -0.275 OA
ATOM      5  H   UNL     1      -6.835   3.715   4.063  1.00  0.00     0.163 HD
BRANCH   3   6
ATOM      6  C   UNL     1      -4.231   1.976   5.406  1.00  0.00     0.091 C 
ATOM      7  C   UNL     1      -4.207   0.418   5.353  1.00  0.00     0.092 C 
ATOM      8  C   UNL     1      -5.260  -0.175   6.315  1.00  0.00     0.014 C 
ATOM      9  C   UNL     1      -5.154   0.354   7.746  1.00  0.00     0.001 C 
ATOM     10  C   UNL     1      -4.041   2.433   6.848  1.00  0.00     0.014 C 
ATOM     11  C   UNL     1      -5.097   1.874   7.797  1.00  0.00     0.001 C 
BRANCH   7  12
ATOM     12  C   UNL     1      -2.813  -0.154   5.631  1.00  0.00     0.242 C 
ATOM     13  N   UNL     1      -1.795   0.060   4.742  1.00  0.00    -0.267 N 
ATOM     14  H   UNL     1      -0.899  -0.255   5.002  1.00  0.00     0.191 HD
ATOM     15  O   UNL     1      -2.552  -0.831   6.628  1.00  0.00    -0.273 OA
BRANCH  13  16
ATOM     16  N   UNL     1      -1.911   0.681   3.506  1.00  0.00    -0.265 N 
ATOM     17  C   UNL     1      -0.840   1.226   2.837  1.00  0.00     0.276 C 
ATOM     18  O   UNL     1      -0.984   1.683   1.700  1.00  0.00    -0.269 OA
ATOM     19  H   UNL     1      -2.802   0.734   3.090  1.00  0.00     0.191 HD
BRANCH  17  20
ATOM     20  C   UNL     1       0.541   1.191   3.507  1.00  0.00     0.331 C 
BRANCH  20  21
ATOM     21  O   UNL     1       0.631   1.794   4.787  1.00  0.00    -0.484 OA
BRANCH  21  22
ATOM     22  C   UNL     1       0.641   3.161   4.850  1.00  0.00     0.120 A 
ATOM     23  C   UNL     1       0.651   7.431   5.497  1.00  0.00     0.044 C 
ATOM     24  C   UNL     1       0.655   5.949   5.267  1.00  0.00    -0.051 A 
ATOM     25  C   UNL     1       0.777   5.070   6.347  1.00  0.00     0.007 A 
ATOM     26  C   UNL     1       0.539   5.421   3.978  1.00  0.00     0.007 A 
ATOM     27  C   UNL     1       0.767   3.688   6.138  1.00  0.00     0.047 A 
ATOM     28  C   UNL     1       0.533   4.037   3.770  1.00  0.00     0.047 A 
ENDBRANCH  21  22
ENDBRANCH  20  21
ENDBRANCH  17  20
ENDBRANCH  13  16
ENDBRANCH   7  12
ENDBRANCH   3   6
ENDBRANCH   1   2
BRANCH   1  29
ATOM     29  C   UNL     1      -6.389   5.890   5.561  1.00  0.00     0.023 C 
BRANCH  29  30
ATOM     30  C   UNL     1      -7.581   6.393   4.751  1.00  0.00     0.023 C 
BRANCH  30  31
ATOM     31  C   UNL     1      -8.909   6.386   5.502  1.00  0.00     0.116 C 
BRANCH  31  32
ATOM     32  N   UNL     1      -9.221   7.616   6.217  1.00  0.00    -0.352 N 
ATOM     33  C   UNL     1     -10.432   7.976   6.801  1.00  0.00     0.251 C 
ATOM     34  H   UNL     1      -8.489   8.269   6.297  1.00  0.00     0.163 HD
ATOM     35  O   UNL     1     -10.650   9.087   7.240  1.00  0.00    -0.269 OA
BRANCH  33  36
ATOM     36  C   UNL     1     -11.423   6.893   7.003  1.00  0.00     0.039 A 
ATOM     37  C   UNL     1     -11.672   6.504   8.323  1.00  0.00     0.014 A 
ATOM     38  C   UNL     1     -11.809   6.093   5.933  1.00  0.00     0.014 A 
ATOM     39  C   UNL     1     -12.098   5.205   8.574  1.00  0.00     0.010 A 
ATOM     40  C   UNL     1     -12.113   4.769   6.185  1.00  0.00     0.010 A 
ATOM     41  C   UNL     1     -12.203   4.313   7.505  1.00  0.00    -0.014 A 
BRANCH  41  42
ATOM     42  C   UNL     1     -12.318   2.872   7.702  1.00  0.00     0.031 A 
ATOM     43  C   UNL     1     -13.615   2.205   7.466  1.00  0.00     0.074 A 
ATOM     44  C   UNL     1     -11.256   2.152   8.131  1.00  0.00     0.049 A 
ATOM     45  N   UNL     1     -14.022   1.163   8.110  1.00  0.00    -0.248 NA
ATOM     46  C   UNL     1     -14.590   2.706   6.505  1.00  0.00     0.031 C 
ATOM     47  C   UNL     1     -11.163   0.699   8.230  1.00  0.00     0.029 A 
ATOM     48  N   UNL     1     -10.112   2.623   8.785  1.00  0.00    -0.354 N 
ATOM     49  C   UNL     1     -15.168   0.713   7.495  1.00  0.00     0.074 A 
ATOM     50  C   UNL     1     -15.511   1.739   6.538  1.00  0.00     0.031 C 
ATOM     51  C   UNL     1     -10.206   0.389   9.118  1.00  0.00     0.029 A 
ATOM     52  C   UNL     1      -9.725   1.629   9.702  1.00  0.00     0.049 A 
ATOM     53  H   UNL     1      -9.663   3.486   8.633  1.00  0.00     0.167 HD
ATOM     54  C   UNL     1     -15.635  -0.541   7.759  1.00  0.00     0.037 A 
ATOM     55  C   UNL     1      -9.664   1.886  11.040  1.00  0.00     0.037 A 
ATOM     56  C   UNL     1     -14.798  -1.217   8.746  1.00  0.00     0.049 A 
ATOM     57  C   UNL     1     -10.627   1.065  11.866  1.00  0.00     0.074 A 
ATOM     58  C   UNL     1     -13.735  -2.095   8.614  1.00  0.00     0.029 A 
ATOM     59  N   UNL     1     -14.774  -0.768  10.063  1.00  0.00    -0.354 N 
ATOM     60  N   UNL     1     -11.638   0.405  11.369  1.00  0.00    -0.248 NA
ATOM     61  C   UNL     1     -10.531   0.917  13.316  1.00  0.00     0.031 C 
ATOM     62  C   UNL     1     -13.028  -2.123   9.840  1.00  0.00     0.029 A 
ATOM     63  C   UNL     1     -13.678  -1.286  10.730  1.00  0.00     0.049 A 
ATOM     64  H   UNL     1     -15.442  -0.166  10.463  1.00  0.00     0.167 HD
ATOM     65  C   UNL     1     -12.320  -0.232  12.377  1.00  0.00     0.074 A 
ATOM     66  C   UNL     1     -11.571   0.103  13.574  1.00  0.00     0.031 C 
ATOM     67  C   UNL     1     -13.439  -0.984  12.135  1.00  0.00     0.037 A 
BRANCH  54  68
ATOM     68  C   UNL     1     -16.629  -1.233   6.849  1.00  0.00     0.058 A 
ATOM     69  C   UNL     1     -16.505  -2.604   6.543  1.00  0.00     0.135 A 
ATOM     70  C   UNL     1     -17.675  -0.570   6.177  1.00  0.00     0.135 A 
ATOM     71  F   UNL     1     -15.635  -3.392   7.189  1.00  0.00    -0.206 F 
ATOM     72  C   UNL     1     -17.253  -3.228   5.543  1.00  0.00     0.059 A 
ATOM     73  C   UNL     1     -18.397  -1.154   5.131  1.00  0.00     0.059 A 
ATOM     74  F   UNL     1     -18.043   0.671   6.530  1.00  0.00    -0.206 F 
ATOM     75  C   UNL     1     -18.164  -2.484   4.807  1.00  0.00     0.060 A 
BRANCH  75  76
ATOM     76  S   UNL     1     -19.013  -3.271   3.425  1.00  0.00     0.124 S 
ATOM     77  O   UNL     1     -17.910  -3.884   2.691  1.00  0.00    -0.237 OA
ATOM     78  O   UNL     1     -19.912  -4.194   4.108  1.00  0.00    -0.237 OA
ATOM     79  O   UNL     1     -19.659  -2.153   2.743  1.00  0.00    -0.744 OA
ENDBRANCH  75  76
ENDBRANCH  54  68
BRANCH  55  80
ATOM     80  C   UNL     1      -9.133   3.237  11.363  1.00  0.00     0.058 A 
ATOM     81  C   UNL     1      -7.766   3.471  11.114  1.00  0.00     0.135 A 
ATOM     82  C   UNL     1      -9.962   4.358  11.496  1.00  0.00     0.135 A 
ATOM     83  F   UNL     1      -6.920   2.434  10.995  1.00  0.00    -0.206 F 
ATOM     84  C   UNL     1      -7.269   4.745  10.861  1.00  0.00     0.059 A 
ATOM     85  C   UNL     1      -9.486   5.649  11.243  1.00  0.00     0.059 A 
ATOM     86  F   UNL     1     -11.270   4.202  11.751  1.00  0.00    -0.206 F 
ATOM     87  C   UNL     1      -8.154   5.820  10.859  1.00  0.00     0.060 A 
BRANCH  87  88
ATOM     88  S   UNL     1      -7.558   7.416  10.250  1.00  0.00     0.124 S 
ATOM     89  O   UNL     1      -6.239   7.516  10.868  1.00  0.00    -0.237 OA
ATOM     90  O   UNL     1      -7.553   7.193   8.805  1.00  0.00    -0.237 OA
ATOM     91  O   UNL     1      -8.555   8.354  10.748  1.00  0.00    -0.744 OA
ENDBRANCH  87  88
ENDBRANCH  55  80
BRANCH  67  92
ATOM     92  C   UNL     1     -14.368  -1.603  13.163  1.00  0.00     0.058 A 
ATOM     93  C   UNL     1     -14.575  -1.100  14.458  1.00  0.00     0.135 A 
ATOM     94  C   UNL     1     -15.212  -2.685  12.797  1.00  0.00     0.135 A 
ATOM     95  F   UNL     1     -13.921  -0.018  14.900  1.00  0.00    -0.206 F 
ATOM     96  C   UNL     1     -15.508  -1.655  15.340  1.00  0.00     0.059 A 
ATOM     97  C   UNL     1     -16.188  -3.213  13.637  1.00  0.00     0.059 A 
ATOM     98  F   UNL     1     -15.130  -3.264  11.589  1.00  0.00    -0.206 F 
ATOM     99  C   UNL     1     -16.317  -2.707  14.919  1.00  0.00     0.060 A 
BRANCH  99 100
ATOM    100  S   UNL     1     -17.593  -3.365  16.008  1.00  0.00     0.124 S 
ATOM    101  O   UNL     1     -16.885  -4.463  16.658  1.00  0.00    -0.237 OA
ATOM    102  O   UNL     1     -17.910  -2.225  16.865  1.00  0.00    -0.237 OA
ATOM    103  O   UNL     1     -18.651  -3.753  15.081  1.00  0.00    -0.744 OA
ENDBRANCH  99 100
ENDBRANCH  67  92
ENDBRANCH  41  42
ENDBRANCH  33  36
ENDBRANCH  31  32
ENDBRANCH  30  31
ENDBRANCH  29  30
ENDBRANCH   1  29
TORSDOF 19
