REMARK SMILES O=C(NCCCCNC(=O)[C@H]1C[C@](O)(c2ccccc2Cl)[C@@H](c2ccccc2Cl)O1)c1ccc(-c2c3nc(c(-c4c(F)cc(S(=O)(=O)[O-])cc4F)c4ccc([nH]4)c(-c4c(F)cc(S(=O)(=O)[O-])cc4F)c4nc(c(-c5c(F)cc(S(=O)(=O)[O-])cc5F)c5ccc2[nH]5)C=C4)C=C3)cc1
REMARK SMILES IDX 4 1 3 2 1 3 2 4 31 6 32 7 96 8 33 9 95 10 34 11 35 12 36 13
REMARK SMILES IDX 89 14 37 15 94 16 88 17 90 18 38 19 93 20 87 21 86 22 39 24
REMARK SMILES IDX 73 25 52 26 72 27 53 28 56 29 71 30 91 31 54 32 55 33 70 35
REMARK SMILES IDX 92 36 57 37 40 38 41 39 50 40 42 41 43 42 49 43 51 44 44 45
REMARK SMILES IDX 45 46 46 47 47 48 48 49 74 50 75 51 84 52 76 53 77 54 83 55
REMARK SMILES IDX 85 56 78 57 79 58 80 59 81 60 82 61 58 62 59 63 68 64 60 65
REMARK SMILES IDX 61 66 67 67 69 68 62 69 63 70 64 71 65 72 66 73 5 74 6 75
REMARK SMILES IDX 7 76 8 77 9 78 10 80 11 81 12 82 30 83 13 84 22 85 15 86
REMARK SMILES IDX 16 87 20 88 17 89 19 90 21 91 18 92 14 93 23 95 24 96 28 97
REMARK SMILES IDX 25 98 27 99 29 100 26 101
REMARK H PARENT 3 5 90 23 56 34 8 79 14 94
REMARK Flexibility Score: inf
ROOT
ATOM      1  C   UNL     1       3.358   2.603   1.773  1.00  0.00     0.116 C 
ENDROOT
BRANCH   1   2
ATOM      2  N   UNL     1       3.943   3.414   0.718  1.00  0.00    -0.352 N 
ATOM      3  O   UNL     1       4.096   4.348  -1.323  1.00  0.00    -0.269 OA
ATOM      4  C   UNL     1       3.384   3.831  -0.465  1.00  0.00     0.251 C 
ATOM      5  H   UNL     1       4.870   3.705   0.874  1.00  0.00     0.163 HD
BRANCH   4   6
ATOM      6  C   UNL     1       1.937   3.645  -0.712  1.00  0.00     0.039 A 
ATOM      7  C   UNL     1       0.998   3.953   0.277  1.00  0.00     0.014 A 
ATOM      8  C   UNL     1       1.511   3.188  -1.963  1.00  0.00     0.014 A 
ATOM      9  C   UNL     1      -0.352   3.697   0.056  1.00  0.00     0.010 A 
ATOM     10  C   UNL     1       0.147   3.003  -2.209  1.00  0.00     0.010 A 
ATOM     11  C   UNL     1      -0.795   3.239  -1.196  1.00  0.00    -0.014 A 
BRANCH  11  12
ATOM     12  C   UNL     1      -2.252   3.101  -1.454  1.00  0.00     0.031 A 
ATOM     13  C   UNL     1      -2.873   1.760  -1.729  1.00  0.00     0.074 A 
ATOM     14  C   UNL     1      -3.015   4.212  -1.440  1.00  0.00     0.049 A 
ATOM     15  N   UNL     1      -4.122   1.472  -1.993  1.00  0.00    -0.248 NA
ATOM     16  C   UNL     1      -1.979   0.592  -1.715  1.00  0.00     0.031 C 
ATOM     17  C   UNL     1      -2.517   5.571  -1.202  1.00  0.00     0.029 A 
ATOM     18  N   UNL     1      -4.362   4.383  -1.627  1.00  0.00    -0.354 N 
ATOM     19  C   UNL     1      -4.164   0.097  -2.195  1.00  0.00     0.074 A 
ATOM     20  C   UNL     1      -2.810  -0.391  -2.042  1.00  0.00     0.031 C 
ATOM     21  C   UNL     1      -3.546   6.429  -1.232  1.00  0.00     0.029 A 
ATOM     22  C   UNL     1      -4.765   5.696  -1.552  1.00  0.00     0.049 A 
ATOM     23  H   UNL     1      -4.982   3.638  -1.798  1.00  0.00     0.167 HD
ATOM     24  C   UNL     1      -5.237  -0.682  -2.477  1.00  0.00     0.037 A 
ATOM     25  C   UNL     1      -5.974   6.256  -1.749  1.00  0.00     0.037 A 
ATOM     26  C   UNL     1      -6.584  -0.184  -2.611  1.00  0.00     0.049 A 
ATOM     27  C   UNL     1      -7.139   5.372  -2.088  1.00  0.00     0.074 A 
ATOM     28  C   UNL     1      -7.746  -0.902  -2.838  1.00  0.00     0.029 A 
ATOM     29  N   UNL     1      -6.949   1.153  -2.546  1.00  0.00    -0.354 N 
ATOM     30  N   UNL     1      -7.170   4.067  -2.219  1.00  0.00    -0.248 NA
ATOM     31  C   UNL     1      -8.432   6.032  -2.312  1.00  0.00     0.031 C 
ATOM     32  C   UNL     1      -8.804   0.005  -2.962  1.00  0.00     0.029 A 
ATOM     33  C   UNL     1      -8.312   1.284  -2.762  1.00  0.00     0.049 A 
ATOM     34  H   UNL     1      -6.330   1.899  -2.373  1.00  0.00     0.167 HD
ATOM     35  C   UNL     1      -8.487   3.748  -2.527  1.00  0.00     0.074 A 
ATOM     36  C   UNL     1      -9.225   4.995  -2.543  1.00  0.00     0.031 C 
ATOM     37  C   UNL     1      -9.033   2.533  -2.776  1.00  0.00     0.037 A 
BRANCH  24  38
ATOM     38  C   UNL     1      -5.008  -2.155  -2.679  1.00  0.00     0.058 A 
ATOM     39  C   UNL     1      -4.711  -3.014  -1.610  1.00  0.00     0.135 A 
ATOM     40  C   UNL     1      -5.155  -2.727  -3.955  1.00  0.00     0.135 A 
ATOM     41  F   UNL     1      -4.548  -2.521  -0.372  1.00  0.00    -0.206 F 
ATOM     42  C   UNL     1      -4.547  -4.384  -1.800  1.00  0.00     0.059 A 
ATOM     43  C   UNL     1      -5.020  -4.097  -4.164  1.00  0.00     0.059 A 
ATOM     44  F   UNL     1      -5.441  -1.953  -5.013  1.00  0.00    -0.206 F 
ATOM     45  C   UNL     1      -4.705  -4.916  -3.081  1.00  0.00     0.060 A 
BRANCH  45  46
ATOM     46  S   UNL     1      -4.502  -6.696  -3.308  1.00  0.00     0.124 S 
ATOM     47  O   UNL     1      -3.057  -6.845  -3.160  1.00  0.00    -0.237 OA
ATOM     48  O   UNL     1      -5.309  -7.243  -2.222  1.00  0.00    -0.237 OA
ATOM     49  O   UNL     1      -5.022  -6.931  -4.651  1.00  0.00    -0.744 OA
ENDBRANCH  45  46
ENDBRANCH  24  38
BRANCH  25  50
ATOM     50  C   UNL     1      -6.127   7.731  -1.653  1.00  0.00     0.058 A 
ATOM     51  C   UNL     1      -6.843   8.319  -0.601  1.00  0.00     0.135 A 
ATOM     52  C   UNL     1      -5.537   8.583  -2.600  1.00  0.00     0.135 A 
ATOM     53  F   UNL     1      -7.428   7.547   0.327  1.00  0.00    -0.206 F 
ATOM     54  C   UNL     1      -6.981   9.700  -0.498  1.00  0.00     0.059 A 
ATOM     55  C   UNL     1      -5.636   9.966  -2.503  1.00  0.00     0.059 A 
ATOM     56  F   UNL     1      -4.825   8.070  -3.616  1.00  0.00    -0.206 F 
ATOM     57  C   UNL     1      -6.371  10.515  -1.454  1.00  0.00     0.060 A 
BRANCH  57  58
ATOM     58  S   UNL     1      -6.517  12.307  -1.286  1.00  0.00     0.124 S 
ATOM     59  O   UNL     1      -7.898  12.528  -1.698  1.00  0.00    -0.237 OA
ATOM     60  O   UNL     1      -6.232  12.507   0.132  1.00  0.00    -0.237 OA
ATOM     61  O   UNL     1      -5.496  12.813  -2.199  1.00  0.00    -0.744 OA
ENDBRANCH  57  58
ENDBRANCH  25  50
BRANCH  37  62
ATOM     62  C   UNL     1     -10.506   2.487  -3.070  1.00  0.00     0.058 A 
ATOM     63  C   UNL     1     -11.025   2.929  -4.297  1.00  0.00     0.135 A 
ATOM     64  C   UNL     1     -11.402   1.945  -2.135  1.00  0.00     0.135 A 
ATOM     65  F   UNL     1     -10.212   3.467  -5.220  1.00  0.00    -0.206 F 
ATOM     66  C   UNL     1     -12.384   2.850  -4.581  1.00  0.00     0.059 A 
ATOM     67  C   UNL     1     -12.761   1.831  -2.408  1.00  0.00     0.059 A 
ATOM     68  F   UNL     1     -10.956   1.502  -0.949  1.00  0.00    -0.206 F 
ATOM     69  C   UNL     1     -13.244   2.294  -3.632  1.00  0.00     0.060 A 
BRANCH  69  70
ATOM     70  S   UNL     1     -14.999   2.153  -4.032  1.00  0.00     0.124 S 
ATOM     71  O   UNL     1     -15.438   3.540  -3.921  1.00  0.00    -0.237 OA
ATOM     72  O   UNL     1     -14.968   1.604  -5.384  1.00  0.00    -0.237 OA
ATOM     73  O   UNL     1     -15.510   1.249  -3.006  1.00  0.00    -0.744 OA
ENDBRANCH  69  70
ENDBRANCH  37  62
ENDBRANCH  11  12
ENDBRANCH   4   6
ENDBRANCH   1   2
BRANCH   1  74
ATOM     74  C   UNL     1       4.188   1.358   2.068  1.00  0.00     0.023 C 
BRANCH  74  75
ATOM     75  C   UNL     1       5.587   1.625   2.639  1.00  0.00     0.023 C 
BRANCH  75  76
ATOM     76  C   UNL     1       5.613   2.421   3.947  1.00  0.00     0.116 C 
BRANCH  76  77
ATOM     77  N   UNL     1       4.849   1.738   4.969  1.00  0.00    -0.354 N 
ATOM     78  C   UNL     1       5.273   1.114   6.102  1.00  0.00     0.249 C 
ATOM     79  H   UNL     1       3.876   1.722   4.823  1.00  0.00     0.163 HD
ATOM     80  O   UNL     1       4.526   0.243   6.554  1.00  0.00    -0.272 OA
BRANCH  78  81
ATOM     81  C   UNL     1       6.607   1.506   6.779  1.00  0.00     0.211 C 
ATOM     82  C   UNL     1       6.787   3.011   6.978  1.00  0.00     0.085 C 
ATOM     83  O   UNL     1       6.686   0.898   8.079  1.00  0.00    -0.357 OA
ATOM     84  C   UNL     1       6.912   3.228   8.488  1.00  0.00     0.124 C 
ATOM     85  C   UNL     1       6.398   1.891   9.083  1.00  0.00     0.187 C 
BRANCH  84  86
ATOM     86  C   UNL     1       8.334   3.717   8.851  1.00  0.00     0.005 A 
ATOM     87  C   UNL     1       8.601   5.092   8.608  1.00  0.00     0.008 A 
ATOM     88  C   UNL     1       9.397   2.973   9.403  1.00  0.00     0.047 A 
ATOM     89  C   UNL     1       9.799   5.708   8.980  1.00  0.00     0.001 A 
ATOM     90  C   UNL     1      10.586   3.608   9.812  1.00  0.00     0.021 A 
ATOM     91  Cl  UNL     1       9.435   1.255   9.572  1.00  0.00    -0.084 Cl
ATOM     92  C   UNL     1      10.784   4.970   9.613  1.00  0.00     0.002 A 
ENDBRANCH  84  86
BRANCH  84  93
ATOM     93  O   UNL     1       6.033   4.309   8.861  1.00  0.00    -0.382 OA
ATOM     94  H   UNL     1       5.116   4.065   8.658  1.00  0.00     0.212 HD
ENDBRANCH  84  93
BRANCH  85  95
ATOM     95  C   UNL     1       4.943   1.751   9.537  1.00  0.00     0.003 A 
ATOM     96  C   UNL     1       3.878   2.247   8.761  1.00  0.00     0.008 A 
ATOM     97  C   UNL     1       4.603   1.053  10.715  1.00  0.00     0.046 A 
ATOM     98  C   UNL     1       2.543   2.006   9.101  1.00  0.00     0.000 A 
ATOM     99  C   UNL     1       3.264   0.836  11.068  1.00  0.00     0.021 A 
ATOM    100  Cl  UNL     1       5.787   0.439  11.822  1.00  0.00    -0.084 Cl
ATOM    101  C   UNL     1       2.235   1.295  10.252  1.00  0.00     0.002 A 
ENDBRANCH  85  95
ENDBRANCH  78  81
ENDBRANCH  76  77
ENDBRANCH  75  76
ENDBRANCH  74  75
ENDBRANCH   1  74
TORSDOF 17
