REMARK SMILES Cc1cc(C(=O)N[C@@H](Cc2ccccc2)C(=O)NCCCCNC(=O)c2ccc(-c3c4nc(c(-c5c(F)cc(S(=O)(=O)[O-])cc5F)c5ccc([nH]5)c(-c5c(F)cc(S(=O)(=O)[O-])cc5F)c5nc(c(-c6c(F)cc(S(=O)(=O)[O-])cc6F)c6ccc3[nH]6)C=C5)C=C4)cc2)c(C)o1
REMARK SMILES IDX 21 1 20 2 19 3 18 4 16 5 17 6 8 8 7 9 5 10 6 11 4 13 1 14
REMARK SMILES IDX 2 15 3 16 94 17 92 18 93 19 9 20 10 21 11 22 15 23 12 24
REMARK SMILES IDX 14 25 13 26 22 27 23 28 24 29 25 31 26 32 27 33 91 34 28 35
REMARK SMILES IDX 90 36 29 37 30 38 31 39 84 40 32 41 89 42 83 43 85 44 33 45
REMARK SMILES IDX 88 46 82 47 81 48 34 50 68 51 47 52 67 53 48 54 51 55 66 56
REMARK SMILES IDX 86 57 49 58 50 59 65 61 87 62 52 63 35 64 36 65 45 66 37 67
REMARK SMILES IDX 38 68 44 69 46 70 39 71 40 72 41 73 42 74 43 75 69 76 70 77
REMARK SMILES IDX 79 78 71 79 72 80 78 81 80 82 73 83 74 84 75 85 76 86 77 87
REMARK SMILES IDX 53 88 54 89 63 90 55 91 56 92 62 93 64 94 57 95 58 96 59 97
REMARK SMILES IDX 60 98 61 99
REMARK H PARENT 18 7 7 12 23 30 85 49 51 60
REMARK Flexibility Score: inf
ROOT
ATOM      1  C   UNL     1      -1.849   7.819   3.369  1.00  0.00     0.023 C 
ENDROOT
BRANCH   1   2
ATOM      2  C   UNL     1      -2.133   6.742   2.326  1.00  0.00     0.023 C 
BRANCH   2   3
ATOM      3  C   UNL     1      -1.033   6.504   1.302  1.00  0.00     0.116 C 
BRANCH   3   4
ATOM      4  N   UNL     1       0.101   5.739   1.777  1.00  0.00    -0.354 N 
ATOM      5  C   UNL     1       0.872   4.829   1.107  1.00  0.00     0.242 C 
ATOM      6  O   UNL     1       1.990   4.583   1.574  1.00  0.00    -0.273 OA
ATOM      7  H   UNL     1       0.353   5.896   2.715  1.00  0.00     0.163 HD
BRANCH   5   8
ATOM      8  C   UNL     1       0.434   4.151  -0.218  1.00  0.00     0.176 C 
BRANCH   8   9
ATOM      9  N   UNL     1      -0.906   3.574  -0.123  1.00  0.00    -0.340 N 
ATOM     10  C   UNL     1      -1.371   2.311   0.134  1.00  0.00     0.255 C 
ATOM     11  O   UNL     1      -2.591   2.233   0.294  1.00  0.00    -0.269 OA
ATOM     12  H   UNL     1      -1.624   4.230  -0.275  1.00  0.00     0.164 HD
BRANCH  10  13
ATOM     13  C   UNL     1      -0.521   1.121   0.142  1.00  0.00     0.081 A 
ATOM     14  C   UNL     1       2.379  -1.224   0.113  1.00  0.00     0.087 C 
ATOM     15  C   UNL     1       1.145  -0.415   0.135  1.00  0.00     0.101 A 
ATOM     16  C   UNL     1       0.886   0.925   0.312  1.00  0.00     0.059 A 
ATOM     17  O   UNL     1      -0.016  -1.089  -0.038  1.00  0.00    -0.466 OA
ATOM     18  C   UNL     1      -1.023  -0.173  -0.002  1.00  0.00     0.113 A 
ATOM     19  C   UNL     1      -2.377  -0.764  -0.127  1.00  0.00     0.088 C 
ENDBRANCH  10  13
ENDBRANCH   8   9
BRANCH   8  20
ATOM     20  C   UNL     1       0.714   4.947  -1.511  1.00  0.00     0.070 C 
BRANCH  20  21
ATOM     21  C   UNL     1       0.049   6.285  -1.712  1.00  0.00    -0.045 A 
ATOM     22  C   UNL     1       0.785   7.468  -1.540  1.00  0.00     0.004 A 
ATOM     23  C   UNL     1      -1.304   6.378  -2.070  1.00  0.00     0.004 A 
ATOM     24  C   UNL     1       0.169   8.714  -1.670  1.00  0.00     0.000 A 
ATOM     25  C   UNL     1      -1.923   7.625  -2.177  1.00  0.00     0.000 A 
ATOM     26  C   UNL     1      -1.189   8.792  -1.969  1.00  0.00     0.000 A 
ENDBRANCH  20  21
ENDBRANCH   8  20
ENDBRANCH   5   8
ENDBRANCH   3   4
ENDBRANCH   2   3
ENDBRANCH   1   2
BRANCH   1  27
ATOM     27  C   UNL     1      -1.339   9.161   2.847  1.00  0.00     0.116 C 
BRANCH  27  28
ATOM     28  N   UNL     1      -2.144   9.749   1.787  1.00  0.00    -0.352 N 
ATOM     29  C   UNL     1      -2.476  11.071   1.581  1.00  0.00     0.251 C 
ATOM     30  H   UNL     1      -2.500   9.115   1.124  1.00  0.00     0.163 HD
ATOM     31  O   UNL     1      -3.192  11.382   0.636  1.00  0.00    -0.269 OA
BRANCH  29  32
ATOM     32  C   UNL     1      -1.999  12.107   2.528  1.00  0.00     0.039 A 
ATOM     33  C   UNL     1      -2.913  13.041   3.026  1.00  0.00     0.014 A 
ATOM     34  C   UNL     1      -0.667  12.143   2.947  1.00  0.00     0.014 A 
ATOM     35  C   UNL     1      -2.507  13.956   4.002  1.00  0.00     0.010 A 
ATOM     36  C   UNL     1      -0.285  13.002   3.975  1.00  0.00     0.010 A 
ATOM     37  C   UNL     1      -1.199  13.920   4.514  1.00  0.00    -0.014 A 
BRANCH  37  38
ATOM     38  C   UNL     1      -0.773  14.836   5.605  1.00  0.00     0.031 A 
ATOM     39  C   UNL     1       0.315  15.850   5.362  1.00  0.00     0.074 A 
ATOM     40  C   UNL     1      -1.317  14.714   6.833  1.00  0.00     0.049 A 
ATOM     41  N   UNL     1       0.851  16.702   6.197  1.00  0.00    -0.248 NA
ATOM     42  C   UNL     1       0.900  15.886   4.012  1.00  0.00     0.031 C 
ATOM     43  C   UNL     1      -2.321  13.720   7.223  1.00  0.00     0.029 A 
ATOM     44  N   UNL     1      -1.096  15.426   7.986  1.00  0.00    -0.354 N 
ATOM     45  C   UNL     1       1.848  17.358   5.483  1.00  0.00     0.074 A 
ATOM     46  C   UNL     1       1.877  16.769   4.162  1.00  0.00     0.031 C 
ATOM     47  C   UNL     1      -2.644  13.901   8.514  1.00  0.00     0.029 A 
ATOM     48  C   UNL     1      -1.860  15.009   9.051  1.00  0.00     0.049 A 
ATOM     49  H   UNL     1      -0.450  16.167   8.045  1.00  0.00     0.167 HD
ATOM     50  C   UNL     1       2.648  18.375   5.881  1.00  0.00     0.037 A 
ATOM     51  C   UNL     1      -1.927  15.474  10.314  1.00  0.00     0.037 A 
ATOM     52  C   UNL     1       2.584  18.994   7.179  1.00  0.00     0.049 A 
ATOM     53  C   UNL     1      -1.087  16.659  10.706  1.00  0.00     0.074 A 
ATOM     54  C   UNL     1       3.306  20.075   7.656  1.00  0.00     0.029 A 
ATOM     55  N   UNL     1       1.740  18.595   8.204  1.00  0.00    -0.354 N 
ATOM     56  N   UNL     1      -0.200  17.312   9.993  1.00  0.00    -0.248 NA
ATOM     57  C   UNL     1      -1.272  17.184  12.066  1.00  0.00     0.031 C 
ATOM     58  C   UNL     1       2.911  20.317   8.977  1.00  0.00     0.029 A 
ATOM     59  C   UNL     1       1.920  19.408   9.309  1.00  0.00     0.049 A 
ATOM     60  H   UNL     1       1.106  17.843   8.152  1.00  0.00     0.167 HD
ATOM     61  C   UNL     1       0.255  18.343  10.808  1.00  0.00     0.074 A 
ATOM     62  C   UNL     1      -0.463  18.234  12.061  1.00  0.00     0.031 C 
ATOM     63  C   UNL     1       1.184  19.296  10.542  1.00  0.00     0.037 A 
BRANCH  50  64
ATOM     64  C   UNL     1       3.650  18.900   4.890  1.00  0.00     0.058 A 
ATOM     65  C   UNL     1       3.252  19.653   3.773  1.00  0.00     0.135 A 
ATOM     66  C   UNL     1       5.024  18.677   5.073  1.00  0.00     0.135 A 
ATOM     67  F   UNL     1       1.949  19.880   3.541  1.00  0.00    -0.206 F 
ATOM     68  C   UNL     1       4.177  20.142   2.858  1.00  0.00     0.059 A 
ATOM     69  C   UNL     1       5.970  19.179   4.183  1.00  0.00     0.059 A 
ATOM     70  F   UNL     1       5.459  17.962   6.123  1.00  0.00    -0.206 F 
ATOM     71  C   UNL     1       5.535  19.898   3.071  1.00  0.00     0.060 A 
BRANCH  71  72
ATOM     72  S   UNL     1       6.726  20.547   1.879  1.00  0.00     0.124 S 
ATOM     73  O   UNL     1       6.560  19.616   0.768  1.00  0.00    -0.237 OA
ATOM     74  O   UNL     1       6.233  21.902   1.649  1.00  0.00    -0.237 OA
ATOM     75  O   UNL     1       7.998  20.459   2.589  1.00  0.00    -0.744 OA
ENDBRANCH  71  72
ENDBRANCH  50  64
BRANCH  51  76
ATOM     76  C   UNL     1      -2.860  14.852  11.291  1.00  0.00     0.058 A 
ATOM     77  C   UNL     1      -4.025  15.519  11.699  1.00  0.00     0.135 A 
ATOM     78  C   UNL     1      -2.603  13.588  11.841  1.00  0.00     0.135 A 
ATOM     79  F   UNL     1      -4.312  16.732  11.202  1.00  0.00    -0.206 F 
ATOM     80  C   UNL     1      -4.889  14.969  12.640  1.00  0.00     0.059 A 
ATOM     81  C   UNL     1      -3.464  13.006  12.767  1.00  0.00     0.059 A 
ATOM     82  F   UNL     1      -1.512  12.901  11.468  1.00  0.00    -0.206 F 
ATOM     83  C   UNL     1      -4.598  13.712  13.171  1.00  0.00     0.060 A 
BRANCH  83  84
ATOM     84  S   UNL     1      -5.740  12.988  14.369  1.00  0.00     0.124 S 
ATOM     85  O   UNL     1      -5.399  13.725  15.581  1.00  0.00    -0.237 OA
ATOM     86  O   UNL     1      -7.040  13.293  13.781  1.00  0.00    -0.237 OA
ATOM     87  O   UNL     1      -5.376  11.575  14.364  1.00  0.00    -0.744 OA
ENDBRANCH  83  84
ENDBRANCH  51  76
BRANCH  63  88
ATOM     88  C   UNL     1       1.437  20.321  11.610  1.00  0.00     0.058 A 
ATOM     89  C   UNL     1       2.147  20.010  12.780  1.00  0.00     0.135 A 
ATOM     90  C   UNL     1       0.977  21.638  11.450  1.00  0.00     0.135 A 
ATOM     91  F   UNL     1       2.606  18.765  12.981  1.00  0.00    -0.206 F 
ATOM     92  C   UNL     1       2.360  20.960  13.774  1.00  0.00     0.059 A 
ATOM     93  C   UNL     1       1.199  22.610  12.420  1.00  0.00     0.059 A 
ATOM     94  F   UNL     1       0.304  21.990  10.343  1.00  0.00    -0.206 F 
ATOM     95  C   UNL     1       1.875  22.256  13.587  1.00  0.00     0.060 A 
BRANCH  95  96
ATOM     96  S   UNL     1       2.153  23.485  14.880  1.00  0.00     0.124 S 
ATOM     97  O   UNL     1       1.118  23.133  15.846  1.00  0.00    -0.237 OA
ATOM     98  O   UNL     1       3.526  23.207  15.292  1.00  0.00    -0.237 OA
ATOM     99  O   UNL     1       1.960  24.755  14.185  1.00  0.00    -0.744 OA
ENDBRANCH  95  96
ENDBRANCH  63  88
ENDBRANCH  37  38
ENDBRANCH  29  32
ENDBRANCH  27  28
ENDBRANCH   1  27
TORSDOF 18
