REMARK SMILES O=C(NCCCCNC(=O)[C@H](c1c[nH]c2ccc(Cl)cc12)[NH+]1CCN(c2ncc(Br)cn2)CC1)c1ccc(-c2c3nc(c(-c4c(F)cc(S(=O)(=O)[O-])cc4F)c4ccc([nH]4)c(-c4c(F)cc(S(=O)(=O)[O-])cc4F)c4nc(c(-c5c(F)cc(S(=O)(=O)[O-])cc5F)c5ccc2[nH]5)C=C4)C=C3)cc1
REMARK SMILES IDX 5 1 4 2 3 3 1 4 2 5 35 7 36 8 100 9 37 10 99 11 38 12 39 13
REMARK SMILES IDX 40 14 93 15 41 16 98 17 92 18 94 19 42 20 97 21 91 22 90 23
REMARK SMILES IDX 43 25 77 26 56 27 76 28 57 29 60 30 75 31 95 32 58 33 59 34
REMARK SMILES IDX 74 36 96 37 61 38 44 39 45 40 54 41 46 42 47 43 53 44 55 45
REMARK SMILES IDX 48 46 49 47 50 48 51 49 52 50 78 51 79 52 88 53 80 54 81 55
REMARK SMILES IDX 87 56 89 57 82 58 83 59 84 60 85 61 86 62 62 63 63 64 72 65
REMARK SMILES IDX 64 66 65 67 71 68 73 69 66 70 67 71 68 72 69 73 70 74 6 75
REMARK SMILES IDX 7 76 8 77 9 78 10 80 11 81 22 82 23 83 34 84 24 86 33 87
REMARK SMILES IDX 25 88 26 89 27 90 32 91 28 92 31 93 29 94 30 95 12 96 13 97
REMARK SMILES IDX 21 98 14 99 15 100 20 101 16 103 18 104 17 105 19 106
REMARK H PARENT 3 6 94 24 60 35 8 79 22 85 14 102
REMARK Flexibility Score: inf
ROOT
ATOM      1  C   UNL     1       1.415  -2.521   8.439  1.00  0.00     0.023 C 
ENDROOT
BRANCH   1   2
ATOM      2  C   UNL     1       0.595  -3.449   7.579  1.00  0.00     0.116 C 
BRANCH   2   3
ATOM      3  N   UNL     1       0.598  -4.823   8.080  1.00  0.00    -0.352 N 
ATOM      4  O   UNL     1      -0.024  -6.586   9.366  1.00  0.00    -0.269 OA
ATOM      5  C   UNL     1      -0.280  -5.477   8.941  1.00  0.00     0.251 C 
ATOM      6  H   UNL     1       1.344  -5.377   7.755  1.00  0.00     0.163 HD
BRANCH   5   7
ATOM      7  C   UNL     1      -1.504  -4.766   9.357  1.00  0.00     0.039 A 
ATOM      8  C   UNL     1      -2.144  -3.974   8.421  1.00  0.00     0.014 A 
ATOM      9  C   UNL     1      -1.964  -4.793  10.674  1.00  0.00     0.014 A 
ATOM     10  C   UNL     1      -2.945  -2.944   8.852  1.00  0.00     0.010 A 
ATOM     11  C   UNL     1      -3.019  -3.949  11.044  1.00  0.00     0.010 A 
ATOM     12  C   UNL     1      -3.496  -2.991  10.136  1.00  0.00    -0.014 A 
BRANCH  12  13
ATOM     13  C   UNL     1      -4.668  -2.118  10.394  1.00  0.00     0.031 A 
ATOM     14  C   UNL     1      -4.717  -1.188  11.568  1.00  0.00     0.074 A 
ATOM     15  C   UNL     1      -5.681  -2.162   9.500  1.00  0.00     0.049 A 
ATOM     16  N   UNL     1      -5.710  -0.437  11.967  1.00  0.00    -0.248 NA
ATOM     17  C   UNL     1      -3.520  -1.102  12.418  1.00  0.00     0.031 C 
ATOM     18  C   UNL     1      -5.731  -3.045   8.323  1.00  0.00     0.029 A 
ATOM     19  N   UNL     1      -6.840  -1.441   9.400  1.00  0.00    -0.354 N 
ATOM     20  C   UNL     1      -5.286   0.161  13.146  1.00  0.00     0.074 A 
ATOM     21  C   UNL     1      -3.939  -0.308  13.395  1.00  0.00     0.031 C 
ATOM     22  C   UNL     1      -6.789  -2.738   7.571  1.00  0.00     0.029 A 
ATOM     23  C   UNL     1      -7.594  -1.774   8.298  1.00  0.00     0.049 A 
ATOM     24  H   UNL     1      -7.107  -0.752  10.051  1.00  0.00     0.167 HD
ATOM     25  C   UNL     1      -5.978   1.008  13.946  1.00  0.00     0.037 A 
ATOM     26  C   UNL     1      -8.839  -1.419   7.940  1.00  0.00     0.037 A 
ATOM     27  C   UNL     1      -7.312   1.470  13.646  1.00  0.00     0.049 A 
ATOM     28  C   UNL     1      -9.582  -0.497   8.846  1.00  0.00     0.074 A 
ATOM     29  C   UNL     1      -8.101   2.350  14.365  1.00  0.00     0.029 A 
ATOM     30  N   UNL     1      -8.055   1.085  12.535  1.00  0.00    -0.354 N 
ATOM     31  N   UNL     1      -9.175   0.043   9.970  1.00  0.00    -0.248 NA
ATOM     32  C   UNL     1     -10.951  -0.152   8.459  1.00  0.00     0.031 C 
ATOM     33  C   UNL     1      -9.337   2.456  13.717  1.00  0.00     0.029 A 
ATOM     34  C   UNL     1      -9.302   1.690  12.562  1.00  0.00     0.049 A 
ATOM     35  H   UNL     1      -7.742   0.471  11.832  1.00  0.00     0.167 HD
ATOM     36  C   UNL     1     -10.241   0.797  10.431  1.00  0.00     0.074 A 
ATOM     37  C   UNL     1     -11.300   0.661   9.447  1.00  0.00     0.031 C 
ATOM     38  C   UNL     1     -10.336   1.529  11.568  1.00  0.00     0.037 A 
BRANCH  25  39
ATOM     39  C   UNL     1      -5.335   1.439  15.238  1.00  0.00     0.058 A 
ATOM     40  C   UNL     1      -4.228   2.301  15.278  1.00  0.00     0.135 A 
ATOM     41  C   UNL     1      -5.848   0.984  16.466  1.00  0.00     0.135 A 
ATOM     42  F   UNL     1      -3.685   2.757  14.138  1.00  0.00    -0.206 F 
ATOM     43  C   UNL     1      -3.629   2.666  16.482  1.00  0.00     0.059 A 
ATOM     44  C   UNL     1      -5.283   1.358  17.683  1.00  0.00     0.059 A 
ATOM     45  F   UNL     1      -6.905   0.158  16.492  1.00  0.00    -0.206 F 
ATOM     46  C   UNL     1      -4.161   2.183  17.680  1.00  0.00     0.060 A 
BRANCH  46  47
ATOM     47  S   UNL     1      -3.358   2.641  19.231  1.00  0.00     0.124 S 
ATOM     48  O   UNL     1      -2.138   1.840  19.173  1.00  0.00    -0.237 OA
ATOM     49  O   UNL     1      -3.177   4.081  19.076  1.00  0.00    -0.237 OA
ATOM     50  O   UNL     1      -4.324   2.238  20.247  1.00  0.00    -0.744 OA
ENDBRANCH  46  47
ENDBRANCH  25  39
BRANCH  26  51
ATOM     51  C   UNL     1      -9.443  -2.019   6.722  1.00  0.00     0.058 A 
ATOM     52  C   UNL     1      -9.667  -1.254   5.571  1.00  0.00     0.135 A 
ATOM     53  C   UNL     1      -9.704  -3.400   6.652  1.00  0.00     0.135 A 
ATOM     54  F   UNL     1      -9.430   0.066   5.586  1.00  0.00    -0.206 F 
ATOM     55  C   UNL     1     -10.123  -1.835   4.392  1.00  0.00     0.059 A 
ATOM     56  C   UNL     1     -10.125  -4.008   5.476  1.00  0.00     0.059 A 
ATOM     57  F   UNL     1      -9.475  -4.183   7.718  1.00  0.00    -0.206 F 
ATOM     58  C   UNL     1     -10.337  -3.215   4.351  1.00  0.00     0.060 A 
BRANCH  58  59
ATOM     59  S   UNL     1     -10.844  -3.970   2.791  1.00  0.00     0.124 S 
ATOM     60  O   UNL     1     -12.236  -3.547   2.702  1.00  0.00    -0.237 OA
ATOM     61  O   UNL     1      -9.925  -3.353   1.839  1.00  0.00    -0.237 OA
ATOM     62  O   UNL     1     -10.629  -5.395   3.023  1.00  0.00    -0.744 OA
ENDBRANCH  58  59
ENDBRANCH  26  51
BRANCH  38  63
ATOM     63  C   UNL     1     -11.627   2.260  11.783  1.00  0.00     0.058 A 
ATOM     64  C   UNL     1     -12.801   1.587  12.154  1.00  0.00     0.135 A 
ATOM     65  C   UNL     1     -11.677   3.656  11.649  1.00  0.00     0.135 A 
ATOM     66  F   UNL     1     -12.805   0.249  12.274  1.00  0.00    -0.206 F 
ATOM     67  C   UNL     1     -13.989   2.274  12.370  1.00  0.00     0.059 A 
ATOM     68  C   UNL     1     -12.847   4.366  11.889  1.00  0.00     0.059 A 
ATOM     69  F   UNL     1     -10.578   4.341  11.296  1.00  0.00    -0.206 F 
ATOM     70  C   UNL     1     -13.999   3.664  12.241  1.00  0.00     0.060 A 
BRANCH  70  71
ATOM     71  S   UNL     1     -15.536   4.549  12.570  1.00  0.00     0.124 S 
ATOM     72  O   UNL     1     -16.323   4.220  11.387  1.00  0.00    -0.237 OA
ATOM     73  O   UNL     1     -15.983   3.942  13.820  1.00  0.00    -0.237 OA
ATOM     74  O   UNL     1     -15.110   5.942  12.674  1.00  0.00    -0.744 OA
ENDBRANCH  70  71
ENDBRANCH  38  63
ENDBRANCH  12  13
ENDBRANCH   5   7
ENDBRANCH   2   3
ENDBRANCH   1   2
BRANCH   1  75
ATOM     75  C   UNL     1       2.809  -2.422   7.873  1.00  0.00     0.023 C 
BRANCH  75  76
ATOM     76  C   UNL     1       3.018  -1.633   6.543  1.00  0.00     0.116 C 
BRANCH  76  77
ATOM     77  N   UNL     1       4.097  -0.582   6.476  1.00  0.00    -0.351 N 
ATOM     78  C   UNL     1       5.437  -0.354   6.270  1.00  0.00     0.283 C 
ATOM     79  H   UNL     1       3.672   0.289   6.651  1.00  0.00     0.163 HD
ATOM     80  O   UNL     1       5.626   0.861   6.026  1.00  0.00    -0.268 OA
BRANCH  78  81
ATOM     81  C   UNL     1       6.828  -1.284   6.368  1.00  0.00     0.307 C 
BRANCH  81  82
ATOM     82  N   UNL     1       6.819  -2.669   7.014  1.00  0.00    -0.318 N 
ATOM     83  C   UNL     1       7.827  -2.964   8.121  1.00  0.00     0.285 C 
ATOM     84  C   UNL     1       5.597  -2.710   7.767  1.00  0.00     0.285 C 
ATOM     85  H   UNL     1       6.993  -3.311   6.240  1.00  0.00     0.349 HD
ATOM     86  C   UNL     1       7.298  -3.129   9.695  1.00  0.00     0.181 C 
ATOM     87  C   UNL     1       5.685  -1.561   8.831  1.00  0.00     0.181 C 
ATOM     88  N   UNL     1       6.232  -2.163  10.011  1.00  0.00    -0.330 N 
BRANCH  88  89
ATOM     89  C   UNL     1       5.352  -2.109  11.066  1.00  0.00     0.225 A 
ATOM     90  N   UNL     1       4.462  -1.085  11.041  1.00  0.00    -0.220 NA
ATOM     91  N   UNL     1       5.293  -3.059  12.000  1.00  0.00    -0.220 NA
ATOM     92  C   UNL     1       3.432  -1.057  11.902  1.00  0.00     0.132 A 
ATOM     93  C   UNL     1       4.253  -2.976  12.882  1.00  0.00     0.132 A 
ATOM     94  C   UNL     1       3.273  -2.007  12.861  1.00  0.00     0.054 A 
ATOM     95  Br  UNL     1       1.813  -1.978  14.036  1.00  0.00    -0.047 Br
ENDBRANCH  88  89
ENDBRANCH  81  82
BRANCH  81  96
ATOM     96  C   UNL     1       7.544  -1.252   5.034  1.00  0.00     0.044 A 
ATOM     97  C   UNL     1       6.978  -1.089   3.780  1.00  0.00     0.094 A 
ATOM     98  C   UNL     1       8.969  -1.158   4.843  1.00  0.00     0.011 A 
ATOM     99  N   UNL     1       7.977  -0.860   2.873  1.00  0.00    -0.361 N 
ATOM    100  C   UNL     1       9.204  -0.911   3.490  1.00  0.00     0.046 A 
ATOM    101  C   UNL     1      10.081  -1.200   5.710  1.00  0.00     0.031 A 
ATOM    102  H   UNL     1       7.837  -0.685   1.914  1.00  0.00     0.166 HD
ATOM    103  C   UNL     1      10.489  -0.725   2.962  1.00  0.00     0.028 A 
ATOM    104  C   UNL     1      11.369  -1.049   5.194  1.00  0.00     0.041 A 
ATOM    105  C   UNL     1      11.573  -0.814   3.840  1.00  0.00     0.022 A 
ATOM    106  Cl  UNL     1      12.721  -1.153   6.258  1.00  0.00    -0.084 Cl
ENDBRANCH  81  96
ENDBRANCH  78  81
ENDBRANCH  76  77
ENDBRANCH  75  76
ENDBRANCH   1  75
TORSDOF 17
