REMARK SMILES CC(C)[C@@H]([NH3+])C(=O)N[C@@H](Cc1ccccc1)C(=O)NCCCCNC(=O)c1ccc(-c2c3nc(c(-c4c(F)cc(S(=O)(=O)[O-])cc4F)c4ccc([nH]4)c(-c4c(F)cc(S(=O)(=O)[O-])cc4F)c4nc(c(-c5c(F)cc(S(=O)(=O)[O-])cc5F)c5ccc2[nH]5)C=C4)C=C3)cc1
REMARK SMILES IDX 21 1 20 2 19 3 17 4 18 5 9 7 8 8 6 9 7 10 4 12 2 13 1 14
REMARK SMILES IDX 3 15 5 16 10 20 11 21 12 22 16 23 13 24 15 25 14 26 22 27
REMARK SMILES IDX 23 28 24 29 25 30 26 32 27 33 28 34 92 35 29 36 91 37 30 38
REMARK SMILES IDX 31 39 32 40 85 41 33 42 90 43 84 44 86 45 34 46 89 47 83 48
REMARK SMILES IDX 82 49 35 51 69 52 48 53 68 54 49 55 52 56 67 57 87 58 50 59
REMARK SMILES IDX 51 60 66 62 88 63 53 64 36 65 37 66 46 67 38 68 39 69 45 70
REMARK SMILES IDX 47 71 40 72 41 73 42 74 43 75 44 76 70 77 71 78 80 79 72 80
REMARK SMILES IDX 73 81 79 82 81 83 74 84 75 85 76 86 77 87 78 88 54 89 55 90
REMARK SMILES IDX 64 91 56 92 57 93 63 94 65 95 58 96 59 97 60 98 61 99 62 100
REMARK H PARENT 19 6 8 11 5 17 5 18 5 19 24 31 86 50 52 61
REMARK Flexibility Score: inf
ROOT
ATOM      1  C   UNL     1      -3.448   3.203  -6.167  1.00  0.00     0.023 C 
ENDROOT
BRANCH   1   2
ATOM      2  C   UNL     1      -2.034   3.374  -5.636  1.00  0.00     0.116 C 
BRANCH   2   3
ATOM      3  N   UNL     1      -1.961   3.947  -4.309  1.00  0.00    -0.354 N 
ATOM      4  C   UNL     1      -1.057   3.721  -3.311  1.00  0.00     0.242 C 
ATOM      5  O   UNL     1      -0.888   4.645  -2.505  1.00  0.00    -0.273 OA
ATOM      6  H   UNL     1      -2.668   4.598  -4.094  1.00  0.00     0.163 HD
BRANCH   4   7
ATOM      7  C   UNL     1      -0.168   2.454  -3.227  1.00  0.00     0.175 C 
BRANCH   7   8
ATOM      8  N   UNL     1      -0.854   1.193  -3.542  1.00  0.00    -0.339 N 
ATOM      9  C   UNL     1      -1.239   0.171  -2.732  1.00  0.00     0.279 C 
ATOM     10  O   UNL     1      -1.953  -0.707  -3.228  1.00  0.00    -0.268 OA
ATOM     11  H   UNL     1      -1.071   1.069  -4.495  1.00  0.00     0.164 HD
BRANCH   9  12
ATOM     12  C   UNL     1      -0.772   0.058  -1.263  1.00  0.00     0.273 C 
BRANCH  12  13
ATOM     13  C   UNL     1       0.759  -0.145  -1.143  1.00  0.00     0.051 C 
ATOM     14  C   UNL     1       1.208  -0.314   0.312  1.00  0.00     0.014 C 
ATOM     15  C   UNL     1       1.220  -1.365  -1.952  1.00  0.00     0.014 C 
ENDBRANCH  12  13
BRANCH  12  16
ATOM     16  N   UNL     1      -1.273   1.214  -0.496  1.00  0.00    -0.347 N 
ATOM     17  H   UNL     1      -0.885   2.074  -0.885  1.00  0.00     0.345 HD
ATOM     18  H   UNL     1      -0.989   1.123   0.479  1.00  0.00     0.345 HD
ATOM     19  H   UNL     1      -2.291   1.244  -0.552  1.00  0.00     0.345 HD
ENDBRANCH  12  16
ENDBRANCH   9  12
ENDBRANCH   7   8
BRANCH   7  20
ATOM     20  C   UNL     1       1.194   2.603  -3.941  1.00  0.00     0.070 C 
BRANCH  20  21
ATOM     21  C   UNL     1       1.175   2.804  -5.437  1.00  0.00    -0.045 A 
ATOM     22  C   UNL     1       1.359   4.087  -5.976  1.00  0.00     0.004 A 
ATOM     23  C   UNL     1       0.951   1.729  -6.309  1.00  0.00     0.004 A 
ATOM     24  C   UNL     1       1.269   4.297  -7.354  1.00  0.00     0.000 A 
ATOM     25  C   UNL     1       0.845   1.945  -7.686  1.00  0.00     0.000 A 
ATOM     26  C   UNL     1       0.995   3.229  -8.206  1.00  0.00     0.000 A 
ENDBRANCH  20  21
ENDBRANCH   7  20
ENDBRANCH   4   7
ENDBRANCH   2   3
ENDBRANCH   1   2
BRANCH   1  27
ATOM     27  C   UNL     1      -4.140   4.495  -6.595  1.00  0.00     0.023 C 
BRANCH  27  28
ATOM     28  C   UNL     1      -3.341   5.415  -7.515  1.00  0.00     0.116 C 
BRANCH  28  29
ATOM     29  N   UNL     1      -2.803   4.759  -8.700  1.00  0.00    -0.352 N 
ATOM     30  C   UNL     1      -2.755   5.230  -9.993  1.00  0.00     0.251 C 
ATOM     31  H   UNL     1      -2.423   3.862  -8.558  1.00  0.00     0.163 HD
ATOM     32  O   UNL     1      -2.297   4.535 -10.895  1.00  0.00    -0.269 OA
BRANCH  30  33
ATOM     33  C   UNL     1      -3.304   6.570 -10.286  1.00  0.00     0.039 A 
ATOM     34  C   UNL     1      -4.307   6.695 -11.249  1.00  0.00     0.014 A 
ATOM     35  C   UNL     1      -2.889   7.679  -9.543  1.00  0.00     0.014 A 
ATOM     36  C   UNL     1      -4.967   7.917 -11.399  1.00  0.00     0.010 A 
ATOM     37  C   UNL     1      -3.592   8.875  -9.648  1.00  0.00     0.010 A 
ATOM     38  C   UNL     1      -4.650   9.001 -10.563  1.00  0.00    -0.014 A 
BRANCH  38  39
ATOM     39  C   UNL     1      -5.439  10.259 -10.595  1.00  0.00     0.031 A 
ATOM     40  C   UNL     1      -4.786  11.551 -10.997  1.00  0.00     0.074 A 
ATOM     41  C   UNL     1      -6.719  10.252 -10.170  1.00  0.00     0.049 A 
ATOM     42  N   UNL     1      -5.280  12.762 -10.992  1.00  0.00    -0.248 NA
ATOM     43  C   UNL     1      -3.382  11.476 -11.433  1.00  0.00     0.031 C 
ATOM     44  C   UNL     1      -7.448   9.075  -9.690  1.00  0.00     0.029 A 
ATOM     45  N   UNL     1      -7.630  11.273 -10.054  1.00  0.00    -0.354 N 
ATOM     46  C   UNL     1      -4.245  13.595 -11.398  1.00  0.00     0.074 A 
ATOM     47  C   UNL     1      -3.084  12.756 -11.605  1.00  0.00     0.031 C 
ATOM     48  C   UNL     1      -8.695   9.438  -9.347  1.00  0.00     0.029 A 
ATOM     49  C   UNL     1      -8.847  10.874  -9.553  1.00  0.00     0.049 A 
ATOM     50  H   UNL     1      -7.431  12.203 -10.307  1.00  0.00     0.167 HD
ATOM     51  C   UNL     1      -4.265  14.934 -11.600  1.00  0.00     0.037 A 
ATOM     52  C   UNL     1      -9.959  11.586  -9.283  1.00  0.00     0.037 A 
ATOM     53  C   UNL     1      -5.432  15.760 -11.432  1.00  0.00     0.049 A 
ATOM     54  C   UNL     1      -9.970  13.065  -9.557  1.00  0.00     0.074 A 
ATOM     55  C   UNL     1      -5.571  17.114 -11.682  1.00  0.00     0.029 A 
ATOM     56  N   UNL     1      -6.662  15.309 -10.977  1.00  0.00    -0.354 N 
ATOM     57  N   UNL     1      -9.001  13.825 -10.007  1.00  0.00    -0.248 NA
ATOM     58  C   UNL     1     -11.226  13.781  -9.296  1.00  0.00     0.031 C 
ATOM     59  C   UNL     1      -6.879  17.488 -11.354  1.00  0.00     0.029 A 
ATOM     60  C   UNL     1      -7.563  16.359 -10.931  1.00  0.00     0.049 A 
ATOM     61  H   UNL     1      -6.865  14.379 -10.725  1.00  0.00     0.167 HD
ATOM     62  C   UNL     1      -9.537  15.104 -10.105  1.00  0.00     0.074 A 
ATOM     63  C   UNL     1     -10.917  15.014  -9.676  1.00  0.00     0.031 C 
ATOM     64  C   UNL     1      -8.938  16.249 -10.513  1.00  0.00     0.037 A 
BRANCH  51  65
ATOM     65  C   UNL     1      -2.986  15.588 -12.038  1.00  0.00     0.058 A 
ATOM     66  C   UNL     1      -2.483  15.417 -13.337  1.00  0.00     0.135 A 
ATOM     67  C   UNL     1      -2.267  16.413 -11.159  1.00  0.00     0.135 A 
ATOM     68  F   UNL     1      -3.124  14.625 -14.211  1.00  0.00    -0.206 F 
ATOM     69  C   UNL     1      -1.296  16.018 -13.742  1.00  0.00     0.059 A 
ATOM     70  C   UNL     1      -1.089  17.044 -11.550  1.00  0.00     0.059 A 
ATOM     71  F   UNL     1      -2.704  16.608  -9.905  1.00  0.00    -0.206 F 
ATOM     72  C   UNL     1      -0.604  16.827 -12.839  1.00  0.00     0.060 A 
BRANCH  72  73
ATOM     73  S   UNL     1       0.936  17.600 -13.376  1.00  0.00     0.124 S 
ATOM     74  O   UNL     1       1.863  16.475 -13.310  1.00  0.00    -0.237 OA
ATOM     75  O   UNL     1       0.603  18.068 -14.718  1.00  0.00    -0.237 OA
ATOM     76  O   UNL     1       1.151  18.650 -12.385  1.00  0.00    -0.744 OA
ENDBRANCH  72  73
ENDBRANCH  51  65
BRANCH  52  77
ATOM     77  C   UNL     1     -11.165  10.903  -8.747  1.00  0.00     0.058 A 
ATOM     78  C   UNL     1     -12.288  10.688  -9.560  1.00  0.00     0.135 A 
ATOM     79  C   UNL     1     -11.216  10.442  -7.423  1.00  0.00     0.135 A 
ATOM     80  F   UNL     1     -12.287  11.117 -10.831  1.00  0.00    -0.206 F 
ATOM     81  C   UNL     1     -13.426  10.053  -9.076  1.00  0.00     0.059 A 
ATOM     82  C   UNL     1     -12.336   9.786  -6.922  1.00  0.00     0.059 A 
ATOM     83  F   UNL     1     -10.160  10.609  -6.612  1.00  0.00    -0.206 F 
ATOM     84  C   UNL     1     -13.441   9.605  -7.754  1.00  0.00     0.060 A 
BRANCH  84  85
ATOM     85  S   UNL     1     -14.902   8.734  -7.147  1.00  0.00     0.124 S 
ATOM     86  O   UNL     1     -15.826   9.838  -6.917  1.00  0.00    -0.237 OA
ATOM     87  O   UNL     1     -15.225   7.854  -8.266  1.00  0.00    -0.237 OA
ATOM     88  O   UNL     1     -14.413   8.057  -5.950  1.00  0.00    -0.744 OA
ENDBRANCH  84  85
ENDBRANCH  52  77
BRANCH  64  89
ATOM     89  C   UNL     1      -9.779  17.493 -10.549  1.00  0.00     0.058 A 
ATOM     90  C   UNL     1     -10.114  18.187  -9.377  1.00  0.00     0.135 A 
ATOM     91  C   UNL     1     -10.206  18.025 -11.776  1.00  0.00     0.135 A 
ATOM     92  F   UNL     1      -9.735  17.713  -8.180  1.00  0.00    -0.206 F 
ATOM     93  C   UNL     1     -10.859  19.361  -9.418  1.00  0.00     0.059 A 
ATOM     94  C   UNL     1     -10.934  19.209 -11.842  1.00  0.00     0.059 A 
ATOM     95  F   UNL     1      -9.903  17.402 -12.926  1.00  0.00    -0.206 F 
ATOM     96  C   UNL     1     -11.264  19.865 -10.656  1.00  0.00     0.060 A 
BRANCH  96  97
ATOM     97  S   UNL     1     -12.194  21.411 -10.703  1.00  0.00     0.124 S 
ATOM     98  O   UNL     1     -13.528  20.963 -10.316  1.00  0.00    -0.237 OA
ATOM     99  O   UNL     1     -11.492  22.232  -9.722  1.00  0.00    -0.237 OA
ATOM    100  O   UNL     1     -12.054  21.848 -12.089  1.00  0.00    -0.744 OA
ENDBRANCH  96  97
ENDBRANCH  64  89
ENDBRANCH  38  39
ENDBRANCH  30  33
ENDBRANCH  28  29
ENDBRANCH  27  28
ENDBRANCH   1  27
TORSDOF 20
