REMARK SMILES CC(=O)N1CCN(C(=O)c2ccc(=O)n(CCC(=O)NCCCCNC(=O)c3ccc(-c4c5nc(c(-c6c(F)cc(S(=O)(=O)[O-])cc6F)c6ccc([nH]6)c(-c6c(F)cc(S(=O)(=O)[O-])cc6F)c6nc(c(-c7c(F)cc(S(=O)(=O)[O-])cc7F)c7ccc4[nH]7)C=C6)C=C5)cc3)n2)CC1
REMARK SMILES IDX 22 1 21 2 20 3 18 4 19 5 17 7 16 8 15 9 10 10 11 11 94 12
REMARK SMILES IDX 12 13 13 14 14 15 8 16 1 17 2 18 3 19 4 20 5 21 96 22 6 23
REMARK SMILES IDX 95 24 7 25 9 26 23 27 24 28 25 29 26 30 27 32 28 33 29 34
REMARK SMILES IDX 93 35 30 36 92 37 31 38 32 39 33 40 86 41 34 42 91 43 85 44
REMARK SMILES IDX 87 45 35 46 90 47 84 48 83 49 36 51 70 52 49 53 69 54 50 55
REMARK SMILES IDX 53 56 68 57 88 58 51 59 52 60 67 62 89 63 54 64 37 65 38 66
REMARK SMILES IDX 47 67 39 68 40 69 46 70 48 71 41 72 42 73 43 74 44 75 45 76
REMARK SMILES IDX 71 77 72 78 81 79 73 80 74 81 80 82 82 83 75 84 76 85 77 86
REMARK SMILES IDX 78 87 79 88 55 89 56 90 65 91 57 92 58 93 64 94 66 95 59 96
REMARK SMILES IDX 60 97 61 98 62 99 63 100
REMARK H PARENT 20 6 25 31 87 50 53 61
REMARK Flexibility Score: inf
ROOT
ATOM      1  C   UNL     1       6.850  -0.225  -9.134  1.00  0.00     0.023 C 
ENDROOT
BRANCH   1   2
ATOM      2  C   UNL     1       7.082  -1.735  -9.043  1.00  0.00     0.116 C 
BRANCH   2   3
ATOM      3  N   UNL     1       8.013  -2.098  -7.994  1.00  0.00    -0.356 N 
ATOM      4  C   UNL     1       7.913  -3.031  -7.010  1.00  0.00     0.221 C 
ATOM      5  O   UNL     1       8.901  -3.264  -6.310  1.00  0.00    -0.275 OA
ATOM      6  H   UNL     1       8.855  -1.587  -7.994  1.00  0.00     0.163 HD
BRANCH   4   7
ATOM      7  C   UNL     1       6.620  -3.773  -6.763  1.00  0.00     0.124 C 
BRANCH   7   8
ATOM      8  C   UNL     1       5.957  -3.260  -5.488  1.00  0.00     0.158 C 
BRANCH   8   9
ATOM      9  N   UNL     1       4.868  -2.324  -5.767  1.00  0.00    -0.229 N 
ATOM     10  C   UNL     1       2.615  -2.007  -5.902  1.00  0.00     0.149 A 
ATOM     11  C   UNL     1       2.757  -0.645  -6.441  1.00  0.00     0.042 A 
ATOM     12  N   UNL     1       3.587  -2.825  -5.639  1.00  0.00    -0.164 NA
ATOM     13  C   UNL     1       3.996  -0.154  -6.441  1.00  0.00     0.076 A 
ATOM     14  C   UNL     1       5.142  -0.980  -5.993  1.00  0.00     0.266 A 
ATOM     15  O   UNL     1       6.247  -0.462  -5.884  1.00  0.00    -0.268 OA
BRANCH  10  16
ATOM     16  C   UNL     1       1.209  -2.420  -5.511  1.00  0.00     0.274 C 
ATOM     17  C   UNL     1       0.497  -0.470   0.470  1.00  0.00     0.114 C 
ATOM     18  C   UNL     1      -0.365  -1.395  -0.353  1.00  0.00     0.219 C 
ATOM     19  O   UNL     1      -1.552  -1.551  -0.067  1.00  0.00    -0.275 OA
ATOM     20  N   UNL     1       0.234  -2.032  -1.424  1.00  0.00    -0.339 N 
ATOM     21  C   UNL     1      -0.560  -2.897  -2.305  1.00  0.00     0.141 C 
ATOM     22  C   UNL     1       1.622  -1.855  -1.856  1.00  0.00     0.141 C 
ATOM     23  C   UNL     1      -0.530  -2.384  -3.755  1.00  0.00     0.141 C 
ATOM     24  C   UNL     1       1.666  -1.303  -3.285  1.00  0.00     0.141 C 
ATOM     25  N   UNL     1       0.835  -2.093  -4.209  1.00  0.00    -0.334 N 
ATOM     26  O   UNL     1       0.508  -2.976  -6.341  1.00  0.00    -0.267 OA
ENDBRANCH  10  16
ENDBRANCH   8   9
ENDBRANCH   7   8
ENDBRANCH   4   7
ENDBRANCH   2   3
ENDBRANCH   1   2
BRANCH   1  27
ATOM     27  C   UNL     1       6.267   0.225 -10.479  1.00  0.00     0.023 C 
BRANCH  27  28
ATOM     28  C   UNL     1       5.031  -0.549 -10.944  1.00  0.00     0.116 C 
BRANCH  28  29
ATOM     29  N   UNL     1       3.767  -0.050 -10.427  1.00  0.00    -0.352 N 
ATOM     30  C   UNL     1       3.006   1.052 -10.748  1.00  0.00     0.251 C 
ATOM     31  H   UNL     1       3.382  -0.606  -9.711  1.00  0.00     0.163 HD
ATOM     32  O   UNL     1       1.969   1.245 -10.113  1.00  0.00    -0.269 OA
BRANCH  30  33
ATOM     33  C   UNL     1       3.448   2.052 -11.758  1.00  0.00     0.039 A 
ATOM     34  C   UNL     1       4.131   1.706 -12.920  1.00  0.00     0.014 A 
ATOM     35  C   UNL     1       3.197   3.407 -11.503  1.00  0.00     0.014 A 
ATOM     36  C   UNL     1       4.778   2.688 -13.670  1.00  0.00     0.010 A 
ATOM     37  C   UNL     1       3.759   4.398 -12.318  1.00  0.00     0.010 A 
ATOM     38  C   UNL     1       4.638   4.046 -13.353  1.00  0.00    -0.014 A 
BRANCH  38  39
ATOM     39  C   UNL     1       5.532   5.052 -13.998  1.00  0.00     0.031 A 
ATOM     40  C   UNL     1       6.492   5.852 -13.147  1.00  0.00     0.074 A 
ATOM     41  C   UNL     1       5.599   5.169 -15.340  1.00  0.00     0.049 A 
ATOM     42  N   UNL     1       7.299   6.820 -13.502  1.00  0.00    -0.248 NA
ATOM     43  C   UNL     1       6.545   5.535 -11.710  1.00  0.00     0.031 C 
ATOM     44  C   UNL     1       4.781   4.432 -16.304  1.00  0.00     0.029 A 
ATOM     45  N   UNL     1       6.454   5.903 -16.126  1.00  0.00    -0.354 N 
ATOM     46  C   UNL     1       7.876   7.286 -12.326  1.00  0.00     0.074 A 
ATOM     47  C   UNL     1       7.357   6.474 -11.248  1.00  0.00     0.031 C 
ATOM     48  C   UNL     1       5.255   4.655 -17.542  1.00  0.00     0.029 A 
ATOM     49  C   UNL     1       6.368   5.596 -17.463  1.00  0.00     0.049 A 
ATOM     50  H   UNL     1       7.068   6.583 -15.766  1.00  0.00     0.167 HD
ATOM     51  C   UNL     1       8.749   8.306 -12.155  1.00  0.00     0.037 A 
ATOM     52  C   UNL     1       7.115   6.010 -18.504  1.00  0.00     0.037 A 
ATOM     53  C   UNL     1       9.349   9.048 -13.228  1.00  0.00     0.049 A 
ATOM     54  C   UNL     1       8.193   7.032 -18.292  1.00  0.00     0.074 A 
ATOM     55  C   UNL     1      10.164  10.166 -13.167  1.00  0.00     0.029 A 
ATOM     56  N   UNL     1       9.252   8.696 -14.564  1.00  0.00    -0.354 N 
ATOM     57  N   UNL     1       8.576   7.600 -17.175  1.00  0.00    -0.248 NA
ATOM     58  C   UNL     1       8.916   7.493 -19.486  1.00  0.00     0.031 C 
ATOM     59  C   UNL     1      10.585  10.471 -14.469  1.00  0.00     0.029 A 
ATOM     60  C   UNL     1      10.031   9.541 -15.334  1.00  0.00     0.049 A 
ATOM     61  H   UNL     1       8.709   7.953 -14.914  1.00  0.00     0.167 HD
ATOM     62  C   UNL     1       9.554   8.518 -17.537  1.00  0.00     0.074 A 
ATOM     63  C   UNL     1       9.741   8.394 -18.968  1.00  0.00     0.031 C 
ATOM     64  C   UNL     1      10.210   9.408 -16.754  1.00  0.00     0.037 A 
BRANCH  51  65
ATOM     65  C   UNL     1       9.069   8.697 -10.745  1.00  0.00     0.058 A 
ATOM     66  C   UNL     1      10.041   8.024  -9.993  1.00  0.00     0.135 A 
ATOM     67  C   UNL     1       8.373   9.753 -10.135  1.00  0.00     0.135 A 
ATOM     68  F   UNL     1      10.711   6.990 -10.526  1.00  0.00    -0.206 F 
ATOM     69  C   UNL     1      10.301   8.372  -8.671  1.00  0.00     0.059 A 
ATOM     70  C   UNL     1       8.624  10.125  -8.819  1.00  0.00     0.059 A 
ATOM     71  F   UNL     1       7.425  10.419 -10.813  1.00  0.00    -0.206 F 
ATOM     72  C   UNL     1       9.579   9.417  -8.089  1.00  0.00     0.060 A 
BRANCH  72  73
ATOM     73  S   UNL     1       9.891   9.860  -6.367  1.00  0.00     0.124 S 
ATOM     74  O   UNL     1       8.982   8.957  -5.668  1.00  0.00    -0.237 OA
ATOM     75  O   UNL     1      11.313   9.573  -6.210  1.00  0.00    -0.237 OA
ATOM     76  O   UNL     1       9.533  11.275  -6.320  1.00  0.00    -0.744 OA
ENDBRANCH  72  73
ENDBRANCH  51  65
BRANCH  52  77
ATOM     77  C   UNL     1       6.889   5.425 -19.846  1.00  0.00     0.058 A 
ATOM     78  C   UNL     1       7.713   4.389 -20.312  1.00  0.00     0.135 A 
ATOM     79  C   UNL     1       5.842   5.858 -20.670  1.00  0.00     0.135 A 
ATOM     80  F   UNL     1       8.728   3.948 -19.553  1.00  0.00    -0.206 F 
ATOM     81  C   UNL     1       7.505   3.797 -21.552  1.00  0.00     0.059 A 
ATOM     82  C   UNL     1       5.609   5.276 -21.911  1.00  0.00     0.059 A 
ATOM     83  F   UNL     1       5.026   6.840 -20.258  1.00  0.00    -0.206 F 
ATOM     84  C   UNL     1       6.449   4.247 -22.345  1.00  0.00     0.060 A 
BRANCH  84  85
ATOM     85  S   UNL     1       6.111   3.439 -23.924  1.00  0.00     0.124 S 
ATOM     86  O   UNL     1       6.836   4.297 -24.853  1.00  0.00    -0.237 OA
ATOM     87  O   UNL     1       6.662   2.101 -23.729  1.00  0.00    -0.237 OA
ATOM     88  O   UNL     1       4.654   3.498 -24.006  1.00  0.00    -0.744 OA
ENDBRANCH  84  85
ENDBRANCH  52  77
BRANCH  64  89
ATOM     89  C   UNL     1      11.161  10.342 -17.434  1.00  0.00     0.058 A 
ATOM     90  C   UNL     1      10.701  11.543 -17.995  1.00  0.00     0.135 A 
ATOM     91  C   UNL     1      12.532  10.061 -17.498  1.00  0.00     0.135 A 
ATOM     92  F   UNL     1       9.394  11.849 -17.956  1.00  0.00    -0.206 F 
ATOM     93  C   UNL     1      11.572  12.435 -18.607  1.00  0.00     0.059 A 
ATOM     94  C   UNL     1      13.423  10.942 -18.104  1.00  0.00     0.059 A 
ATOM     95  F   UNL     1      13.014   8.922 -16.975  1.00  0.00    -0.206 F 
ATOM     96  C   UNL     1      12.931  12.123 -18.663  1.00  0.00     0.060 A 
BRANCH  96  97
ATOM     97  S   UNL     1      14.068  13.294 -19.436  1.00  0.00     0.124 S 
ATOM     98  O   UNL     1      13.968  12.913 -20.841  1.00  0.00    -0.237 OA
ATOM     99  O   UNL     1      13.486  14.587 -19.088  1.00  0.00    -0.237 OA
ATOM    100  O   UNL     1      15.342  12.995 -18.790  1.00  0.00    -0.744 OA
ENDBRANCH  96  97
ENDBRANCH  64  89
ENDBRANCH  38  39
ENDBRANCH  30  33
ENDBRANCH  28  29
ENDBRANCH  27  28
ENDBRANCH   1  27
TORSDOF 17
