REMARK SMILES Cc1ccccc1N[C@H](C(=O)NCCCCNC(=O)c1ccc(-c2c3nc(c(-c4c(F)cc(S(=O)(=O)[O-])cc4F)c4ccc([nH]4)c(-c4c(F)cc(S(=O)(=O)[O-])cc4F)c4nc(c(-c5c(F)cc(S(=O)(=O)[O-])cc5F)c5ccc2[nH]5)C=C4)C=C3)cc1)c1ccccc1
REMARK SMILES IDX 15 1 14 2 13 3 12 4 10 5 11 6 9 8 8 9 7 11 1 12 2 13 3 14
REMARK SMILES IDX 4 15 6 16 5 17 86 18 87 19 91 20 88 21 90 22 89 23 16 24
REMARK SMILES IDX 17 25 18 26 19 28 20 29 21 30 85 31 22 32 84 33 23 34 24 35
REMARK SMILES IDX 25 36 78 37 26 38 83 39 77 40 79 41 27 42 82 43 76 44 75 45
REMARK SMILES IDX 28 47 62 48 41 49 61 50 42 51 45 52 60 53 80 54 43 55 44 56
REMARK SMILES IDX 59 58 81 59 46 60 29 61 30 62 39 63 31 64 32 65 38 66 40 67
REMARK SMILES IDX 33 68 34 69 35 70 36 71 37 72 63 73 64 74 73 75 65 76 66 77
REMARK SMILES IDX 72 78 74 79 67 80 68 81 69 82 70 83 71 84 47 85 48 86 57 87
REMARK SMILES IDX 49 88 50 89 56 90 58 91 51 92 52 93 53 94 54 95 55 96
REMARK H PARENT 12 7 8 10 17 27 79 46 45 57
REMARK Flexibility Score: inf
ROOT
ATOM      1  C   UNL     1       3.279   2.669   4.298  1.00  0.00     0.023 C 
ENDROOT
BRANCH   1   2
ATOM      2  C   UNL     1       2.053   3.502   3.925  1.00  0.00     0.023 C 
BRANCH   2   3
ATOM      3  C   UNL     1       1.891   3.783   2.432  1.00  0.00     0.116 C 
BRANCH   3   4
ATOM      4  N   UNL     1       1.529   2.608   1.653  1.00  0.00    -0.354 N 
ATOM      5  C   UNL     1       0.791   2.558   0.496  1.00  0.00     0.247 C 
ATOM      6  O   UNL     1       0.675   1.455  -0.056  1.00  0.00    -0.272 OA
ATOM      7  H   UNL     1       1.854   1.745   1.997  1.00  0.00     0.163 HD
BRANCH   5   8
ATOM      8  C   UNL     1       0.077   3.821  -0.084  1.00  0.00     0.200 C 
BRANCH   8   9
ATOM      9  N   UNL     1      -1.015   4.205   0.847  1.00  0.00    -0.370 N 
ATOM     10  H   UNL     1      -1.752   3.553   0.827  1.00  0.00     0.161 HD
BRANCH   9  11
ATOM     11  C   UNL     1      -1.273   5.230   1.730  1.00  0.00     0.038 A 
ATOM     12  C   UNL     1      -2.772   3.708   3.159  1.00  0.00     0.046 C 
ATOM     13  C   UNL     1      -2.228   5.056   2.759  1.00  0.00    -0.028 A 
ATOM     14  C   UNL     1      -2.652   6.151   3.545  1.00  0.00     0.005 A 
ATOM     15  C   UNL     1      -2.084   7.408   3.390  1.00  0.00     0.000 A 
ATOM     16  C   UNL     1      -0.623   6.469   1.723  1.00  0.00     0.026 A 
ATOM     17  C   UNL     1      -1.034   7.555   2.506  1.00  0.00     0.002 A 
ENDBRANCH   9  11
ENDBRANCH   8   9
BRANCH   8  18
ATOM     18  C   UNL     1       0.991   4.900  -0.635  1.00  0.00    -0.016 A 
ATOM     19  C   UNL     1       0.450   6.084  -1.167  1.00  0.00     0.006 A 
ATOM     20  C   UNL     1       2.388   4.765  -0.627  1.00  0.00     0.006 A 
ATOM     21  C   UNL     1       1.267   7.189  -1.397  1.00  0.00     0.000 A 
ATOM     22  C   UNL     1       3.207   5.862  -0.867  1.00  0.00     0.000 A 
ATOM     23  C   UNL     1       2.635   7.084  -1.193  1.00  0.00     0.000 A 
ENDBRANCH   8  18
ENDBRANCH   5   8
ENDBRANCH   3   4
ENDBRANCH   2   3
ENDBRANCH   1   2
BRANCH   1  24
ATOM     24  C   UNL     1       4.615   3.297   3.940  1.00  0.00     0.116 C 
BRANCH  24  25
ATOM     25  N   UNL     1       5.064   4.401   4.773  1.00  0.00    -0.352 N 
ATOM     26  C   UNL     1       6.438   4.574   4.955  1.00  0.00     0.251 C 
ATOM     27  H   UNL     1       4.417   5.010   5.197  1.00  0.00     0.163 HD
ATOM     28  O   UNL     1       7.070   4.173   5.913  1.00  0.00    -0.269 OA
BRANCH  26  29
ATOM     29  C   UNL     1       7.126   5.132   3.765  1.00  0.00     0.039 A 
ATOM     30  C   UNL     1       7.614   6.440   3.735  1.00  0.00     0.014 A 
ATOM     31  C   UNL     1       7.136   4.339   2.618  1.00  0.00     0.014 A 
ATOM     32  C   UNL     1       7.991   6.995   2.507  1.00  0.00     0.010 A 
ATOM     33  C   UNL     1       7.412   4.912   1.402  1.00  0.00     0.010 A 
ATOM     34  C   UNL     1       7.822   6.245   1.340  1.00  0.00    -0.014 A 
BRANCH  34  35
ATOM     35  C   UNL     1       7.934   6.750  -0.019  1.00  0.00     0.031 A 
ATOM     36  C   UNL     1       9.053   6.347  -0.899  1.00  0.00     0.074 A 
ATOM     37  C   UNL     1       6.858   7.364  -0.557  1.00  0.00     0.049 A 
ATOM     38  N   UNL     1       9.380   6.983  -1.973  1.00  0.00    -0.248 NA
ATOM     39  C   UNL     1       9.901   5.185  -0.640  1.00  0.00     0.031 C 
ATOM     40  C   UNL     1       6.569   7.549  -1.973  1.00  0.00     0.029 A 
ATOM     41  N   UNL     1       5.876   8.112   0.087  1.00  0.00    -0.354 N 
ATOM     42  C   UNL     1      10.223   6.168  -2.691  1.00  0.00     0.074 A 
ATOM     43  C   UNL     1      10.584   5.099  -1.787  1.00  0.00     0.031 C 
ATOM     44  C   UNL     1       5.729   8.585  -2.103  1.00  0.00     0.029 A 
ATOM     45  C   UNL     1       5.552   9.162  -0.779  1.00  0.00     0.049 A 
ATOM     46  H   UNL     1       5.488   7.938   0.975  1.00  0.00     0.167 HD
ATOM     47  C   UNL     1      10.406   6.385  -4.024  1.00  0.00     0.037 A 
ATOM     48  C   UNL     1       5.636  10.488  -0.475  1.00  0.00     0.037 A 
ATOM     49  C   UNL     1       9.615   7.517  -4.496  1.00  0.00     0.049 A 
ATOM     50  C   UNL     1       6.522  11.209  -1.460  1.00  0.00     0.074 A 
ATOM     51  C   UNL     1       8.386   7.591  -5.132  1.00  0.00     0.029 A 
ATOM     52  N   UNL     1       9.900   8.803  -4.044  1.00  0.00    -0.354 N 
ATOM     53  N   UNL     1       7.396  10.591  -2.207  1.00  0.00    -0.248 NA
ATOM     54  C   UNL     1       6.495  12.644  -1.715  1.00  0.00     0.031 C 
ATOM     55  C   UNL     1       7.908   8.918  -5.019  1.00  0.00     0.029 A 
ATOM     56  C   UNL     1       8.851   9.658  -4.326  1.00  0.00     0.049 A 
ATOM     57  H   UNL     1      10.732   9.066  -3.588  1.00  0.00     0.167 HD
ATOM     58  C   UNL     1       7.998  11.480  -3.053  1.00  0.00     0.074 A 
ATOM     59  C   UNL     1       7.415  12.759  -2.692  1.00  0.00     0.031 C 
ATOM     60  C   UNL     1       8.906  11.074  -3.989  1.00  0.00     0.037 A 
BRANCH  47  61
ATOM     61  C   UNL     1      11.075   5.374  -4.924  1.00  0.00     0.058 A 
ATOM     62  C   UNL     1      10.572   5.085  -6.210  1.00  0.00     0.135 A 
ATOM     63  C   UNL     1      12.220   4.641  -4.551  1.00  0.00     0.135 A 
ATOM     64  F   UNL     1       9.510   5.729  -6.712  1.00  0.00    -0.206 F 
ATOM     65  C   UNL     1      11.119   4.102  -7.036  1.00  0.00     0.059 A 
ATOM     66  C   UNL     1      12.760   3.620  -5.342  1.00  0.00     0.059 A 
ATOM     67  F   UNL     1      12.859   4.907  -3.401  1.00  0.00    -0.206 F 
ATOM     68  C   UNL     1      12.201   3.358  -6.587  1.00  0.00     0.060 A 
BRANCH  68  69
ATOM     69  S   UNL     1      12.846   2.053  -7.651  1.00  0.00     0.124 S 
ATOM     70  O   UNL     1      11.643   1.287  -7.966  1.00  0.00    -0.237 OA
ATOM     71  O   UNL     1      13.419   2.816  -8.754  1.00  0.00    -0.237 OA
ATOM     72  O   UNL     1      13.809   1.364  -6.796  1.00  0.00    -0.744 OA
ENDBRANCH  68  69
ENDBRANCH  47  61
BRANCH  48  73
ATOM     73  C   UNL     1       5.450  10.784   0.971  1.00  0.00     0.058 A 
ATOM     74  C   UNL     1       4.148  10.613   1.485  1.00  0.00     0.135 A 
ATOM     75  C   UNL     1       6.522  10.668   1.869  1.00  0.00     0.135 A 
ATOM     76  F   UNL     1       3.086  10.750   0.674  1.00  0.00    -0.206 F 
ATOM     77  C   UNL     1       3.929  10.131   2.773  1.00  0.00     0.059 A 
ATOM     78  C   UNL     1       6.323  10.192   3.167  1.00  0.00     0.059 A 
ATOM     79  F   UNL     1       7.782  10.807   1.435  1.00  0.00    -0.206 F 
ATOM     80  C   UNL     1       5.033   9.841   3.572  1.00  0.00     0.060 A 
BRANCH  80  81
ATOM     81  S   UNL     1       4.772   8.833   5.058  1.00  0.00     0.124 S 
ATOM     82  O   UNL     1       3.710   9.563   5.740  1.00  0.00    -0.237 OA
ATOM     83  O   UNL     1       4.395   7.540   4.484  1.00  0.00    -0.237 OA
ATOM     84  O   UNL     1       6.078   8.864   5.707  1.00  0.00    -0.744 OA
ENDBRANCH  80  81
ENDBRANCH  48  73
BRANCH  60  85
ATOM     85  C   UNL     1       9.837  11.965  -4.775  1.00  0.00     0.058 A 
ATOM     86  C   UNL     1      10.289  13.213  -4.318  1.00  0.00     0.135 A 
ATOM     87  C   UNL     1      10.443  11.497  -5.969  1.00  0.00     0.135 A 
ATOM     88  F   UNL     1       9.875  13.722  -3.149  1.00  0.00    -0.206 F 
ATOM     89  C   UNL     1      11.229  13.970  -5.019  1.00  0.00     0.059 A 
ATOM     90  C   UNL     1      11.424  12.208  -6.651  1.00  0.00     0.059 A 
ATOM     91  F   UNL     1      10.119  10.312  -6.507  1.00  0.00    -0.206 F 
ATOM     92  C   UNL     1      11.794  13.458  -6.182  1.00  0.00     0.060 A 
BRANCH  92  93
ATOM     93  S   UNL     1      13.066  14.394  -7.046  1.00  0.00     0.124 S 
ATOM     94  O   UNL     1      12.263  15.184  -7.973  1.00  0.00    -0.237 OA
ATOM     95  O   UNL     1      13.704  15.144  -5.968  1.00  0.00    -0.237 OA
ATOM     96  O   UNL     1      13.893  13.354  -7.649  1.00  0.00    -0.744 OA
ENDBRANCH  92  93
ENDBRANCH  60  85
ENDBRANCH  34  35
ENDBRANCH  26  29
ENDBRANCH  24  25
ENDBRANCH   1  24
TORSDOF 17
