REMARK SMILES O=C(NCCCCNC(=O)C1CCN(S(=O)(=O)C2CC2)CC1)c1ccc(-c2c3nc(c(-c4c(F)cc(S(=O)(=O)[O-])cc4F)c4ccc([nH]4)c(-c4c(F)cc(S(=O)(=O)[O-])cc4F)c4nc(c(-c5c(F)cc(S(=O)(=O)[O-])cc5F)c5ccc2[nH]5)C=C4)C=C3)cc1
REMARK SMILES IDX 5 1 4 2 3 3 1 4 2 5 23 7 24 8 88 9 25 10 87 11 26 12 27 13
REMARK SMILES IDX 28 14 81 15 29 16 86 17 80 18 82 19 30 20 85 21 79 22 78 23
REMARK SMILES IDX 31 25 65 26 44 27 64 28 45 29 48 30 63 31 83 32 46 33 47 34
REMARK SMILES IDX 62 36 84 37 49 38 32 39 33 40 42 41 34 42 35 43 41 44 43 45
REMARK SMILES IDX 36 46 37 47 38 48 39 49 40 50 66 51 67 52 76 53 68 54 69 55
REMARK SMILES IDX 75 56 77 57 70 58 71 59 72 60 73 61 74 62 50 63 51 64 60 65
REMARK SMILES IDX 52 66 53 67 59 68 61 69 54 70 55 71 56 72 57 73 58 74 6 75
REMARK SMILES IDX 7 76 8 77 9 78 10 80 11 81 12 82 22 83 13 84 21 85 14 86
REMARK SMILES IDX 15 87 16 88 17 89 18 90 19 91 20 92
REMARK H PARENT 3 6 82 24 48 35 8 79
REMARK Flexibility Score: inf
ROOT
ATOM      1  C   UNL     1       4.828  -2.297  -1.202  1.00  0.00     0.023 C 
ENDROOT
BRANCH   1   2
ATOM      2  C   UNL     1       4.529  -0.817  -1.010  1.00  0.00     0.116 C 
BRANCH   2   3
ATOM      3  N   UNL     1       3.104  -0.517  -1.018  1.00  0.00    -0.352 N 
ATOM      4  O   UNL     1       1.133   0.199  -0.181  1.00  0.00    -0.269 OA
ATOM      5  C   UNL     1       2.354   0.150  -0.076  1.00  0.00     0.251 C 
ATOM      6  H   UNL     1       2.608  -0.834  -1.808  1.00  0.00     0.163 HD
BRANCH   5   7
ATOM      7  C   UNL     1       3.036   0.772   1.079  1.00  0.00     0.039 A 
ATOM      8  C   UNL     1       4.198   1.520   0.888  1.00  0.00     0.014 A 
ATOM      9  C   UNL     1       2.540   0.558   2.368  1.00  0.00     0.014 A 
ATOM     10  C   UNL     1       4.966   1.883   1.985  1.00  0.00     0.010 A 
ATOM     11  C   UNL     1       3.259   1.028   3.471  1.00  0.00     0.010 A 
ATOM     12  C   UNL     1       4.503   1.654   3.292  1.00  0.00    -0.014 A 
BRANCH  12  13
ATOM     13  C   UNL     1       5.324   2.122   4.440  1.00  0.00     0.031 A 
ATOM     14  C   UNL     1       5.881   1.157   5.453  1.00  0.00     0.074 A 
ATOM     15  C   UNL     1       5.603   3.437   4.534  1.00  0.00     0.049 A 
ATOM     16  N   UNL     1       6.652   1.401   6.483  1.00  0.00    -0.248 NA
ATOM     17  C   UNL     1       5.523  -0.262   5.301  1.00  0.00     0.031 C 
ATOM     18  C   UNL     1       5.111   4.469   3.615  1.00  0.00     0.029 A 
ATOM     19  N   UNL     1       6.383   4.132   5.421  1.00  0.00    -0.354 N 
ATOM     20  C   UNL     1       6.848   0.178   7.116  1.00  0.00     0.074 A 
ATOM     21  C   UNL     1       6.095  -0.805   6.367  1.00  0.00     0.031 C 
ATOM     22  C   UNL     1       5.652   5.649   3.946  1.00  0.00     0.029 A 
ATOM     23  C   UNL     1       6.466   5.476   5.142  1.00  0.00     0.049 A 
ATOM     24  H   UNL     1       6.841   3.710   6.183  1.00  0.00     0.167 HD
ATOM     25  C   UNL     1       7.593  -0.097   8.216  1.00  0.00     0.037 A 
ATOM     26  C   UNL     1       7.112   6.467   5.784  1.00  0.00     0.037 A 
ATOM     27  C   UNL     1       8.353   0.890   8.943  1.00  0.00     0.049 A 
ATOM     28  C   UNL     1       7.910   6.136   7.012  1.00  0.00     0.074 A 
ATOM     29  C   UNL     1       9.176   0.704  10.041  1.00  0.00     0.029 A 
ATOM     30  N   UNL     1       8.379   2.247   8.654  1.00  0.00    -0.354 N 
ATOM     31  N   UNL     1       8.115   4.968   7.572  1.00  0.00    -0.248 NA
ATOM     32  C   UNL     1       8.561   7.259   7.697  1.00  0.00     0.031 C 
ATOM     33  C   UNL     1       9.650   1.955  10.452  1.00  0.00     0.029 A 
ATOM     34  C   UNL     1       9.177   2.914   9.571  1.00  0.00     0.049 A 
ATOM     35  H   UNL     1       7.900   2.674   7.908  1.00  0.00     0.167 HD
ATOM     36  C   UNL     1       8.943   5.211   8.661  1.00  0.00     0.074 A 
ATOM     37  C   UNL     1       9.211   6.635   8.669  1.00  0.00     0.031 C 
ATOM     38  C   UNL     1       9.438   4.333   9.569  1.00  0.00     0.037 A 
BRANCH  25  39
ATOM     39  C   UNL     1       7.599  -1.516   8.726  1.00  0.00     0.058 A 
ATOM     40  C   UNL     1       8.229  -2.559   8.030  1.00  0.00     0.135 A 
ATOM     41  C   UNL     1       6.995  -1.828   9.957  1.00  0.00     0.135 A 
ATOM     42  F   UNL     1       8.813  -2.325   6.844  1.00  0.00    -0.206 F 
ATOM     43  C   UNL     1       8.232  -3.864   8.516  1.00  0.00     0.059 A 
ATOM     44  C   UNL     1       7.011  -3.119  10.477  1.00  0.00     0.059 A 
ATOM     45  F   UNL     1       6.381  -0.871  10.670  1.00  0.00    -0.206 F 
ATOM     46  C   UNL     1       7.618  -4.135   9.740  1.00  0.00     0.060 A 
BRANCH  46  47
ATOM     47  S   UNL     1       7.620  -5.834  10.352  1.00  0.00     0.124 S 
ATOM     48  O   UNL     1       6.672  -6.471   9.443  1.00  0.00    -0.237 OA
ATOM     49  O   UNL     1       9.016  -6.224  10.186  1.00  0.00    -0.237 OA
ATOM     50  O   UNL     1       7.169  -5.700  11.734  1.00  0.00    -0.744 OA
ENDBRANCH  46  47
ENDBRANCH  25  39
BRANCH  26  51
ATOM     51  C   UNL     1       7.031   7.859   5.268  1.00  0.00     0.058 A 
ATOM     52  C   UNL     1       8.156   8.492   4.721  1.00  0.00     0.135 A 
ATOM     53  C   UNL     1       5.822   8.573   5.287  1.00  0.00     0.135 A 
ATOM     54  F   UNL     1       9.334   7.852   4.682  1.00  0.00    -0.206 F 
ATOM     55  C   UNL     1       8.091   9.790   4.225  1.00  0.00     0.059 A 
ATOM     56  C   UNL     1       5.724   9.859   4.768  1.00  0.00     0.059 A 
ATOM     57  F   UNL     1       4.711   8.004   5.781  1.00  0.00    -0.206 F 
ATOM     58  C   UNL     1       6.868  10.464   4.250  1.00  0.00     0.060 A 
BRANCH  58  59
ATOM     59  S   UNL     1       6.785  12.130   3.560  1.00  0.00     0.124 S 
ATOM     60  O   UNL     1       7.503  12.900   4.568  1.00  0.00    -0.237 OA
ATOM     61  O   UNL     1       7.462  11.964   2.278  1.00  0.00    -0.237 OA
ATOM     62  O   UNL     1       5.350  12.386   3.474  1.00  0.00    -0.744 OA
ENDBRANCH  58  59
ENDBRANCH  26  51
BRANCH  38  63
ATOM     63  C   UNL     1      10.358   4.885  10.624  1.00  0.00     0.058 A 
ATOM     64  C   UNL     1       9.893   5.711  11.659  1.00  0.00     0.135 A 
ATOM     65  C   UNL     1      11.726   4.563  10.608  1.00  0.00     0.135 A 
ATOM     66  F   UNL     1       8.597   6.057  11.717  1.00  0.00    -0.206 F 
ATOM     67  C   UNL     1      10.756   6.227  12.620  1.00  0.00     0.059 A 
ATOM     68  C   UNL     1      12.601   5.041  11.578  1.00  0.00     0.059 A 
ATOM     69  F   UNL     1      12.223   3.770   9.646  1.00  0.00    -0.206 F 
ATOM     70  C   UNL     1      12.109   5.887  12.571  1.00  0.00     0.060 A 
BRANCH  70  71
ATOM     71  S   UNL     1      13.216   6.551  13.832  1.00  0.00     0.124 S 
ATOM     72  O   UNL     1      13.328   7.947  13.419  1.00  0.00    -0.237 OA
ATOM     73  O   UNL     1      12.467   6.312  15.062  1.00  0.00    -0.237 OA
ATOM     74  O   UNL     1      14.427   5.752  13.677  1.00  0.00    -0.744 OA
ENDBRANCH  70  71
ENDBRANCH  38  63
ENDBRANCH  12  13
ENDBRANCH   5   7
ENDBRANCH   2   3
ENDBRANCH   1   2
BRANCH   1  75
ATOM     75  C   UNL     1       4.333  -2.890  -2.518  1.00  0.00     0.023 C 
BRANCH  75  76
ATOM     76  C   UNL     1       4.764  -2.124  -3.766  1.00  0.00     0.116 C 
BRANCH  76  77
ATOM     77  N   UNL     1       6.207  -2.049  -3.884  1.00  0.00    -0.356 N 
ATOM     78  C   UNL     1       7.021  -2.497  -4.878  1.00  0.00     0.223 C 
ATOM     79  H   UNL     1       6.667  -1.607  -3.134  1.00  0.00     0.163 HD
ATOM     80  O   UNL     1       8.219  -2.230  -4.807  1.00  0.00    -0.275 OA
BRANCH  78  81
ATOM     81  C   UNL     1       6.425  -3.297  -6.031  1.00  0.00     0.081 C 
ATOM     82  C   UNL     1       6.037  -4.716  -5.606  1.00  0.00     0.030 C 
ATOM     83  C   UNL     1       7.383  -3.347  -7.222  1.00  0.00     0.030 C 
ATOM     84  C   UNL     1       7.250  -5.624  -5.426  1.00  0.00     0.103 C 
ATOM     85  C   UNL     1       8.565  -4.286  -6.989  1.00  0.00     0.103 C 
ATOM     86  N   UNL     1       8.062  -5.658  -6.688  1.00  0.00    -0.202 NA
BRANCH  86  87
ATOM     87  S   UNL     1       9.278  -6.881  -6.591  1.00  0.00     0.216 S 
ATOM     88  O   UNL     1      10.346  -6.367  -5.759  1.00  0.00    -0.212 OA
ATOM     89  O   UNL     1       8.599  -8.110  -6.235  1.00  0.00    -0.212 OA
BRANCH  87  90
ATOM     90  C   UNL     1      10.029  -7.265  -8.198  1.00  0.00     0.124 C 
ATOM     91  C   UNL     1       9.485  -6.561  -9.405  1.00  0.00     0.022 C 
ATOM     92  C   UNL     1      10.822  -6.157  -8.834  1.00  0.00     0.022 C 
ENDBRANCH  87  90
ENDBRANCH  86  87
ENDBRANCH  78  81
ENDBRANCH  76  77
ENDBRANCH  75  76
ENDBRANCH   1  75
TORSDOF 16
