REMARK SMILES COc1ccc2c(c1)c(CC(=O)NCCCCNC(=O)c1ccc(-c3c4nc(c(-c5c(F)cc(S(=O)(=O)[O-])cc5F)c5ccc([nH]5)c(-c5c(F)cc(S(=O)(=O)[O-])cc5F)c5nc(c(-c6c(F)cc(S(=O)(=O)[O-])cc6F)c6ccc3[nH]6)C=C5)C=C4)cc1)c(C)n2Cc1ccn(C(F)F)c(=O)c1
REMARK SMILES IDX 15 1 14 2 13 3 11 4 12 5 10 7 9 8 3 9 4 10 8 11 5 12 7 13
REMARK SMILES IDX 6 14 89 15 87 16 88 17 2 18 1 19 90 20 91 21 92 22 100 23
REMARK SMILES IDX 93 24 98 25 94 26 99 27 95 28 96 29 97 30 16 31 17 32 18 33
REMARK SMILES IDX 19 34 20 36 21 37 22 38 86 39 23 40 85 41 24 42 25 43 26 44
REMARK SMILES IDX 79 45 27 46 84 47 78 48 80 49 28 50 83 51 77 52 76 53 29 55
REMARK SMILES IDX 63 56 42 57 62 58 43 59 46 60 61 61 81 62 44 63 45 64 60 66
REMARK SMILES IDX 82 67 47 68 30 69 31 70 40 71 32 72 33 73 39 74 41 75 34 76
REMARK SMILES IDX 35 77 36 78 37 79 38 80 64 81 65 82 74 83 66 84 67 85 73 86
REMARK SMILES IDX 75 87 68 88 69 89 70 90 71 91 72 92 48 93 49 94 58 95 50 96
REMARK SMILES IDX 51 97 57 98 59 99 52 100 53 101 54 102 55 103 56 104
REMARK H PARENT 13 6 18 35 80 54 46 65
REMARK Flexibility Score: inf
ROOT
ATOM      1  C   UNL     1       0.201  -7.283   2.488  1.00  0.00     0.023 C 
ENDROOT
BRANCH   1   2
ATOM      2  C   UNL     1      -1.171  -7.465   1.839  1.00  0.00     0.116 C 
BRANCH   2   3
ATOM      3  N   UNL     1      -2.043  -6.328   2.055  1.00  0.00    -0.356 N 
ATOM      4  C   UNL     1      -2.569  -5.464   1.136  1.00  0.00     0.224 C 
ATOM      5  O   UNL     1      -3.335  -4.583   1.537  1.00  0.00    -0.275 OA
ATOM      6  H   UNL     1      -2.289  -6.154   2.993  1.00  0.00     0.163 HD
BRANCH   4   7
ATOM      7  C   UNL     1      -2.294  -5.652  -0.351  1.00  0.00     0.138 C 
BRANCH   7   8
ATOM      8  C   UNL     1      -0.838  -5.581  -0.699  1.00  0.00    -0.010 A 
ATOM      9  C   UNL     1       0.907  -2.337   0.264  1.00  0.00     0.119 A 
ATOM     10  C   UNL     1       2.190  -2.744  -0.082  1.00  0.00     0.048 A 
ATOM     11  C   UNL     1      -0.164  -3.221   0.147  1.00  0.00     0.057 A 
ATOM     12  C   UNL     1       2.427  -4.031  -0.593  1.00  0.00     0.031 A 
ATOM     13  C   UNL     1       0.041  -4.501  -0.407  1.00  0.00     0.007 A 
ATOM     14  C   UNL     1       1.331  -4.896  -0.771  1.00  0.00     0.049 A 
ATOM     15  N   UNL     1       1.237  -6.199  -1.252  1.00  0.00    -0.340 N 
ATOM     16  C   UNL     1      -0.102  -6.527  -1.404  1.00  0.00     0.020 A 
ATOM     17  C   UNL     1      -0.623  -7.720  -2.127  1.00  0.00     0.065 C 
BRANCH   9  18
ATOM     18  O   UNL     1       0.618  -1.109   0.795  1.00  0.00    -0.497 OA
ATOM     19  C   UNL     1       1.095  -0.030  -0.003  1.00  0.00     0.278 C 
ENDBRANCH   9  18
BRANCH  15  20
ATOM     20  C   UNL     1       2.384  -7.035  -1.640  1.00  0.00     0.158 C 
BRANCH  20  21
ATOM     21  C   UNL     1       2.752  -8.123  -0.644  1.00  0.00    -0.021 A 
ATOM     22  C   UNL     1       1.917  -9.306  -0.523  1.00  0.00     0.024 A 
ATOM     23  C   UNL     1       3.887  -8.081   0.078  1.00  0.00     0.077 A 
ATOM     24  C   UNL     1       2.192 -10.262   0.372  1.00  0.00     0.095 A 
ATOM     25  C   UNL     1       4.262  -9.185   1.017  1.00  0.00     0.255 A 
ATOM     26  N   UNL     1       3.320 -10.192   1.162  1.00  0.00    -0.258 N 
ATOM     27  O   UNL     1       5.350  -9.142   1.569  1.00  0.00    -0.269 OA
BRANCH  26  28
ATOM     28  C   UNL     1       3.614 -11.240   2.110  1.00  0.00     0.451 C 
ATOM     29  F   UNL     1       4.651 -11.999   1.676  1.00  0.00    -0.185 F 
ATOM     30  F   UNL     1       3.940 -10.734   3.321  1.00  0.00    -0.185 F 
ENDBRANCH  26  28
ENDBRANCH  20  21
ENDBRANCH  15  20
ENDBRANCH   7   8
ENDBRANCH   4   7
ENDBRANCH   2   3
ENDBRANCH   1   2
BRANCH   1  31
ATOM     31  C   UNL     1       0.189  -7.317   4.023  1.00  0.00     0.023 C 
BRANCH  31  32
ATOM     32  C   UNL     1      -0.608  -8.480   4.617  1.00  0.00     0.116 C 
BRANCH  32  33
ATOM     33  N   UNL     1      -0.160  -9.781   4.157  1.00  0.00    -0.352 N 
ATOM     34  C   UNL     1       0.699 -10.730   4.636  1.00  0.00     0.251 C 
ATOM     35  H   UNL     1      -0.570 -10.041   3.301  1.00  0.00     0.163 HD
ATOM     36  O   UNL     1       0.748 -11.779   3.985  1.00  0.00    -0.269 OA
BRANCH  34  37
ATOM     37  C   UNL     1       1.618 -10.547   5.790  1.00  0.00     0.039 A 
ATOM     38  C   UNL     1       1.691  -9.408   6.591  1.00  0.00     0.014 A 
ATOM     39  C   UNL     1       2.564 -11.571   5.985  1.00  0.00     0.014 A 
ATOM     40  C   UNL     1       2.775  -9.212   7.431  1.00  0.00     0.010 A 
ATOM     41  C   UNL     1       3.640 -11.390   6.840  1.00  0.00     0.010 A 
ATOM     42  C   UNL     1       3.783 -10.172   7.493  1.00  0.00    -0.014 A 
BRANCH  42  43
ATOM     43  C   UNL     1       4.964  -9.856   8.284  1.00  0.00     0.031 A 
ATOM     44  C   UNL     1       4.702  -9.624   9.736  1.00  0.00     0.074 A 
ATOM     45  C   UNL     1       6.198  -9.855   7.740  1.00  0.00     0.049 A 
ATOM     46  N   UNL     1       4.932  -8.564  10.443  1.00  0.00    -0.248 NA
ATOM     47  C   UNL     1       3.957 -10.668  10.460  1.00  0.00     0.031 C 
ATOM     48  C   UNL     1       6.612 -10.288   6.401  1.00  0.00     0.029 A 
ATOM     49  N   UNL     1       7.381  -9.534   8.328  1.00  0.00    -0.354 N 
ATOM     50  C   UNL     1       4.529  -8.869  11.744  1.00  0.00     0.074 A 
ATOM     51  C   UNL     1       3.819 -10.119  11.666  1.00  0.00     0.031 C 
ATOM     52  C   UNL     1       7.957 -10.434   6.373  1.00  0.00     0.029 A 
ATOM     53  C   UNL     1       8.505  -9.964   7.631  1.00  0.00     0.049 A 
ATOM     54  H   UNL     1       7.437  -9.039   9.177  1.00  0.00     0.167 HD
ATOM     55  C   UNL     1       4.944  -8.153  12.827  1.00  0.00     0.037 A 
ATOM     56  C   UNL     1       9.774  -9.998   8.115  1.00  0.00     0.037 A 
ATOM     57  C   UNL     1       5.446  -6.861  12.446  1.00  0.00     0.049 A 
ATOM     58  C   UNL     1       9.820  -9.048   9.262  1.00  0.00     0.074 A 
ATOM     59  C   UNL     1       4.875  -5.731  11.896  1.00  0.00     0.029 A 
ATOM     60  N   UNL     1       6.800  -6.713  12.273  1.00  0.00    -0.354 N 
ATOM     61  N   UNL     1       9.668  -7.756   9.140  1.00  0.00    -0.248 NA
ATOM     62  C   UNL     1       9.543  -9.585  10.587  1.00  0.00     0.031 C 
ATOM     63  C   UNL     1       5.854  -5.225  10.991  1.00  0.00     0.029 A 
ATOM     64  C   UNL     1       6.985  -6.036  11.091  1.00  0.00     0.049 A 
ATOM     65  H   UNL     1       7.506  -7.032  12.881  1.00  0.00     0.167 HD
ATOM     66  C   UNL     1       8.893  -7.379  10.228  1.00  0.00     0.074 A 
ATOM     67  C   UNL     1       8.893  -8.543  11.114  1.00  0.00     0.031 C 
ATOM     68  C   UNL     1       8.094  -6.270  10.191  1.00  0.00     0.037 A 
BRANCH  55  69
ATOM     69  C   UNL     1       5.137  -8.734  14.206  1.00  0.00     0.058 A 
ATOM     70  C   UNL     1       5.337  -7.885  15.314  1.00  0.00     0.135 A 
ATOM     71  C   UNL     1       5.392 -10.104  14.438  1.00  0.00     0.135 A 
ATOM     72  F   UNL     1       5.136  -6.561  15.207  1.00  0.00    -0.206 F 
ATOM     73  C   UNL     1       5.805  -8.357  16.543  1.00  0.00     0.059 A 
ATOM     74  C   UNL     1       5.810 -10.602  15.667  1.00  0.00     0.059 A 
ATOM     75  F   UNL     1       5.334 -11.012  13.454  1.00  0.00    -0.206 F 
ATOM     76  C   UNL     1       6.051  -9.717  16.705  1.00  0.00     0.060 A 
BRANCH  76  77
ATOM     77  S   UNL     1       6.755 -10.313  18.254  1.00  0.00     0.124 S 
ATOM     78  O   UNL     1       8.071  -9.685  18.240  1.00  0.00    -0.237 OA
ATOM     79  O   UNL     1       5.808  -9.792  19.235  1.00  0.00    -0.237 OA
ATOM     80  O   UNL     1       6.747 -11.764  18.093  1.00  0.00    -0.744 OA
ENDBRANCH  76  77
ENDBRANCH  55  69
BRANCH  56  81
ATOM     81  C   UNL     1      10.752 -11.113   7.959  1.00  0.00     0.058 A 
ATOM     82  C   UNL     1      12.097 -10.962   8.341  1.00  0.00     0.135 A 
ATOM     83  C   UNL     1      10.326 -12.434   7.708  1.00  0.00     0.135 A 
ATOM     84  F   UNL     1      12.585  -9.745   8.625  1.00  0.00    -0.206 F 
ATOM     85  C   UNL     1      12.954 -12.059   8.512  1.00  0.00     0.059 A 
ATOM     86  C   UNL     1      11.162 -13.539   7.863  1.00  0.00     0.059 A 
ATOM     87  F   UNL     1       9.050 -12.704   7.396  1.00  0.00    -0.206 F 
ATOM     88  C   UNL     1      12.468 -13.347   8.293  1.00  0.00     0.060 A 
BRANCH  88  89
ATOM     89  S   UNL     1      13.508 -14.774   8.687  1.00  0.00     0.124 S 
ATOM     90  O   UNL     1      14.566 -14.666   7.688  1.00  0.00    -0.237 OA
ATOM     91  O   UNL     1      13.902 -14.496  10.065  1.00  0.00    -0.237 OA
ATOM     92  O   UNL     1      12.606 -15.911   8.518  1.00  0.00    -0.744 OA
ENDBRANCH  88  89
ENDBRANCH  56  81
BRANCH  68  93
ATOM     93  C   UNL     1       8.224  -5.339   9.007  1.00  0.00     0.058 A 
ATOM     94  C   UNL     1       7.924  -5.700   7.679  1.00  0.00     0.135 A 
ATOM     95  C   UNL     1       8.519  -3.989   9.242  1.00  0.00     0.135 A 
ATOM     96  F   UNL     1       7.520  -6.942   7.381  1.00  0.00    -0.206 F 
ATOM     97  C   UNL     1       7.968  -4.777   6.630  1.00  0.00     0.059 A 
ATOM     98  C   UNL     1       8.538  -3.044   8.217  1.00  0.00     0.059 A 
ATOM     99  F   UNL     1       8.746  -3.560  10.494  1.00  0.00    -0.206 F 
ATOM    100  C   UNL     1       8.279  -3.448   6.909  1.00  0.00     0.060 A 
BRANCH 100 101
ATOM    101  S   UNL     1       8.294  -2.242   5.564  1.00  0.00     0.124 S 
ATOM    102  O   UNL     1       9.457  -2.658   4.787  1.00  0.00    -0.237 OA
ATOM    103  O   UNL     1       6.997  -2.457   4.927  1.00  0.00    -0.237 OA
ATOM    104  O   UNL     1       8.433  -0.961   6.253  1.00  0.00    -0.744 OA
ENDBRANCH 100 101
ENDBRANCH  68  93
ENDBRANCH  42  43
ENDBRANCH  34  37
ENDBRANCH  32  33
ENDBRANCH  31  32
ENDBRANCH   1  31
TORSDOF 19
