REMARK SMILES Cc1ccc(C(=O)N2CCCC[C@@H]2C(=O)NCCCCNC(=O)c2ccc(-c3c4nc(c(-c5c(F)cc(S(=O)(=O)[O-])cc5F)c5ccc([nH]5)c(-c5c(F)cc(S(=O)(=O)[O-])cc5F)c5nc(c(-c6c(F)cc(S(=O)(=O)[O-])cc6F)c6ccc3[nH]6)C=C5)C=C4)cc2)cc1S(=O)(=O)N1CCCCC1
REMARK SMILES IDX 18 1 17 2 16 3 14 4 15 5 13 7 8 8 9 9 10 10 12 11 11 12 6 13
REMARK SMILES IDX 7 14 5 15 1 16 2 17 3 18 91 19 4 20 90 21 92 22 93 23 94 24
REMARK SMILES IDX 95 25 96 26 100 27 97 28 99 29 98 30 19 31 20 32 21 33 22 34
REMARK SMILES IDX 23 36 24 37 25 38 89 39 26 40 88 41 27 42 28 43 29 44 82 45
REMARK SMILES IDX 30 46 87 47 81 48 83 49 31 50 86 51 80 52 79 53 32 55 66 56
REMARK SMILES IDX 45 57 65 58 46 59 49 60 64 61 84 62 47 63 48 64 63 66 85 67
REMARK SMILES IDX 50 68 33 69 34 70 43 71 35 72 36 73 42 74 44 75 37 76 38 77
REMARK SMILES IDX 39 78 40 79 41 80 67 81 68 82 77 83 69 84 70 85 76 86 78 87
REMARK SMILES IDX 71 88 72 89 73 90 74 91 75 92 51 93 52 94 61 95 53 96 54 97
REMARK SMILES IDX 60 98 62 99 55 100 56 101 57 102 58 103 59 104
REMARK H PARENT 16 6 21 35 83 54 49 65
REMARK Flexibility Score: inf
ROOT
ATOM      1  C   UNL     1      -5.699  -0.071  -3.695  1.00  0.00     0.023 C 
ENDROOT
BRANCH   1   2
ATOM      2  C   UNL     1      -4.814  -0.102  -2.448  1.00  0.00     0.116 C 
BRANCH   2   3
ATOM      3  N   UNL     1      -3.522   0.496  -2.729  1.00  0.00    -0.354 N 
ATOM      4  C   UNL     1      -2.981   1.646  -2.253  1.00  0.00     0.242 C 
ATOM      5  O   UNL     1      -1.998   2.102  -2.840  1.00  0.00    -0.273 OA
ATOM      6  H   UNL     1      -2.955  -0.006  -3.358  1.00  0.00     0.163 HD
BRANCH   4   7
ATOM      7  C   UNL     1      -3.655   2.415  -1.101  1.00  0.00     0.174 C 
ATOM      8  N   UNL     1      -4.054   1.565   0.054  1.00  0.00    -0.327 N 
ATOM      9  C   UNL     1      -5.004   2.146   0.992  1.00  0.00     0.120 C 
ATOM     10  C   UNL     1      -6.235   2.702   0.308  1.00  0.00     0.022 C 
ATOM     11  C   UNL     1      -4.860   3.155  -1.735  1.00  0.00     0.035 C 
ATOM     12  C   UNL     1      -5.835   3.741  -0.727  1.00  0.00     0.004 C 
BRANCH   8  13
ATOM     13  C   UNL     1      -3.380   0.435   0.537  1.00  0.00     0.254 C 
ATOM     14  O   UNL     1      -3.930  -0.378   1.282  1.00  0.00    -0.269 OA
BRANCH  13  15
ATOM     15  C   UNL     1      -1.955   0.183   0.228  1.00  0.00     0.041 A 
ATOM     16  C   UNL     1       2.213  -0.863  -0.088  1.00  0.00     0.046 C 
ATOM     17  C   UNL     1       0.815  -0.341  -0.024  1.00  0.00    -0.031 A 
ATOM     18  C   UNL     1      -0.151  -1.379  -0.037  1.00  0.00     0.005 A 
ATOM     19  C   UNL     1       0.364   0.988   0.090  1.00  0.00     0.086 A 
ATOM     20  C   UNL     1      -1.514  -1.127   0.085  1.00  0.00     0.014 A 
ATOM     21  C   UNL     1      -1.022   1.218   0.252  1.00  0.00     0.035 A 
BRANCH  19  22
ATOM     22  S   UNL     1       1.261   2.548   0.078  1.00  0.00     0.243 S 
ATOM     23  O   UNL     1       0.895   3.209  -1.151  1.00  0.00    -0.207 OA
ATOM     24  O   UNL     1       0.949   3.173   1.359  1.00  0.00    -0.207 OA
BRANCH  22  25
ATOM     25  N   UNL     1       2.938   2.336   0.048  1.00  0.00    -0.198 NA
ATOM     26  C   UNL     1       3.569   1.947   1.323  1.00  0.00     0.102 C 
ATOM     27  C   UNL     1       3.529   2.004  -1.266  1.00  0.00     0.102 C 
ATOM     28  C   UNL     1       5.071   1.734   1.236  1.00  0.00     0.017 C 
ATOM     29  C   UNL     1       5.028   1.748  -1.236  1.00  0.00     0.017 C 
ATOM     30  C   UNL     1       5.489   0.980  -0.011  1.00  0.00     0.003 C 
ENDBRANCH  22  25
ENDBRANCH  19  22
ENDBRANCH  13  15
ENDBRANCH   8  13
ENDBRANCH   4   7
ENDBRANCH   2   3
ENDBRANCH   1   2
BRANCH   1  31
ATOM     31  C   UNL     1      -5.066  -0.719  -4.929  1.00  0.00     0.023 C 
BRANCH  31  32
ATOM     32  C   UNL     1      -4.390  -2.049  -4.638  1.00  0.00     0.116 C 
BRANCH  32  33
ATOM     33  N   UNL     1      -5.310  -2.927  -3.961  1.00  0.00    -0.352 N 
ATOM     34  C   UNL     1      -6.228  -3.712  -4.621  1.00  0.00     0.251 C 
ATOM     35  H   UNL     1      -5.280  -2.968  -2.977  1.00  0.00     0.163 HD
ATOM     36  O   UNL     1      -7.402  -3.470  -4.387  1.00  0.00    -0.269 OA
BRANCH  34  37
ATOM     37  C   UNL     1      -5.708  -4.965  -5.316  1.00  0.00     0.039 A 
ATOM     38  C   UNL     1      -6.317  -6.086  -4.739  1.00  0.00     0.014 A 
ATOM     39  C   UNL     1      -4.321  -4.998  -5.428  1.00  0.00     0.014 A 
ATOM     40  C   UNL     1      -5.641  -6.748  -3.731  1.00  0.00     0.010 A 
ATOM     41  C   UNL     1      -3.647  -5.521  -4.354  1.00  0.00     0.010 A 
ATOM     42  C   UNL     1      -4.361  -6.305  -3.446  1.00  0.00    -0.014 A 
BRANCH  42  43
ATOM     43  C   UNL     1      -3.656  -6.607  -2.225  1.00  0.00     0.031 A 
ATOM     44  C   UNL     1      -2.670  -7.683  -2.320  1.00  0.00     0.074 A 
ATOM     45  C   UNL     1      -3.842  -5.751  -1.197  1.00  0.00     0.049 A 
ATOM     46  N   UNL     1      -2.058  -8.211  -1.332  1.00  0.00    -0.248 NA
ATOM     47  C   UNL     1      -2.324  -8.295  -3.604  1.00  0.00     0.031 C 
ATOM     48  C   UNL     1      -3.084  -5.573   0.037  1.00  0.00     0.029 A 
ATOM     49  N   UNL     1      -4.998  -4.980  -0.996  1.00  0.00    -0.354 N 
ATOM     50  C   UNL     1      -1.044  -8.995  -1.846  1.00  0.00     0.074 A 
ATOM     51  C   UNL     1      -1.327  -9.104  -3.250  1.00  0.00     0.031 C 
ATOM     52  C   UNL     1      -3.902  -5.033   0.966  1.00  0.00     0.029 A 
ATOM     53  C   UNL     1      -5.244  -5.026   0.387  1.00  0.00     0.049 A 
ATOM     54  H   UNL     1      -5.526  -4.507  -1.679  1.00  0.00     0.167 HD
ATOM     55  C   UNL     1      -0.014  -9.303  -1.011  1.00  0.00     0.037 A 
ATOM     56  C   UNL     1      -6.277  -5.801   0.840  1.00  0.00     0.037 A 
ATOM     57  C   UNL     1      -0.408  -8.948   0.358  1.00  0.00     0.049 A 
ATOM     58  C   UNL     1      -5.751  -6.961   1.683  1.00  0.00     0.074 A 
ATOM     59  C   UNL     1      -0.192  -7.817   1.128  1.00  0.00     0.029 A 
ATOM     60  N   UNL     1      -1.508  -9.599   0.916  1.00  0.00    -0.354 N 
ATOM     61  N   UNL     1      -4.624  -7.598   1.470  1.00  0.00    -0.248 NA
ATOM     62  C   UNL     1      -6.414  -7.394   2.910  1.00  0.00     0.031 C 
ATOM     63  C   UNL     1      -1.253  -7.731   2.075  1.00  0.00     0.029 A 
ATOM     64  C   UNL     1      -2.094  -8.819   1.898  1.00  0.00     0.049 A 
ATOM     65  H   UNL     1      -1.824 -10.492   0.649  1.00  0.00     0.167 HD
ATOM     66  C   UNL     1      -4.398  -8.485   2.500  1.00  0.00     0.074 A 
ATOM     67  C   UNL     1      -5.546  -8.309   3.373  1.00  0.00     0.031 C 
ATOM     68  C   UNL     1      -3.288  -9.284   2.598  1.00  0.00     0.037 A 
BRANCH  55  69
ATOM     69  C   UNL     1       1.404  -9.636  -1.442  1.00  0.00     0.058 A 
ATOM     70  C   UNL     1       2.461  -9.511  -0.512  1.00  0.00     0.135 A 
ATOM     71  C   UNL     1       1.825  -9.984  -2.745  1.00  0.00     0.135 A 
ATOM     72  F   UNL     1       2.228  -9.210   0.773  1.00  0.00    -0.206 F 
ATOM     73  C   UNL     1       3.808  -9.665  -0.855  1.00  0.00     0.059 A 
ATOM     74  C   UNL     1       3.166 -10.127  -3.116  1.00  0.00     0.059 A 
ATOM     75  F   UNL     1       0.969 -10.223  -3.739  1.00  0.00    -0.206 F 
ATOM     76  C   UNL     1       4.155  -9.960  -2.165  1.00  0.00     0.060 A 
BRANCH  76  77
ATOM     77  S   UNL     1       5.894 -10.139  -2.598  1.00  0.00     0.124 S 
ATOM     78  O   UNL     1       6.422  -8.815  -2.285  1.00  0.00    -0.237 OA
ATOM     79  O   UNL     1       6.317 -11.219  -1.714  1.00  0.00    -0.237 OA
ATOM     80  O   UNL     1       5.860 -10.473  -4.019  1.00  0.00    -0.744 OA
ENDBRANCH  76  77
ENDBRANCH  55  69
BRANCH  56  81
ATOM     81  C   UNL     1      -7.454  -5.848  -0.106  1.00  0.00     0.058 A 
ATOM     82  C   UNL     1      -8.083  -4.642  -0.510  1.00  0.00     0.135 A 
ATOM     83  C   UNL     1      -7.795  -6.986  -0.845  1.00  0.00     0.135 A 
ATOM     84  F   UNL     1      -7.838  -3.507   0.169  1.00  0.00    -0.206 F 
ATOM     85  C   UNL     1      -8.916  -4.553  -1.638  1.00  0.00     0.059 A 
ATOM     86  C   UNL     1      -8.638  -6.922  -1.969  1.00  0.00     0.059 A 
ATOM     87  F   UNL     1      -7.254  -8.174  -0.540  1.00  0.00    -0.206 F 
ATOM     88  C   UNL     1      -9.163  -5.697  -2.392  1.00  0.00     0.060 A 
BRANCH  88  89
ATOM     89  S   UNL     1     -10.287  -5.631  -3.833  1.00  0.00     0.124 S 
ATOM     90  O   UNL     1     -11.284  -4.649  -3.416  1.00  0.00    -0.237 OA
ATOM     91  O   UNL     1      -9.443  -5.236  -4.950  1.00  0.00    -0.237 OA
ATOM     92  O   UNL     1     -10.775  -7.006  -3.916  1.00  0.00    -0.744 OA
ENDBRANCH  88  89
ENDBRANCH  56  81
BRANCH  68  93
ATOM     93  C   UNL     1      -3.183 -10.553   3.436  1.00  0.00     0.058 A 
ATOM     94  C   UNL     1      -4.289 -11.272   3.924  1.00  0.00     0.135 A 
ATOM     95  C   UNL     1      -1.928 -11.192   3.634  1.00  0.00     0.135 A 
ATOM     96  F   UNL     1      -5.547 -10.874   3.697  1.00  0.00    -0.206 F 
ATOM     97  C   UNL     1      -4.160 -12.470   4.628  1.00  0.00     0.059 A 
ATOM     98  C   UNL     1      -1.786 -12.430   4.257  1.00  0.00     0.059 A 
ATOM     99  F   UNL     1      -0.778 -10.649   3.209  1.00  0.00    -0.206 F 
ATOM    100  C   UNL     1      -2.905 -13.044   4.789  1.00  0.00     0.060 A 
BRANCH 100 101
ATOM    101  S   UNL     1      -2.751 -14.607   5.664  1.00  0.00     0.124 S 
ATOM    102  O   UNL     1      -2.765 -14.161   7.054  1.00  0.00    -0.237 OA
ATOM    103  O   UNL     1      -3.935 -15.337   5.223  1.00  0.00    -0.237 OA
ATOM    104  O   UNL     1      -1.480 -15.141   5.185  1.00  0.00    -0.744 OA
ENDBRANCH 100 101
ENDBRANCH  68  93
ENDBRANCH  42  43
ENDBRANCH  34  37
ENDBRANCH  32  33
ENDBRANCH  31  32
ENDBRANCH   1  31
TORSDOF 18
