REMARK SMILES Cc1sc(-c2ccco2)nc1C(=O)N[C@@H](C(=O)NCCCCNC(=O)c1ccc(-c2c3nc(c(-c4c(F)cc(S(=O)(=O)[O-])cc4F)c4ccc([nH]4)c(-c4c(F)cc(S(=O)(=O)[O-])cc4F)c4nc(c(-c5c(F)cc(S(=O)(=O)[O-])cc5F)c5ccc2[nH]5)C=C4)C=C3)cc1)C(C)C
REMARK SMILES IDX 20 1 19 2 18 3 16 4 17 5 15 7 14 8 12 9 13 10 11 12 1 13
REMARK SMILES IDX 2 14 3 15 4 16 10 17 5 18 6 19 9 20 7 21 8 22 92 23 93 24
REMARK SMILES IDX 94 25 21 26 22 27 23 28 24 29 25 31 26 32 27 33 91 34 28 35
REMARK SMILES IDX 90 36 29 37 30 38 31 39 84 40 32 41 89 42 83 43 85 44 33 45
REMARK SMILES IDX 88 46 82 47 81 48 34 50 68 51 47 52 67 53 48 54 51 55 66 56
REMARK SMILES IDX 86 57 49 58 50 59 65 61 87 62 52 63 35 64 36 65 45 66 37 67
REMARK SMILES IDX 38 68 44 69 46 70 39 71 40 72 41 73 42 74 43 75 69 76 70 77
REMARK SMILES IDX 79 78 71 79 72 80 78 81 80 82 73 83 74 84 75 85 76 86 77 87
REMARK SMILES IDX 53 88 54 89 63 90 55 91 56 92 62 93 64 94 57 95 58 96 59 97
REMARK SMILES IDX 60 98 61 99
REMARK H PARENT 18 6 14 11 23 30 85 49 51 60
REMARK Flexibility Score: inf
ROOT
ATOM      1  C   UNL     1       0.984  -3.232   3.400  1.00  0.00     0.023 C 
ENDROOT
BRANCH   1   2
ATOM      2  C   UNL     1       1.864  -2.167   2.754  1.00  0.00     0.116 C 
BRANCH   2   3
ATOM      3  N   UNL     1       3.146  -2.710   2.351  1.00  0.00    -0.354 N 
ATOM      4  C   UNL     1       3.648  -2.983   1.109  1.00  0.00     0.242 C 
ATOM      5  O   UNL     1       4.767  -3.497   1.059  1.00  0.00    -0.273 OA
ATOM      6  H   UNL     1       3.757  -2.915   3.095  1.00  0.00     0.163 HD
BRANCH   4   7
ATOM      7  C   UNL     1       2.901  -2.506  -0.167  1.00  0.00     0.174 C 
BRANCH   7   8
ATOM      8  N   UNL     1       1.548  -3.022  -0.217  1.00  0.00    -0.339 N 
ATOM      9  C   UNL     1       0.303  -2.448  -0.251  1.00  0.00     0.271 C 
ATOM     10  O   UNL     1      -0.605  -3.288  -0.296  1.00  0.00    -0.267 OA
ATOM     11  H   UNL     1       1.515  -4.006  -0.230  1.00  0.00     0.164 HD
BRANCH   9  12
ATOM     12  C   UNL     1      -0.035  -0.990  -0.223  1.00  0.00     0.142 A 
ATOM     13  C   UNL     1       2.090   0.626   0.193  1.00  0.00     0.059 C 
ATOM     14  C   UNL     1       0.687   0.208  -0.098  1.00  0.00     0.035 A 
ATOM     15  S   UNL     1      -0.372   1.561  -0.357  1.00  0.00    -0.115 S 
ATOM     16  C   UNL     1      -1.713   0.535  -0.270  1.00  0.00     0.160 A 
ATOM     17  N   UNL     1      -1.434  -0.741  -0.231  1.00  0.00    -0.227 NA
BRANCH  16  18
ATOM     18  C   UNL     1      -3.030   1.080  -0.170  1.00  0.00     0.162 A 
ATOM     19  C   UNL     1      -4.000   0.807   0.781  1.00  0.00     0.053 A 
ATOM     20  O   UNL     1      -3.493   2.072  -0.998  1.00  0.00    -0.462 OA
ATOM     21  C   UNL     1      -5.080   1.689   0.538  1.00  0.00     0.043 A 
ATOM     22  C   UNL     1      -4.730   2.422  -0.568  1.00  0.00     0.196 A 
ENDBRANCH  16  18
ENDBRANCH   9  12
ENDBRANCH   7   8
BRANCH   7  23
ATOM     23  C   UNL     1       3.689  -2.765  -1.475  1.00  0.00     0.015 C 
ATOM     24  C   UNL     1       2.823  -2.572  -2.727  1.00  0.00     0.010 C 
ATOM     25  C   UNL     1       4.885  -1.801  -1.569  1.00  0.00     0.010 C 
ENDBRANCH   7  23
ENDBRANCH   4   7
ENDBRANCH   2   3
ENDBRANCH   1   2
BRANCH   1  26
ATOM     26  C   UNL     1       1.406  -3.576   4.829  1.00  0.00     0.023 C 
BRANCH  26  27
ATOM     27  C   UNL     1       1.340  -2.410   5.811  1.00  0.00     0.116 C 
BRANCH  27  28
ATOM     28  N   UNL     1      -0.004  -1.877   5.974  1.00  0.00    -0.352 N 
ATOM     29  C   UNL     1      -0.644  -1.521   7.137  1.00  0.00     0.251 C 
ATOM     30  H   UNL     1      -0.521  -1.756   5.145  1.00  0.00     0.163 HD
ATOM     31  O   UNL     1      -1.833  -1.213   7.120  1.00  0.00    -0.269 OA
BRANCH  29  32
ATOM     32  C   UNL     1       0.105  -1.548   8.411  1.00  0.00     0.039 A 
ATOM     33  C   UNL     1      -0.450  -2.210   9.508  1.00  0.00     0.014 A 
ATOM     34  C   UNL     1       1.371  -0.964   8.504  1.00  0.00     0.014 A 
ATOM     35  C   UNL     1       0.296  -2.344  10.680  1.00  0.00     0.010 A 
ATOM     36  C   UNL     1       2.142  -1.167   9.644  1.00  0.00     0.010 A 
ATOM     37  C   UNL     1       1.614  -1.859  10.745  1.00  0.00    -0.014 A 
BRANCH  37  38
ATOM     38  C   UNL     1       2.454  -2.070  11.953  1.00  0.00     0.031 A 
ATOM     39  C   UNL     1       2.951  -0.890  12.744  1.00  0.00     0.074 A 
ATOM     40  C   UNL     1       2.820  -3.320  12.301  1.00  0.00     0.049 A 
ATOM     41  N   UNL     1       3.740  -0.869  13.787  1.00  0.00    -0.248 NA
ATOM     42  C   UNL     1       2.528   0.443  12.286  1.00  0.00     0.031 C 
ATOM     43  C   UNL     1       2.446  -4.542  11.584  1.00  0.00     0.029 A 
ATOM     44  N   UNL     1       3.595  -3.772  13.340  1.00  0.00    -0.354 N 
ATOM     45  C   UNL     1       3.915   0.473  14.103  1.00  0.00     0.074 A 
ATOM     46  C   UNL     1       3.200   1.238  13.105  1.00  0.00     0.031 C 
ATOM     47  C   UNL     1       2.972  -5.603  12.218  1.00  0.00     0.029 A 
ATOM     48  C   UNL     1       3.753  -5.138  13.360  1.00  0.00     0.049 A 
ATOM     49  H   UNL     1       4.001  -3.173  14.008  1.00  0.00     0.167 HD
ATOM     50  C   UNL     1       4.588   1.018  15.145  1.00  0.00     0.037 A 
ATOM     51  C   UNL     1       4.454  -5.927  14.197  1.00  0.00     0.037 A 
ATOM     52  C   UNL     1       5.282   0.249  16.145  1.00  0.00     0.049 A 
ATOM     53  C   UNL     1       5.201  -5.299  15.343  1.00  0.00     0.074 A 
ATOM     54  C   UNL     1       5.948   0.704  17.270  1.00  0.00     0.029 A 
ATOM     55  N   UNL     1       5.404  -1.133  16.141  1.00  0.00    -0.354 N 
ATOM     56  N   UNL     1       5.300  -4.031  15.666  1.00  0.00    -0.248 NA
ATOM     57  C   UNL     1       5.925  -6.206  16.243  1.00  0.00     0.031 C 
ATOM     58  C   UNL     1       6.516  -0.398  17.918  1.00  0.00     0.029 A 
ATOM     59  C   UNL     1       6.154  -1.546  17.231  1.00  0.00     0.049 A 
ATOM     60  H   UNL     1       5.014  -1.733  15.464  1.00  0.00     0.167 HD
ATOM     61  C   UNL     1       6.073  -3.991  16.822  1.00  0.00     0.074 A 
ATOM     62  C   UNL     1       6.403  -5.363  17.148  1.00  0.00     0.031 C 
ATOM     63  C   UNL     1       6.471  -2.917  17.547  1.00  0.00     0.037 A 
BRANCH  50  64
ATOM     64  C   UNL     1       4.604   2.519  15.257  1.00  0.00     0.058 A 
ATOM     65  C   UNL     1       3.447   3.248  15.578  1.00  0.00     0.135 A 
ATOM     66  C   UNL     1       5.798   3.237  15.078  1.00  0.00     0.135 A 
ATOM     67  F   UNL     1       2.274   2.616  15.745  1.00  0.00    -0.206 F 
ATOM     68  C   UNL     1       3.465   4.635  15.684  1.00  0.00     0.059 A 
ATOM     69  C   UNL     1       5.846   4.622  15.210  1.00  0.00     0.059 A 
ATOM     70  F   UNL     1       6.935   2.592  14.770  1.00  0.00    -0.206 F 
ATOM     71  C   UNL     1       4.671   5.313  15.499  1.00  0.00     0.060 A 
BRANCH  71  72
ATOM     72  S   UNL     1       4.677   7.112  15.644  1.00  0.00     0.124 S 
ATOM     73  O   UNL     1       3.973   7.504  14.426  1.00  0.00    -0.237 OA
ATOM     74  O   UNL     1       3.951   7.326  16.892  1.00  0.00    -0.237 OA
ATOM     75  O   UNL     1       6.097   7.446  15.682  1.00  0.00    -0.744 OA
ENDBRANCH  71  72
ENDBRANCH  50  64
BRANCH  51  76
ATOM     76  C   UNL     1       4.467  -7.402  13.994  1.00  0.00     0.058 A 
ATOM     77  C   UNL     1       3.820  -8.262  14.893  1.00  0.00     0.135 A 
ATOM     78  C   UNL     1       5.117  -7.979  12.892  1.00  0.00     0.135 A 
ATOM     79  F   UNL     1       3.190  -7.760  15.966  1.00  0.00    -0.206 F 
ATOM     80  C   UNL     1       3.831  -9.642  14.719  1.00  0.00     0.059 A 
ATOM     81  C   UNL     1       5.118  -9.355  12.681  1.00  0.00     0.059 A 
ATOM     82  F   UNL     1       5.737  -7.200  11.992  1.00  0.00    -0.206 F 
ATOM     83  C   UNL     1       4.481 -10.179  13.607  1.00  0.00     0.060 A 
BRANCH  83  84
ATOM     84  S   UNL     1       4.449 -11.969  13.366  1.00  0.00     0.124 S 
ATOM     85  O   UNL     1       5.355 -12.423  14.414  1.00  0.00    -0.237 OA
ATOM     86  O   UNL     1       3.036 -12.278  13.563  1.00  0.00    -0.237 OA
ATOM     87  O   UNL     1       4.933 -12.132  11.998  1.00  0.00    -0.744 OA
ENDBRANCH  83  84
ENDBRANCH  51  76
BRANCH  63  88
ATOM     88  C   UNL     1       7.278  -3.179  18.790  1.00  0.00     0.058 A 
ATOM     89  C   UNL     1       8.610  -3.617  18.730  1.00  0.00     0.135 A 
ATOM     90  C   UNL     1       6.724  -2.938  20.059  1.00  0.00     0.135 A 
ATOM     91  F   UNL     1       9.186  -3.869  17.544  1.00  0.00    -0.206 F 
ATOM     92  C   UNL     1       9.356  -3.833  19.885  1.00  0.00     0.059 A 
ATOM     93  C   UNL     1       7.462  -3.116  21.225  1.00  0.00     0.059 A 
ATOM     94  F   UNL     1       5.458  -2.507  20.174  1.00  0.00    -0.206 F 
ATOM     95  C   UNL     1       8.774  -3.577  21.128  1.00  0.00     0.060 A 
BRANCH  95  96
ATOM     96  S   UNL     1       9.765  -3.829  22.615  1.00  0.00     0.124 S 
ATOM     97  O   UNL     1       9.822  -5.285  22.687  1.00  0.00    -0.237 OA
ATOM     98  O   UNL     1      11.017  -3.161  22.273  1.00  0.00    -0.237 OA
ATOM     99  O   UNL     1       8.981  -3.179  23.661  1.00  0.00    -0.744 OA
ENDBRANCH  95  96
ENDBRANCH  63  88
ENDBRANCH  37  38
ENDBRANCH  29  32
ENDBRANCH  27  28
ENDBRANCH  26  27
ENDBRANCH   1  26
TORSDOF 18
