REMARK SMILES NC(=O)COc1ccc(/C=C2\SC(=S)N(CCC(=O)NCCCCNC(=O)c3ccc(-c4c5nc(c(-c6c(F)cc(S(=O)(=O)[O-])cc6F)c6ccc([nH]6)c(-c6c(F)cc(S(=O)(=O)[O-])cc6F)c6nc(c(-c7c(F)cc(S(=O)(=O)[O-])cc7F)c7ccc4[nH]7)C=C6)C=C5)cc3)C2=O)cc1
REMARK SMILES IDX 21 1 20 2 18 3 19 4 17 6 16 7 15 8 10 9 11 10 12 11 94 12
REMARK SMILES IDX 13 13 95 14 14 15 9 16 6 17 7 18 97 19 8 20 96 21 5 22 4 23
REMARK SMILES IDX 2 24 1 25 3 28 22 29 23 30 24 31 25 32 26 33 27 35 28 36
REMARK SMILES IDX 29 37 93 38 30 39 92 40 31 41 32 42 33 43 86 44 34 45 91 46
REMARK SMILES IDX 85 47 87 48 35 49 90 50 84 51 83 52 36 54 70 55 49 56 69 57
REMARK SMILES IDX 50 58 53 59 68 60 88 61 51 62 52 63 67 65 89 66 54 67 37 68
REMARK SMILES IDX 38 69 47 70 39 71 40 72 46 73 48 74 41 75 42 76 43 77 44 78
REMARK SMILES IDX 45 79 71 80 72 81 81 82 73 83 74 84 80 85 82 86 75 87 76 88
REMARK SMILES IDX 77 89 78 90 79 91 55 92 56 93 65 94 57 95 58 96 64 97 66 98
REMARK SMILES IDX 59 99 60 100 61 101 62 102 63 103
REMARK H PARENT 20 5 1 26 1 27 25 34 87 53 53 64
REMARK Flexibility Score: inf
ROOT
ATOM      1  C   UNL     1       0.659  -4.276   8.758  1.00  0.00     0.116 C 
ENDROOT
BRANCH   1   2
ATOM      2  N   UNL     1      -0.455  -4.767   9.545  1.00  0.00    -0.356 N 
ATOM      3  C   UNL     1      -1.227  -5.873   9.352  1.00  0.00     0.221 C 
ATOM      4  O   UNL     1      -2.242  -6.015  10.033  1.00  0.00    -0.275 OA
ATOM      5  H   UNL     1      -0.687  -4.223  10.332  1.00  0.00     0.163 HD
BRANCH   3   6
ATOM      6  C   UNL     1      -0.810  -6.934   8.357  1.00  0.00     0.122 C 
BRANCH   6   7
ATOM      7  C   UNL     1      -1.692  -6.976   7.104  1.00  0.00     0.137 C 
BRANCH   7   8
ATOM      8  N   UNL     1      -1.244  -6.092   6.016  1.00  0.00    -0.292 N 
ATOM      9  C   UNL     1      -1.597  -2.839   4.529  1.00  0.00     0.029 C 
ATOM     10  C   UNL     1      -1.272  -4.125   4.716  1.00  0.00     0.081 C 
ATOM     11  S   UNL     1       0.075  -4.982   4.089  1.00  0.00    -0.054 SA
ATOM     12  C   UNL     1      -1.997  -4.971   5.703  1.00  0.00     0.266 C 
ATOM     13  C   UNL     1      -0.140  -6.319   5.216  1.00  0.00     0.148 C 
ATOM     14  O   UNL     1      -3.075  -4.663   6.194  1.00  0.00    -0.268 OA
ATOM     15  S   UNL     1       0.904  -7.621   5.242  1.00  0.00    -0.052 S 
BRANCH   9  16
ATOM     16  C   UNL     1      -0.832  -1.875   3.736  1.00  0.00    -0.024 A 
ATOM     17  C   UNL     1       0.612   0.010   2.239  1.00  0.00     0.120 A 
ATOM     18  C   UNL     1       1.026  -0.333   3.520  1.00  0.00     0.047 A 
ATOM     19  C   UNL     1      -0.504  -0.622   1.689  1.00  0.00     0.047 A 
ATOM     20  C   UNL     1       0.294  -1.249   4.277  1.00  0.00     0.012 A 
ATOM     21  C   UNL     1      -1.220  -1.565   2.433  1.00  0.00     0.012 A 
BRANCH  17  22
ATOM     22  O   UNL     1       1.403   0.910   1.581  1.00  0.00    -0.484 OA
BRANCH  22  23
ATOM     23  C   UNL     1       0.694   1.922   0.867  1.00  0.00     0.329 C 
BRANCH  23  24
ATOM     24  C   UNL     1       0.330   1.520  -0.561  1.00  0.00     0.255 C 
ATOM     25  N   UNL     1       1.137   0.569  -1.118  1.00  0.00    -0.367 N 
ATOM     26  H   UNL     1       0.969   0.256  -2.036  1.00  0.00     0.159 HD
ATOM     27  H   UNL     1       1.888   0.195  -0.601  1.00  0.00     0.159 HD
ATOM     28  O   UNL     1      -0.602   2.007  -1.191  1.00  0.00    -0.271 OA
ENDBRANCH  23  24
ENDBRANCH  22  23
ENDBRANCH  17  22
ENDBRANCH   9  16
ENDBRANCH   7   8
ENDBRANCH   6   7
ENDBRANCH   3   6
ENDBRANCH   1   2
BRANCH   1  29
ATOM     29  C   UNL     1       0.159  -3.299   7.705  1.00  0.00     0.023 C 
BRANCH  29  30
ATOM     30  C   UNL     1      -0.046  -1.874   8.189  1.00  0.00     0.023 C 
BRANCH  30  31
ATOM     31  C   UNL     1       1.235  -1.165   8.590  1.00  0.00     0.116 C 
BRANCH  31  32
ATOM     32  N   UNL     1       2.245  -1.128   7.535  1.00  0.00    -0.352 N 
ATOM     33  C   UNL     1       2.778  -0.061   6.847  1.00  0.00     0.251 C 
ATOM     34  H   UNL     1       2.603  -2.008   7.275  1.00  0.00     0.163 HD
ATOM     35  O   UNL     1       3.567  -0.256   5.927  1.00  0.00    -0.269 OA
BRANCH  33  36
ATOM     36  C   UNL     1       2.353   1.309   7.187  1.00  0.00     0.039 A 
ATOM     37  C   UNL     1       2.023   2.216   6.173  1.00  0.00     0.014 A 
ATOM     38  C   UNL     1       2.250   1.682   8.525  1.00  0.00     0.014 A 
ATOM     39  C   UNL     1       1.491   3.461   6.503  1.00  0.00     0.010 A 
ATOM     40  C   UNL     1       1.617   2.865   8.853  1.00  0.00     0.010 A 
ATOM     41  C   UNL     1       1.264   3.776   7.846  1.00  0.00    -0.014 A 
BRANCH  41  42
ATOM     42  C   UNL     1       0.868   5.125   8.292  1.00  0.00     0.031 A 
ATOM     43  C   UNL     1       1.883   5.883   9.098  1.00  0.00     0.074 A 
ATOM     44  C   UNL     1      -0.379   5.589   8.103  1.00  0.00     0.049 A 
ATOM     45  N   UNL     1       1.718   6.888   9.909  1.00  0.00    -0.248 NA
ATOM     46  C   UNL     1       3.268   5.375   9.035  1.00  0.00     0.031 C 
ATOM     47  C   UNL     1      -1.427   4.930   7.323  1.00  0.00     0.029 A 
ATOM     48  N   UNL     1      -0.982   6.719   8.589  1.00  0.00    -0.354 N 
ATOM     49  C   UNL     1       2.959   7.086  10.503  1.00  0.00     0.074 A 
ATOM     50  C   UNL     1       3.850   6.069   9.998  1.00  0.00     0.031 C 
ATOM     51  C   UNL     1      -2.548   5.671   7.385  1.00  0.00     0.029 A 
ATOM     52  C   UNL     1      -2.311   6.820   8.255  1.00  0.00     0.049 A 
ATOM     53  H   UNL     1      -0.508   7.394   9.127  1.00  0.00     0.167 HD
ATOM     54  C   UNL     1       3.318   8.046  11.384  1.00  0.00     0.037 A 
ATOM     55  C   UNL     1      -3.228   7.729   8.642  1.00  0.00     0.037 A 
ATOM     56  C   UNL     1       2.421   9.083  11.811  1.00  0.00     0.049 A 
ATOM     57  C   UNL     1      -2.796   8.816   9.596  1.00  0.00     0.074 A 
ATOM     58  C   UNL     1       2.666  10.141  12.663  1.00  0.00     0.029 A 
ATOM     59  N   UNL     1       1.104   9.198  11.386  1.00  0.00    -0.354 N 
ATOM     60  N   UNL     1      -1.627   8.995  10.167  1.00  0.00    -0.248 NA
ATOM     61  C   UNL     1      -3.802   9.821   9.961  1.00  0.00     0.031 C 
ATOM     62  C   UNL     1       1.488  10.886  12.772  1.00  0.00     0.029 A 
ATOM     63  C   UNL     1       0.523  10.316  11.953  1.00  0.00     0.049 A 
ATOM     64  H   UNL     1       0.651   8.576  10.773  1.00  0.00     0.167 HD
ATOM     65  C   UNL     1      -1.745  10.153  10.928  1.00  0.00     0.074 A 
ATOM     66  C   UNL     1      -3.102  10.631  10.743  1.00  0.00     0.031 C 
ATOM     67  C   UNL     1      -0.823  10.771  11.707  1.00  0.00     0.037 A 
BRANCH  54  68
ATOM     68  C   UNL     1       4.720   8.003  11.924  1.00  0.00     0.058 A 
ATOM     69  C   UNL     1       5.837   8.248  11.108  1.00  0.00     0.135 A 
ATOM     70  C   UNL     1       4.952   7.688  13.272  1.00  0.00     0.135 A 
ATOM     71  F   UNL     1       5.675   8.526   9.805  1.00  0.00    -0.206 F 
ATOM     72  C   UNL     1       7.134   8.142  11.598  1.00  0.00     0.059 A 
ATOM     73  C   UNL     1       6.241   7.609  13.792  1.00  0.00     0.059 A 
ATOM     74  F   UNL     1       3.923   7.433  14.095  1.00  0.00    -0.206 F 
ATOM     75  C   UNL     1       7.325   7.819  12.942  1.00  0.00     0.060 A 
BRANCH  75  76
ATOM     76  S   UNL     1       9.015   7.680  13.562  1.00  0.00     0.124 S 
ATOM     77  O   UNL     1       9.432   6.407  12.984  1.00  0.00    -0.237 OA
ATOM     78  O   UNL     1       9.651   8.869  13.003  1.00  0.00    -0.237 OA
ATOM     79  O   UNL     1       8.846   7.686  15.012  1.00  0.00    -0.744 OA
ENDBRANCH  75  76
ENDBRANCH  54  68
BRANCH  55  80
ATOM     80  C   UNL     1      -4.622   7.662   8.126  1.00  0.00     0.058 A 
ATOM     81  C   UNL     1      -5.100   8.627   7.226  1.00  0.00     0.135 A 
ATOM     82  C   UNL     1      -5.501   6.635   8.506  1.00  0.00     0.135 A 
ATOM     83  F   UNL     1      -4.301   9.631   6.835  1.00  0.00    -0.206 F 
ATOM     84  C   UNL     1      -6.402   8.590   6.737  1.00  0.00     0.059 A 
ATOM     85  C   UNL     1      -6.801   6.563   8.011  1.00  0.00     0.059 A 
ATOM     86  F   UNL     1      -5.091   5.676   9.351  1.00  0.00    -0.206 F 
ATOM     87  C   UNL     1      -7.246   7.552   7.135  1.00  0.00     0.060 A 
BRANCH  87  88
ATOM     88  S   UNL     1      -8.922   7.494   6.463  1.00  0.00     0.124 S 
ATOM     89  O   UNL     1      -9.562   8.596   7.173  1.00  0.00    -0.237 OA
ATOM     90  O   UNL     1      -8.688   7.704   5.037  1.00  0.00    -0.237 OA
ATOM     91  O   UNL     1      -9.383   6.157   6.825  1.00  0.00    -0.744 OA
ENDBRANCH  87  88
ENDBRANCH  55  80
BRANCH  67  92
ATOM     92  C   UNL     1      -1.221  12.063  12.359  1.00  0.00     0.058 A 
ATOM     93  C   UNL     1      -2.055  12.097  13.484  1.00  0.00     0.135 A 
ATOM     94  C   UNL     1      -0.669  13.273  11.905  1.00  0.00     0.135 A 
ATOM     95  F   UNL     1      -2.607  10.966  13.951  1.00  0.00    -0.206 F 
ATOM     96  C   UNL     1      -2.337  13.291  14.137  1.00  0.00     0.059 A 
ATOM     97  C   UNL     1      -0.917  14.474  12.558  1.00  0.00     0.059 A 
ATOM     98  F   UNL     1       0.146  13.287  10.839  1.00  0.00    -0.206 F 
ATOM     99  C   UNL     1      -1.756  14.473  13.671  1.00  0.00     0.060 A 
BRANCH  99 100
ATOM    100  S   UNL     1      -2.075  16.005  14.569  1.00  0.00     0.124 S 
ATOM    101  O   UNL     1      -3.449  16.297  14.172  1.00  0.00    -0.237 OA
ATOM    102  O   UNL     1      -1.889  15.598  15.958  1.00  0.00    -0.237 OA
ATOM    103  O   UNL     1      -1.063  16.920  14.050  1.00  0.00    -0.744 OA
ENDBRANCH  99 100
ENDBRANCH  67  92
ENDBRANCH  41  42
ENDBRANCH  33  36
ENDBRANCH  31  32
ENDBRANCH  30  31
ENDBRANCH  29  30
ENDBRANCH   1  29
TORSDOF 20
