REMARK SMILES Cc1ccccc1C(=O)Nc1cc(NC(=O)c2ccccc2C)cc(C(=O)NCCCCNC(=O)c2ccc(-c3c4nc(c(-c5c(F)cc(S(=O)(=O)[O-])cc5F)c5ccc([nH]5)c(-c5c(F)cc(S(=O)(=O)[O-])cc5F)c5nc(c(-c6c(F)cc(S(=O)(=O)[O-])cc6F)c6ccc3[nH]6)C=C5)C=C4)cc2)c1
REMARK SMILES IDX 31 1 30 2 29 3 28 4 26 5 27 6 25 8 11 9 12 10 102 11 13 12
REMARK SMILES IDX 24 13 10 14 8 15 9 16 7 18 1 19 2 20 3 21 4 22 6 23 5 24
REMARK SMILES IDX 14 25 15 26 16 28 17 29 18 30 22 31 19 32 21 33 23 34 20 35
REMARK SMILES IDX 32 36 33 37 34 38 35 40 36 41 37 42 101 43 38 44 100 45
REMARK SMILES IDX 39 46 40 47 41 48 94 49 42 50 99 51 93 52 95 53 43 54 98 55
REMARK SMILES IDX 92 56 91 57 44 59 78 60 57 61 77 62 58 63 61 64 76 65 96 66
REMARK SMILES IDX 59 67 60 68 75 70 97 71 62 72 45 73 46 74 55 75 47 76 48 77
REMARK SMILES IDX 54 78 56 79 49 80 50 81 51 82 52 83 53 84 79 85 80 86 89 87
REMARK SMILES IDX 81 88 82 89 88 90 90 91 83 92 84 93 85 94 86 95 87 96 63 97
REMARK SMILES IDX 64 98 73 99 65 100 66 101 72 102 74 103 67 104 68 105 69 106
REMARK SMILES IDX 70 107 71 108
REMARK H PARENT 28 7 10 17 14 27 33 39 95 58 61 69
REMARK Flexibility Score: inf
ROOT
ATOM      1  C   UNL     1       9.523  -2.868   0.031  1.00  0.00     0.023 C 
ENDROOT
BRANCH   1   2
ATOM      2  C   UNL     1       8.062  -2.848  -0.439  1.00  0.00     0.023 C 
BRANCH   2   3
ATOM      3  C   UNL     1       7.026  -2.854   0.695  1.00  0.00     0.116 C 
BRANCH   3   4
ATOM      4  N   UNL     1       6.960  -1.582   1.401  1.00  0.00    -0.352 N 
ATOM      5  C   UNL     1       6.155  -0.474   1.390  1.00  0.00     0.251 C 
ATOM      6  O   UNL     1       6.460   0.420   2.186  1.00  0.00    -0.269 OA
ATOM      7  H   UNL     1       7.686  -1.495   2.060  1.00  0.00     0.163 HD
BRANCH   5   8
ATOM      8  C   UNL     1       4.961  -0.251   0.520  1.00  0.00     0.043 A 
ATOM      9  C   UNL     1       3.076   1.214   0.007  1.00  0.00     0.044 A 
ATOM     10  C   UNL     1       2.637   0.327  -0.975  1.00  0.00     0.052 A 
ATOM     11  C   UNL     1       4.283   0.973   0.673  1.00  0.00     0.040 A 
ATOM     12  C   UNL     1       3.317  -0.870  -1.170  1.00  0.00     0.044 A 
ATOM     13  C   UNL     1       4.432  -1.171  -0.379  1.00  0.00     0.040 A 
BRANCH   9  14
ATOM     14  N   UNL     1       2.305   2.300   0.452  1.00  0.00    -0.322 N 
ATOM     15  C   UNL     1       0.933   2.403   0.588  1.00  0.00     0.255 C 
ATOM     16  O   UNL     1       0.433   3.493   0.871  1.00  0.00    -0.269 OA
ATOM     17  H   UNL     1       2.815   3.104   0.704  1.00  0.00     0.170 HD
BRANCH  15  18
ATOM     18  C   UNL     1       0.035   1.221   0.447  1.00  0.00     0.043 A 
ATOM     19  C   UNL     1       1.283  -0.299   2.124  1.00  0.00     0.045 C 
ATOM     20  C   UNL     1       0.223  -0.019   1.095  1.00  0.00    -0.038 A 
ATOM     21  C   UNL     1      -0.645  -1.080   0.778  1.00  0.00     0.004 A 
ATOM     22  C   UNL     1      -1.728  -0.894  -0.080  1.00  0.00     0.000 A 
ATOM     23  C   UNL     1      -1.087   1.410  -0.377  1.00  0.00     0.014 A 
ATOM     24  C   UNL     1      -1.968   0.359  -0.634  1.00  0.00     0.001 A 
ENDBRANCH  15  18
ENDBRANCH   9  14
BRANCH  12  25
ATOM     25  N   UNL     1       2.939  -1.855  -2.095  1.00  0.00    -0.322 N 
ATOM     26  C   UNL     1       2.277  -1.767  -3.293  1.00  0.00     0.255 C 
ATOM     27  H   UNL     1       3.193  -2.771  -1.839  1.00  0.00     0.170 HD
ATOM     28  O   UNL     1       1.879  -2.788  -3.852  1.00  0.00    -0.269 OA
BRANCH  26  29
ATOM     29  C   UNL     1       2.089  -0.472  -3.981  1.00  0.00     0.043 A 
ATOM     30  C   UNL     1       0.776  -0.190  -4.390  1.00  0.00     0.014 A 
ATOM     31  C   UNL     1       3.140   0.414  -4.293  1.00  0.00    -0.038 A 
ATOM     32  C   UNL     1       0.487   0.999  -5.053  1.00  0.00     0.001 A 
ATOM     33  C   UNL     1       2.820   1.623  -4.933  1.00  0.00     0.004 A 
ATOM     34  C   UNL     1       4.586   0.153  -3.972  1.00  0.00     0.045 C 
ATOM     35  C   UNL     1       1.506   1.911  -5.311  1.00  0.00     0.000 A 
ENDBRANCH  26  29
ENDBRANCH  12  25
ENDBRANCH   5   8
ENDBRANCH   3   4
ENDBRANCH   2   3
ENDBRANCH   1   2
BRANCH   1  36
ATOM     36  C   UNL     1       9.897  -4.087   0.865  1.00  0.00     0.116 C 
BRANCH  36  37
ATOM     37  N   UNL     1      10.262  -5.278   0.126  1.00  0.00    -0.352 N 
ATOM     38  C   UNL     1      10.870  -6.399   0.700  1.00  0.00     0.251 C 
ATOM     39  H   UNL     1      10.071  -5.299  -0.840  1.00  0.00     0.163 HD
ATOM     40  O   UNL     1      11.805  -6.971   0.198  1.00  0.00    -0.269 OA
BRANCH  38  41
ATOM     41  C   UNL     1      10.178  -6.953   1.897  1.00  0.00     0.039 A 
ATOM     42  C   UNL     1       9.579  -8.216   1.806  1.00  0.00     0.014 A 
ATOM     43  C   UNL     1       9.950  -6.143   3.002  1.00  0.00     0.014 A 
ATOM     44  C   UNL     1       8.617  -8.594   2.747  1.00  0.00     0.010 A 
ATOM     45  C   UNL     1       8.925  -6.468   3.864  1.00  0.00     0.010 A 
ATOM     46  C   UNL     1       8.235  -7.681   3.725  1.00  0.00    -0.014 A 
BRANCH  46  47
ATOM     47  C   UNL     1       7.122  -7.843   4.656  1.00  0.00     0.031 A 
ATOM     48  C   UNL     1       7.396  -8.007   6.103  1.00  0.00     0.074 A 
ATOM     49  C   UNL     1       5.869  -7.572   4.235  1.00  0.00     0.049 A 
ATOM     50  N   UNL     1       6.506  -8.240   7.007  1.00  0.00    -0.248 NA
ATOM     51  C   UNL     1       8.749  -7.958   6.643  1.00  0.00     0.031 C 
ATOM     52  C   UNL     1       4.733  -7.157   5.055  1.00  0.00     0.029 A 
ATOM     53  N   UNL     1       5.315  -7.823   2.981  1.00  0.00    -0.354 N 
ATOM     54  C   UNL     1       7.096  -8.069   8.242  1.00  0.00     0.074 A 
ATOM     55  C   UNL     1       8.507  -7.981   7.955  1.00  0.00     0.031 C 
ATOM     56  C   UNL     1       3.597  -7.398   4.384  1.00  0.00     0.029 A 
ATOM     57  C   UNL     1       3.959  -8.141   3.191  1.00  0.00     0.049 A 
ATOM     58  H   UNL     1       5.782  -7.786   2.115  1.00  0.00     0.167 HD
ATOM     59  C   UNL     1       6.293  -7.889   9.335  1.00  0.00     0.037 A 
ATOM     60  C   UNL     1       3.477  -9.385   2.895  1.00  0.00     0.037 A 
ATOM     61  C   UNL     1       4.892  -8.162   8.992  1.00  0.00     0.049 A 
ATOM     62  C   UNL     1       2.921 -10.137   4.082  1.00  0.00     0.074 A 
ATOM     63  C   UNL     1       3.800  -7.352   8.726  1.00  0.00     0.029 A 
ATOM     64  N   UNL     1       4.527  -9.447   8.594  1.00  0.00    -0.354 N 
ATOM     65  N   UNL     1       3.183  -9.848   5.328  1.00  0.00    -0.248 NA
ATOM     66  C   UNL     1       2.011 -11.270   3.956  1.00  0.00     0.031 C 
ATOM     67  C   UNL     1       2.797  -8.147   8.113  1.00  0.00     0.029 A 
ATOM     68  C   UNL     1       3.270  -9.445   8.020  1.00  0.00     0.049 A 
ATOM     69  H   UNL     1       5.089 -10.248   8.707  1.00  0.00     0.167 HD
ATOM     70  C   UNL     1       2.532 -10.728   6.157  1.00  0.00     0.074 A 
ATOM     71  C   UNL     1       1.784 -11.575   5.246  1.00  0.00     0.031 C 
ATOM     72  C   UNL     1       2.673 -10.680   7.519  1.00  0.00     0.037 A 
BRANCH  59  73
ATOM     73  C   UNL     1       6.722  -7.203  10.632  1.00  0.00     0.058 A 
ATOM     74  C   UNL     1       5.764  -6.595  11.479  1.00  0.00     0.135 A 
ATOM     75  C   UNL     1       8.052  -7.025  11.067  1.00  0.00     0.135 A 
ATOM     76  F   UNL     1       4.449  -6.746  11.272  1.00  0.00    -0.206 F 
ATOM     77  C   UNL     1       6.102  -5.795  12.579  1.00  0.00     0.059 A 
ATOM     78  C   UNL     1       8.418  -6.197  12.133  1.00  0.00     0.059 A 
ATOM     79  F   UNL     1       9.071  -7.691  10.521  1.00  0.00    -0.206 F 
ATOM     80  C   UNL     1       7.436  -5.571  12.879  1.00  0.00     0.060 A 
BRANCH  80  81
ATOM     81  S   UNL     1       7.870  -4.484  14.249  1.00  0.00     0.124 S 
ATOM     82  O   UNL     1       7.234  -3.230  13.859  1.00  0.00    -0.237 OA
ATOM     83  O   UNL     1       7.274  -5.175  15.388  1.00  0.00    -0.237 OA
ATOM     84  O   UNL     1       9.331  -4.470  14.224  1.00  0.00    -0.744 OA
ENDBRANCH  80  81
ENDBRANCH  59  73
BRANCH  60  85
ATOM     85  C   UNL     1       4.140  -9.990   1.705  1.00  0.00     0.058 A 
ATOM     86  C   UNL     1       3.896  -9.374   0.462  1.00  0.00     0.135 A 
ATOM     87  C   UNL     1       5.319 -10.737   1.841  1.00  0.00     0.135 A 
ATOM     88  F   UNL     1       2.769  -8.668   0.274  1.00  0.00    -0.206 F 
ATOM     89  C   UNL     1       4.872  -9.319  -0.526  1.00  0.00     0.059 A 
ATOM     90  C   UNL     1       6.306 -10.709   0.853  1.00  0.00     0.059 A 
ATOM     91  F   UNL     1       5.599 -11.355   2.998  1.00  0.00    -0.206 F 
ATOM     92  C   UNL     1       6.105  -9.918  -0.280  1.00  0.00     0.060 A 
BRANCH  92  93
ATOM     93  S   UNL     1       7.491  -9.455  -1.349  1.00  0.00     0.124 S 
ATOM     94  O   UNL     1       6.973  -9.765  -2.676  1.00  0.00    -0.237 OA
ATOM     95  O   UNL     1       7.633  -8.031  -1.044  1.00  0.00    -0.237 OA
ATOM     96  O   UNL     1       8.576 -10.308  -0.878  1.00  0.00    -0.744 OA
ENDBRANCH  92  93
ENDBRANCH  60  85
BRANCH  72  97
ATOM     97  C   UNL     1       2.192 -11.716   8.525  1.00  0.00     0.058 A 
ATOM     98  C   UNL     1       1.907 -13.059   8.222  1.00  0.00     0.135 A 
ATOM     99  C   UNL     1       2.120 -11.394   9.907  1.00  0.00     0.135 A 
ATOM    100  F   UNL     1       2.065 -13.550   6.986  1.00  0.00    -0.206 F 
ATOM    101  C   UNL     1       1.502 -13.985   9.189  1.00  0.00     0.059 A 
ATOM    102  C   UNL     1       1.780 -12.317  10.896  1.00  0.00     0.059 A 
ATOM    103  F   UNL     1       2.401 -10.163  10.359  1.00  0.00    -0.206 F 
ATOM    104  C   UNL     1       1.441 -13.606  10.524  1.00  0.00     0.060 A 
BRANCH 104 105
ATOM    105  S   UNL     1       0.993 -14.819  11.780  1.00  0.00     0.124 S 
ATOM    106  O   UNL     1      -0.462 -14.701  11.793  1.00  0.00    -0.237 OA
ATOM    107  O   UNL     1       1.519 -16.064  11.228  1.00  0.00    -0.237 OA
ATOM    108  O   UNL     1       1.679 -14.334  12.974  1.00  0.00    -0.744 OA
ENDBRANCH 104 105
ENDBRANCH  72  97
ENDBRANCH  46  47
ENDBRANCH  38  41
ENDBRANCH  36  37
ENDBRANCH   1  36
TORSDOF 18
