REMARK SMILES COc1ccc(-c2cc(C(=O)NCCCCNC(=O)c3ccc(-c4c5nc(c(-c6c(F)cc(S(=O)(=O)[O-])cc6F)c6ccc([nH]6)c(-c6c(F)cc(S(=O)(=O)[O-])cc6F)c6nc(c(-c7c(F)cc(S(=O)(=O)[O-])cc7F)c7ccc4[nH]7)C=C6)C=C5)cc3)nc(=O)n2C)cc1
REMARK SMILES IDX 15 1 14 2 13 3 12 4 10 5 11 6 9 8 7 9 8 10 89 11 87 12 90 13
REMARK SMILES IDX 86 14 88 15 6 16 3 17 4 18 92 19 5 20 91 21 2 22 1 23 16 24
REMARK SMILES IDX 17 25 18 26 19 28 20 29 21 30 85 31 22 32 84 33 23 34 24 35
REMARK SMILES IDX 25 36 78 37 26 38 83 39 77 40 79 41 27 42 82 43 76 44 75 45
REMARK SMILES IDX 28 47 62 48 41 49 61 50 42 51 45 52 60 53 80 54 43 55 44 56
REMARK SMILES IDX 59 58 81 59 46 60 29 61 30 62 39 63 31 64 32 65 38 66 40 67
REMARK SMILES IDX 33 68 34 69 35 70 36 71 37 72 63 73 64 74 73 75 65 76 66 77
REMARK SMILES IDX 72 78 74 79 67 80 68 81 69 82 70 83 71 84 47 85 48 86 57 87
REMARK SMILES IDX 49 88 50 89 56 90 58 91 51 92 52 93 53 94 54 95 55 96
REMARK H PARENT 12 7 17 27 79 46 45 57
REMARK Flexibility Score: inf
ROOT
ATOM      1  C   UNL     1       0.845  13.507   0.695  1.00  0.00     0.023 C 
ENDROOT
BRANCH   1   2
ATOM      2  C   UNL     1       1.571  12.381  -0.050  1.00  0.00     0.023 C 
BRANCH   2   3
ATOM      3  C   UNL     1       2.261  11.375   0.870  1.00  0.00     0.116 C 
BRANCH   3   4
ATOM      4  N   UNL     1       1.291  10.516   1.525  1.00  0.00    -0.351 N 
ATOM      5  C   UNL     1       0.925   9.218   1.268  1.00  0.00     0.270 C 
ATOM      6  O   UNL     1       0.019   8.707   1.923  1.00  0.00    -0.268 OA
ATOM      7  H   UNL     1       0.817  10.934   2.280  1.00  0.00     0.163 HD
BRANCH   5   8
ATOM      8  C   UNL     1       1.629   8.367   0.205  1.00  0.00     0.136 A 
ATOM      9  C   UNL     1       1.864   6.191  -0.731  1.00  0.00     0.055 A 
ATOM     10  C   UNL     1       1.258   6.941   0.195  1.00  0.00     0.061 A 
ATOM     11  N   UNL     1       2.794   6.751  -1.591  1.00  0.00    -0.295 N 
ATOM     12  C   UNL     1       3.136   8.107  -1.509  1.00  0.00     0.348 A 
ATOM     13  C   UNL     1       3.499   5.982  -2.603  1.00  0.00     0.155 C 
ATOM     14  N   UNL     1       2.482   8.895  -0.605  1.00  0.00    -0.188 NA
ATOM     15  O   UNL     1       4.014   8.588  -2.225  1.00  0.00    -0.246 OA
BRANCH   9  16
ATOM     16  C   UNL     1       1.503   4.764  -0.782  1.00  0.00    -0.001 A 
ATOM     17  C   UNL     1       0.788   2.049  -0.833  1.00  0.00     0.118 A 
ATOM     18  C   UNL     1      -0.133   3.025  -1.211  1.00  0.00     0.047 A 
ATOM     19  C   UNL     1       2.075   2.426  -0.447  1.00  0.00     0.047 A 
ATOM     20  C   UNL     1       0.217   4.376  -1.180  1.00  0.00     0.014 A 
ATOM     21  C   UNL     1       2.427   3.779  -0.411  1.00  0.00     0.014 A 
BRANCH  17  22
ATOM     22  O   UNL     1       0.344   0.758  -0.920  1.00  0.00    -0.497 OA
ATOM     23  C   UNL     1       0.906  -0.138   0.033  1.00  0.00     0.278 C 
ENDBRANCH  17  22
ENDBRANCH   9  16
ENDBRANCH   5   8
ENDBRANCH   3   4
ENDBRANCH   2   3
ENDBRANCH   1   2
BRANCH   1  24
ATOM     24  C   UNL     1       1.703  14.286   1.689  1.00  0.00     0.116 C 
BRANCH  24  25
ATOM     25  N   UNL     1       2.918  14.820   1.096  1.00  0.00    -0.352 N 
ATOM     26  C   UNL     1       3.516  16.041   1.290  1.00  0.00     0.251 C 
ATOM     27  H   UNL     1       3.378  14.221   0.464  1.00  0.00     0.163 HD
ATOM     28  O   UNL     1       4.470  16.369   0.592  1.00  0.00    -0.269 OA
BRANCH  26  29
ATOM     29  C   UNL     1       2.989  16.968   2.313  1.00  0.00     0.039 A 
ATOM     30  C   UNL     1       2.854  18.317   1.982  1.00  0.00     0.014 A 
ATOM     31  C   UNL     1       2.624  16.518   3.586  1.00  0.00     0.014 A 
ATOM     32  C   UNL     1       2.300  19.202   2.908  1.00  0.00     0.010 A 
ATOM     33  C   UNL     1       1.995  17.386   4.477  1.00  0.00     0.010 A 
ATOM     34  C   UNL     1       1.829  18.738   4.149  1.00  0.00    -0.014 A 
BRANCH  34  35
ATOM     35  C   UNL     1       1.142  19.668   5.083  1.00  0.00     0.031 A 
ATOM     36  C   UNL     1       1.725  19.977   6.435  1.00  0.00     0.074 A 
ATOM     37  C   UNL     1      -0.027  20.225   4.708  1.00  0.00     0.049 A 
ATOM     38  N   UNL     1       1.293  20.812   7.346  1.00  0.00    -0.248 NA
ATOM     39  C   UNL     1       2.935  19.239   6.829  1.00  0.00     0.031 C 
ATOM     40  C   UNL     1      -0.730  19.946   3.453  1.00  0.00     0.029 A 
ATOM     41  N   UNL     1      -0.825  21.148   5.335  1.00  0.00    -0.354 N 
ATOM     42  C   UNL     1       2.175  20.702   8.415  1.00  0.00     0.074 A 
ATOM     43  C   UNL     1       3.129  19.671   8.066  1.00  0.00     0.031 C 
ATOM     44  C   UNL     1      -1.825  20.717   3.380  1.00  0.00     0.029 A 
ATOM     45  C   UNL     1      -1.924  21.519   4.595  1.00  0.00     0.049 A 
ATOM     46  H   UNL     1      -0.630  21.510   6.229  1.00  0.00     0.167 HD
ATOM     47  C   UNL     1       2.205  21.414   9.567  1.00  0.00     0.037 A 
ATOM     48  C   UNL     1      -2.896  22.412   4.860  1.00  0.00     0.037 A 
ATOM     49  C   UNL     1       1.255  22.445   9.903  1.00  0.00     0.049 A 
ATOM     50  C   UNL     1      -2.833  23.199   6.140  1.00  0.00     0.074 A 
ATOM     51  C   UNL     1       1.229  23.262  11.019  1.00  0.00     0.029 A 
ATOM     52  N   UNL     1       0.157  22.795   9.129  1.00  0.00    -0.354 N 
ATOM     53  N   UNL     1      -1.943  23.141   7.102  1.00  0.00    -0.248 NA
ATOM     54  C   UNL     1      -3.899  24.184   6.363  1.00  0.00     0.031 C 
ATOM     55  C   UNL     1       0.086  24.067  10.948  1.00  0.00     0.029 A 
ATOM     56  C   UNL     1      -0.568  23.797   9.756  1.00  0.00     0.049 A 
ATOM     57  H   UNL     1      -0.074  22.391   8.261  1.00  0.00     0.167 HD
ATOM     58  C   UNL     1      -2.330  24.096   8.036  1.00  0.00     0.074 A 
ATOM     59  C   UNL     1      -3.518  24.736   7.505  1.00  0.00     0.031 C 
ATOM     60  C   UNL     1      -1.759  24.414   9.225  1.00  0.00     0.037 A 
BRANCH  47  61
ATOM     61  C   UNL     1       3.304  21.104  10.552  1.00  0.00     0.058 A 
ATOM     62  C   UNL     1       4.649  21.404  10.277  1.00  0.00     0.135 A 
ATOM     63  C   UNL     1       3.006  20.535  11.801  1.00  0.00     0.135 A 
ATOM     64  F   UNL     1       4.996  21.935   9.094  1.00  0.00    -0.206 F 
ATOM     65  C   UNL     1       5.661  21.122  11.190  1.00  0.00     0.059 A 
ATOM     66  C   UNL     1       3.999  20.274  12.742  1.00  0.00     0.059 A 
ATOM     67  F   UNL     1       1.739  20.227  12.119  1.00  0.00    -0.206 F 
ATOM     68  C   UNL     1       5.325  20.557  12.421  1.00  0.00     0.060 A 
BRANCH  68  69
ATOM     69  S   UNL     1       6.650  20.205  13.596  1.00  0.00     0.124 S 
ATOM     70  O   UNL     1       7.314  19.073  12.957  1.00  0.00    -0.237 OA
ATOM     71  O   UNL     1       7.399  21.457  13.605  1.00  0.00    -0.237 OA
ATOM     72  O   UNL     1       5.936  19.896  14.832  1.00  0.00    -0.744 OA
ENDBRANCH  68  69
ENDBRANCH  47  61
BRANCH  48  73
ATOM     73  C   UNL     1      -3.991  22.633   3.876  1.00  0.00     0.058 A 
ATOM     74  C   UNL     1      -4.094  23.837   3.163  1.00  0.00     0.135 A 
ATOM     75  C   UNL     1      -4.947  21.639   3.619  1.00  0.00     0.135 A 
ATOM     76  F   UNL     1      -3.207  24.821   3.376  1.00  0.00    -0.206 F 
ATOM     77  C   UNL     1      -5.117  24.056   2.245  1.00  0.00     0.059 A 
ATOM     78  C   UNL     1      -5.961  21.822   2.684  1.00  0.00     0.059 A 
ATOM     79  F   UNL     1      -4.883  20.461   4.260  1.00  0.00    -0.206 F 
ATOM     80  C   UNL     1      -6.044  23.040   2.010  1.00  0.00     0.060 A 
BRANCH  80  81
ATOM     81  S   UNL     1      -7.338  23.315   0.781  1.00  0.00     0.124 S 
ATOM     82  O   UNL     1      -8.198  24.271   1.468  1.00  0.00    -0.237 OA
ATOM     83  O   UNL     1      -6.578  23.837  -0.351  1.00  0.00    -0.237 OA
ATOM     84  O   UNL     1      -7.904  21.983   0.585  1.00  0.00    -0.744 OA
ENDBRANCH  80  81
ENDBRANCH  48  73
BRANCH  60  85
ATOM     85  C   UNL     1      -2.406  25.519  10.019  1.00  0.00     0.058 A 
ATOM     86  C   UNL     1      -3.672  25.365  10.607  1.00  0.00     0.135 A 
ATOM     87  C   UNL     1      -1.754  26.752  10.187  1.00  0.00     0.135 A 
ATOM     88  F   UNL     1      -4.341  24.208  10.477  1.00  0.00    -0.206 F 
ATOM     89  C   UNL     1      -4.294  26.411  11.280  1.00  0.00     0.059 A 
ATOM     90  C   UNL     1      -2.341  27.800  10.889  1.00  0.00     0.059 A 
ATOM     91  F   UNL     1      -0.534  26.950   9.663  1.00  0.00    -0.206 F 
ATOM     92  C   UNL     1      -3.623  27.628  11.409  1.00  0.00     0.060 A 
BRANCH  92  93
ATOM     93  S   UNL     1      -4.450  28.987  12.262  1.00  0.00     0.124 S 
ATOM     94  O   UNL     1      -5.441  29.395  11.271  1.00  0.00    -0.237 OA
ATOM     95  O   UNL     1      -4.979  28.332  13.455  1.00  0.00    -0.237 OA
ATOM     96  O   UNL     1      -3.374  29.942  12.504  1.00  0.00    -0.744 OA
ENDBRANCH  92  93
ENDBRANCH  60  85
ENDBRANCH  34  35
ENDBRANCH  26  29
ENDBRANCH  24  25
ENDBRANCH   1  24
TORSDOF 16
