REMARK SMILES O=C(NCCCCNC(=O)[C@H]1CC[C@@H](CNc2ccccc2C(F)(F)F)O1)c1ccc(-c2c3nc(c(-c4c(F)cc(S(=O)(=O)[O-])cc4F)c4ccc([nH]4)c(-c4c(F)cc(S(=O)(=O)[O-])cc4F)c4nc(c(-c5c(F)cc(S(=O)(=O)[O-])cc5F)c5ccc2[nH]5)C=C4)C=C3)cc1
REMARK SMILES IDX 6 1 5 2 4 3 3 4 1 5 2 6 28 8 29 9 93 10 30 11 92 12 31 13
REMARK SMILES IDX 32 14 33 15 86 16 34 17 91 18 85 19 87 20 35 21 90 22 84 23
REMARK SMILES IDX 83 24 36 26 70 27 49 28 69 29 50 30 53 31 68 32 88 33 51 34
REMARK SMILES IDX 52 35 67 37 89 38 54 39 37 40 38 41 47 42 39 43 40 44 46 45
REMARK SMILES IDX 48 46 41 47 42 48 43 49 44 50 45 51 71 52 72 53 81 54 73 55
REMARK SMILES IDX 74 56 80 57 82 58 75 59 76 60 77 61 78 62 79 63 55 64 56 65
REMARK SMILES IDX 65 66 57 67 58 68 64 69 66 70 59 71 60 72 61 73 62 74 63 75
REMARK SMILES IDX 7 76 8 77 9 78 10 80 11 81 12 82 27 83 13 84 14 85 15 86
REMARK SMILES IDX 16 87 17 89 18 90 22 91 19 92 21 93 20 94 23 95 24 96 25 97
REMARK SMILES IDX 26 98
REMARK H PARENT 3 7 87 25 53 36 8 79 16 88
REMARK Flexibility Score: inf
ROOT
ATOM      1  C   UNL     1       6.722  -2.294   4.593  1.00  0.00     0.023 C 
ENDROOT
BRANCH   1   2
ATOM      2  C   UNL     1       6.918  -1.924   6.065  1.00  0.00     0.023 C 
BRANCH   2   3
ATOM      3  C   UNL     1       8.365  -1.835   6.540  1.00  0.00     0.116 C 
BRANCH   3   4
ATOM      4  N   UNL     1       9.133  -0.831   5.820  1.00  0.00    -0.352 N 
ATOM      5  O   UNL     1      10.276   1.081   5.504  1.00  0.00    -0.269 OA
ATOM      6  C   UNL     1       9.812   0.265   6.297  1.00  0.00     0.251 C 
ATOM      7  H   UNL     1       9.172  -0.955   4.845  1.00  0.00     0.163 HD
BRANCH   6   8
ATOM      8  C   UNL     1       9.963   0.479   7.753  1.00  0.00     0.039 A 
ATOM      9  C   UNL     1      10.349  -0.562   8.602  1.00  0.00     0.014 A 
ATOM     10  C   UNL     1       9.735   1.757   8.273  1.00  0.00     0.014 A 
ATOM     11  C   UNL     1      10.382  -0.359   9.980  1.00  0.00     0.010 A 
ATOM     12  C   UNL     1       9.832   1.975   9.650  1.00  0.00     0.010 A 
ATOM     13  C   UNL     1      10.125   0.911  10.518  1.00  0.00    -0.014 A 
BRANCH  13  14
ATOM     14  C   UNL     1      10.194   1.131  11.986  1.00  0.00     0.031 A 
ATOM     15  C   UNL     1       8.961   1.491  12.767  1.00  0.00     0.074 A 
ATOM     16  C   UNL     1      11.381   1.020  12.612  1.00  0.00     0.049 A 
ATOM     17  N   UNL     1       8.844   1.779  14.038  1.00  0.00    -0.248 NA
ATOM     18  C   UNL     1       7.694   1.540  12.021  1.00  0.00     0.031 C 
ATOM     19  C   UNL     1      12.648   0.680  11.961  1.00  0.00     0.029 A 
ATOM     20  N   UNL     1      11.719   1.187  13.931  1.00  0.00    -0.354 N 
ATOM     21  C   UNL     1       7.499   2.068  14.242  1.00  0.00     0.074 A 
ATOM     22  C   UNL     1       6.843   1.939  12.957  1.00  0.00     0.031 C 
ATOM     23  C   UNL     1      13.621   0.650  12.883  1.00  0.00     0.029 A 
ATOM     24  C   UNL     1      13.060   1.021  14.179  1.00  0.00     0.049 A 
ATOM     25  H   UNL     1      11.063   1.405  14.633  1.00  0.00     0.167 HD
ATOM     26  C   UNL     1       6.871   2.406  15.395  1.00  0.00     0.037 A 
ATOM     27  C   UNL     1      13.768   1.175  15.314  1.00  0.00     0.037 A 
ATOM     28  C   UNL     1       7.530   2.521  16.671  1.00  0.00     0.049 A 
ATOM     29  C   UNL     1      13.056   1.567  16.576  1.00  0.00     0.074 A 
ATOM     30  C   UNL     1       6.976   2.828  17.902  1.00  0.00     0.029 A 
ATOM     31  N   UNL     1       8.890   2.341  16.880  1.00  0.00    -0.354 N 
ATOM     32  N   UNL     1      11.780   1.813  16.757  1.00  0.00    -0.248 NA
ATOM     33  C   UNL     1      13.874   1.702  17.788  1.00  0.00     0.031 C 
ATOM     34  C   UNL     1       8.006   2.870  18.848  1.00  0.00     0.029 A 
ATOM     35  C   UNL     1       9.196   2.546  18.216  1.00  0.00     0.049 A 
ATOM     36  H   UNL     1       9.542   2.102  16.182  1.00  0.00     0.167 HD
ATOM     37  C   UNL     1      11.638   2.111  18.106  1.00  0.00     0.074 A 
ATOM     38  C   UNL     1      12.957   2.011  18.697  1.00  0.00     0.031 C 
ATOM     39  C   UNL     1      10.514   2.434  18.792  1.00  0.00     0.037 A 
BRANCH  26  40
ATOM     40  C   UNL     1       5.398   2.703  15.320  1.00  0.00     0.058 A 
ATOM     41  C   UNL     1       4.447   1.690  15.118  1.00  0.00     0.135 A 
ATOM     42  C   UNL     1       4.930   4.020  15.463  1.00  0.00     0.135 A 
ATOM     43  F   UNL     1       4.840   0.416  14.963  1.00  0.00    -0.206 F 
ATOM     44  C   UNL     1       3.089   1.976  15.020  1.00  0.00     0.059 A 
ATOM     45  C   UNL     1       3.574   4.326  15.393  1.00  0.00     0.059 A 
ATOM     46  F   UNL     1       5.795   5.027  15.662  1.00  0.00    -0.206 F 
ATOM     47  C   UNL     1       2.663   3.299  15.150  1.00  0.00     0.060 A 
BRANCH  47  48
ATOM     48  S   UNL     1       0.901   3.663  14.989  1.00  0.00     0.124 S 
ATOM     49  O   UNL     1       0.718   3.566  13.544  1.00  0.00    -0.237 OA
ATOM     50  O   UNL     1       0.286   2.600  15.777  1.00  0.00    -0.237 OA
ATOM     51  O   UNL     1       0.779   5.005  15.549  1.00  0.00    -0.744 OA
ENDBRANCH  47  48
ENDBRANCH  26  40
BRANCH  27  52
ATOM     52  C   UNL     1      15.236   0.951  15.288  1.00  0.00     0.058 A 
ATOM     53  C   UNL     1      15.801  -0.199  15.854  1.00  0.00     0.135 A 
ATOM     54  C   UNL     1      16.092   1.848  14.629  1.00  0.00     0.135 A 
ATOM     55  F   UNL     1      15.022  -1.082  16.498  1.00  0.00    -0.206 F 
ATOM     56  C   UNL     1      17.164  -0.458  15.764  1.00  0.00     0.059 A 
ATOM     57  C   UNL     1      17.454   1.600  14.506  1.00  0.00     0.059 A 
ATOM     58  F   UNL     1      15.594   2.955  14.056  1.00  0.00    -0.206 F 
ATOM     59  C   UNL     1      17.982   0.443  15.079  1.00  0.00     0.060 A 
BRANCH  59  60
ATOM     60  S   UNL     1      19.734   0.050  14.886  1.00  0.00     0.124 S 
ATOM     61  O   UNL     1      20.248   0.335  16.220  1.00  0.00    -0.237 OA
ATOM     62  O   UNL     1      19.693  -1.358  14.504  1.00  0.00    -0.237 OA
ATOM     63  O   UNL     1      20.167   0.963  13.832  1.00  0.00    -0.744 OA
ENDBRANCH  59  60
ENDBRANCH  27  52
BRANCH  39  64
ATOM     64  C   UNL     1      10.648   2.669  20.270  1.00  0.00     0.058 A 
ATOM     65  C   UNL     1      11.198   3.853  20.782  1.00  0.00     0.135 A 
ATOM     66  C   UNL     1      10.156   1.722  21.183  1.00  0.00     0.135 A 
ATOM     67  F   UNL     1      11.690   4.785  19.951  1.00  0.00    -0.206 F 
ATOM     68  C   UNL     1      11.264   4.088  22.152  1.00  0.00     0.059 A 
ATOM     69  C   UNL     1      10.192   1.946  22.556  1.00  0.00     0.059 A 
ATOM     70  F   UNL     1       9.615   0.575  20.742  1.00  0.00    -0.206 F 
ATOM     71  C   UNL     1      10.754   3.130  23.031  1.00  0.00     0.060 A 
BRANCH  71  72
ATOM     72  S   UNL     1      10.794   3.469  24.804  1.00  0.00     0.124 S 
ATOM     73  O   UNL     1      12.201   3.239  25.115  1.00  0.00    -0.237 OA
ATOM     74  O   UNL     1      10.350   4.858  24.869  1.00  0.00    -0.237 OA
ATOM     75  O   UNL     1       9.860   2.493  25.358  1.00  0.00    -0.744 OA
ENDBRANCH  71  72
ENDBRANCH  39  64
ENDBRANCH  13  14
ENDBRANCH   6   8
ENDBRANCH   3   4
ENDBRANCH   2   3
ENDBRANCH   1   2
BRANCH   1  76
ATOM     76  C   UNL     1       7.411  -3.576   4.131  1.00  0.00     0.116 C 
BRANCH  76  77
ATOM     77  N   UNL     1       6.976  -4.745   4.872  1.00  0.00    -0.354 N 
ATOM     78  C   UNL     1       6.690  -6.000   4.416  1.00  0.00     0.249 C 
ATOM     79  H   UNL     1       6.872  -4.615   5.842  1.00  0.00     0.163 HD
ATOM     80  O   UNL     1       6.425  -6.868   5.251  1.00  0.00    -0.272 OA
BRANCH  78  81
ATOM     81  C   UNL     1       6.681  -6.287   2.901  1.00  0.00     0.207 C 
ATOM     82  C   UNL     1       7.060  -7.724   2.586  1.00  0.00     0.045 C 
ATOM     83  O   UNL     1       5.359  -6.095   2.370  1.00  0.00    -0.363 OA
ATOM     84  C   UNL     1       5.734  -8.438   2.634  1.00  0.00     0.037 C 
ATOM     85  C   UNL     1       4.773  -7.387   2.097  1.00  0.00     0.138 C 
BRANCH  85  86
ATOM     86  C   UNL     1       3.362  -7.486   2.703  1.00  0.00     0.145 C 
BRANCH  86  87
ATOM     87  N   UNL     1       2.774  -8.811   2.493  1.00  0.00    -0.382 N 
ATOM     88  H   UNL     1       2.701  -9.171   1.580  1.00  0.00     0.160 HD
BRANCH  87  89
ATOM     89  C   UNL     1       2.319  -9.568   3.567  1.00  0.00     0.046 A 
ATOM     90  C   UNL     1       2.880 -10.849   3.733  1.00  0.00     0.026 A 
ATOM     91  C   UNL     1       1.406  -9.113   4.535  1.00  0.00     0.079 A 
ATOM     92  C   UNL     1       2.573 -11.653   4.833  1.00  0.00     0.002 A 
ATOM     93  C   UNL     1       1.117  -9.931   5.652  1.00  0.00     0.015 A 
ATOM     94  C   UNL     1       1.695 -11.189   5.800  1.00  0.00     0.001 A 
BRANCH  91  95
ATOM     95  C   UNL     1       0.686  -7.788   4.445  1.00  0.00     0.418 C 
ATOM     96  F   UNL     1      -0.558  -7.833   5.015  1.00  0.00    -0.166 F 
ATOM     97  F   UNL     1       1.343  -6.789   5.099  1.00  0.00    -0.166 F 
ATOM     98  F   UNL     1       0.467  -7.330   3.180  1.00  0.00    -0.166 F 
ENDBRANCH  91  95
ENDBRANCH  87  89
ENDBRANCH  86  87
ENDBRANCH  85  86
ENDBRANCH  78  81
ENDBRANCH  76  77
ENDBRANCH   1  76
TORSDOF 18
