REMARK SMILES NC(=O)c1ccc(C[N@H+]2CCC[C@@H](C(=O)NCCCCNC(=O)c3ccc(-c4c5nc(c(-c6c(F)cc(S(=O)(=O)[O-])cc6F)c6ccc([nH]6)c(-c6c(F)cc(S(=O)(=O)[O-])cc6F)c6nc(c(-c7c(F)cc(S(=O)(=O)[O-])cc7F)c7ccc4[nH]7)C=C6)C=C5)cc3)C2)cc1
REMARK SMILES IDX 18 1 17 2 16 3 14 4 15 5 13 7 9 8 10 9 90 10 11 12 12 13
REMARK SMILES IDX 8 14 7 15 4 16 5 17 92 18 6 19 91 20 2 21 1 22 3 25 19 26
REMARK SMILES IDX 20 27 21 28 22 29 23 31 24 32 25 33 89 34 26 35 88 36 27 37
REMARK SMILES IDX 28 38 29 39 82 40 30 41 87 42 81 43 83 44 31 45 86 46 80 47
REMARK SMILES IDX 79 48 32 50 66 51 45 52 65 53 46 54 49 55 64 56 84 57 47 58
REMARK SMILES IDX 48 59 63 61 85 62 50 63 33 64 34 65 43 66 35 67 36 68 42 69
REMARK SMILES IDX 44 70 37 71 38 72 39 73 40 74 41 75 67 76 68 77 77 78 69 79
REMARK SMILES IDX 70 80 76 81 78 82 71 83 72 84 73 85 74 86 75 87 51 88 52 89
REMARK SMILES IDX 61 90 53 91 54 92 60 93 62 94 55 95 56 96 57 97 58 98 59 99
REMARK H PARENT 16 6 9 11 1 23 1 24 21 30 83 49 49 60
REMARK Flexibility Score: inf
ROOT
ATOM      1  C   UNL     1      -0.529  -4.841  10.803  1.00  0.00     0.023 C 
ENDROOT
BRANCH   1   2
ATOM      2  C   UNL     1      -0.239  -4.287   9.409  1.00  0.00     0.116 C 
BRANCH   2   3
ATOM      3  N   UNL     1      -1.321  -3.451   8.923  1.00  0.00    -0.356 N 
ATOM      4  C   UNL     1      -1.373  -2.106   8.712  1.00  0.00     0.228 C 
ATOM      5  O   UNL     1      -2.456  -1.624   8.379  1.00  0.00    -0.275 OA
ATOM      6  H   UNL     1      -2.152  -3.934   8.712  1.00  0.00     0.163 HD
BRANCH   4   7
ATOM      7  C   UNL     1      -0.105  -1.266   8.821  1.00  0.00     0.133 C 
ATOM      8  N   UNL     1       1.923  -0.660   7.469  1.00  0.00    -0.331 N 
ATOM      9  C   UNL     1       1.567   0.762   7.509  1.00  0.00     0.262 C 
ATOM     10  C   UNL     1       0.725  -1.510   7.553  1.00  0.00     0.276 C 
ATOM     11  H   UNL     1       2.485  -0.852   8.298  1.00  0.00     0.348 HD
ATOM     12  C   UNL     1       0.800   1.091   8.793  1.00  0.00     0.062 C 
ATOM     13  C   UNL     1      -0.449   0.226   8.933  1.00  0.00     0.025 C 
BRANCH   8  14
ATOM     14  C   UNL     1       2.795  -1.004   6.328  1.00  0.00     0.299 C 
BRANCH  14  15
ATOM     15  C   UNL     1       2.211  -0.831   4.936  1.00  0.00     0.006 A 
ATOM     16  C   UNL     1       0.995  -0.432   2.435  1.00  0.00     0.039 A 
ATOM     17  C   UNL     1       0.644  -1.536   3.210  1.00  0.00     0.014 A 
ATOM     18  C   UNL     1       1.973   0.461   2.885  1.00  0.00     0.014 A 
ATOM     19  C   UNL     1       1.278  -1.753   4.433  1.00  0.00     0.010 A 
ATOM     20  C   UNL     1       2.569   0.266   4.137  1.00  0.00     0.010 A 
BRANCH  16  21
ATOM     21  C   UNL     1       0.282  -0.221   1.157  1.00  0.00     0.248 C 
ATOM     22  N   UNL     1       1.041   0.153   0.088  1.00  0.00    -0.366 N 
ATOM     23  H   UNL     1       0.617   0.306  -0.787  1.00  0.00     0.159 HD
ATOM     24  H   UNL     1       2.013   0.269   0.191  1.00  0.00     0.159 HD
ATOM     25  O   UNL     1      -0.924  -0.411   1.053  1.00  0.00    -0.270 OA
ENDBRANCH  16  21
ENDBRANCH  14  15
ENDBRANCH   8  14
ENDBRANCH   4   7
ENDBRANCH   2   3
ENDBRANCH   1   2
BRANCH   1  26
ATOM     26  C   UNL     1      -1.823  -5.653  10.929  1.00  0.00     0.023 C 
BRANCH  26  27
ATOM     27  C   UNL     1      -1.948  -6.854   9.995  1.00  0.00     0.116 C 
BRANCH  27  28
ATOM     28  N   UNL     1      -0.948  -7.876  10.252  1.00  0.00    -0.352 N 
ATOM     29  C   UNL     1      -1.103  -9.223  10.487  1.00  0.00     0.251 C 
ATOM     30  H   UNL     1      -0.017  -7.556  10.260  1.00  0.00     0.163 HD
ATOM     31  O   UNL     1      -0.127  -9.886  10.833  1.00  0.00    -0.269 OA
BRANCH  29  32
ATOM     32  C   UNL     1      -2.429  -9.873  10.358  1.00  0.00     0.039 A 
ATOM     33  C   UNL     1      -2.809 -10.817  11.317  1.00  0.00     0.014 A 
ATOM     34  C   UNL     1      -3.291  -9.582   9.297  1.00  0.00     0.014 A 
ATOM     35  C   UNL     1      -4.072 -11.414  11.250  1.00  0.00     0.010 A 
ATOM     36  C   UNL     1      -4.579 -10.121   9.273  1.00  0.00     0.010 A 
ATOM     37  C   UNL     1      -4.986 -11.043  10.250  1.00  0.00    -0.014 A 
BRANCH  37  38
ATOM     38  C   UNL     1      -6.368 -11.599  10.224  1.00  0.00     0.031 A 
ATOM     39  C   UNL     1      -6.836 -12.436   9.062  1.00  0.00     0.074 A 
ATOM     40  C   UNL     1      -7.220 -11.315  11.231  1.00  0.00     0.049 A 
ATOM     41  N   UNL     1      -8.014 -12.965   8.846  1.00  0.00    -0.248 NA
ATOM     42  C   UNL     1      -5.859 -12.698   7.992  1.00  0.00     0.031 C 
ATOM     43  C   UNL     1      -6.906 -10.484  12.396  1.00  0.00     0.029 A 
ATOM     44  N   UNL     1      -8.526 -11.688  11.438  1.00  0.00    -0.354 N 
ATOM     45  C   UNL     1      -7.921 -13.619   7.622  1.00  0.00     0.074 A 
ATOM     46  C   UNL     1      -6.590 -13.369   7.113  1.00  0.00     0.031 C 
ATOM     47  C   UNL     1      -7.976 -10.435  13.206  1.00  0.00     0.029 A 
ATOM     48  C   UNL     1      -9.068 -11.191  12.601  1.00  0.00     0.049 A 
ATOM     49  H   UNL     1      -9.028 -12.258  10.811  1.00  0.00     0.167 HD
ATOM     50  C   UNL     1      -8.849 -14.380   6.992  1.00  0.00     0.037 A 
ATOM     51  C   UNL     1     -10.305 -11.322  13.120  1.00  0.00     0.037 A 
ATOM     52  C   UNL     1     -10.170 -14.637   7.506  1.00  0.00     0.049 A 
ATOM     53  C   UNL     1     -11.328 -12.144  12.381  1.00  0.00     0.074 A 
ATOM     54  C   UNL     1     -11.169 -15.423   6.957  1.00  0.00     0.029 A 
ATOM     55  N   UNL     1     -10.679 -14.116   8.687  1.00  0.00    -0.354 N 
ATOM     56  N   UNL     1     -11.202 -12.799  11.252  1.00  0.00    -0.248 NA
ATOM     57  C   UNL     1     -12.661 -12.251  12.991  1.00  0.00     0.031 C 
ATOM     58  C   UNL     1     -12.297 -15.338   7.779  1.00  0.00     0.029 A 
ATOM     59  C   UNL     1     -11.983 -14.548   8.873  1.00  0.00     0.049 A 
ATOM     60  H   UNL     1     -10.187 -13.527   9.303  1.00  0.00     0.167 HD
ATOM     61  C   UNL     1     -12.426 -13.425  11.036  1.00  0.00     0.074 A 
ATOM     62  C   UNL     1     -13.274 -13.081  12.159  1.00  0.00     0.031 C 
ATOM     63  C   UNL     1     -12.813 -14.212  10.002  1.00  0.00     0.037 A 
BRANCH  50  64
ATOM     64  C   UNL     1      -8.466 -15.008   5.677  1.00  0.00     0.058 A 
ATOM     65  C   UNL     1      -7.527 -16.050   5.607  1.00  0.00     0.135 A 
ATOM     66  C   UNL     1      -9.085 -14.606   4.482  1.00  0.00     0.135 A 
ATOM     67  F   UNL     1      -6.894 -16.466   6.716  1.00  0.00    -0.206 F 
ATOM     68  C   UNL     1      -7.199 -16.656   4.399  1.00  0.00     0.059 A 
ATOM     69  C   UNL     1      -8.794 -15.219   3.265  1.00  0.00     0.059 A 
ATOM     70  F   UNL     1      -9.990 -13.615   4.489  1.00  0.00    -0.206 F 
ATOM     71  C   UNL     1      -7.841 -16.235   3.233  1.00  0.00     0.060 A 
BRANCH  71  72
ATOM     72  S   UNL     1      -7.416 -17.048   1.678  1.00  0.00     0.124 S 
ATOM     73  O   UNL     1      -6.065 -16.546   1.446  1.00  0.00    -0.237 OA
ATOM     74  O   UNL     1      -7.515 -18.461   2.029  1.00  0.00    -0.237 OA
ATOM     75  O   UNL     1      -8.432 -16.563   0.750  1.00  0.00    -0.744 OA
ENDBRANCH  71  72
ENDBRANCH  50  64
BRANCH  51  76
ATOM     76  C   UNL     1     -10.651 -10.672  14.415  1.00  0.00     0.058 A 
ATOM     77  C   UNL     1     -10.929 -11.440  15.556  1.00  0.00     0.135 A 
ATOM     78  C   UNL     1     -10.736  -9.276  14.534  1.00  0.00     0.135 A 
ATOM     79  F   UNL     1     -10.868 -12.779  15.495  1.00  0.00    -0.206 F 
ATOM     80  C   UNL     1     -11.311 -10.852  16.758  1.00  0.00     0.059 A 
ATOM     81  C   UNL     1     -11.084  -8.663  15.733  1.00  0.00     0.059 A 
ATOM     82  F   UNL     1     -10.463  -8.493  13.478  1.00  0.00    -0.206 F 
ATOM     83  C   UNL     1     -11.387  -9.460  16.835  1.00  0.00     0.060 A 
BRANCH  83  84
ATOM     84  S   UNL     1     -11.868  -8.706  18.404  1.00  0.00     0.124 S 
ATOM     85  O   UNL     1     -13.289  -9.027  18.461  1.00  0.00    -0.237 OA
ATOM     86  O   UNL     1     -11.015  -9.411  19.357  1.00  0.00    -0.237 OA
ATOM     87  O   UNL     1     -11.546  -7.295  18.210  1.00  0.00    -0.744 OA
ENDBRANCH  83  84
ENDBRANCH  51  76
BRANCH  63  88
ATOM     88  C   UNL     1     -14.198 -14.801  10.058  1.00  0.00     0.058 A 
ATOM     89  C   UNL     1     -15.348 -14.013   9.889  1.00  0.00     0.135 A 
ATOM     90  C   UNL     1     -14.374 -16.182  10.243  1.00  0.00     0.135 A 
ATOM     91  F   UNL     1     -15.239 -12.686   9.714  1.00  0.00    -0.206 F 
ATOM     92  C   UNL     1     -16.623 -14.568   9.933  1.00  0.00     0.059 A 
ATOM     93  C   UNL     1     -15.638 -16.764  10.257  1.00  0.00     0.059 A 
ATOM     94  F   UNL     1     -13.310 -16.985  10.399  1.00  0.00    -0.206 F 
ATOM     95  C   UNL     1     -16.758 -15.946  10.116  1.00  0.00     0.060 A 
BRANCH  95  96
ATOM     96  S   UNL     1     -18.417 -16.656  10.144  1.00  0.00     0.124 S 
ATOM     97  O   UNL     1     -18.911 -16.200  11.439  1.00  0.00    -0.237 OA
ATOM     98  O   UNL     1     -19.040 -16.041   8.976  1.00  0.00    -0.237 OA
ATOM     99  O   UNL     1     -18.175 -18.092  10.035  1.00  0.00    -0.744 OA
ENDBRANCH  95  96
ENDBRANCH  63  88
ENDBRANCH  37  38
ENDBRANCH  29  32
ENDBRANCH  27  28
ENDBRANCH  26  27
ENDBRANCH   1  26
TORSDOF 17
