REMARK SMILES C[C@H]1CC[C@H](CNC(=O)NCc2ccc(C(=O)NCCCCNC(=O)c3ccc(-c4c5nc(c(-c6c(F)cc(S(=O)(=O)[O-])cc6F)c6ccc([nH]6)c(-c6c(F)cc(S(=O)(=O)[O-])cc6F)c6nc(c(-c7c(F)cc(S(=O)(=O)[O-])cc7F)c7ccc4[nH]7)C=C6)C=C5)cc3)o2)CC1
REMARK SMILES IDX 20 1 19 2 18 3 16 4 17 5 15 7 12 8 13 9 92 10 14 11 11 12
REMARK SMILES IDX 10 13 7 14 8 15 9 17 6 19 5 20 1 21 2 22 94 23 3 24 93 25
REMARK SMILES IDX 4 26 21 27 22 28 23 29 24 30 25 32 26 33 27 34 91 35 28 36
REMARK SMILES IDX 90 37 29 38 30 39 31 40 84 41 32 42 89 43 83 44 85 45 33 46
REMARK SMILES IDX 88 47 82 48 81 49 34 51 68 52 47 53 67 54 48 55 51 56 66 57
REMARK SMILES IDX 86 58 49 59 50 60 65 62 87 63 52 64 35 65 36 66 45 67 37 68
REMARK SMILES IDX 38 69 44 70 46 71 39 72 40 73 41 74 42 75 43 76 69 77 70 78
REMARK SMILES IDX 79 79 71 80 72 81 78 82 80 83 73 84 74 85 75 86 76 87 77 88
REMARK SMILES IDX 53 89 54 90 63 91 55 92 56 93 62 94 64 95 57 96 58 97 59 98
REMARK SMILES IDX 60 99 61 100
REMARK H PARENT 18 6 7 16 10 18 23 31 85 50 51 61
REMARK Flexibility Score: inf
ROOT
ATOM      1  C   UNL     1      -8.143  -5.923   3.388  1.00  0.00     0.023 C 
ENDROOT
BRANCH   1   2
ATOM      2  C   UNL     1      -8.877  -5.298   2.203  1.00  0.00     0.116 C 
BRANCH   2   3
ATOM      3  N   UNL     1      -9.032  -3.868   2.369  1.00  0.00    -0.349 N 
ATOM      4  C   UNL     1      -8.359  -2.817   1.789  1.00  0.00     0.286 C 
ATOM      5  O   UNL     1      -8.815  -1.691   2.031  1.00  0.00    -0.266 OA
ATOM      6  H   UNL     1      -9.736  -3.603   3.004  1.00  0.00     0.163 HD
BRANCH   4   7
ATOM      7  C   UNL     1      -7.200  -3.028   0.940  1.00  0.00     0.191 A 
ATOM      8  C   UNL     1      -5.747  -2.374  -0.611  1.00  0.00     0.124 A 
ATOM      9  C   UNL     1      -5.365  -3.640  -0.227  1.00  0.00     0.048 A 
ATOM     10  O   UNL     1      -6.861  -2.006   0.084  1.00  0.00    -0.454 OA
ATOM     11  C   UNL     1      -6.272  -4.045   0.783  1.00  0.00     0.056 A 
BRANCH   8  12
ATOM     12  C   UNL     1      -5.188  -1.419  -1.607  1.00  0.00     0.193 C 
BRANCH  12  13
ATOM     13  N   UNL     1      -5.739  -0.095  -1.450  1.00  0.00    -0.331 N 
ATOM     14  N   UNL     1      -4.094   1.163  -0.321  1.00  0.00    -0.338 N 
ATOM     15  C   UNL     1      -5.232   1.063  -1.020  1.00  0.00     0.315 C 
ATOM     16  H   UNL     1      -3.726   2.075  -0.301  1.00  0.00     0.165 HD
ATOM     17  O   UNL     1      -5.833   2.105  -1.290  1.00  0.00    -0.249 OA
ATOM     18  H   UNL     1      -6.686  -0.032  -1.714  1.00  0.00     0.165 HD
BRANCH  14  19
ATOM     19  C   UNL     1      -3.294   0.201   0.414  1.00  0.00     0.121 C 
BRANCH  19  20
ATOM     20  C   UNL     1      -1.863   0.124  -0.146  1.00  0.00     0.008 C 
ATOM     21  C   UNL     1       2.527  -0.068  -0.166  1.00  0.00     0.007 C 
ATOM     22  C   UNL     1       1.079   0.007   0.314  1.00  0.00    -0.014 C 
ATOM     23  C   UNL     1       0.287  -1.227  -0.133  1.00  0.00     0.003 C 
ATOM     24  C   UNL     1       0.405   1.286  -0.194  1.00  0.00     0.003 C 
ATOM     25  C   UNL     1      -1.166  -1.157   0.335  1.00  0.00     0.006 C 
ATOM     26  C   UNL     1      -1.052   1.369   0.258  1.00  0.00     0.006 C 
ENDBRANCH  19  20
ENDBRANCH  14  19
ENDBRANCH  12  13
ENDBRANCH   8  12
ENDBRANCH   4   7
ENDBRANCH   2   3
ENDBRANCH   1   2
BRANCH   1  27
ATOM     27  C   UNL     1      -9.034  -6.204   4.603  1.00  0.00     0.023 C 
BRANCH  27  28
ATOM     28  C   UNL     1     -10.182  -7.183   4.361  1.00  0.00     0.116 C 
BRANCH  28  29
ATOM     29  N   UNL     1      -9.745  -8.476   3.855  1.00  0.00    -0.352 N 
ATOM     30  C   UNL     1     -10.263  -9.721   4.124  1.00  0.00     0.251 C 
ATOM     31  H   UNL     1      -8.977  -8.456   3.240  1.00  0.00     0.163 HD
ATOM     32  O   UNL     1      -9.703 -10.726   3.695  1.00  0.00    -0.269 OA
BRANCH  30  33
ATOM     33  C   UNL     1     -11.473  -9.838   4.965  1.00  0.00     0.039 A 
ATOM     34  C   UNL     1     -11.465 -10.731   6.039  1.00  0.00     0.014 A 
ATOM     35  C   UNL     1     -12.593  -9.040   4.718  1.00  0.00     0.014 A 
ATOM     36  C   UNL     1     -12.556 -10.770   6.910  1.00  0.00     0.010 A 
ATOM     37  C   UNL     1     -13.647  -9.030   5.628  1.00  0.00     0.010 A 
ATOM     38  C   UNL     1     -13.637  -9.891   6.736  1.00  0.00    -0.014 A 
BRANCH  38  39
ATOM     39  C   UNL     1     -14.760  -9.848   7.708  1.00  0.00     0.031 A 
ATOM     40  C   UNL     1     -16.155 -10.204   7.269  1.00  0.00     0.074 A 
ATOM     41  C   UNL     1     -14.534  -9.422   8.967  1.00  0.00     0.049 A 
ATOM     42  N   UNL     1     -17.271 -10.157   7.950  1.00  0.00    -0.248 NA
ATOM     43  C   UNL     1     -16.322 -10.644   5.874  1.00  0.00     0.031 C 
ATOM     44  C   UNL     1     -13.236  -8.995   9.497  1.00  0.00     0.029 A 
ATOM     45  N   UNL     1     -15.391  -9.262  10.029  1.00  0.00    -0.354 N 
ATOM     46  C   UNL     1     -18.271 -10.545   7.066  1.00  0.00     0.074 A 
ATOM     47  C   UNL     1     -17.638 -10.775   5.786  1.00  0.00     0.031 C 
ATOM     48  C   UNL     1     -13.380  -8.642  10.785  1.00  0.00     0.029 A 
ATOM     49  C   UNL     1     -14.782  -8.777  11.163  1.00  0.00     0.049 A 
ATOM     50  H   UNL     1     -16.351  -9.474   9.982  1.00  0.00     0.167 HD
ATOM     51  C   UNL     1     -19.593 -10.717   7.306  1.00  0.00     0.037 A 
ATOM     52  C   UNL     1     -15.298  -8.465  12.369  1.00  0.00     0.037 A 
ATOM     53  C   UNL     1     -20.211 -10.515   8.591  1.00  0.00     0.049 A 
ATOM     54  C   UNL     1     -16.769  -8.671  12.611  1.00  0.00     0.074 A 
ATOM     55  C   UNL     1     -21.530 -10.729   8.952  1.00  0.00     0.029 A 
ATOM     56  N   UNL     1     -19.556 -10.053   9.723  1.00  0.00    -0.354 N 
ATOM     57  N   UNL     1     -17.687  -9.111  11.784  1.00  0.00    -0.248 NA
ATOM     58  C   UNL     1     -17.276  -8.347  13.952  1.00  0.00     0.031 C 
ATOM     59  C   UNL     1     -21.684 -10.350  10.289  1.00  0.00     0.029 A 
ATOM     60  C   UNL     1     -20.449  -9.954  10.777  1.00  0.00     0.049 A 
ATOM     61  H   UNL     1     -18.599  -9.830   9.771  1.00  0.00     0.167 HD
ATOM     62  C   UNL     1     -18.872  -9.144  12.512  1.00  0.00     0.074 A 
ATOM     63  C   UNL     1     -18.551  -8.693  13.850  1.00  0.00     0.031 C 
ATOM     64  C   UNL     1     -20.112  -9.514  12.109  1.00  0.00     0.037 A 
BRANCH  51  65
ATOM     65  C   UNL     1     -20.465 -11.153   6.160  1.00  0.00     0.058 A 
ATOM     66  C   UNL     1     -20.387 -12.448   5.625  1.00  0.00     0.135 A 
ATOM     67  C   UNL     1     -21.433 -10.284   5.630  1.00  0.00     0.135 A 
ATOM     68  F   UNL     1     -19.469 -13.315   6.083  1.00  0.00    -0.206 F 
ATOM     69  C   UNL     1     -21.222 -12.861   4.593  1.00  0.00     0.059 A 
ATOM     70  C   UNL     1     -22.299 -10.685   4.617  1.00  0.00     0.059 A 
ATOM     71  F   UNL     1     -21.551  -9.033   6.103  1.00  0.00    -0.206 F 
ATOM     72  C   UNL     1     -22.178 -11.973   4.098  1.00  0.00     0.060 A 
BRANCH  72  73
ATOM     73  S   UNL     1     -23.271 -12.536   2.776  1.00  0.00     0.124 S 
ATOM     74  O   UNL     1     -22.355 -12.580   1.640  1.00  0.00    -0.237 OA
ATOM     75  O   UNL     1     -23.723 -13.831   3.275  1.00  0.00    -0.237 OA
ATOM     76  O   UNL     1     -24.296 -11.498   2.715  1.00  0.00    -0.744 OA
ENDBRANCH  72  73
ENDBRANCH  51  65
BRANCH  52  77
ATOM     77  C   UNL     1     -14.416  -7.936  13.446  1.00  0.00     0.058 A 
ATOM     78  C   UNL     1     -14.133  -8.699  14.589  1.00  0.00     0.135 A 
ATOM     79  C   UNL     1     -13.845  -6.657  13.357  1.00  0.00     0.135 A 
ATOM     80  F   UNL     1     -14.659  -9.926  14.724  1.00  0.00    -0.206 F 
ATOM     81  C   UNL     1     -13.337  -8.204  15.617  1.00  0.00     0.059 A 
ATOM     82  C   UNL     1     -13.022  -6.152  14.359  1.00  0.00     0.059 A 
ATOM     83  F   UNL     1     -14.068  -5.894  12.276  1.00  0.00    -0.206 F 
ATOM     84  C   UNL     1     -12.786  -6.928  15.493  1.00  0.00     0.060 A 
BRANCH  84  85
ATOM     85  S   UNL     1     -11.728  -6.308  16.819  1.00  0.00     0.124 S 
ATOM     86  O   UNL     1     -12.704  -6.024  17.864  1.00  0.00    -0.237 OA
ATOM     87  O   UNL     1     -10.843  -7.443  17.061  1.00  0.00    -0.237 OA
ATOM     88  O   UNL     1     -11.087  -5.141  16.218  1.00  0.00    -0.744 OA
ENDBRANCH  84  85
ENDBRANCH  52  77
BRANCH  64  89
ATOM     89  C   UNL     1     -21.212  -9.489  13.134  1.00  0.00     0.058 A 
ATOM     90  C   UNL     1     -21.752  -8.285  13.611  1.00  0.00     0.135 A 
ATOM     91  C   UNL     1     -21.771 -10.690  13.603  1.00  0.00     0.135 A 
ATOM     92  F   UNL     1     -21.250  -7.109  13.200  1.00  0.00    -0.206 F 
ATOM     93  C   UNL     1     -22.792  -8.271  14.536  1.00  0.00     0.059 A 
ATOM     94  C   UNL     1     -22.831 -10.699  14.504  1.00  0.00     0.059 A 
ATOM     95  F   UNL     1     -21.300 -11.870  13.170  1.00  0.00    -0.206 F 
ATOM     96  C   UNL     1     -23.327  -9.484  14.974  1.00  0.00     0.060 A 
BRANCH  96  97
ATOM     97  S   UNL     1     -24.699  -9.451  16.146  1.00  0.00     0.124 S 
ATOM     98  O   UNL     1     -24.024  -9.057  17.378  1.00  0.00    -0.237 OA
ATOM     99  O   UNL     1     -25.586  -8.451  15.561  1.00  0.00    -0.237 OA
ATOM    100  O   UNL     1     -25.204 -10.821  16.117  1.00  0.00    -0.744 OA
ENDBRANCH  96  97
ENDBRANCH  64  89
ENDBRANCH  38  39
ENDBRANCH  30  33
ENDBRANCH  28  29
ENDBRANCH  27  28
ENDBRANCH   1  27
TORSDOF 18
