REMARK SMILES Cc1c(Cl)cc2c(c1C)O[C@H](C(F)(F)F)C(C(=O)NCCCCNC(=O)c1ccc(-c3c4nc(c(-c5c(F)cc(S(=O)(=O)[O-])cc5F)c5ccc([nH]5)c(-c5c(F)cc(S(=O)(=O)[O-])cc5F)c5nc(c(-c6c(F)cc(S(=O)(=O)[O-])cc6F)c6ccc3[nH]6)C=C5)C=C4)cc1)=C2
REMARK SMILES IDX 22 1 21 2 20 3 19 4 17 5 18 6 16 8 1 9 2 10 3 11 8 12 4 13
REMARK SMILES IDX 5 14 7 15 9 16 6 17 10 18 93 19 11 20 12 21 13 22 14 23
REMARK SMILES IDX 15 24 23 25 24 26 25 27 26 29 27 30 28 31 92 32 29 33 91 34
REMARK SMILES IDX 30 35 31 36 32 37 85 38 33 39 90 40 84 41 86 42 34 43 89 44
REMARK SMILES IDX 83 45 82 46 35 48 69 49 48 50 68 51 49 52 52 53 67 54 87 55
REMARK SMILES IDX 50 56 51 57 66 59 88 60 53 61 36 62 37 63 46 64 38 65 39 66
REMARK SMILES IDX 45 67 47 68 40 69 41 70 42 71 43 72 44 73 70 74 71 75 80 76
REMARK SMILES IDX 72 77 73 78 79 79 81 80 74 81 75 82 76 83 77 84 78 85 54 86
REMARK SMILES IDX 55 87 64 88 56 89 57 90 63 91 65 92 58 93 59 94 60 95 61 96
REMARK SMILES IDX 62 97
REMARK H PARENT 19 7 24 28 86 47 52 58
REMARK Flexibility Score: inf
ROOT
ATOM      1  C   UNL     1       1.047  -7.230   8.127  1.00  0.00     0.023 C 
ENDROOT
BRANCH   1   2
ATOM      2  C   UNL     1       0.960  -6.498   6.785  1.00  0.00     0.023 C 
BRANCH   2   3
ATOM      3  C   UNL     1      -0.450  -6.053   6.408  1.00  0.00     0.116 C 
BRANCH   3   4
ATOM      4  N   UNL     1      -0.782  -4.758   6.975  1.00  0.00    -0.352 N 
ATOM      5  C   UNL     1      -0.824  -3.475   6.546  1.00  0.00     0.251 C 
ATOM      6  O   UNL     1      -1.173  -2.646   7.392  1.00  0.00    -0.270 OA
ATOM      7  H   UNL     1      -1.046  -4.833   7.921  1.00  0.00     0.163 HD
BRANCH   5   8
ATOM      8  C   UNL     1      -0.487  -3.016   5.165  1.00  0.00     0.067 C 
ATOM      9  C   UNL     1       0.837   0.376  -0.274  1.00  0.00     0.046 C 
ATOM     10  C   UNL     1       0.483  -0.149   1.094  1.00  0.00    -0.026 A 
ATOM     11  C   UNL     1      -0.004   0.699   2.110  1.00  0.00     0.045 A 
ATOM     12  C   UNL     1       0.666  -1.523   1.391  1.00  0.00    -0.004 A 
ATOM     13  Cl  UNL     1      -0.231   2.398   1.870  1.00  0.00    -0.084 Cl
ATOM     14  C   UNL     1      -0.320   0.202   3.380  1.00  0.00     0.032 A 
ATOM     15  C   UNL     1       0.322  -2.004   2.670  1.00  0.00     0.131 A 
ATOM     16  C   UNL     1       1.191  -2.513   0.379  1.00  0.00     0.049 C 
ATOM     17  C   UNL     1      -0.160  -1.152   3.663  1.00  0.00     0.019 A 
ATOM     18  O   UNL     1       0.531  -3.335   2.916  1.00  0.00    -0.475 OA
ATOM     19  C   UNL     1      -0.450  -1.682   4.990  1.00  0.00     0.025 C 
ATOM     20  C   UNL     1      -0.241  -3.927   3.998  1.00  0.00     0.314 C 
BRANCH  20  21
ATOM     21  C   UNL     1      -1.540  -4.525   3.426  1.00  0.00     0.429 C 
ATOM     22  F   UNL     1      -1.257  -5.550   2.582  1.00  0.00    -0.167 F 
ATOM     23  F   UNL     1      -2.348  -5.030   4.387  1.00  0.00    -0.167 F 
ATOM     24  F   UNL     1      -2.269  -3.622   2.732  1.00  0.00    -0.167 F 
ENDBRANCH  20  21
ENDBRANCH   5   8
ENDBRANCH   3   4
ENDBRANCH   2   3
ENDBRANCH   1   2
BRANCH   1  25
ATOM     25  C   UNL     1       0.135  -8.447   8.273  1.00  0.00     0.116 C 
BRANCH  25  26
ATOM     26  N   UNL     1       0.234  -9.395   7.171  1.00  0.00    -0.352 N 
ATOM     27  C   UNL     1       0.049 -10.758   7.215  1.00  0.00     0.251 C 
ATOM     28  H   UNL     1       0.460  -9.016   6.291  1.00  0.00     0.163 HD
ATOM     29  O   UNL     1       0.226 -11.448   6.218  1.00  0.00    -0.269 OA
BRANCH  27  30
ATOM     30  C   UNL     1      -0.319 -11.371   8.504  1.00  0.00     0.039 A 
ATOM     31  C   UNL     1       0.531 -12.329   9.057  1.00  0.00     0.014 A 
ATOM     32  C   UNL     1      -1.441 -10.915   9.203  1.00  0.00     0.014 A 
ATOM     33  C   UNL     1       0.298 -12.778  10.356  1.00  0.00     0.010 A 
ATOM     34  C   UNL     1      -1.637 -11.320  10.518  1.00  0.00     0.010 A 
ATOM     35  C   UNL     1      -0.763 -12.246  11.109  1.00  0.00    -0.014 A 
BRANCH  35  36
ATOM     36  C   UNL     1      -0.960 -12.642  12.523  1.00  0.00     0.031 A 
ATOM     37  C   UNL     1      -2.167 -13.443  12.915  1.00  0.00     0.074 A 
ATOM     38  C   UNL     1      -0.072 -12.242  13.454  1.00  0.00     0.049 A 
ATOM     39  N   UNL     1      -2.520 -13.871  14.099  1.00  0.00    -0.248 NA
ATOM     40  C   UNL     1      -3.111 -13.791  11.841  1.00  0.00     0.031 C 
ATOM     41  C   UNL     1       1.111 -11.417  13.197  1.00  0.00     0.029 A 
ATOM     42  N   UNL     1      -0.024 -12.478  14.805  1.00  0.00    -0.354 N 
ATOM     43  C   UNL     1      -3.725 -14.536  13.913  1.00  0.00     0.074 A 
ATOM     44  C   UNL     1      -4.072 -14.405  12.515  1.00  0.00     0.031 C 
ATOM     45  C   UNL     1       1.789 -11.251  14.345  1.00  0.00     0.029 A 
ATOM     46  C   UNL     1       1.078 -11.934  15.421  1.00  0.00     0.049 A 
ATOM     47  H   UNL     1      -0.713 -12.989  15.287  1.00  0.00     0.167 HD
ATOM     48  C   UNL     1      -4.459 -15.221  14.820  1.00  0.00     0.037 A 
ATOM     49  C   UNL     1       1.474 -11.992  16.707  1.00  0.00     0.037 A 
ATOM     50  C   UNL     1      -4.095 -15.373  16.202  1.00  0.00     0.049 A 
ATOM     51  C   UNL     1       0.641 -12.755  17.698  1.00  0.00     0.074 A 
ATOM     52  C   UNL     1      -4.745 -16.090  17.190  1.00  0.00     0.029 A 
ATOM     53  N   UNL     1      -2.976 -14.801  16.790  1.00  0.00    -0.354 N 
ATOM     54  N   UNL     1      -0.470 -13.422  17.495  1.00  0.00    -0.248 NA
ATOM     55  C   UNL     1       1.110 -12.774  19.091  1.00  0.00     0.031 C 
ATOM     56  C   UNL     1      -4.031 -15.933  18.383  1.00  0.00     0.029 A 
ATOM     57  C   UNL     1      -2.923 -15.139  18.131  1.00  0.00     0.049 A 
ATOM     58  H   UNL     1      -2.317 -14.239  16.323  1.00  0.00     0.167 HD
ATOM     59  C   UNL     1      -0.825 -13.952  18.729  1.00  0.00     0.074 A 
ATOM     60  C   UNL     1       0.192 -13.536  19.673  1.00  0.00     0.031 C 
ATOM     61  C   UNL     1      -1.898 -14.714  19.051  1.00  0.00     0.037 A 
BRANCH  48  62
ATOM     62  C   UNL     1      -5.715 -15.878  14.329  1.00  0.00     0.058 A 
ATOM     63  C   UNL     1      -5.666 -17.030  13.529  1.00  0.00     0.135 A 
ATOM     64  C   UNL     1      -6.977 -15.363  14.664  1.00  0.00     0.135 A 
ATOM     65  F   UNL     1      -4.483 -17.551  13.165  1.00  0.00    -0.206 F 
ATOM     66  C   UNL     1      -6.824 -17.632  13.050  1.00  0.00     0.059 A 
ATOM     67  C   UNL     1      -8.150 -15.961  14.214  1.00  0.00     0.059 A 
ATOM     68  F   UNL     1      -7.077 -14.261  15.424  1.00  0.00    -0.206 F 
ATOM     69  C   UNL     1      -8.062 -17.086  13.394  1.00  0.00     0.060 A 
BRANCH  69  70
ATOM     70  S   UNL     1      -9.556 -17.871  12.755  1.00  0.00     0.124 S 
ATOM     71  O   UNL     1      -9.545 -17.425  11.365  1.00  0.00    -0.237 OA
ATOM     72  O   UNL     1      -9.283 -19.289  12.967  1.00  0.00    -0.237 OA
ATOM     73  O   UNL     1     -10.617 -17.309  13.586  1.00  0.00    -0.744 OA
ENDBRANCH  69  70
ENDBRANCH  48  62
BRANCH  49  74
ATOM     74  C   UNL     1       2.749 -11.350  17.116  1.00  0.00     0.058 A 
ATOM     75  C   UNL     1       3.889 -12.126  17.369  1.00  0.00     0.135 A 
ATOM     76  C   UNL     1       2.866  -9.956  17.229  1.00  0.00     0.135 A 
ATOM     77  F   UNL     1       3.822 -13.463  17.277  1.00  0.00    -0.206 F 
ATOM     78  C   UNL     1       5.102 -11.545  17.722  1.00  0.00     0.059 A 
ATOM     79  C   UNL     1       4.073  -9.351  17.566  1.00  0.00     0.059 A 
ATOM     80  F   UNL     1       1.806  -9.171  16.982  1.00  0.00    -0.206 F 
ATOM     81  C   UNL     1       5.185 -10.155  17.814  1.00  0.00     0.060 A 
BRANCH  81  82
ATOM     82  S   UNL     1       6.782  -9.408  18.209  1.00  0.00     0.124 S 
ATOM     83  O   UNL     1       6.898  -9.699  19.633  1.00  0.00    -0.237 OA
ATOM     84  O   UNL     1       7.689 -10.140  17.331  1.00  0.00    -0.237 OA
ATOM     85  O   UNL     1       6.588  -8.003  17.864  1.00  0.00    -0.744 OA
ENDBRANCH  81  82
ENDBRANCH  49  74
BRANCH  61  86
ATOM     86  C   UNL     1      -2.035 -15.156  20.478  1.00  0.00     0.058 A 
ATOM     87  C   UNL     1      -2.531 -14.287  21.461  1.00  0.00     0.135 A 
ATOM     88  C   UNL     1      -1.767 -16.484  20.843  1.00  0.00     0.135 A 
ATOM     89  F   UNL     1      -2.794 -13.006  21.159  1.00  0.00    -0.206 F 
ATOM     90  C   UNL     1      -2.765 -14.723  22.760  1.00  0.00     0.059 A 
ATOM     91  C   UNL     1      -2.009 -16.946  22.132  1.00  0.00     0.059 A 
ATOM     92  F   UNL     1      -1.296 -17.353  19.934  1.00  0.00    -0.206 F 
ATOM     93  C   UNL     1      -2.509 -16.058  23.084  1.00  0.00     0.060 A 
BRANCH  93  94
ATOM     94  S   UNL     1      -2.894 -16.631  24.752  1.00  0.00     0.124 S 
ATOM     95  O   UNL     1      -1.798 -16.054  25.522  1.00  0.00    -0.237 OA
ATOM     96  O   UNL     1      -4.211 -16.046  24.988  1.00  0.00    -0.237 OA
ATOM     97  O   UNL     1      -2.876 -18.085  24.623  1.00  0.00    -0.744 OA
ENDBRANCH  93  94
ENDBRANCH  61  86
ENDBRANCH  35  36
ENDBRANCH  27  30
ENDBRANCH  25  26
ENDBRANCH   1  25
TORSDOF 15
