REMARK SMILES Nc1ncccc1C[N@@H+]1CC2(CC[NH2+]CC2)C[C@H]1C(=O)NCCCCNC(=O)c1ccc(-c2c3nc(c(-c4c(F)cc(S(=O)(=O)[O-])cc4F)c4ccc([nH]4)c(-c4c(F)cc(S(=O)(=O)[O-])cc4F)c4nc(c(-c5c(F)cc(S(=O)(=O)[O-])cc5F)c5ccc2[nH]5)C=C4)C=C3)cc1
REMARK SMILES IDX 23 1 22 2 21 3 19 4 20 5 18 7 9 8 10 9 11 11 17 12 12 13
REMARK SMILES IDX 16 14 13 15 15 16 14 17 8 20 7 21 2 22 3 23 4 24 6 25 5 26
REMARK SMILES IDX 1 27 24 30 25 31 26 32 27 33 28 35 29 36 30 37 94 38 31 39
REMARK SMILES IDX 93 40 32 41 33 42 34 43 87 44 35 45 92 46 86 47 88 48 36 49
REMARK SMILES IDX 91 50 85 51 84 52 37 54 71 55 50 56 70 57 51 58 54 59 69 60
REMARK SMILES IDX 89 61 52 62 53 63 68 65 90 66 55 67 38 68 39 69 48 70 40 71
REMARK SMILES IDX 41 72 47 73 49 74 42 75 43 76 44 77 45 78 46 79 72 80 73 81
REMARK SMILES IDX 82 82 74 83 75 84 81 85 83 86 76 87 77 88 78 89 79 90 80 91
REMARK SMILES IDX 56 92 57 93 66 94 58 95 59 96 65 97 67 98 60 99 61 100
REMARK SMILES IDX 62 101 63 102 64 103
REMARK H PARENT 21 6 9 10 14 18 14 19 1 28 1 29 26 34 88 53 54 64
REMARK Flexibility Score: inf
ROOT
ATOM      1  C   UNL     1      -1.198  -5.939   3.492  1.00  0.00     0.023 C 
ENDROOT
BRANCH   1   2
ATOM      2  C   UNL     1      -1.146  -4.489   3.953  1.00  0.00     0.116 C 
BRANCH   2   3
ATOM      3  N   UNL     1       0.158  -3.924   4.141  1.00  0.00    -0.351 N 
ATOM      4  C   UNL     1       0.691  -2.789   3.602  1.00  0.00     0.278 C 
ATOM      5  O   UNL     1       1.762  -2.416   4.105  1.00  0.00    -0.268 OA
ATOM      6  H   UNL     1       0.753  -4.426   4.745  1.00  0.00     0.163 HD
BRANCH   4   7
ATOM      7  C   UNL     1       0.082  -1.983   2.407  1.00  0.00     0.275 C 
ATOM      8  N   UNL     1      -0.048  -2.825   1.206  1.00  0.00    -0.320 N 
ATOM      9  C   UNL     1      -1.474  -2.983   0.891  1.00  0.00     0.270 C 
ATOM     10  H   UNL     1       0.303  -3.765   1.391  1.00  0.00     0.349 HD
ATOM     11  C   UNL     1      -2.301  -1.926   1.683  1.00  0.00     0.036 C 
ATOM     12  C   UNL     1      -1.234  -1.206   2.536  1.00  0.00     0.089 C 
ATOM     13  C   UNL     1      -3.447  -2.397   2.625  1.00  0.00     0.074 C 
ATOM     14  C   UNL     1      -3.069  -1.043   0.665  1.00  0.00     0.074 C 
ATOM     15  C   UNL     1      -4.500  -3.229   1.908  1.00  0.00     0.261 C 
ATOM     16  C   UNL     1      -4.156  -1.860  -0.066  1.00  0.00     0.261 C 
ATOM     17  N   UNL     1      -5.134  -2.452   0.845  1.00  0.00    -0.346 N 
ATOM     18  H   UNL     1      -5.683  -1.704   1.268  1.00  0.00     0.346 HD
ATOM     19  H   UNL     1      -5.723  -3.084   0.303  1.00  0.00     0.346 HD
BRANCH   8  20
ATOM     20  C   UNL     1       0.851  -2.419   0.100  1.00  0.00     0.303 C 
BRANCH  20  21
ATOM     21  C   UNL     1       0.755  -0.986  -0.399  1.00  0.00     0.048 A 
ATOM     22  C   UNL     1       1.586   0.046   0.051  1.00  0.00     0.132 A 
ATOM     23  N   UNL     1       1.342   1.349  -0.203  1.00  0.00    -0.239 NA
ATOM     24  C   UNL     1       0.288   1.653  -0.984  1.00  0.00     0.113 A 
ATOM     25  C   UNL     1      -0.247  -0.633  -1.312  1.00  0.00     0.015 A 
ATOM     26  C   UNL     1      -0.504   0.704  -1.593  1.00  0.00     0.021 A 
BRANCH  22  27
ATOM     27  N   UNL     1       2.696  -0.170   0.839  1.00  0.00    -0.383 N 
ATOM     28  H   UNL     1       3.249   0.590   1.130  1.00  0.00     0.158 HD
ATOM     29  H   UNL     1       2.936  -1.086   1.111  1.00  0.00     0.158 HD
ENDBRANCH  22  27
ENDBRANCH  20  21
ENDBRANCH   8  20
ENDBRANCH   4   7
ENDBRANCH   2   3
ENDBRANCH   1   2
BRANCH   1  30
ATOM     30  C   UNL     1      -1.610  -6.943   4.567  1.00  0.00     0.023 C 
BRANCH  30  31
ATOM     31  C   UNL     1      -2.922  -6.663   5.299  1.00  0.00     0.116 C 
BRANCH  31  32
ATOM     32  N   UNL     1      -4.102  -6.582   4.450  1.00  0.00    -0.352 N 
ATOM     33  C   UNL     1      -5.399  -6.942   4.775  1.00  0.00     0.251 C 
ATOM     34  H   UNL     1      -3.962  -6.230   3.541  1.00  0.00     0.163 HD
ATOM     35  O   UNL     1      -6.295  -6.858   3.954  1.00  0.00    -0.269 OA
BRANCH  33  36
ATOM     36  C   UNL     1      -5.662  -7.488   6.128  1.00  0.00     0.039 A 
ATOM     37  C   UNL     1      -6.247  -8.752   6.244  1.00  0.00     0.014 A 
ATOM     38  C   UNL     1      -5.236  -6.800   7.266  1.00  0.00     0.014 A 
ATOM     39  C   UNL     1      -6.312  -9.368   7.497  1.00  0.00     0.010 A 
ATOM     40  C   UNL     1      -5.234  -7.446   8.499  1.00  0.00     0.010 A 
ATOM     41  C   UNL     1      -5.758  -8.742   8.626  1.00  0.00    -0.014 A 
BRANCH  41  42
ATOM     42  C   UNL     1      -5.695  -9.433   9.941  1.00  0.00     0.031 A 
ATOM     43  C   UNL     1      -6.437  -8.874  11.125  1.00  0.00     0.074 A 
ATOM     44  C   UNL     1      -4.913 -10.522  10.090  1.00  0.00     0.049 A 
ATOM     45  N   UNL     1      -6.453  -9.294  12.364  1.00  0.00    -0.248 NA
ATOM     46  C   UNL     1      -7.242  -7.666  10.889  1.00  0.00     0.031 C 
ATOM     47  C   UNL     1      -4.098 -11.131   9.036  1.00  0.00     0.029 A 
ATOM     48  N   UNL     1      -4.669 -11.308  11.190  1.00  0.00    -0.354 N 
ATOM     49  C   UNL     1      -7.256  -8.397  13.057  1.00  0.00     0.074 A 
ATOM     50  C   UNL     1      -7.659  -7.376  12.113  1.00  0.00     0.031 C 
ATOM     51  C   UNL     1      -3.473 -12.213   9.531  1.00  0.00     0.029 A 
ATOM     52  C   UNL     1      -3.814 -12.357  10.943  1.00  0.00     0.049 A 
ATOM     53  H   UNL     1      -5.070 -11.136  12.073  1.00  0.00     0.167 HD
ATOM     54  C   UNL     1      -7.648  -8.433  14.353  1.00  0.00     0.037 A 
ATOM     55  C   UNL     1      -3.360 -13.327  11.760  1.00  0.00     0.037 A 
ATOM     56  C   UNL     1      -7.268  -9.463  15.283  1.00  0.00     0.049 A 
ATOM     57  C   UNL     1      -3.814 -13.352  13.195  1.00  0.00     0.074 A 
ATOM     58  C   UNL     1      -7.652  -9.616  16.604  1.00  0.00     0.029 A 
ATOM     59  N   UNL     1      -6.418 -10.519  14.989  1.00  0.00    -0.354 N 
ATOM     60  N   UNL     1      -4.620 -12.526  13.819  1.00  0.00    -0.248 NA
ATOM     61  C   UNL     1      -3.300 -14.443  14.035  1.00  0.00     0.031 C 
ATOM     62  C   UNL     1      -7.011 -10.750  17.117  1.00  0.00     0.029 A 
ATOM     63  C   UNL     1      -6.257 -11.323  16.105  1.00  0.00     0.049 A 
ATOM     64  H   UNL     1      -5.992 -10.675  14.115  1.00  0.00     0.167 HD
ATOM     65  C   UNL     1      -4.733 -13.013  15.116  1.00  0.00     0.074 A 
ATOM     66  C   UNL     1      -3.918 -14.209  15.186  1.00  0.00     0.031 C 
ATOM     67  C   UNL     1      -5.449 -12.517  16.154  1.00  0.00     0.037 A 
BRANCH  54  68
ATOM     68  C   UNL     1      -8.545  -7.324  14.829  1.00  0.00     0.058 A 
ATOM     69  C   UNL     1      -9.878  -7.224  14.398  1.00  0.00     0.135 A 
ATOM     70  C   UNL     1      -8.072  -6.349  15.721  1.00  0.00     0.135 A 
ATOM     71  F   UNL     1     -10.377  -8.122  13.533  1.00  0.00    -0.206 F 
ATOM     72  C   UNL     1     -10.696  -6.172  14.796  1.00  0.00     0.059 A 
ATOM     73  C   UNL     1      -8.881  -5.303  16.156  1.00  0.00     0.059 A 
ATOM     74  F   UNL     1      -6.807  -6.397  16.168  1.00  0.00    -0.206 F 
ATOM     75  C   UNL     1     -10.185  -5.211  15.669  1.00  0.00     0.060 A 
BRANCH  75  76
ATOM     76  S   UNL     1     -11.248  -3.836  16.157  1.00  0.00     0.124 S 
ATOM     77  O   UNL     1     -11.213  -3.005  14.957  1.00  0.00    -0.237 OA
ATOM     78  O   UNL     1     -12.518  -4.500  16.429  1.00  0.00    -0.237 OA
ATOM     79  O   UNL     1     -10.570  -3.282  17.325  1.00  0.00    -0.744 OA
ENDBRANCH  75  76
ENDBRANCH  54  68
BRANCH  55  80
ATOM     80  C   UNL     1      -2.461 -14.386  11.230  1.00  0.00     0.058 A 
ATOM     81  C   UNL     1      -2.934 -15.692  11.033  1.00  0.00     0.135 A 
ATOM     82  C   UNL     1      -1.126 -14.116  10.894  1.00  0.00     0.135 A 
ATOM     83  F   UNL     1      -4.202 -16.000  11.346  1.00  0.00    -0.206 F 
ATOM     84  C   UNL     1      -2.113 -16.698  10.534  1.00  0.00     0.059 A 
ATOM     85  C   UNL     1      -0.291 -15.101  10.373  1.00  0.00     0.059 A 
ATOM     86  F   UNL     1      -0.630 -12.879  11.049  1.00  0.00    -0.206 F 
ATOM     87  C   UNL     1      -0.792 -16.392  10.205  1.00  0.00     0.060 A 
BRANCH  87  88
ATOM     88  S   UNL     1       0.249 -17.691   9.505  1.00  0.00     0.124 S 
ATOM     89  O   UNL     1       0.539 -18.502  10.682  1.00  0.00    -0.237 OA
ATOM     90  O   UNL     1      -0.637 -18.295   8.514  1.00  0.00    -0.237 OA
ATOM     91  O   UNL     1       1.380 -16.951   8.952  1.00  0.00    -0.744 OA
ENDBRANCH  87  88
ENDBRANCH  55  80
BRANCH  67  92
ATOM     92  C   UNL     1      -5.414 -13.282  17.447  1.00  0.00     0.058 A 
ATOM     93  C   UNL     1      -4.292 -13.254  18.289  1.00  0.00     0.135 A 
ATOM     94  C   UNL     1      -6.538 -14.008  17.872  1.00  0.00     0.135 A 
ATOM     95  F   UNL     1      -3.190 -12.580  17.924  1.00  0.00    -0.206 F 
ATOM     96  C   UNL     1      -4.278 -13.936  19.501  1.00  0.00     0.059 A 
ATOM     97  C   UNL     1      -6.554 -14.678  19.091  1.00  0.00     0.059 A 
ATOM     98  F   UNL     1      -7.640 -14.059  17.107  1.00  0.00    -0.206 F 
ATOM     99  C   UNL     1      -5.415 -14.645  19.895  1.00  0.00     0.060 A 
BRANCH  99 100
ATOM    100  S   UNL     1      -5.401 -15.493  21.488  1.00  0.00     0.124 S 
ATOM    101  O   UNL     1      -4.586 -16.666  21.189  1.00  0.00    -0.237 OA
ATOM    102  O   UNL     1      -4.787 -14.502  22.367  1.00  0.00    -0.237 OA
ATOM    103  O   UNL     1      -6.814 -15.758  21.744  1.00  0.00    -0.744 OA
ENDBRANCH  99 100
ENDBRANCH  67  92
ENDBRANCH  41  42
ENDBRANCH  33  36
ENDBRANCH  31  32
ENDBRANCH  30  31
ENDBRANCH   1  30
TORSDOF 17
