REMARK SMILES NC(=O)c1c(-c2ccc(Cl)cc2)csc1NC(=O)[C@H]1[C@@H](C(=O)NCCCCNC(=O)c2ccc(-c3c4nc(c(-c5c(F)cc(S(=O)(=O)[O-])cc5F)c5ccc([nH]5)c(-c5c(F)cc(S(=O)(=O)[O-])cc5F)c5nc(c(-c6c(F)cc(S(=O)(=O)[O-])cc6F)c6ccc3[nH]6)C=C5)C=C4)cc2)[C@@H]2CC[C@H]1O2
REMARK SMILES IDX 25 1 24 2 23 3 21 4 22 5 20 7 19 8 100 9 97 10 99 11 101 12
REMARK SMILES IDX 98 13 17 14 16 15 18 17 15 18 4 19 5 20 13 21 14 22 2 23
REMARK SMILES IDX 1 24 3 27 6 28 7 29 12 30 8 31 11 32 9 33 10 34 26 35 27 36
REMARK SMILES IDX 28 37 29 38 30 40 31 41 32 42 96 43 33 44 95 45 34 46 35 47
REMARK SMILES IDX 36 48 89 49 37 50 94 51 88 52 90 53 38 54 93 55 87 56 86 57
REMARK SMILES IDX 39 59 73 60 52 61 72 62 53 63 56 64 71 65 91 66 54 67 55 68
REMARK SMILES IDX 70 70 92 71 57 72 40 73 41 74 50 75 42 76 43 77 49 78 51 79
REMARK SMILES IDX 44 80 45 81 46 82 47 83 48 84 74 85 75 86 84 87 76 88 77 89
REMARK SMILES IDX 83 90 85 91 78 92 79 93 80 94 81 95 82 96 58 97 59 98 68 99
REMARK SMILES IDX 60 100 61 101 67 102 69 103 62 104 63 105 64 106 65 107
REMARK SMILES IDX 66 108
REMARK H PARENT 23 6 16 16 1 25 1 26 28 39 90 58 56 69
REMARK Flexibility Score: inf
ROOT
ATOM      1  C   UNL     1       1.721  11.195   3.164  1.00  0.00     0.023 C 
ENDROOT
BRANCH   1   2
ATOM      2  C   UNL     1       2.133   9.736   3.399  1.00  0.00     0.116 C 
BRANCH   2   3
ATOM      3  N   UNL     1       1.309   9.113   4.420  1.00  0.00    -0.356 N 
ATOM      4  C   UNL     1       0.399   8.118   4.461  1.00  0.00     0.226 C 
ATOM      5  O   UNL     1      -0.099   7.933   5.582  1.00  0.00    -0.275 OA
ATOM      6  H   UNL     1       1.450   9.520   5.306  1.00  0.00     0.163 HD
BRANCH   4   7
ATOM      7  C   UNL     1      -0.127   7.264   3.314  1.00  0.00     0.122 C 
ATOM      8  C   UNL     1      -0.002   5.738   3.553  1.00  0.00     0.123 C 
ATOM      9  C   UNL     1       0.676   5.250   2.275  1.00  0.00     0.132 C 
ATOM     10  C   UNL     1       0.357   7.366   1.871  1.00  0.00     0.132 C 
ATOM     11  C   UNL     1      -0.344   5.188   1.139  1.00  0.00     0.035 C 
ATOM     12  O   UNL     1       1.434   6.414   1.846  1.00  0.00    -0.373 OA
ATOM     13  C   UNL     1      -0.614   6.675   0.894  1.00  0.00     0.035 C 
BRANCH   8  14
ATOM     14  C   UNL     1       0.513   5.149   4.870  1.00  0.00     0.231 C 
ATOM     15  N   UNL     1       1.644   5.507   5.525  1.00  0.00    -0.317 N 
ATOM     16  H   UNL     1       1.606   5.343   6.495  1.00  0.00     0.170 HD
ATOM     17  O   UNL     1      -0.219   4.324   5.442  1.00  0.00    -0.274 OA
BRANCH  15  18
ATOM     18  C   UNL     1       2.833   6.054   5.106  1.00  0.00     0.108 A 
ATOM     19  C   UNL     1       3.666   6.887   5.839  1.00  0.00     0.082 A 
ATOM     20  C   UNL     1       4.859   7.196   5.083  1.00  0.00     0.007 A 
ATOM     21  C   UNL     1       4.882   6.553   3.863  1.00  0.00     0.076 A 
ATOM     22  S   UNL     1       3.559   5.503   3.683  1.00  0.00    -0.125 S 
BRANCH  19  23
ATOM     23  C   UNL     1       3.294   7.355   7.172  1.00  0.00     0.252 C 
ATOM     24  N   UNL     1       3.679   8.620   7.502  1.00  0.00    -0.365 N 
ATOM     25  H   UNL     1       3.454   8.987   8.387  1.00  0.00     0.159 HD
ATOM     26  H   UNL     1       4.180   9.167   6.855  1.00  0.00     0.159 HD
ATOM     27  O   UNL     1       2.636   6.674   7.953  1.00  0.00    -0.269 OA
ENDBRANCH  19  23
BRANCH  20  28
ATOM     28  C   UNL     1       6.012   7.972   5.497  1.00  0.00    -0.017 A 
ATOM     29  C   UNL     1       6.330   9.166   4.848  1.00  0.00     0.010 A 
ATOM     30  C   UNL     1       6.820   7.508   6.543  1.00  0.00     0.010 A 
ATOM     31  C   UNL     1       7.451   9.887   5.255  1.00  0.00     0.021 A 
ATOM     32  C   UNL     1       7.930   8.248   6.956  1.00  0.00     0.021 A 
ATOM     33  C   UNL     1       8.236   9.441   6.314  1.00  0.00     0.041 A 
ATOM     34  Cl  UNL     1       9.590  10.374   6.810  1.00  0.00    -0.084 Cl
ENDBRANCH  20  28
ENDBRANCH  15  18
ENDBRANCH   8  14
ENDBRANCH   4   7
ENDBRANCH   2   3
ENDBRANCH   1   2
BRANCH   1  35
ATOM     35  C   UNL     1       2.308  12.208   4.165  1.00  0.00     0.023 C 
BRANCH  35  36
ATOM     36  C   UNL     1       3.818  12.464   4.068  1.00  0.00     0.116 C 
BRANCH  36  37
ATOM     37  N   UNL     1       4.238  12.962   2.763  1.00  0.00    -0.352 N 
ATOM     38  C   UNL     1       5.236  13.865   2.460  1.00  0.00     0.251 C 
ATOM     39  H   UNL     1       3.740  12.605   1.993  1.00  0.00     0.163 HD
ATOM     40  O   UNL     1       5.397  14.248   1.307  1.00  0.00    -0.269 OA
BRANCH  38  41
ATOM     41  C   UNL     1       6.130  14.341   3.535  1.00  0.00     0.039 A 
ATOM     42  C   UNL     1       6.224  15.690   3.860  1.00  0.00     0.014 A 
ATOM     43  C   UNL     1       6.882  13.408   4.239  1.00  0.00     0.014 A 
ATOM     44  C   UNL     1       7.014  16.080   4.954  1.00  0.00     0.010 A 
ATOM     45  C   UNL     1       7.597  13.785   5.379  1.00  0.00     0.010 A 
ATOM     46  C   UNL     1       7.658  15.128   5.776  1.00  0.00    -0.014 A 
BRANCH  46  47
ATOM     47  C   UNL     1       8.288  15.519   7.084  1.00  0.00     0.031 A 
ATOM     48  C   UNL     1       9.699  15.113   7.470  1.00  0.00     0.074 A 
ATOM     49  C   UNL     1       7.535  16.166   8.005  1.00  0.00     0.049 A 
ATOM     50  N   UNL     1      10.344  15.340   8.591  1.00  0.00    -0.248 NA
ATOM     51  C   UNL     1      10.467  14.309   6.507  1.00  0.00     0.031 C 
ATOM     52  C   UNL     1       6.113  16.494   7.859  1.00  0.00     0.029 A 
ATOM     53  N   UNL     1       7.851  16.663   9.248  1.00  0.00    -0.354 N 
ATOM     54  C   UNL     1      11.558  14.664   8.489  1.00  0.00     0.074 A 
ATOM     55  C   UNL     1      11.545  13.986   7.212  1.00  0.00     0.031 C 
ATOM     56  C   UNL     1       5.702  17.189   8.930  1.00  0.00     0.029 A 
ATOM     57  C   UNL     1       6.811  17.321   9.867  1.00  0.00     0.049 A 
ATOM     58  H   UNL     1       8.740  16.557   9.659  1.00  0.00     0.167 HD
ATOM     59  C   UNL     1      12.599  14.633   9.361  1.00  0.00     0.037 A 
ATOM     60  C   UNL     1       6.745  17.969  11.047  1.00  0.00     0.037 A 
ATOM     61  C   UNL     1      12.664  15.401  10.581  1.00  0.00     0.049 A 
ATOM     62  C   UNL     1       7.965  18.051  11.921  1.00  0.00     0.074 A 
ATOM     63  C   UNL     1      13.744  15.565  11.434  1.00  0.00     0.029 A 
ATOM     64  N   UNL     1      11.623  16.141  11.116  1.00  0.00    -0.354 N 
ATOM     65  N   UNL     1       9.145  17.512  11.736  1.00  0.00    -0.248 NA
ATOM     66  C   UNL     1       7.851  18.839  13.157  1.00  0.00     0.031 C 
ATOM     67  C   UNL     1      13.347  16.376  12.501  1.00  0.00     0.029 A 
ATOM     68  C   UNL     1      12.033  16.754  12.290  1.00  0.00     0.049 A 
ATOM     69  H   UNL     1      10.724  16.219  10.722  1.00  0.00     0.167 HD
ATOM     70  C   UNL     1       9.920  17.919  12.817  1.00  0.00     0.074 A 
ATOM     71  C   UNL     1       9.083  18.763  13.641  1.00  0.00     0.031 C 
ATOM     72  C   UNL     1      11.209  17.613  13.099  1.00  0.00     0.037 A 
BRANCH  59  73
ATOM     73  C   UNL     1      13.805  13.789   9.027  1.00  0.00     0.058 A 
ATOM     74  C   UNL     1      14.693  14.145   8.000  1.00  0.00     0.135 A 
ATOM     75  C   UNL     1      14.154  12.691   9.836  1.00  0.00     0.135 A 
ATOM     76  F   UNL     1      14.414  15.183   7.195  1.00  0.00    -0.206 F 
ATOM     77  C   UNL     1      15.874  13.442   7.779  1.00  0.00     0.059 A 
ATOM     78  C   UNL     1      15.345  11.992   9.651  1.00  0.00     0.059 A 
ATOM     79  F   UNL     1      13.351  12.311  10.842  1.00  0.00    -0.206 F 
ATOM     80  C   UNL     1      16.197  12.372   8.616  1.00  0.00     0.060 A 
BRANCH  80  81
ATOM     81  S   UNL     1      17.766  11.518   8.354  1.00  0.00     0.124 S 
ATOM     82  O   UNL     1      17.488  10.762   7.137  1.00  0.00    -0.237 OA
ATOM     83  O   UNL     1      18.705  12.626   8.209  1.00  0.00    -0.237 OA
ATOM     84  O   UNL     1      17.927  10.720   9.566  1.00  0.00    -0.744 OA
ENDBRANCH  80  81
ENDBRANCH  59  73
BRANCH  60  85
ATOM     85  C   UNL     1       5.483  18.641  11.461  1.00  0.00     0.058 A 
ATOM     86  C   UNL     1       5.392  20.041  11.489  1.00  0.00     0.135 A 
ATOM     87  C   UNL     1       4.354  17.904  11.848  1.00  0.00     0.135 A 
ATOM     88  F   UNL     1       6.446  20.789  11.127  1.00  0.00    -0.206 F 
ATOM     89  C   UNL     1       4.241  20.689  11.924  1.00  0.00     0.059 A 
ATOM     90  C   UNL     1       3.181  18.529  12.259  1.00  0.00     0.059 A 
ATOM     91  F   UNL     1       4.380  16.563  11.811  1.00  0.00    -0.206 F 
ATOM     92  C   UNL     1       3.141  19.923  12.312  1.00  0.00     0.060 A 
BRANCH  92  93
ATOM     93  S   UNL     1       1.644  20.770  12.859  1.00  0.00     0.124 S 
ATOM     94  O   UNL     1       2.022  21.192  14.203  1.00  0.00    -0.237 OA
ATOM     95  O   UNL     1       1.512  21.834  11.868  1.00  0.00    -0.237 OA
ATOM     96  O   UNL     1       0.626  19.727  12.786  1.00  0.00    -0.744 OA
ENDBRANCH  92  93
ENDBRANCH  60  85
BRANCH  72  97
ATOM     97  C   UNL     1      11.819  18.231  14.327  1.00  0.00     0.058 A 
ATOM     98  C   UNL     1      11.468  17.809  15.618  1.00  0.00     0.135 A 
ATOM     99  C   UNL     1      12.797  19.231  14.207  1.00  0.00     0.135 A 
ATOM    100  F   UNL     1      10.534  16.860  15.789  1.00  0.00    -0.206 F 
ATOM    101  C   UNL     1      12.047  18.375  16.750  1.00  0.00     0.059 A 
ATOM    102  C   UNL     1      13.408  19.793  15.323  1.00  0.00     0.059 A 
ATOM    103  F   UNL     1      13.175  19.665  12.994  1.00  0.00    -0.206 F 
ATOM    104  C   UNL     1      13.017  19.368  16.592  1.00  0.00     0.060 A 
BRANCH 104 105
ATOM    105  S   UNL     1      13.779  20.077  18.067  1.00  0.00     0.124 S 
ATOM    106  O   UNL     1      12.711  20.937  18.565  1.00  0.00    -0.237 OA
ATOM    107  O   UNL     1      14.068  18.894  18.871  1.00  0.00    -0.237 OA
ATOM    108  O   UNL     1      14.951  20.772  17.542  1.00  0.00    -0.744 OA
ENDBRANCH 104 105
ENDBRANCH  72  97
ENDBRANCH  46  47
ENDBRANCH  38  41
ENDBRANCH  36  37
ENDBRANCH  35  36
ENDBRANCH   1  35
TORSDOF 18
