REMARK SMILES [NH3+]Cc1ccc(C(=O)N2[C@@H](C(=O)NCCCCNC(=O)c3ccc(-c4c5nc(c(-c6c(F)cc(S(=O)(=O)[O-])cc6F)c6ccc([nH]6)c(-c6c(F)cc(S(=O)(=O)[O-])cc6F)c6nc(c(-c7c(F)cc(S(=O)(=O)[O-])cc7F)c7ccc4[nH]7)C=C6)C=C5)cc3)C[C@H]3CCCC[C@@H]32)o1
REMARK SMILES IDX 15 1 14 2 13 3 11 4 12 5 10 7 9 8 93 9 87 10 88 11 92 12
REMARK SMILES IDX 89 13 91 14 90 15 7 16 8 17 6 18 3 19 4 20 94 21 5 22 2 23
REMARK SMILES IDX 1 24 16 28 17 29 18 30 19 31 20 33 21 34 22 35 86 36 23 37
REMARK SMILES IDX 85 38 24 39 25 40 26 41 79 42 27 43 84 44 78 45 80 46 28 47
REMARK SMILES IDX 83 48 77 49 76 50 29 52 63 53 42 54 62 55 43 56 46 57 61 58
REMARK SMILES IDX 81 59 44 60 45 61 60 63 82 64 47 65 30 66 31 67 40 68 32 69
REMARK SMILES IDX 33 70 39 71 41 72 34 73 35 74 36 75 37 76 38 77 64 78 65 79
REMARK SMILES IDX 74 80 66 81 67 82 73 83 75 84 68 85 69 86 70 87 71 88 72 89
REMARK SMILES IDX 48 90 49 91 58 92 50 93 51 94 57 95 59 96 52 97 53 98 54 99
REMARK SMILES IDX 55 100 56 101
REMARK H PARENT 13 6 1 25 1 26 1 27 18 32 80 51 46 62
REMARK Flexibility Score: inf
ROOT
ATOM      1  C   UNL     1       5.771   7.925  -5.860  1.00  0.00     0.023 C 
ENDROOT
BRANCH   1   2
ATOM      2  C   UNL     1       4.725   6.925  -6.330  1.00  0.00     0.116 C 
BRANCH   2   3
ATOM      3  N   UNL     1       5.079   5.525  -6.166  1.00  0.00    -0.354 N 
ATOM      4  C   UNL     1       4.259   4.444  -5.930  1.00  0.00     0.242 C 
ATOM      5  O   UNL     1       4.783   3.328  -5.919  1.00  0.00    -0.273 OA
ATOM      6  H   UNL     1       6.040   5.321  -6.233  1.00  0.00     0.163 HD
BRANCH   4   7
ATOM      7  C   UNL     1       2.757   4.656  -5.565  1.00  0.00     0.175 C 
ATOM      8  N   UNL     1       1.944   3.415  -5.675  1.00  0.00    -0.321 N 
ATOM      9  C   UNL     1       1.190   3.424  -6.914  1.00  0.00     0.089 C 
ATOM     10  C   UNL     1       2.068   5.608  -6.564  1.00  0.00     0.041 C 
ATOM     11  C   UNL     1       0.794   4.897  -6.962  1.00  0.00     0.014 C 
ATOM     12  C   UNL     1      -0.095   2.603  -7.039  1.00  0.00     0.025 C 
ATOM     13  C   UNL     1       0.221   5.280  -8.309  1.00  0.00     0.006 C 
ATOM     14  C   UNL     1      -0.839   2.965  -8.337  1.00  0.00     0.002 C 
ATOM     15  C   UNL     1      -1.052   4.471  -8.539  1.00  0.00     0.000 C 
BRANCH   8  16
ATOM     16  C   UNL     1       1.855   2.362  -4.778  1.00  0.00     0.290 C 
ATOM     17  O   UNL     1       1.812   1.198  -5.187  1.00  0.00    -0.265 OA
BRANCH  16  18
ATOM     18  C   UNL     1       1.559   2.697  -3.388  1.00  0.00     0.192 A 
ATOM     19  C   UNL     1       0.948   2.180  -1.315  1.00  0.00     0.159 A 
ATOM     20  C   UNL     1       0.839   3.548  -1.423  1.00  0.00     0.052 A 
ATOM     21  O   UNL     1       1.405   1.660  -2.493  1.00  0.00    -0.450 OA
ATOM     22  C   UNL     1       1.203   3.875  -2.749  1.00  0.00     0.057 A 
BRANCH  19  23
ATOM     23  C   UNL     1       0.597   1.239  -0.213  1.00  0.00     0.335 C 
BRANCH  23  24
ATOM     24  N   UNL     1       1.180  -0.089  -0.381  1.00  0.00    -0.351 N 
ATOM     25  H   UNL     1       0.903  -0.683   0.401  1.00  0.00     0.344 HD
ATOM     26  H   UNL     1       2.196  -0.013  -0.407  1.00  0.00     0.344 HD
ATOM     27  H   UNL     1       0.847  -0.499  -1.254  1.00  0.00     0.344 HD
ENDBRANCH  23  24
ENDBRANCH  19  23
ENDBRANCH  16  18
ENDBRANCH   8  16
ENDBRANCH   4   7
ENDBRANCH   2   3
ENDBRANCH   1   2
BRANCH   1  28
ATOM     28  C   UNL     1       7.084   7.943  -6.634  1.00  0.00     0.023 C 
BRANCH  28  29
ATOM     29  C   UNL     1       6.971   8.114  -8.146  1.00  0.00     0.116 C 
BRANCH  29  30
ATOM     30  N   UNL     1       6.308   9.348  -8.547  1.00  0.00    -0.352 N 
ATOM     31  C   UNL     1       6.777  10.399  -9.302  1.00  0.00     0.251 C 
ATOM     32  H   UNL     1       5.381   9.444  -8.229  1.00  0.00     0.163 HD
ATOM     33  O   UNL     1       6.088  11.409  -9.428  1.00  0.00    -0.269 OA
BRANCH  31  34
ATOM     34  C   UNL     1       8.116  10.332  -9.928  1.00  0.00     0.039 A 
ATOM     35  C   UNL     1       8.970  11.433  -9.824  1.00  0.00     0.014 A 
ATOM     36  C   UNL     1       8.540   9.182 -10.598  1.00  0.00     0.014 A 
ATOM     37  C   UNL     1      10.277  11.345 -10.311  1.00  0.00     0.010 A 
ATOM     38  C   UNL     1       9.869   9.063 -10.998  1.00  0.00     0.010 A 
ATOM     39  C   UNL     1      10.755  10.142 -10.857  1.00  0.00    -0.014 A 
BRANCH  39  40
ATOM     40  C   UNL     1      12.173   9.994 -11.284  1.00  0.00     0.031 A 
ATOM     41  C   UNL     1      12.503   9.689 -12.721  1.00  0.00     0.074 A 
ATOM     42  C   UNL     1      13.159  10.075 -10.367  1.00  0.00     0.049 A 
ATOM     43  N   UNL     1      13.669   9.458 -13.269  1.00  0.00    -0.248 NA
ATOM     44  C   UNL     1      11.373   9.605 -13.661  1.00  0.00     0.031 C 
ATOM     45  C   UNL     1      12.967  10.312  -8.934  1.00  0.00     0.029 A 
ATOM     46  N   UNL     1      14.521   9.958 -10.500  1.00  0.00    -0.354 N 
ATOM     47  C   UNL     1      13.413   9.204 -14.612  1.00  0.00     0.074 A 
ATOM     48  C   UNL     1      11.977   9.236 -14.781  1.00  0.00     0.031 C 
ATOM     49  C   UNL     1      14.165  10.343  -8.327  1.00  0.00     0.029 A 
ATOM     50  C   UNL     1      15.208  10.089  -9.315  1.00  0.00     0.049 A 
ATOM     51  H   UNL     1      14.965   9.795 -11.364  1.00  0.00     0.167 HD
ATOM     52  C   UNL     1      14.293   8.996 -15.620  1.00  0.00     0.037 A 
ATOM     53  C   UNL     1      16.527  10.003  -9.050  1.00  0.00     0.037 A 
ATOM     54  C   UNL     1      15.723   8.977 -15.450  1.00  0.00     0.049 A 
ATOM     55  C   UNL     1      17.485   9.750 -10.185  1.00  0.00     0.074 A 
ATOM     56  C   UNL     1      16.701   8.805 -16.413  1.00  0.00     0.029 A 
ATOM     57  N   UNL     1      16.379   9.138 -14.238  1.00  0.00    -0.354 N 
ATOM     58  N   UNL     1      17.226   9.571 -11.459  1.00  0.00    -0.248 NA
ATOM     59  C   UNL     1      18.915   9.698  -9.850  1.00  0.00     0.031 C 
ATOM     60  C   UNL     1      17.947   8.817 -15.778  1.00  0.00     0.029 A 
ATOM     61  C   UNL     1      17.749   9.054 -14.427  1.00  0.00     0.049 A 
ATOM     62  H   UNL     1      15.937   9.289 -13.372  1.00  0.00     0.167 HD
ATOM     63  C   UNL     1      18.462   9.417 -12.080  1.00  0.00     0.074 A 
ATOM     64  C   UNL     1      19.467   9.539 -11.045  1.00  0.00     0.031 C 
ATOM     65  C   UNL     1      18.739   9.194 -13.389  1.00  0.00     0.037 A 
BRANCH  52  66
ATOM     66  C   UNL     1      13.734   8.794 -17.003  1.00  0.00     0.058 A 
ATOM     67  C   UNL     1      13.116   9.844 -17.704  1.00  0.00     0.135 A 
ATOM     68  C   UNL     1      13.852   7.556 -17.654  1.00  0.00     0.135 A 
ATOM     69  F   UNL     1      12.961  11.045 -17.124  1.00  0.00    -0.206 F 
ATOM     70  C   UNL     1      12.611   9.665 -18.987  1.00  0.00     0.059 A 
ATOM     71  C   UNL     1      13.381   7.363 -18.951  1.00  0.00     0.059 A 
ATOM     72  F   UNL     1      14.433   6.517 -17.033  1.00  0.00    -0.206 F 
ATOM     73  C   UNL     1      12.750   8.421 -19.603  1.00  0.00     0.060 A 
BRANCH  73  74
ATOM     74  S   UNL     1      12.098   8.214 -21.273  1.00  0.00     0.124 S 
ATOM     75  O   UNL     1      10.659   8.232 -21.028  1.00  0.00    -0.237 OA
ATOM     76  O   UNL     1      12.637   9.381 -21.965  1.00  0.00    -0.237 OA
ATOM     77  O   UNL     1      12.646   6.929 -21.696  1.00  0.00    -0.744 OA
ENDBRANCH  73  74
ENDBRANCH  52  66
BRANCH  53  78
ATOM     78  C   UNL     1      17.025  10.163  -7.656  1.00  0.00     0.058 A 
ATOM     79  C   UNL     1      17.799  11.272  -7.283  1.00  0.00     0.135 A 
ATOM     80  C   UNL     1      16.749   9.202  -6.670  1.00  0.00     0.135 A 
ATOM     81  F   UNL     1      18.095  12.218  -8.188  1.00  0.00    -0.206 F 
ATOM     82  C   UNL     1      18.307  11.409  -5.995  1.00  0.00     0.059 A 
ATOM     83  C   UNL     1      17.220   9.331  -5.367  1.00  0.00     0.059 A 
ATOM     84  F   UNL     1      15.997   8.130  -6.967  1.00  0.00    -0.206 F 
ATOM     85  C   UNL     1      18.012  10.431  -5.044  1.00  0.00     0.060 A 
BRANCH  85  86
ATOM     86  S   UNL     1      18.657  10.629  -3.368  1.00  0.00     0.124 S 
ATOM     87  O   UNL     1      20.073  10.340  -3.563  1.00  0.00    -0.237 OA
ATOM     88  O   UNL     1      18.323  12.019  -3.073  1.00  0.00    -0.237 OA
ATOM     89  O   UNL     1      17.909   9.636  -2.602  1.00  0.00    -0.744 OA
ENDBRANCH  85  86
ENDBRANCH  53  78
BRANCH  65  90
ATOM     90  C   UNL     1      20.187   9.116 -13.789  1.00  0.00     0.058 A 
ATOM     91  C   UNL     1      20.993   8.019 -13.447  1.00  0.00     0.135 A 
ATOM     92  C   UNL     1      20.760  10.131 -14.573  1.00  0.00     0.135 A 
ATOM     93  F   UNL     1      20.497   7.024 -12.694  1.00  0.00    -0.206 F 
ATOM     94  C   UNL     1      22.323   7.942 -13.847  1.00  0.00     0.059 A 
ATOM     95  C   UNL     1      22.079  10.060 -15.011  1.00  0.00     0.059 A 
ATOM     96  F   UNL     1      20.031  11.197 -14.938  1.00  0.00    -0.206 F 
ATOM     97  C   UNL     1      22.856   8.967 -14.632  1.00  0.00     0.060 A 
BRANCH  97  98
ATOM     98  S   UNL     1      24.573   8.837 -15.174  1.00  0.00     0.124 S 
ATOM     99  O   UNL     1      25.294   9.098 -13.932  1.00  0.00    -0.237 OA
ATOM    100  O   UNL     1      24.640   7.465 -15.670  1.00  0.00    -0.237 OA
ATOM    101  O   UNL     1      24.688   9.873 -16.196  1.00  0.00    -0.744 OA
ENDBRANCH  97  98
ENDBRANCH  65  90
ENDBRANCH  39  40
ENDBRANCH  31  34
ENDBRANCH  29  30
ENDBRANCH  28  29
ENDBRANCH   1  28
TORSDOF 18
