REMARK SMILES C[NH2+][C@@]1(C(=O)NCCCCNC(=O)c2ccc(-c3c4nc(c(-c5c(F)cc(S(=O)(=O)[O-])cc5F)c5ccc([nH]5)c(-c5c(F)cc(S(=O)(=O)[O-])cc5F)c5nc(c(-c6c(F)cc(S(=O)(=O)[O-])cc6F)c6ccc3[nH]6)C=C5)C=C4)cc2)CCC[C@H]1CCSc1nccc(=O)[nH]1
REMARK SMILES IDX 8 1 7 2 6 3 4 4 5 5 3 7 80 8 83 9 81 10 82 11 2 12 1 13
REMARK SMILES IDX 84 16 85 17 86 18 87 19 88 20 93 21 89 22 91 23 90 25 92 26
REMARK SMILES IDX 9 27 10 28 11 29 12 30 13 32 14 33 15 34 79 35 16 36 78 37
REMARK SMILES IDX 17 38 18 39 19 40 72 41 20 42 77 43 71 44 73 45 21 46 76 47
REMARK SMILES IDX 70 48 69 49 22 51 56 52 35 53 55 54 36 55 39 56 54 57 74 58
REMARK SMILES IDX 37 59 38 60 53 62 75 63 40 64 23 65 24 66 33 67 25 68 26 69
REMARK SMILES IDX 32 70 34 71 27 72 28 73 29 74 30 75 31 76 57 77 58 78 67 79
REMARK SMILES IDX 59 80 60 81 66 82 68 83 61 84 62 85 63 86 64 87 65 88 41 89
REMARK SMILES IDX 42 90 51 91 43 92 44 93 50 94 52 95 45 96 46 97 47 98 48 99
REMARK SMILES IDX 49 100
REMARK H PARENT 6 6 2 14 2 15 93 24 11 31 73 50 39 61
REMARK Flexibility Score: inf
ROOT
ATOM      1  C   UNL     1      -4.695  -2.444   0.423  1.00  0.00     0.023 C 
ENDROOT
BRANCH   1   2
ATOM      2  C   UNL     1      -4.096  -1.091   0.070  1.00  0.00     0.116 C 
BRANCH   2   3
ATOM      3  N   UNL     1      -2.881  -0.779   0.776  1.00  0.00    -0.351 N 
ATOM      4  C   UNL     1      -1.632  -0.414   0.378  1.00  0.00     0.281 C 
ATOM      5  O   UNL     1      -1.004   0.124   1.303  1.00  0.00    -0.268 OA
ATOM      6  H   UNL     1      -2.974  -0.844   1.754  1.00  0.00     0.163 HD
BRANCH   4   7
ATOM      7  C   UNL     1      -1.040  -0.538  -1.109  1.00  0.00     0.178 C 
ATOM      8  C   UNL     1      -1.532   0.630  -1.989  1.00  0.00     0.079 C 
ATOM      9  C   UNL     1      -1.487  -1.841  -1.874  1.00  0.00     0.061 C 
ATOM     10  C   UNL     1      -2.720   0.132  -2.787  1.00  0.00     0.008 C 
ATOM     11  C   UNL     1      -2.531  -1.371  -2.929  1.00  0.00     0.011 C 
BRANCH   7  12
ATOM     12  N   UNL     1       0.457  -0.493  -1.108  1.00  0.00    -0.336 N 
ATOM     13  C   UNL     1       1.119   0.498  -0.276  1.00  0.00     0.331 C 
ATOM     14  H   UNL     1       0.785  -1.410  -0.803  1.00  0.00     0.346 HD
ATOM     15  H   UNL     1       0.699  -0.223  -2.061  1.00  0.00     0.346 HD
ENDBRANCH   7  12
BRANCH   9  16
ATOM     16  C   UNL     1      -0.422  -2.657  -2.671  1.00  0.00     0.022 C 
BRANCH  16  17
ATOM     17  C   UNL     1       0.719  -3.371  -1.934  1.00  0.00     0.079 C 
BRANCH  17  18
ATOM     18  S   UNL     1       0.253  -4.984  -1.246  1.00  0.00    -0.088 SA
BRANCH  18  19
ATOM     19  C   UNL     1      -0.411  -4.517   0.282  1.00  0.00     0.168 A 
ATOM     20  N   UNL     1      -0.102  -3.428   0.896  1.00  0.00    -0.233 NA
ATOM     21  N   UNL     1      -1.298  -5.433   0.743  1.00  0.00    -0.301 N 
ATOM     22  C   UNL     1      -0.746  -3.197   2.084  1.00  0.00     0.120 A 
ATOM     23  C   UNL     1      -1.992  -5.239   1.895  1.00  0.00     0.251 A 
ATOM     24  H   UNL     1      -1.443  -6.261   0.230  1.00  0.00     0.172 HD
ATOM     25  C   UNL     1      -1.668  -4.002   2.621  1.00  0.00     0.091 A 
ATOM     26  O   UNL     1      -2.847  -6.018   2.297  1.00  0.00    -0.269 OA
ENDBRANCH  18  19
ENDBRANCH  17  18
ENDBRANCH  16  17
ENDBRANCH   9  16
ENDBRANCH   4   7
ENDBRANCH   2   3
ENDBRANCH   1   2
BRANCH   1  27
ATOM     27  C   UNL     1      -5.389  -2.516   1.779  1.00  0.00     0.023 C 
BRANCH  27  28
ATOM     28  C   UNL     1      -6.381  -1.396   2.073  1.00  0.00     0.116 C 
BRANCH  28  29
ATOM     29  N   UNL     1      -7.380  -1.199   1.029  1.00  0.00    -0.352 N 
ATOM     30  C   UNL     1      -8.719  -0.916   1.172  1.00  0.00     0.251 C 
ATOM     31  H   UNL     1      -7.054  -1.278   0.103  1.00  0.00     0.163 HD
ATOM     32  O   UNL     1      -9.450  -0.847   0.189  1.00  0.00    -0.269 OA
BRANCH  30  33
ATOM     33  C   UNL     1      -9.266  -0.744   2.532  1.00  0.00     0.039 A 
ATOM     34  C   UNL     1     -10.360  -1.516   2.924  1.00  0.00     0.014 A 
ATOM     35  C   UNL     1      -8.633   0.108   3.441  1.00  0.00     0.014 A 
ATOM     36  C   UNL     1     -10.768  -1.497   4.258  1.00  0.00     0.010 A 
ATOM     37  C   UNL     1      -8.985   0.058   4.784  1.00  0.00     0.010 A 
ATOM     38  C   UNL     1     -10.054  -0.747   5.208  1.00  0.00    -0.014 A 
BRANCH  38  39
ATOM     39  C   UNL     1     -10.402  -0.797   6.651  1.00  0.00     0.031 A 
ATOM     40  C   UNL     1     -10.838   0.455   7.362  1.00  0.00     0.074 A 
ATOM     41  C   UNL     1     -10.255  -1.950   7.335  1.00  0.00     0.049 A 
ATOM     42  N   UNL     1     -11.115   0.632   8.627  1.00  0.00    -0.248 NA
ATOM     43  C   UNL     1     -10.945   1.678   6.548  1.00  0.00     0.031 C 
ATOM     44  C   UNL     1      -9.780  -3.216   6.771  1.00  0.00     0.029 A 
ATOM     45  N   UNL     1     -10.478  -2.243   8.658  1.00  0.00    -0.354 N 
ATOM     46  C   UNL     1     -11.410   1.983   8.764  1.00  0.00     0.074 A 
ATOM     47  C   UNL     1     -11.222   2.592   7.466  1.00  0.00     0.031 C 
ATOM     48  C   UNL     1      -9.772  -4.153   7.733  1.00  0.00     0.029 A 
ATOM     49  C   UNL     1     -10.201  -3.549   8.991  1.00  0.00     0.049 A 
ATOM     50  H   UNL     1     -10.805  -1.580   9.308  1.00  0.00     0.167 HD
ATOM     51  C   UNL     1     -11.827   2.651   9.866  1.00  0.00     0.037 A 
ATOM     52  C   UNL     1     -10.277  -4.186  10.176  1.00  0.00     0.037 A 
ATOM     53  C   UNL     1     -12.042   2.030  11.147  1.00  0.00     0.049 A 
ATOM     54  C   UNL     1     -10.754  -3.425  11.384  1.00  0.00     0.074 A 
ATOM     55  C   UNL     1     -12.530   2.603  12.308  1.00  0.00     0.029 A 
ATOM     56  N   UNL     1     -11.779   0.699  11.437  1.00  0.00    -0.354 N 
ATOM     57  N   UNL     1     -11.102  -2.164  11.479  1.00  0.00    -0.248 NA
ATOM     58  C   UNL     1     -10.856  -4.174  12.644  1.00  0.00     0.031 C 
ATOM     59  C   UNL     1     -12.514   1.632  13.313  1.00  0.00     0.029 A 
ATOM     60  C   UNL     1     -12.072   0.438  12.765  1.00  0.00     0.049 A 
ATOM     61  H   UNL     1     -11.435   0.038  10.794  1.00  0.00     0.167 HD
ATOM     62  C   UNL     1     -11.491  -1.975  12.801  1.00  0.00     0.074 A 
ATOM     63  C   UNL     1     -11.346  -3.254  13.464  1.00  0.00     0.031 C 
ATOM     64  C   UNL     1     -11.928  -0.844  13.410  1.00  0.00     0.037 A 
BRANCH  51  65
ATOM     65  C   UNL     1     -12.083   4.127   9.734  1.00  0.00     0.058 A 
ATOM     66  C   UNL     1     -13.162   4.626   8.985  1.00  0.00     0.135 A 
ATOM     67  C   UNL     1     -11.262   5.056  10.394  1.00  0.00     0.135 A 
ATOM     68  F   UNL     1     -13.969   3.786   8.318  1.00  0.00    -0.206 F 
ATOM     69  C   UNL     1     -13.399   5.992   8.871  1.00  0.00     0.059 A 
ATOM     70  C   UNL     1     -11.499   6.425  10.320  1.00  0.00     0.059 A 
ATOM     71  F   UNL     1     -10.215   4.635  11.122  1.00  0.00    -0.206 F 
ATOM     72  C   UNL     1     -12.563   6.884   9.544  1.00  0.00     0.060 A 
BRANCH  72  73
ATOM     73  S   UNL     1     -12.894   8.652   9.396  1.00  0.00     0.124 S 
ATOM     74  O   UNL     1     -12.480   8.911   8.020  1.00  0.00    -0.237 OA
ATOM     75  O   UNL     1     -14.329   8.722   9.649  1.00  0.00    -0.237 OA
ATOM     76  O   UNL     1     -12.048   9.245  10.427  1.00  0.00    -0.744 OA
ENDBRANCH  72  73
ENDBRANCH  51  65
BRANCH  52  77
ATOM     77  C   UNL     1      -9.915  -5.626  10.270  1.00  0.00     0.058 A 
ATOM     78  C   UNL     1     -10.895  -6.605  10.493  1.00  0.00     0.135 A 
ATOM     79  C   UNL     1      -8.587  -6.056  10.123  1.00  0.00     0.135 A 
ATOM     80  F   UNL     1     -12.179  -6.246  10.648  1.00  0.00    -0.206 F 
ATOM     81  C   UNL     1     -10.571  -7.955  10.582  1.00  0.00     0.059 A 
ATOM     82  C   UNL     1      -8.242  -7.403  10.181  1.00  0.00     0.059 A 
ATOM     83  F   UNL     1      -7.613  -5.162   9.892  1.00  0.00    -0.206 F 
ATOM     84  C   UNL     1      -9.241  -8.345  10.421  1.00  0.00     0.060 A 
BRANCH  84  85
ATOM     85  S   UNL     1      -8.841 -10.105  10.487  1.00  0.00     0.124 S 
ATOM     86  O   UNL     1      -9.005 -10.390  11.908  1.00  0.00    -0.237 OA
ATOM     87  O   UNL     1      -9.846 -10.681   9.600  1.00  0.00    -0.237 OA
ATOM     88  O   UNL     1      -7.470 -10.157   9.987  1.00  0.00    -0.744 OA
ENDBRANCH  84  85
ENDBRANCH  52  77
BRANCH  64  89
ATOM     89  C   UNL     1     -12.318  -0.942  14.859  1.00  0.00     0.058 A 
ATOM     90  C   UNL     1     -11.362  -1.094  15.875  1.00  0.00     0.135 A 
ATOM     91  C   UNL     1     -13.665  -0.821  15.240  1.00  0.00     0.135 A 
ATOM     92  F   UNL     1     -10.061  -1.219  15.565  1.00  0.00    -0.206 F 
ATOM     93  C   UNL     1     -11.729  -1.146  17.216  1.00  0.00     0.059 A 
ATOM     94  C   UNL     1     -14.051  -0.840  16.576  1.00  0.00     0.059 A 
ATOM     95  F   UNL     1     -14.620  -0.663  14.309  1.00  0.00    -0.206 F 
ATOM     96  C   UNL     1     -13.076  -1.015  17.557  1.00  0.00     0.060 A 
BRANCH  96  97
ATOM     97  S   UNL     1     -13.534  -1.047  19.302  1.00  0.00     0.124 S 
ATOM     98  O   UNL     1     -13.358  -2.459  19.626  1.00  0.00    -0.237 OA
ATOM     99  O   UNL     1     -12.562  -0.135  19.897  1.00  0.00    -0.237 OA
ATOM    100  O   UNL     1     -14.914  -0.570  19.302  1.00  0.00    -0.744 OA
ENDBRANCH  96  97
ENDBRANCH  64  89
ENDBRANCH  38  39
ENDBRANCH  30  33
ENDBRANCH  28  29
ENDBRANCH  27  28
ENDBRANCH   1  27
TORSDOF 19
