REMARK SMILES C[C@@H]1CCCN(C(=O)N[C@@H]2CCCCC[C@@H]2C(=O)NCCCCNC(=O)c2ccc(-c3c4nc(c(-c5c(F)cc(S(=O)(=O)[O-])cc5F)c5ccc([nH]5)c(-c5c(F)cc(S(=O)(=O)[O-])cc5F)c5nc(c(-c6c(F)cc(S(=O)(=O)[O-])cc6F)c6ccc3[nH]6)C=C5)C=C4)cc2)C1
REMARK SMILES IDX 21 1 20 2 19 3 17 4 18 5 16 7 10 8 9 9 7 10 8 11 6 13 1 14
REMARK SMILES IDX 2 15 3 16 93 17 4 18 5 19 11 20 15 22 14 23 13 24 12 25
REMARK SMILES IDX 22 27 23 28 24 29 25 30 26 32 27 33 28 34 92 35 29 36 91 37
REMARK SMILES IDX 30 38 31 39 32 40 85 41 33 42 90 43 84 44 86 45 34 46 89 47
REMARK SMILES IDX 83 48 82 49 35 51 69 52 48 53 68 54 49 55 52 56 67 57 87 58
REMARK SMILES IDX 50 59 51 60 66 62 88 63 53 64 36 65 37 66 46 67 38 68 39 69
REMARK SMILES IDX 45 70 47 71 40 72 41 73 42 74 43 75 44 76 70 77 71 78 80 79
REMARK SMILES IDX 72 80 73 81 79 82 81 83 74 84 75 85 76 86 77 87 78 88 54 89
REMARK SMILES IDX 55 90 64 91 56 92 57 93 63 94 65 95 58 96 59 97 60 98 61 99
REMARK SMILES IDX 62 100
REMARK H PARENT 19 6 9 12 24 31 86 50 52 61
REMARK Flexibility Score: 90.00
ROOT
ATOM      1  C   UNL     1       5.693   3.695  -2.267  1.00  0.00     0.023 C 
ENDROOT
BRANCH   1   2
ATOM      2  C   UNL     1       6.225   3.210  -0.919  1.00  0.00     0.116 C 
BRANCH   2   3
ATOM      3  N   UNL     1       5.271   3.443   0.147  1.00  0.00    -0.356 N 
ATOM      4  C   UNL     1       4.496   2.562   0.844  1.00  0.00     0.225 C 
ATOM      5  O   UNL     1       3.776   3.010   1.737  1.00  0.00    -0.275 OA
ATOM      6  H   UNL     1       5.165   4.386   0.410  1.00  0.00     0.163 HD
BRANCH   4   7
ATOM      7  C   UNL     1       4.565   1.065   0.523  1.00  0.00     0.101 C 
BRANCH   7   8
ATOM      8  C   UNL     1       3.870   0.751  -0.830  1.00  0.00     0.096 C 
BRANCH   8   9
ATOM      9  N   UNL     1       2.666   1.533  -1.171  1.00  0.00    -0.334 N 
ATOM     10  C   UNL     1       1.363   1.674  -0.899  1.00  0.00     0.317 C 
ATOM     11  O   UNL     1       0.838   2.632  -1.480  1.00  0.00    -0.249 OA
ATOM     12  H   UNL     1       2.913   2.199  -1.852  1.00  0.00     0.165 HD
BRANCH  10  13
ATOM     13  N   UNL     1       0.642   0.855  -0.092  1.00  0.00    -0.325 N 
ATOM     14  C   UNL     1      -3.129   0.277   0.001  1.00  0.00     0.009 C 
ATOM     15  C   UNL     1      -1.674   0.032  -0.388  1.00  0.00     0.005 C 
ATOM     16  C   UNL     1      -1.218  -1.345   0.126  1.00  0.00     0.007 C 
ATOM     17  C   UNL     1      -0.771   1.162   0.143  1.00  0.00     0.124 C 
ATOM     18  C   UNL     1       0.276  -1.550  -0.096  1.00  0.00     0.022 C 
ATOM     19  C   UNL     1       1.048  -0.390   0.512  1.00  0.00     0.121 C 
ENDBRANCH  10  13
ENDBRANCH   8   9
BRANCH   8  20
ATOM     20  C   UNL     1       3.849  -0.687  -1.375  1.00  0.00     0.026 CG0
ATOM     21  G   UNL     1       4.775  -1.683  -0.687  1.00  0.00     0.000 G0
ENDBRANCH   8  20
ENDBRANCH   7   8
BRANCH   7  22
ATOM     22  C   UNL     1       4.144   0.265   1.763  1.00  0.00     0.015 C 
BRANCH  22  23
ATOM     23  C   UNL     1       4.663  -1.170   1.829  1.00  0.00     0.001 C 
BRANCH  23  24
ATOM     24  C   UNL     1       4.300  -2.119   0.694  1.00  0.00     0.000 C 
BRANCH  24  25
ATOM     25  C   UNL     1       4.775  -1.683  -0.687  1.00  0.00     0.002 CG0
ATOM     26  G   UNL     1       3.849  -0.687  -1.375  1.00  0.00     0.000 G0
ENDBRANCH  24  25
ENDBRANCH  23  24
ENDBRANCH  22  23
ENDBRANCH   7  22
ENDBRANCH   4   7
ENDBRANCH   2   3
ENDBRANCH   1   2
BRANCH   1  27
ATOM     27  C   UNL     1       5.548   5.213  -2.383  1.00  0.00     0.023 C 
BRANCH  27  28
ATOM     28  C   UNL     1       6.816   5.999  -2.084  1.00  0.00     0.116 C 
BRANCH  28  29
ATOM     29  N   UNL     1       7.949   5.573  -2.893  1.00  0.00    -0.352 N 
ATOM     30  C   UNL     1       8.934   6.346  -3.461  1.00  0.00     0.251 C 
ATOM     31  H   UNL     1       8.020   4.604  -3.053  1.00  0.00     0.163 HD
ATOM     32  O   UNL     1       9.749   5.847  -4.223  1.00  0.00    -0.269 OA
BRANCH  30  33
ATOM     33  C   UNL     1       8.964   7.791  -3.161  1.00  0.00     0.039 A 
ATOM     34  C   UNL     1       9.043   8.699  -4.218  1.00  0.00     0.014 A 
ATOM     35  C   UNL     1       8.864   8.240  -1.841  1.00  0.00     0.014 A 
ATOM     36  C   UNL     1       8.959  10.066  -3.954  1.00  0.00     0.010 A 
ATOM     37  C   UNL     1       8.703   9.597  -1.589  1.00  0.00     0.010 A 
ATOM     38  C   UNL     1       8.755  10.522  -2.641  1.00  0.00    -0.014 A 
BRANCH  38  39
ATOM     39  C   UNL     1       8.592  11.967  -2.346  1.00  0.00     0.031 A 
ATOM     40  C   UNL     1       9.599  12.675  -1.484  1.00  0.00     0.074 A 
ATOM     41  C   UNL     1       7.499  12.617  -2.789  1.00  0.00     0.049 A 
ATOM     42  N   UNL     1       9.600  13.912  -1.060  1.00  0.00    -0.248 NA
ATOM     43  C   UNL     1      10.739  11.875  -1.007  1.00  0.00     0.031 C 
ATOM     44  C   UNL     1       6.421  12.017  -3.578  1.00  0.00     0.029 A 
ATOM     45  N   UNL     1       7.106  13.921  -2.626  1.00  0.00    -0.354 N 
ATOM     46  C   UNL     1      10.725  14.034  -0.255  1.00  0.00     0.074 A 
ATOM     47  C   UNL     1      11.350  12.730  -0.201  1.00  0.00     0.031 C 
ATOM     48  C   UNL     1       5.498  12.955  -3.843  1.00  0.00     0.029 A 
ATOM     49  C   UNL     1       5.901  14.211  -3.218  1.00  0.00     0.049 A 
ATOM     50  H   UNL     1       7.638  14.585  -2.131  1.00  0.00     0.167 HD
ATOM     51  C   UNL     1      11.209  15.138   0.363  1.00  0.00     0.037 A 
ATOM     52  C   UNL     1       5.196  15.359  -3.248  1.00  0.00     0.037 A 
ATOM     53  C   UNL     1      10.588  16.435   0.288  1.00  0.00     0.049 A 
ATOM     54  C   UNL     1       5.758  16.579  -2.576  1.00  0.00     0.074 A 
ATOM     55  C   UNL     1      11.030  17.634   0.818  1.00  0.00     0.029 A 
ATOM     56  N   UNL     1       9.386  16.700  -0.354  1.00  0.00    -0.354 N 
ATOM     57  N   UNL     1       6.867  16.701  -1.885  1.00  0.00    -0.248 NA
ATOM     58  C   UNL     1       4.982  17.821  -2.695  1.00  0.00     0.031 C 
ATOM     59  C   UNL     1      10.073  18.615   0.534  1.00  0.00     0.029 A 
ATOM     60  C   UNL     1       9.059  18.039  -0.216  1.00  0.00     0.049 A 
ATOM     61  H   UNL     1       8.845  16.035  -0.838  1.00  0.00     0.167 HD
ATOM     62  C   UNL     1       6.932  18.035  -1.501  1.00  0.00     0.074 A 
ATOM     63  C   UNL     1       5.757  18.683  -2.049  1.00  0.00     0.031 C 
ATOM     64  C   UNL     1       7.881  18.667  -0.764  1.00  0.00     0.037 A 
BRANCH  51  65
ATOM     65  C   UNL     1      12.466  14.976   1.175  1.00  0.00     0.058 A 
ATOM     66  C   UNL     1      13.704  14.700   0.571  1.00  0.00     0.135 A 
ATOM     67  C   UNL     1      12.431  15.080   2.574  1.00  0.00     0.135 A 
ATOM     68  F   UNL     1      13.794  14.577  -0.763  1.00  0.00    -0.206 F 
ATOM     69  C   UNL     1      14.850  14.476   1.327  1.00  0.00     0.059 A 
ATOM     70  C   UNL     1      13.573  14.892   3.350  1.00  0.00     0.059 A 
ATOM     71  F   UNL     1      11.277  15.347   3.205  1.00  0.00    -0.206 F 
ATOM     72  C   UNL     1      14.771  14.565   2.717  1.00  0.00     0.060 A 
BRANCH  72  73
ATOM     73  S   UNL     1      16.256  14.231   3.689  1.00  0.00     0.124 S 
ATOM     74  O   UNL     1      16.342  12.777   3.595  1.00  0.00    -0.237 OA
ATOM     75  O   UNL     1      17.281  14.973   2.961  1.00  0.00    -0.237 OA
ATOM     76  O   UNL     1      15.924  14.757   5.009  1.00  0.00    -0.744 OA
ENDBRANCH  72  73
ENDBRANCH  51  65
BRANCH  52  77
ATOM     77  C   UNL     1       3.901  15.399  -3.976  1.00  0.00     0.058 A 
ATOM     78  C   UNL     1       3.791  16.042  -5.216  1.00  0.00     0.135 A 
ATOM     79  C   UNL     1       2.767  14.736  -3.479  1.00  0.00     0.135 A 
ATOM     80  F   UNL     1       4.845  16.694  -5.729  1.00  0.00    -0.206 F 
ATOM     81  C   UNL     1       2.604  16.026  -5.943  1.00  0.00     0.059 A 
ATOM     82  C   UNL     1       1.576  14.686  -4.197  1.00  0.00     0.059 A 
ATOM     83  F   UNL     1       2.828  14.090  -2.304  1.00  0.00    -0.206 F 
ATOM     84  C   UNL     1       1.505  15.335  -5.429  1.00  0.00     0.060 A 
BRANCH  84  85
ATOM     85  S   UNL     1       0.001  15.242  -6.425  1.00  0.00     0.124 S 
ATOM     86  O   UNL     1      -0.519  16.599  -6.301  1.00  0.00    -0.237 OA
ATOM     87  O   UNL     1       0.525  14.875  -7.737  1.00  0.00    -0.237 OA
ATOM     88  O   UNL     1      -0.779  14.203  -5.758  1.00  0.00    -0.744 OA
ENDBRANCH  84  85
ENDBRANCH  52  77
BRANCH  64  89
ATOM     89  C   UNL     1       7.700  20.140  -0.522  1.00  0.00     0.058 A 
ATOM     90  C   UNL     1       6.734  20.626   0.372  1.00  0.00     0.135 A 
ATOM     91  C   UNL     1       8.542  21.072  -1.150  1.00  0.00     0.135 A 
ATOM     92  F   UNL     1       5.899  19.778   0.994  1.00  0.00    -0.206 F 
ATOM     93  C   UNL     1       6.595  21.988   0.621  1.00  0.00     0.059 A 
ATOM     94  C   UNL     1       8.439  22.436  -0.896  1.00  0.00     0.059 A 
ATOM     95  F   UNL     1       9.489  20.658  -2.006  1.00  0.00    -0.206 F 
ATOM     96  C   UNL     1       7.455  22.885  -0.017  1.00  0.00     0.060 A 
BRANCH  96  97
ATOM     97  S   UNL     1       7.290  24.647   0.343  1.00  0.00     0.124 S 
ATOM     98  O   UNL     1       6.078  24.985  -0.396  1.00  0.00    -0.237 OA
ATOM     99  O   UNL     1       7.171  24.660   1.798  1.00  0.00    -0.237 OA
ATOM    100  O   UNL     1       8.526  25.218  -0.183  1.00  0.00    -0.744 OA
ENDBRANCH  96  97
ENDBRANCH  64  89
ENDBRANCH  38  39
ENDBRANCH  30  33
ENDBRANCH  28  29
ENDBRANCH  27  28
ENDBRANCH   1  27
TORSDOF 16
