REMARK SMILES CCC(C)(C)NC(=O)[C@@H](C)Oc1ccc(C)nc1C(=O)NCCCCNC(=O)c1ccc(-c2c3nc(c(-c4c(F)cc(S(=O)(=O)[O-])cc4F)c4ccc([nH]4)c(-c4c(F)cc(S(=O)(=O)[O-])cc4F)c4nc(c(-c5c(F)cc(S(=O)(=O)[O-])cc5F)c5ccc2[nH]5)C=C4)C=C3)cc1
REMARK SMILES IDX 22 1 21 2 19 3 20 4 18 6 12 7 13 8 14 9 17 10 15 11 16 12
REMARK SMILES IDX 11 13 9 14 10 15 7 16 6 17 8 19 3 20 4 21 5 22 2 23 1 24
REMARK SMILES IDX 23 25 24 26 25 27 26 28 27 29 28 31 29 32 30 33 94 34 31 35
REMARK SMILES IDX 93 36 32 37 33 38 34 39 87 40 35 41 92 42 86 43 88 44 36 45
REMARK SMILES IDX 91 46 85 47 84 48 37 50 71 51 50 52 70 53 51 54 54 55 69 56
REMARK SMILES IDX 89 57 52 58 53 59 68 61 90 62 55 63 38 64 39 65 48 66 40 67
REMARK SMILES IDX 41 68 47 69 49 70 42 71 43 72 44 73 45 74 46 75 72 76 73 77
REMARK SMILES IDX 82 78 74 79 75 80 81 81 83 82 76 83 77 84 78 85 79 86 80 87
REMARK SMILES IDX 56 88 57 89 66 90 58 91 59 92 65 93 67 94 60 95 61 96 62 97
REMARK SMILES IDX 63 98 64 99
REMARK H PARENT 21 5 6 18 26 30 88 49 54 60
REMARK Flexibility Score: inf
ROOT
ATOM      1  C   UNL     1       1.080   0.623   2.991  1.00  0.00     0.116 C 
ENDROOT
BRANCH   1   2
ATOM      2  N   UNL     1      -0.275   0.152   2.839  1.00  0.00    -0.351 N 
ATOM      3  C   UNL     1      -0.979  -0.453   1.831  1.00  0.00     0.273 C 
ATOM      4  O   UNL     1      -2.204  -0.454   2.022  1.00  0.00    -0.267 OA
ATOM      5  H   UNL     1      -0.819   0.300   3.646  1.00  0.00     0.163 HD
BRANCH   3   6
ATOM      6  C   UNL     1      -0.434  -1.181   0.620  1.00  0.00     0.170 A 
ATOM      7  C   UNL     1       0.841  -1.156   0.043  1.00  0.00     0.151 A 
ATOM      8  C   UNL     1       1.140  -2.184  -0.860  1.00  0.00     0.051 A 
ATOM      9  C   UNL     1       0.121  -2.966  -1.406  1.00  0.00     0.027 A 
ATOM     10  N   UNL     1      -1.433  -1.929   0.048  1.00  0.00    -0.244 NA
ATOM     11  C   UNL     1      -1.173  -2.716  -1.007  1.00  0.00     0.038 A 
ATOM     12  C   UNL     1      -2.355  -3.248  -1.755  1.00  0.00     0.067 C 
BRANCH   7  13
ATOM     13  O   UNL     1       1.654  -0.067   0.205  1.00  0.00    -0.478 OA
BRANCH  13  14
ATOM     14  C   UNL     1       2.740   0.163  -0.685  1.00  0.00     0.259 C 
ATOM     15  C   UNL     1       3.238   1.612  -0.529  1.00  0.00     0.064 C 
BRANCH  14  16
ATOM     16  C   UNL     1       2.731  -0.069  -2.220  1.00  0.00     0.261 C 
ATOM     17  N   UNL     1       2.014   0.715  -3.072  1.00  0.00    -0.348 N 
ATOM     18  H   UNL     1       2.556   1.373  -3.566  1.00  0.00     0.164 HD
ATOM     19  O   UNL     1       3.559  -0.834  -2.732  1.00  0.00    -0.271 OA
BRANCH  17  20
ATOM     20  C   UNL     1       0.567   0.760  -3.394  1.00  0.00     0.034 C 
ATOM     21  C   UNL     1       0.187  -0.577  -4.075  1.00  0.00     0.034 C 
ATOM     22  C   UNL     1       0.408   1.874  -4.455  1.00  0.00     0.034 C 
BRANCH  20  23
ATOM     23  C   UNL     1      -0.460   1.032  -2.267  1.00  0.00     0.024 C 
ATOM     24  C   UNL     1      -0.200   2.149  -1.273  1.00  0.00     0.006 C 
ENDBRANCH  20  23
ENDBRANCH  17  20
ENDBRANCH  14  16
ENDBRANCH  13  14
ENDBRANCH   7  13
ENDBRANCH   3   6
ENDBRANCH   1   2
BRANCH   1  25
ATOM     25  C   UNL     1       1.159   2.076   2.515  1.00  0.00     0.023 C 
BRANCH  25  26
ATOM     26  C   UNL     1       1.329   3.119   3.616  1.00  0.00     0.023 C 
BRANCH  26  27
ATOM     27  C   UNL     1       2.590   2.960   4.452  1.00  0.00     0.116 C 
BRANCH  27  28
ATOM     28  N   UNL     1       3.835   2.970   3.694  1.00  0.00    -0.352 N 
ATOM     29  C   UNL     1       5.094   3.276   4.167  1.00  0.00     0.251 C 
ATOM     30  H   UNL     1       3.770   2.733   2.741  1.00  0.00     0.163 HD
ATOM     31  O   UNL     1       6.061   3.304   3.413  1.00  0.00    -0.269 OA
BRANCH  29  32
ATOM     32  C   UNL     1       5.232   3.634   5.595  1.00  0.00     0.039 A 
ATOM     33  C   UNL     1       5.807   4.858   5.938  1.00  0.00     0.014 A 
ATOM     34  C   UNL     1       4.652   2.822   6.572  1.00  0.00     0.014 A 
ATOM     35  C   UNL     1       5.712   5.309   7.256  1.00  0.00     0.010 A 
ATOM     36  C   UNL     1       4.455   3.327   7.849  1.00  0.00     0.010 A 
ATOM     37  C   UNL     1       4.987   4.573   8.209  1.00  0.00    -0.014 A 
BRANCH  37  38
ATOM     38  C   UNL     1       4.786   5.079   9.592  1.00  0.00     0.031 A 
ATOM     39  C   UNL     1       5.297   4.280  10.762  1.00  0.00     0.074 A 
ATOM     40  C   UNL     1       4.093   6.217   9.798  1.00  0.00     0.049 A 
ATOM     41  N   UNL     1       5.192   4.529  12.041  1.00  0.00    -0.248 NA
ATOM     42  C   UNL     1       5.982   3.013  10.454  1.00  0.00     0.031 C 
ATOM     43  C   UNL     1       3.481   7.042   8.752  1.00  0.00     0.029 A 
ATOM     44  N   UNL     1       3.788   6.882  10.959  1.00  0.00    -0.354 N 
ATOM     45  C   UNL     1       5.781   3.447  12.684  1.00  0.00     0.074 A 
ATOM     46  C   UNL     1       6.164   2.502  11.661  1.00  0.00     0.031 C 
ATOM     47  C   UNL     1       2.923   8.126   9.315  1.00  0.00     0.029 A 
ATOM     48  C   UNL     1       3.106   8.060  10.761  1.00  0.00     0.049 A 
ATOM     49  H   UNL     1       4.035   6.547  11.852  1.00  0.00     0.167 HD
ATOM     50  C   UNL     1       6.024   3.272  14.005  1.00  0.00     0.037 A 
ATOM     51  C   UNL     1       2.690   8.988  11.645  1.00  0.00     0.037 A 
ATOM     52  C   UNL     1       5.674   4.233  15.015  1.00  0.00     0.049 A 
ATOM     53  C   UNL     1       2.987   8.784  13.107  1.00  0.00     0.074 A 
ATOM     54  C   UNL     1       5.919   4.183  16.375  1.00  0.00     0.029 A 
ATOM     55  N   UNL     1       5.008   5.426  14.771  1.00  0.00    -0.354 N 
ATOM     56  N   UNL     1       3.607   7.787  13.692  1.00  0.00    -0.248 NA
ATOM     57  C   UNL     1       2.538   9.837  14.028  1.00  0.00     0.031 C 
ATOM     58  C   UNL     1       5.372   5.331  16.959  1.00  0.00     0.029 A 
ATOM     59  C   UNL     1       4.825   6.117  15.956  1.00  0.00     0.049 A 
ATOM     60  H   UNL     1       4.710   5.735  13.885  1.00  0.00     0.167 HD
ATOM     61  C   UNL     1       3.654   8.108  15.044  1.00  0.00     0.074 A 
ATOM     62  C   UNL     1       3.004   9.396  15.188  1.00  0.00     0.031 C 
ATOM     63  C   UNL     1       4.188   7.405  16.073  1.00  0.00     0.037 A 
BRANCH  50  64
ATOM     64  C   UNL     1       6.718   2.001  14.414  1.00  0.00     0.058 A 
ATOM     65  C   UNL     1       8.057   1.752  14.066  1.00  0.00     0.135 A 
ATOM     66  C   UNL     1       6.040   1.014  15.145  1.00  0.00     0.135 A 
ATOM     67  F   UNL     1       8.749   2.654  13.351  1.00  0.00    -0.206 F 
ATOM     68  C   UNL     1       8.682   0.551  14.384  1.00  0.00     0.059 A 
ATOM     69  C   UNL     1       6.656  -0.182  15.503  1.00  0.00     0.059 A 
ATOM     70  F   UNL     1       4.760   1.198  15.505  1.00  0.00    -0.206 F 
ATOM     71  C   UNL     1       7.970  -0.413  15.098  1.00  0.00     0.060 A 
BRANCH  71  72
ATOM     72  S   UNL     1       8.786  -1.977  15.481  1.00  0.00     0.124 S 
ATOM     73  O   UNL     1       8.763  -2.641  14.181  1.00  0.00    -0.237 OA
ATOM     74  O   UNL     1      10.098  -1.540  15.946  1.00  0.00    -0.237 OA
ATOM     75  O   UNL     1       7.926  -2.566  16.503  1.00  0.00    -0.744 OA
ENDBRANCH  71  72
ENDBRANCH  50  64
BRANCH  51  76
ATOM     76  C   UNL     1       2.012  10.223  11.168  1.00  0.00     0.058 A 
ATOM     77  C   UNL     1       2.670  11.462  11.212  1.00  0.00     0.135 A 
ATOM     78  C   UNL     1       0.710  10.195  10.647  1.00  0.00     0.135 A 
ATOM     79  F   UNL     1       3.915  11.542  11.705  1.00  0.00    -0.206 F 
ATOM     80  C   UNL     1       2.057  12.631  10.773  1.00  0.00     0.059 A 
ATOM     81  C   UNL     1       0.084  11.347  10.180  1.00  0.00     0.059 A 
ATOM     82  F   UNL     1       0.043   9.033  10.567  1.00  0.00    -0.206 F 
ATOM     83  C   UNL     1       0.763  12.563  10.255  1.00  0.00     0.060 A 
BRANCH  83  84
ATOM     84  S   UNL     1      -0.004  14.079   9.641  1.00  0.00     0.124 S 
ATOM     85  O   UNL     1      -0.305  14.780  10.883  1.00  0.00    -0.237 OA
ATOM     86  O   UNL     1       1.062  14.652   8.825  1.00  0.00    -0.237 OA
ATOM     87  O   UNL     1      -1.159  13.591   8.894  1.00  0.00    -0.744 OA
ENDBRANCH  83  84
ENDBRANCH  51  76
BRANCH  63  88
ATOM     88  C   UNL     1       4.135   8.031  17.439  1.00  0.00     0.058 A 
ATOM     89  C   UNL     1       2.939   8.113  18.168  1.00  0.00     0.135 A 
ATOM     90  C   UNL     1       5.310   8.505  18.045  1.00  0.00     0.135 A 
ATOM     91  F   UNL     1       1.788   7.678  17.631  1.00  0.00    -0.206 F 
ATOM     92  C   UNL     1       2.905   8.667  19.443  1.00  0.00     0.059 A 
ATOM     93  C   UNL     1       5.303   9.038  19.329  1.00  0.00     0.059 A 
ATOM     94  F   UNL     1       6.482   8.438  17.393  1.00  0.00    -0.206 F 
ATOM     95  C   UNL     1       4.093   9.126  20.016  1.00  0.00     0.060 A 
BRANCH  95  96
ATOM     96  S   UNL     1       4.042   9.812  21.684  1.00  0.00     0.124 S 
ATOM     97  O   UNL     1       3.442  11.121  21.445  1.00  0.00    -0.237 OA
ATOM     98  O   UNL     1       3.204   8.851  22.393  1.00  0.00    -0.237 OA
ATOM     99  O   UNL     1       5.445   9.829  22.088  1.00  0.00    -0.744 OA
ENDBRANCH  95  96
ENDBRANCH  63  88
ENDBRANCH  37  38
ENDBRANCH  29  32
ENDBRANCH  27  28
ENDBRANCH  26  27
ENDBRANCH  25  26
ENDBRANCH   1  25
TORSDOF 19
