REMARK SMILES CCn1c(=O)n(CC)c2cc(C(=O)NCCCCNC(=O)c3ccc(-c4c5nc(c(-c6c(F)cc(S(=O)(=O)[O-])cc6F)c6ccc([nH]6)c(-c6c(F)cc(S(=O)(=O)[O-])cc6F)c6nc(c(-c7c(F)cc(S(=O)(=O)[O-])cc7F)c7ccc4[nH]7)C=C6)C=C5)cc3)ccc21
REMARK SMILES IDX 17 1 16 2 15 3 14 4 12 5 13 6 11 8 3 9 4 10 90 11 5 12 6 13
REMARK SMILES IDX 9 14 89 15 10 16 88 17 2 18 1 19 7 20 8 21 18 22 19 23 20 24
REMARK SMILES IDX 21 26 22 27 23 28 87 29 24 30 86 31 25 32 26 33 27 34 80 35
REMARK SMILES IDX 28 36 85 37 79 38 81 39 29 40 84 41 78 42 77 43 30 45 64 46
REMARK SMILES IDX 43 47 63 48 44 49 47 50 62 51 82 52 45 53 46 54 61 56 83 57
REMARK SMILES IDX 48 58 31 59 32 60 41 61 33 62 34 63 40 64 42 65 35 66 36 67
REMARK SMILES IDX 37 68 38 69 39 70 65 71 66 72 75 73 67 74 68 75 74 76 76 77
REMARK SMILES IDX 69 78 70 79 71 80 72 81 73 82 49 83 50 84 59 85 51 86 52 87
REMARK SMILES IDX 58 88 60 89 53 90 54 91 55 92 56 93 57 94
REMARK H PARENT 14 7 19 25 81 44 47 55
REMARK Flexibility Score: inf
ROOT
ATOM      1  C   UNL     1       6.318  -1.074   8.601  1.00  0.00     0.023 C 
ENDROOT
BRANCH   1   2
ATOM      2  C   UNL     1       5.383  -1.054   7.382  1.00  0.00     0.023 C 
BRANCH   2   3
ATOM      3  C   UNL     1       4.003  -0.463   7.685  1.00  0.00     0.116 C 
BRANCH   3   4
ATOM      4  N   UNL     1       4.061   0.981   7.685  1.00  0.00    -0.352 N 
ATOM      5  C   UNL     1       3.686   1.925   6.768  1.00  0.00     0.251 C 
ATOM      6  O   UNL     1       3.837   3.105   7.089  1.00  0.00    -0.269 OA
ATOM      7  H   UNL     1       4.446   1.361   8.507  1.00  0.00     0.163 HD
BRANCH   5   8
ATOM      8  C   UNL     1       3.038   1.608   5.460  1.00  0.00     0.042 A 
ATOM      9  N   UNL     1       0.701   1.174   2.052  1.00  0.00    -0.292 N 
ATOM     10  C   UNL     1       0.250   2.502   1.883  1.00  0.00     0.329 A 
ATOM     11  C   UNL     1       1.566   1.128   3.152  1.00  0.00     0.069 A 
ATOM     12  O   UNL     1      -0.504   2.913   1.008  1.00  0.00    -0.248 OA
ATOM     13  N   UNL     1       0.844   3.258   2.916  1.00  0.00    -0.292 N 
ATOM     14  C   UNL     1       1.620   2.404   3.710  1.00  0.00     0.070 A 
ATOM     15  C   UNL     1       2.303   0.089   3.670  1.00  0.00     0.029 A 
ATOM     16  C   UNL     1       2.333   2.665   4.860  1.00  0.00     0.042 A 
ATOM     17  C   UNL     1       3.079   0.356   4.807  1.00  0.00     0.016 A 
BRANCH   9  18
ATOM     18  C   UNL     1       0.302   0.054   1.240  1.00  0.00     0.124 C 
ATOM     19  C   UNL     1       0.987   0.052  -0.116  1.00  0.00     0.028 C 
ENDBRANCH   9  18
BRANCH  13  20
ATOM     20  C   UNL     1       0.735   4.685   3.077  1.00  0.00     0.124 C 
ATOM     21  C   UNL     1      -0.147   5.086   4.247  1.00  0.00     0.028 C 
ENDBRANCH  13  20
ENDBRANCH   5   8
ENDBRANCH   3   4
ENDBRANCH   2   3
ENDBRANCH   1   2
BRANCH   1  22
ATOM     22  C   UNL     1       5.692  -1.722   9.837  1.00  0.00     0.116 C 
BRANCH  22  23
ATOM     23  N   UNL     1       5.186  -3.058   9.585  1.00  0.00    -0.352 N 
ATOM     24  C   UNL     1       5.639  -4.327   9.807  1.00  0.00     0.251 C 
ATOM     25  H   UNL     1       4.304  -3.048   9.148  1.00  0.00     0.163 HD
ATOM     26  O   UNL     1       4.850  -5.237   9.540  1.00  0.00    -0.269 OA
BRANCH  24  27
ATOM     27  C   UNL     1       7.014  -4.670  10.244  1.00  0.00     0.039 A 
ATOM     28  C   UNL     1       7.983  -3.748  10.636  1.00  0.00     0.014 A 
ATOM     29  C   UNL     1       7.372  -6.027  10.142  1.00  0.00     0.014 A 
ATOM     30  C   UNL     1       9.308  -4.125  10.723  1.00  0.00     0.010 A 
ATOM     31  C   UNL     1       8.692  -6.422  10.283  1.00  0.00     0.010 A 
ATOM     32  C   UNL     1       9.663  -5.448  10.478  1.00  0.00    -0.014 A 
BRANCH  32  33
ATOM     33  C   UNL     1      11.082  -5.760  10.488  1.00  0.00     0.031 A 
ATOM     34  C   UNL     1      11.778  -5.415  11.761  1.00  0.00     0.074 A 
ATOM     35  C   UNL     1      11.680  -6.359   9.440  1.00  0.00     0.049 A 
ATOM     36  N   UNL     1      12.738  -4.568  11.951  1.00  0.00    -0.248 NA
ATOM     37  C   UNL     1      11.210  -5.959  13.007  1.00  0.00     0.031 C 
ATOM     38  C   UNL     1      11.073  -6.933   8.236  1.00  0.00     0.029 A 
ATOM     39  N   UNL     1      12.993  -6.666   9.286  1.00  0.00    -0.354 N 
ATOM     40  C   UNL     1      13.034  -4.623  13.312  1.00  0.00     0.074 A 
ATOM     41  C   UNL     1      11.970  -5.371  13.930  1.00  0.00     0.031 C 
ATOM     42  C   UNL     1      11.972  -7.733   7.619  1.00  0.00     0.029 A 
ATOM     43  C   UNL     1      13.249  -7.606   8.295  1.00  0.00     0.049 A 
ATOM     44  H   UNL     1      13.704  -6.257   9.831  1.00  0.00     0.167 HD
ATOM     45  C   UNL     1      14.232  -4.214  13.813  1.00  0.00     0.037 A 
ATOM     46  C   UNL     1      14.413  -8.289   8.144  1.00  0.00     0.037 A 
ATOM     47  C   UNL     1      14.921  -3.343  12.899  1.00  0.00     0.049 A 
ATOM     48  C   UNL     1      15.466  -7.487   8.833  1.00  0.00     0.074 A 
ATOM     49  C   UNL     1      14.650  -2.092  12.378  1.00  0.00     0.029 A 
ATOM     50  N   UNL     1      15.883  -3.883  12.081  1.00  0.00    -0.354 N 
ATOM     51  N   UNL     1      15.841  -6.300   8.433  1.00  0.00    -0.248 NA
ATOM     52  C   UNL     1      15.724  -7.781  10.236  1.00  0.00     0.031 C 
ATOM     53  C   UNL     1      15.067  -2.163  11.016  1.00  0.00     0.029 A 
ATOM     54  C   UNL     1      15.631  -3.423  10.810  1.00  0.00     0.049 A 
ATOM     55  H   UNL     1      16.613  -4.485  12.352  1.00  0.00     0.167 HD
ATOM     56  C   UNL     1      16.001  -5.559   9.597  1.00  0.00     0.074 A 
ATOM     57  C   UNL     1      15.958  -6.542  10.680  1.00  0.00     0.031 C 
ATOM     58  C   UNL     1      15.866  -4.199   9.611  1.00  0.00     0.037 A 
BRANCH  45  59
ATOM     59  C   UNL     1      14.900  -4.852  15.004  1.00  0.00     0.058 A 
ATOM     60  C   UNL     1      16.012  -4.235  15.611  1.00  0.00     0.135 A 
ATOM     61  C   UNL     1      14.646  -6.183  15.407  1.00  0.00     0.135 A 
ATOM     62  F   UNL     1      16.357  -2.978  15.289  1.00  0.00    -0.206 F 
ATOM     63  C   UNL     1      16.837  -4.909  16.514  1.00  0.00     0.059 A 
ATOM     64  C   UNL     1      15.422  -6.854  16.343  1.00  0.00     0.059 A 
ATOM     65  F   UNL     1      13.686  -6.926  14.840  1.00  0.00    -0.206 F 
ATOM     66  C   UNL     1      16.539  -6.224  16.864  1.00  0.00     0.060 A 
BRANCH  66  67
ATOM     67  S   UNL     1      17.658  -7.129  17.948  1.00  0.00     0.124 S 
ATOM     68  O   UNL     1      18.856  -7.220  17.123  1.00  0.00    -0.237 OA
ATOM     69  O   UNL     1      17.741  -6.240  19.103  1.00  0.00    -0.237 OA
ATOM     70  O   UNL     1      16.956  -8.387  18.183  1.00  0.00    -0.744 OA
ENDBRANCH  66  67
ENDBRANCH  45  59
BRANCH  46  71
ATOM     71  C   UNL     1      14.544  -9.754   7.899  1.00  0.00     0.058 A 
ATOM     72  C   UNL     1      15.788 -10.333   7.591  1.00  0.00     0.135 A 
ATOM     73  C   UNL     1      13.511 -10.656   8.237  1.00  0.00     0.135 A 
ATOM     74  F   UNL     1      16.834  -9.552   7.280  1.00  0.00    -0.206 F 
ATOM     75  C   UNL     1      16.009 -11.715   7.662  1.00  0.00     0.059 A 
ATOM     76  C   UNL     1      13.705 -12.034   8.306  1.00  0.00     0.059 A 
ATOM     77  F   UNL     1      12.298 -10.218   8.604  1.00  0.00    -0.206 F 
ATOM     78  C   UNL     1      14.964 -12.556   8.044  1.00  0.00     0.060 A 
BRANCH  78  79
ATOM     79  S   UNL     1      15.285 -14.316   8.312  1.00  0.00     0.124 S 
ATOM     80  O   UNL     1      15.589 -14.777   6.962  1.00  0.00    -0.237 OA
ATOM     81  O   UNL     1      16.407 -14.285   9.244  1.00  0.00    -0.237 OA
ATOM     82  O   UNL     1      14.028 -14.810   8.870  1.00  0.00    -0.744 OA
ENDBRANCH  78  79
ENDBRANCH  46  71
BRANCH  58  83
ATOM     83  C   UNL     1      15.727  -3.476   8.291  1.00  0.00     0.058 A 
ATOM     84  C   UNL     1      14.653  -3.658   7.399  1.00  0.00     0.135 A 
ATOM     85  C   UNL     1      16.629  -2.445   7.993  1.00  0.00     0.135 A 
ATOM     86  F   UNL     1      13.680  -4.539   7.664  1.00  0.00    -0.206 F 
ATOM     87  C   UNL     1      14.513  -2.888   6.240  1.00  0.00     0.059 A 
ATOM     88  C   UNL     1      16.493  -1.644   6.861  1.00  0.00     0.059 A 
ATOM     89  F   UNL     1      17.636  -2.169   8.837  1.00  0.00    -0.206 F 
ATOM     90  C   UNL     1      15.441  -1.882   5.979  1.00  0.00     0.060 A 
BRANCH  90  91
ATOM     91  S   UNL     1      15.235  -0.856   4.506  1.00  0.00     0.124 S 
ATOM     92  O   UNL     1      15.491  -1.807   3.430  1.00  0.00    -0.237 OA
ATOM     93  O   UNL     1      13.854  -0.398   4.631  1.00  0.00    -0.237 OA
ATOM     94  O   UNL     1      16.245   0.186   4.671  1.00  0.00    -0.744 OA
ENDBRANCH  90  91
ENDBRANCH  58  83
ENDBRANCH  32  33
ENDBRANCH  24  27
ENDBRANCH  22  23
ENDBRANCH   1  22
TORSDOF 16
