REMARK SMILES CCc1ccc(CNC(=O)CCC(=O)NCCCCNC(=O)c2ccc(-c3c4nc(c(-c5c(F)cc(S(=O)(=O)[O-])cc5F)c5ccc([nH]5)c(-c5c(F)cc(S(=O)(=O)[O-])cc5F)c5nc(c(-c6c(F)cc(S(=O)(=O)[O-])cc6F)c6ccc3[nH]6)C=C5)C=C4)cc2)cc1
REMARK SMILES IDX 16 1 15 2 13 3 14 4 12 6 11 7 9 8 8 9 10 11 7 12 6 13 3 14
REMARK SMILES IDX 4 15 90 16 5 17 89 18 2 19 1 20 17 21 18 22 19 23 20 24
REMARK SMILES IDX 21 25 22 27 23 28 24 29 88 30 25 31 87 32 26 33 27 34 28 35
REMARK SMILES IDX 81 36 29 37 86 38 80 39 82 40 30 41 85 42 79 43 78 44 31 46
REMARK SMILES IDX 65 47 44 48 64 49 45 50 48 51 63 52 83 53 46 54 47 55 62 57
REMARK SMILES IDX 84 58 49 59 32 60 33 61 42 62 34 63 35 64 41 65 43 66 36 67
REMARK SMILES IDX 37 68 38 69 39 70 40 71 66 72 67 73 76 74 68 75 69 76 75 77
REMARK SMILES IDX 77 78 70 79 71 80 72 81 73 82 74 83 50 84 51 85 60 86 52 87
REMARK SMILES IDX 53 88 59 89 61 90 54 91 55 92 56 93 57 94 58 95
REMARK H PARENT 15 5 8 10 20 26 82 45 48 56
REMARK Flexibility Score: inf
ROOT
ATOM      1  C   UNL     1      -1.046  -6.930   2.551  1.00  0.00     0.116 C 
ENDROOT
BRANCH   1   2
ATOM      2  N   UNL     1       0.205  -6.599   1.895  1.00  0.00    -0.356 N 
ATOM      3  C   UNL     1       1.249  -7.422   1.586  1.00  0.00     0.220 C 
ATOM      4  O   UNL     1       1.944  -7.185   0.596  1.00  0.00    -0.275 OA
ATOM      5  H   UNL     1       0.315  -5.655   1.638  1.00  0.00     0.163 HD
BRANCH   3   6
ATOM      6  C   UNL     1       1.636  -8.537   2.518  1.00  0.00     0.110 C 
BRANCH   6   7
ATOM      7  C   UNL     1       2.746  -8.045   3.447  1.00  0.00     0.110 C 
BRANCH   7   8
ATOM      8  C   UNL     1       2.199  -7.058   4.453  1.00  0.00     0.220 C 
ATOM      9  N   UNL     1       2.341  -5.713   4.290  1.00  0.00    -0.352 N 
ATOM     10  H   UNL     1       1.760  -5.170   4.870  1.00  0.00     0.163 HD
ATOM     11  O   UNL     1       1.561  -7.473   5.424  1.00  0.00    -0.275 OA
BRANCH   9  12
ATOM     12  C   UNL     1       3.201  -4.938   3.407  1.00  0.00     0.151 C 
BRANCH  12  13
ATOM     13  C   UNL     1       2.500  -3.848   2.619  1.00  0.00    -0.029 A 
ATOM     14  C   UNL     1       1.316  -1.802   1.013  1.00  0.00    -0.048 A 
ATOM     15  C   UNL     1       1.566  -3.074   0.494  1.00  0.00     0.004 A 
ATOM     16  C   UNL     1       1.635  -1.571   2.358  1.00  0.00     0.004 A 
ATOM     17  C   UNL     1       2.182  -4.057   1.273  1.00  0.00     0.006 A 
ATOM     18  C   UNL     1       2.209  -2.585   3.155  1.00  0.00     0.006 A 
BRANCH  14  19
ATOM     19  C   UNL     1       0.698  -0.765   0.099  1.00  0.00     0.032 C 
ATOM     20  C   UNL     1       1.212   0.659   0.257  1.00  0.00     0.009 C 
ENDBRANCH  14  19
ENDBRANCH  12  13
ENDBRANCH   9  12
ENDBRANCH   7   8
ENDBRANCH   6   7
ENDBRANCH   3   6
ENDBRANCH   1   2
BRANCH   1  21
ATOM     21  C   UNL     1      -1.281  -6.350   3.946  1.00  0.00     0.023 C 
BRANCH  21  22
ATOM     22  C   UNL     1      -0.999  -4.861   4.170  1.00  0.00     0.023 C 
BRANCH  22  23
ATOM     23  C   UNL     1      -1.787  -3.867   3.327  1.00  0.00     0.116 C 
BRANCH  23  24
ATOM     24  N   UNL     1      -3.214  -3.951   3.580  1.00  0.00    -0.352 N 
ATOM     25  C   UNL     1      -4.083  -3.060   4.157  1.00  0.00     0.251 C 
ATOM     26  H   UNL     1      -3.630  -4.794   3.286  1.00  0.00     0.163 HD
ATOM     27  O   UNL     1      -5.195  -3.468   4.493  1.00  0.00    -0.269 OA
BRANCH  25  28
ATOM     28  C   UNL     1      -3.737  -1.631   4.377  1.00  0.00     0.039 A 
ATOM     29  C   UNL     1      -4.293  -0.978   5.485  1.00  0.00     0.014 A 
ATOM     30  C   UNL     1      -2.983  -0.892   3.461  1.00  0.00     0.014 A 
ATOM     31  C   UNL     1      -4.083   0.392   5.683  1.00  0.00     0.010 A 
ATOM     32  C   UNL     1      -2.720   0.463   3.692  1.00  0.00     0.010 A 
ATOM     33  C   UNL     1      -3.284   1.126   4.794  1.00  0.00    -0.014 A 
BRANCH  33  34
ATOM     34  C   UNL     1      -3.064   2.588   4.982  1.00  0.00     0.031 A 
ATOM     35  C   UNL     1      -3.587   3.572   3.965  1.00  0.00     0.074 A 
ATOM     36  C   UNL     1      -2.363   3.033   6.043  1.00  0.00     0.049 A 
ATOM     37  N   UNL     1      -3.432   4.871   3.913  1.00  0.00    -0.248 NA
ATOM     38  C   UNL     1      -4.368   3.019   2.847  1.00  0.00     0.031 C 
ATOM     39  C   UNL     1      -1.779   2.186   7.085  1.00  0.00     0.029 A 
ATOM     40  N   UNL     1      -2.011   4.307   6.418  1.00  0.00    -0.354 N 
ATOM     41  C   UNL     1      -4.077   5.287   2.752  1.00  0.00     0.074 A 
ATOM     42  C   UNL     1      -4.586   4.097   2.106  1.00  0.00     0.031 C 
ATOM     43  C   UNL     1      -1.155   2.963   7.986  1.00  0.00     0.029 A 
ATOM     44  C   UNL     1      -1.261   4.359   7.571  1.00  0.00     0.049 A 
ATOM     45  H   UNL     1      -2.271   5.109   5.909  1.00  0.00     0.167 HD
ATOM     46  C   UNL     1      -4.248   6.546   2.278  1.00  0.00     0.037 A 
ATOM     47  C   UNL     1      -0.712   5.407   8.215  1.00  0.00     0.037 A 
ATOM     48  C   UNL     1      -3.770   7.732   2.942  1.00  0.00     0.049 A 
ATOM     49  C   UNL     1      -0.916   6.796   7.669  1.00  0.00     0.074 A 
ATOM     50  C   UNL     1      -3.939   9.054   2.569  1.00  0.00     0.029 A 
ATOM     51  N   UNL     1      -3.035   7.741   4.118  1.00  0.00    -0.354 N 
ATOM     52  N   UNL     1      -1.568   7.172   6.595  1.00  0.00    -0.248 NA
ATOM     53  C   UNL     1      -0.315   7.904   8.426  1.00  0.00     0.031 C 
ATOM     54  C   UNL     1      -3.272   9.861   3.498  1.00  0.00     0.029 A 
ATOM     55  C   UNL     1      -2.728   9.044   4.475  1.00  0.00     0.049 A 
ATOM     56  H   UNL     1      -2.770   6.939   4.625  1.00  0.00     0.167 HD
ATOM     57  C   UNL     1      -1.480   8.560   6.563  1.00  0.00     0.074 A 
ATOM     58  C   UNL     1      -0.721   8.958   7.731  1.00  0.00     0.031 C 
ATOM     59  C   UNL     1      -1.982   9.426   5.648  1.00  0.00     0.037 A 
BRANCH  46  60
ATOM     60  C   UNL     1      -4.990   6.711   0.978  1.00  0.00     0.058 A 
ATOM     61  C   UNL     1      -6.372   6.481   0.882  1.00  0.00     0.135 A 
ATOM     62  C   UNL     1      -4.320   7.146  -0.177  1.00  0.00     0.135 A 
ATOM     63  F   UNL     1      -7.061   6.053   1.952  1.00  0.00    -0.206 F 
ATOM     64  C   UNL     1      -7.057   6.647  -0.317  1.00  0.00     0.059 A 
ATOM     65  C   UNL     1      -4.990   7.346  -1.382  1.00  0.00     0.059 A 
ATOM     66  F   UNL     1      -2.999   7.385  -0.144  1.00  0.00    -0.206 F 
ATOM     67  C   UNL     1      -6.357   7.078  -1.445  1.00  0.00     0.060 A 
BRANCH  67  68
ATOM     68  S   UNL     1      -7.258   7.293  -2.995  1.00  0.00     0.124 S 
ATOM     69  O   UNL     1      -7.491   5.903  -3.388  1.00  0.00    -0.237 OA
ATOM     70  O   UNL     1      -8.446   8.031  -2.564  1.00  0.00    -0.237 OA
ATOM     71  O   UNL     1      -6.331   8.035  -3.831  1.00  0.00    -0.744 OA
ENDBRANCH  67  68
ENDBRANCH  46  60
BRANCH  47  72
ATOM     72  C   UNL     1       0.073   5.189   9.460  1.00  0.00     0.058 A 
ATOM     73  C   UNL     1      -0.420   5.602  10.707  1.00  0.00     0.135 A 
ATOM     74  C   UNL     1       1.328   4.561   9.430  1.00  0.00     0.135 A 
ATOM     75  F   UNL     1      -1.612   6.213  10.787  1.00  0.00    -0.206 F 
ATOM     76  C   UNL     1       0.309   5.419  11.877  1.00  0.00     0.059 A 
ATOM     77  C   UNL     1       2.065   4.344  10.590  1.00  0.00     0.059 A 
ATOM     78  F   UNL     1       1.839   4.133   8.265  1.00  0.00    -0.206 F 
ATOM     79  C   UNL     1       1.552   4.787  11.808  1.00  0.00     0.060 A 
BRANCH  79  80
ATOM     80  S   UNL     1       2.474   4.518  13.338  1.00  0.00     0.124 S 
ATOM     81  O   UNL     1       2.949   5.864  13.635  1.00  0.00    -0.237 OA
ATOM     82  O   UNL     1       1.444   3.992  14.229  1.00  0.00    -0.237 OA
ATOM     83  O   UNL     1       3.501   3.557  12.945  1.00  0.00    -0.744 OA
ENDBRANCH  79  80
ENDBRANCH  47  72
BRANCH  59  84
ATOM     84  C   UNL     1      -1.762  10.894   5.888  1.00  0.00     0.058 A 
ATOM     85  C   UNL     1      -0.505  11.492   5.705  1.00  0.00     0.135 A 
ATOM     86  C   UNL     1      -2.836  11.723   6.253  1.00  0.00     0.135 A 
ATOM     87  F   UNL     1       0.555  10.744   5.363  1.00  0.00    -0.206 F 
ATOM     88  C   UNL     1      -0.317  12.858   5.893  1.00  0.00     0.059 A 
ATOM     89  C   UNL     1      -2.675  13.095   6.421  1.00  0.00     0.059 A 
ATOM     90  F   UNL     1      -4.060  11.203   6.432  1.00  0.00    -0.206 F 
ATOM     91  C   UNL     1      -1.409  13.652   6.249  1.00  0.00     0.060 A 
BRANCH  91  92
ATOM     92  S   UNL     1      -1.159  15.428   6.452  1.00  0.00     0.124 S 
ATOM     93  O   UNL     1      -0.457  15.482   7.730  1.00  0.00    -0.237 OA
ATOM     94  O   UNL     1      -0.363  15.768   5.277  1.00  0.00    -0.237 OA
ATOM     95  O   UNL     1      -2.517  15.964   6.458  1.00  0.00    -0.744 OA
ENDBRANCH  91  92
ENDBRANCH  59  84
ENDBRANCH  33  34
ENDBRANCH  25  28
ENDBRANCH  23  24
ENDBRANCH  22  23
ENDBRANCH  21  22
ENDBRANCH   1  21
TORSDOF 19
