REMARK SMILES O=C(NCCCCNC(=O)c1ccc(-c2c3nc(c(-c4c(F)cc(S(=O)(=O)[O-])cc4F)c4ccc([nH]4)c(-c4c(F)cc(S(=O)(=O)[O-])cc4F)c4nc(c(-c5c(F)cc(S(=O)(=O)[O-])cc5F)c5ccc2[nH]5)C=C4)C=C3)cc1)C1=N[C@@H]2NC=NN2[C@@H]([C@H]2C=NN=C2c2ccc(F)cc2)C1
REMARK SMILES IDX 6 1 5 2 4 3 3 4 1 5 2 6 77 8 78 9 97 10 79 11 84 12 80 13
REMARK SMILES IDX 83 14 81 15 82 17 85 18 86 19 89 20 87 21 88 22 90 23 91 24
REMARK SMILES IDX 96 25 92 26 95 27 93 28 94 29 7 30 8 31 9 32 10 34 11 35
REMARK SMILES IDX 12 36 76 37 13 38 75 39 14 40 15 41 16 42 69 43 17 44 74 45
REMARK SMILES IDX 68 46 70 47 18 48 73 49 67 50 66 51 19 53 53 54 32 55 52 56
REMARK SMILES IDX 33 57 36 58 51 59 71 60 34 61 35 62 50 64 72 65 37 66 20 67
REMARK SMILES IDX 21 68 30 69 22 70 23 71 29 72 31 73 24 74 25 75 26 76 27 77
REMARK SMILES IDX 28 78 54 79 55 80 64 81 56 82 57 83 63 84 65 85 58 86 59 87
REMARK SMILES IDX 60 88 61 89 62 90 38 91 39 92 48 93 40 94 41 95 47 96 49 97
REMARK SMILES IDX 42 98 43 99 44 100 45 101 46 102
REMARK H PARENT 3 7 80 16 8 33 70 52 36 63
REMARK Flexibility Score: inf
ROOT
ATOM      1  C   UNL     1      12.762   0.718   6.725  1.00  0.00     0.023 C 
ENDROOT
BRANCH   1   2
ATOM      2  C   UNL     1      11.900  -0.198   5.862  1.00  0.00     0.023 C 
BRANCH   2   3
ATOM      3  C   UNL     1      10.513   0.292   5.457  1.00  0.00     0.116 C 
BRANCH   3   4
ATOM      4  N   UNL     1      10.456   1.558   4.753  1.00  0.00    -0.351 N 
ATOM      5  O   UNL     1       9.508   3.265   3.624  1.00  0.00    -0.268 OA
ATOM      6  C   UNL     1       9.455   2.085   3.961  1.00  0.00     0.265 C 
ATOM      7  H   UNL     1      11.251   2.129   4.856  1.00  0.00     0.163 HD
BRANCH   6   8
ATOM      8  C   UNL     1       8.308   1.224   3.399  1.00  0.00     0.106 C 
ATOM      9  N   UNL     1       8.020   1.392   2.156  1.00  0.00    -0.237 NA
ATOM     10  C   UNL     1       7.555   0.311   4.319  1.00  0.00     0.090 C 
ATOM     11  C   UNL     1       7.122   0.480   1.500  1.00  0.00     0.319 C 
ATOM     12  C   UNL     1       6.459  -0.486   3.611  1.00  0.00     0.127 C 
ATOM     13  N   UNL     1       5.892   0.973   0.949  1.00  0.00    -0.335 N 
ATOM     14  N   UNL     1       6.731  -0.775   2.185  1.00  0.00    -0.249 NA
ATOM     15  C   UNL     1       5.086  -0.125   0.924  1.00  0.00     0.217 C 
ATOM     16  H   UNL     1       5.681   1.889   0.657  1.00  0.00     0.165 HD
ATOM     17  N   UNL     1       5.528  -1.189   1.547  1.00  0.00    -0.164 NA
BRANCH  12  18
ATOM     18  C   UNL     1       6.092  -1.811   4.305  1.00  0.00     0.109 C 
ATOM     19  C   UNL     1       7.247  -2.741   4.462  1.00  0.00     0.120 C 
ATOM     20  C   UNL     1       5.793  -1.630   5.760  1.00  0.00     0.081 C 
ATOM     21  N   UNL     1       7.545  -2.979   5.698  1.00  0.00    -0.162 NA
ATOM     22  N   UNL     1       6.629  -2.260   6.527  1.00  0.00    -0.155 NA
BRANCH  20  23
ATOM     23  C   UNL     1       4.722  -0.737   6.226  1.00  0.00    -0.001 A 
ATOM     24  C   UNL     1       3.569  -0.534   5.457  1.00  0.00     0.013 A 
ATOM     25  C   UNL     1       4.930  -0.009   7.402  1.00  0.00     0.013 A 
ATOM     26  C   UNL     1       2.634   0.421   5.858  1.00  0.00     0.040 A 
ATOM     27  C   UNL     1       3.996   0.950   7.792  1.00  0.00     0.040 A 
ATOM     28  C   UNL     1       2.861   1.159   7.016  1.00  0.00     0.123 A 
ATOM     29  F   UNL     1       1.973   2.092   7.382  1.00  0.00    -0.207 F 
ENDBRANCH  20  23
ENDBRANCH  12  18
ENDBRANCH   6   8
ENDBRANCH   3   4
ENDBRANCH   2   3
ENDBRANCH   1   2
BRANCH   1  30
ATOM     30  C   UNL     1      12.130   1.246   8.009  1.00  0.00     0.116 C 
BRANCH  30  31
ATOM     31  N   UNL     1      11.749   0.204   8.953  1.00  0.00    -0.352 N 
ATOM     32  C   UNL     1      12.235  -0.097  10.206  1.00  0.00     0.251 C 
ATOM     33  H   UNL     1      11.023  -0.384   8.643  1.00  0.00     0.163 HD
ATOM     34  O   UNL     1      11.814  -1.093  10.793  1.00  0.00    -0.269 OA
BRANCH  32  35
ATOM     35  C   UNL     1      13.287   0.731  10.838  1.00  0.00     0.039 A 
ATOM     36  C   UNL     1      14.374   0.090  11.442  1.00  0.00     0.014 A 
ATOM     37  C   UNL     1      13.219   2.125  10.837  1.00  0.00     0.014 A 
ATOM     38  C   UNL     1      15.443   0.845  11.936  1.00  0.00     0.010 A 
ATOM     39  C   UNL     1      14.319   2.873  11.254  1.00  0.00     0.010 A 
ATOM     40  C   UNL     1      15.454   2.241  11.787  1.00  0.00    -0.014 A 
BRANCH  40  41
ATOM     41  C   UNL     1      16.660   3.048  12.117  1.00  0.00     0.031 A 
ATOM     42  C   UNL     1      16.602   4.122  13.168  1.00  0.00     0.074 A 
ATOM     43  C   UNL     1      17.786   2.878  11.393  1.00  0.00     0.049 A 
ATOM     44  N   UNL     1      17.518   4.992  13.512  1.00  0.00    -0.248 NA
ATOM     45  C   UNL     1      15.339   4.255  13.910  1.00  0.00     0.031 C 
ATOM     46  C   UNL     1      17.953   1.909  10.308  1.00  0.00     0.029 A 
ATOM     47  N   UNL     1      18.994   3.530  11.441  1.00  0.00    -0.354 N 
ATOM     48  C   UNL     1      16.941   5.782  14.499  1.00  0.00     0.074 A 
ATOM     49  C   UNL     1      15.578   5.320  14.661  1.00  0.00     0.031 C 
ATOM     50  C   UNL     1      19.189   2.026   9.798  1.00  0.00     0.029 A 
ATOM     51  C   UNL     1      19.888   3.108  10.485  1.00  0.00     0.049 A 
ATOM     52  H   UNL     1      19.201   4.233  12.099  1.00  0.00     0.167 HD
ATOM     53  C   UNL     1      17.500   6.787  15.216  1.00  0.00     0.037 A 
ATOM     54  C   UNL     1      21.121   3.554  10.172  1.00  0.00     0.037 A 
ATOM     55  C   UNL     1      18.860   7.236  15.052  1.00  0.00     0.049 A 
ATOM     56  C   UNL     1      21.719   4.681  10.968  1.00  0.00     0.074 A 
ATOM     57  C   UNL     1      19.540   8.200  15.775  1.00  0.00     0.029 A 
ATOM     58  N   UNL     1      19.742   6.766  14.088  1.00  0.00    -0.354 N 
ATOM     59  N   UNL     1      21.188   5.361  11.956  1.00  0.00    -0.248 NA
ATOM     60  C   UNL     1      23.081   5.100  10.612  1.00  0.00     0.031 C 
ATOM     61  C   UNL     1      20.811   8.355  15.212  1.00  0.00     0.029 A 
ATOM     62  C   UNL     1      20.947   7.446  14.175  1.00  0.00     0.049 A 
ATOM     63  H   UNL     1      19.541   6.055  13.438  1.00  0.00     0.167 HD
ATOM     64  C   UNL     1      22.155   6.278  12.350  1.00  0.00     0.074 A 
ATOM     65  C   UNL     1      23.311   6.053  11.505  1.00  0.00     0.031 C 
ATOM     66  C   UNL     1      22.090   7.221  13.323  1.00  0.00     0.037 A 
BRANCH  53  67
ATOM     67  C   UNL     1      16.634   7.477  16.238  1.00  0.00     0.058 A 
ATOM     68  C   UNL     1      16.194   6.822  17.400  1.00  0.00     0.135 A 
ATOM     69  C   UNL     1      16.251   8.817  16.061  1.00  0.00     0.135 A 
ATOM     70  F   UNL     1      16.522   5.538  17.619  1.00  0.00    -0.206 F 
ATOM     71  C   UNL     1      15.367   7.453  18.324  1.00  0.00     0.059 A 
ATOM     72  C   UNL     1      15.452   9.479  16.989  1.00  0.00     0.059 A 
ATOM     73  F   UNL     1      16.647   9.496  14.973  1.00  0.00    -0.206 F 
ATOM     74  C   UNL     1      14.996   8.781  18.106  1.00  0.00     0.060 A 
BRANCH  74  75
ATOM     75  S   UNL     1      13.901   9.576  19.300  1.00  0.00     0.124 S 
ATOM     76  O   UNL     1      12.632   8.911  19.017  1.00  0.00    -0.237 OA
ATOM     77  O   UNL     1      14.525   9.232  20.574  1.00  0.00    -0.237 OA
ATOM     78  O   UNL     1      13.964  10.987  18.934  1.00  0.00    -0.744 OA
ENDBRANCH  74  75
ENDBRANCH  53  67
BRANCH  54  79
ATOM     79  C   UNL     1      21.863   2.928   9.044  1.00  0.00     0.058 A 
ATOM     80  C   UNL     1      22.979   2.111   9.273  1.00  0.00     0.135 A 
ATOM     81  C   UNL     1      21.439   3.098   7.716  1.00  0.00     0.135 A 
ATOM     82  F   UNL     1      23.429   1.925  10.523  1.00  0.00    -0.206 F 
ATOM     83  C   UNL     1      23.651   1.485   8.227  1.00  0.00     0.059 A 
ATOM     84  C   UNL     1      22.077   2.462   6.656  1.00  0.00     0.059 A 
ATOM     85  F   UNL     1      20.366   3.857   7.444  1.00  0.00    -0.206 F 
ATOM     86  C   UNL     1      23.186   1.660   6.922  1.00  0.00     0.060 A 
BRANCH  86  87
ATOM     87  S   UNL     1      24.017   0.779   5.581  1.00  0.00     0.124 S 
ATOM     88  O   UNL     1      25.277   1.507   5.488  1.00  0.00    -0.237 OA
ATOM     89  O   UNL     1      24.100  -0.577   6.113  1.00  0.00    -0.237 OA
ATOM     90  O   UNL     1      23.105   0.947   4.453  1.00  0.00    -0.744 OA
ENDBRANCH  86  87
ENDBRANCH  54  79
BRANCH  66  91
ATOM     91  C   UNL     1      23.306   8.080  13.544  1.00  0.00     0.058 A 
ATOM     92  C   UNL     1      23.677   9.080  12.632  1.00  0.00     0.135 A 
ATOM     93  C   UNL     1      24.070   7.946  14.716  1.00  0.00     0.135 A 
ATOM     94  F   UNL     1      22.989   9.245  11.492  1.00  0.00    -0.206 F 
ATOM     95  C   UNL     1      24.770   9.910  12.868  1.00  0.00     0.059 A 
ATOM     96  C   UNL     1      25.148   8.784  14.985  1.00  0.00     0.059 A 
ATOM     97  F   UNL     1      23.756   7.010  15.625  1.00  0.00    -0.206 F 
ATOM     98  C   UNL     1      25.495   9.759  14.051  1.00  0.00     0.060 A 
BRANCH  98  99
ATOM     99  S   UNL     1      26.876  10.878  14.368  1.00  0.00     0.124 S 
ATOM    100  O   UNL     1      27.867  10.403  13.408  1.00  0.00    -0.237 OA
ATOM    101  O   UNL     1      26.290  12.184  14.080  1.00  0.00    -0.237 OA
ATOM    102  O   UNL     1      27.196  10.636  15.771  1.00  0.00    -0.744 OA
ENDBRANCH  98  99
ENDBRANCH  66  91
ENDBRANCH  40  41
ENDBRANCH  32  35
ENDBRANCH  30  31
ENDBRANCH   1  30
TORSDOF 16
