REMARK SMILES C[C@H]1CC[C@H](C(=O)NCCCCNC(=O)c2ccc(-c3c4nc(c(-c5c(F)cc(S(=O)(=O)[O-])cc5F)c5ccc([nH]5)c(-c5c(F)cc(S(=O)(=O)[O-])cc5F)c5nc(c(-c6c(F)cc(S(=O)(=O)[O-])cc6F)c6ccc3[nH]6)C=C5)C=C4)cc2)[C@H]([N@@H+]2CC[N@H+]3CCC[C@@H]3C2)C1
REMARK SMILES IDX 11 1 10 2 9 3 8 4 6 5 7 6 5 8 1 9 2 10 3 11 92 12 4 13 82 14
REMARK SMILES IDX 83 15 84 16 91 17 85 19 90 20 86 21 89 22 87 23 88 25 12 26
REMARK SMILES IDX 13 27 14 28 15 30 16 31 17 32 81 33 18 34 80 35 19 36 20 37
REMARK SMILES IDX 21 38 74 39 22 40 79 41 73 42 75 43 23 44 78 45 72 46 71 47
REMARK SMILES IDX 24 49 58 50 37 51 57 52 38 53 41 54 56 55 76 56 39 57 40 58
REMARK SMILES IDX 55 60 77 61 42 62 25 63 26 64 35 65 27 66 28 67 34 68 36 69
REMARK SMILES IDX 29 70 30 71 31 72 32 73 33 74 59 75 60 76 69 77 61 78 62 79
REMARK SMILES IDX 68 80 70 81 63 82 64 83 65 84 66 85 67 86 43 87 44 88 53 89
REMARK SMILES IDX 45 90 46 91 52 92 54 93 47 94 48 95 49 96 50 97 51 98
REMARK H PARENT 8 7 83 18 86 24 13 29 75 48 41 59
REMARK Flexibility Score: inf
ROOT
ATOM      1  C   UNL     1      -5.166   1.762   4.113  1.00  0.00     0.023 C 
ENDROOT
BRANCH   1   2
ATOM      2  C   UNL     1      -3.969   2.227   3.256  1.00  0.00     0.023 C 
BRANCH   2   3
ATOM      3  C   UNL     1      -3.192   1.246   2.370  1.00  0.00     0.116 C 
BRANCH   3   4
ATOM      4  N   UNL     1      -3.795   0.848   1.119  1.00  0.00    -0.356 N 
ATOM      5  C   UNL     1      -3.232   0.183   0.067  1.00  0.00     0.229 C 
ATOM      6  O   UNL     1      -4.030  -0.358  -0.714  1.00  0.00    -0.275 OA
ATOM      7  H   UNL     1      -4.743   1.090   1.010  1.00  0.00     0.163 HD
BRANCH   5   8
ATOM      8  C   UNL     1      -1.718   0.090  -0.248  1.00  0.00     0.136 C 
ATOM      9  C   UNL     1       2.607  -0.025  -1.142  1.00  0.00     0.008 C 
ATOM     10  C   UNL     1       1.258   0.142  -0.450  1.00  0.00    -0.008 C 
ATOM     11  C   UNL     1       0.406   1.278  -1.024  1.00  0.00     0.004 C 
ATOM     12  C   UNL     1       0.461  -1.183  -0.416  1.00  0.00     0.069 C 
ATOM     13  C   UNL     1      -0.953   1.420  -0.309  1.00  0.00     0.020 C 
ATOM     14  C   UNL     1      -0.910  -1.109   0.340  1.00  0.00     0.197 C 
BRANCH  14  15
ATOM     15  N   UNL     1      -0.697  -1.162   1.784  1.00  0.00    -0.322 N 
ATOM     16  C   UNL     1      -1.634  -1.874   2.645  1.00  0.00     0.324 C 
ATOM     17  C   UNL     1       0.369  -0.399   2.401  1.00  0.00     0.328 C 
ATOM     18  H   UNL     1      -0.131  -1.959   1.491  1.00  0.00     0.348 HD
ATOM     19  C   UNL     1      -1.715  -1.375   4.139  1.00  0.00     0.324 C 
ATOM     20  C   UNL     1       0.326  -0.225   3.907  1.00  0.00     0.240 C 
ATOM     21  N   UNL     1      -1.063  -0.058   4.320  1.00  0.00    -0.323 N 
ATOM     22  C   UNL     1       0.988   1.067   4.354  1.00  0.00     0.077 C 
ATOM     23  C   UNL     1      -0.993   0.587   5.626  1.00  0.00     0.263 C 
ATOM     24  H   UNL     1      -1.675   0.557   3.784  1.00  0.00     0.348 HD
ATOM     25  C   UNL     1       0.319   1.358   5.676  1.00  0.00     0.068 C 
ENDBRANCH  14  15
ENDBRANCH   5   8
ENDBRANCH   3   4
ENDBRANCH   2   3
ENDBRANCH   1   2
BRANCH   1  26
ATOM     26  C   UNL     1      -5.174   0.429   4.871  1.00  0.00     0.116 C 
BRANCH  26  27
ATOM     27  N   UNL     1      -4.061   0.220   5.777  1.00  0.00    -0.352 N 
ATOM     28  C   UNL     1      -3.963  -0.164   7.100  1.00  0.00     0.251 C 
ATOM     29  H   UNL     1      -3.186   0.388   5.359  1.00  0.00     0.163 HD
ATOM     30  O   UNL     1      -2.904  -0.380   7.652  1.00  0.00    -0.269 OA
BRANCH  28  31
ATOM     31  C   UNL     1      -5.176  -0.285   7.894  1.00  0.00     0.039 A 
ATOM     32  C   UNL     1      -5.271   0.452   9.080  1.00  0.00     0.014 A 
ATOM     33  C   UNL     1      -6.208  -1.088   7.428  1.00  0.00     0.014 A 
ATOM     34  C   UNL     1      -6.483   0.484   9.747  1.00  0.00     0.010 A 
ATOM     35  C   UNL     1      -7.435  -0.981   8.038  1.00  0.00     0.010 A 
ATOM     36  C   UNL     1      -7.578  -0.183   9.186  1.00  0.00    -0.014 A 
BRANCH  36  37
ATOM     37  C   UNL     1      -8.927  -0.065   9.754  1.00  0.00     0.031 A 
ATOM     38  C   UNL     1      -9.587  -1.307  10.259  1.00  0.00     0.074 A 
ATOM     39  C   UNL     1      -9.568   1.111   9.633  1.00  0.00     0.049 A 
ATOM     40  N   UNL     1     -10.835  -1.502  10.576  1.00  0.00    -0.248 NA
ATOM     41  C   UNL     1      -8.740  -2.511  10.351  1.00  0.00     0.031 C 
ATOM     42  C   UNL     1      -8.992   2.342   9.078  1.00  0.00     0.029 A 
ATOM     43  N   UNL     1     -10.854   1.457   9.939  1.00  0.00    -0.354 N 
ATOM     44  C   UNL     1     -10.932  -2.856  10.866  1.00  0.00     0.074 A 
ATOM     45  C   UNL     1      -9.635  -3.446  10.626  1.00  0.00     0.031 C 
ATOM     46  C   UNL     1      -9.919   3.312   9.100  1.00  0.00     0.029 A 
ATOM     47  C   UNL     1     -11.160   2.760   9.626  1.00  0.00     0.049 A 
ATOM     48  H   UNL     1     -11.499   0.834  10.345  1.00  0.00     0.167 HD
ATOM     49  C   UNL     1     -12.013  -3.530  11.316  1.00  0.00     0.037 A 
ATOM     50  C   UNL     1     -12.327   3.418   9.746  1.00  0.00     0.037 A 
ATOM     51  C   UNL     1     -13.270  -2.886  11.580  1.00  0.00     0.049 A 
ATOM     52  C   UNL     1     -13.498   2.658  10.303  1.00  0.00     0.074 A 
ATOM     53  C   UNL     1     -14.422  -3.426  12.116  1.00  0.00     0.029 A 
ATOM     54  N   UNL     1     -13.530  -1.543  11.330  1.00  0.00    -0.354 N 
ATOM     55  N   UNL     1     -13.569   1.391  10.644  1.00  0.00    -0.248 NA
ATOM     56  C   UNL     1     -14.741   3.409  10.502  1.00  0.00     0.031 C 
ATOM     57  C   UNL     1     -15.390  -2.417  12.158  1.00  0.00     0.029 A 
ATOM     58  C   UNL     1     -14.828  -1.236  11.692  1.00  0.00     0.049 A 
ATOM     59  H   UNL     1     -12.884  -0.904  10.951  1.00  0.00     0.167 HD
ATOM     60  C   UNL     1     -14.856   1.198  11.126  1.00  0.00     0.074 A 
ATOM     61  C   UNL     1     -15.523   2.484  11.042  1.00  0.00     0.031 C 
ATOM     62  C   UNL     1     -15.440   0.067  11.596  1.00  0.00     0.037 A 
BRANCH  49  63
ATOM     63  C   UNL     1     -11.866  -5.007  11.552  1.00  0.00     0.058 A 
ATOM     64  C   UNL     1     -11.034  -5.516  12.564  1.00  0.00     0.135 A 
ATOM     65  C   UNL     1     -12.563  -5.931  10.756  1.00  0.00     0.135 A 
ATOM     66  F   UNL     1     -10.324  -4.681  13.339  1.00  0.00    -0.206 F 
ATOM     67  C   UNL     1     -10.873  -6.883  12.757  1.00  0.00     0.059 A 
ATOM     68  C   UNL     1     -12.442  -7.304  10.954  1.00  0.00     0.059 A 
ATOM     69  F   UNL     1     -13.363  -5.503   9.767  1.00  0.00    -0.206 F 
ATOM     70  C   UNL     1     -11.583  -7.770  11.948  1.00  0.00     0.060 A 
BRANCH  70  71
ATOM     71  S   UNL     1     -11.374  -9.541  12.224  1.00  0.00     0.124 S 
ATOM     72  O   UNL     1     -10.035  -9.764  11.688  1.00  0.00    -0.237 OA
ATOM     73  O   UNL     1     -11.501  -9.647  13.674  1.00  0.00    -0.237 OA
ATOM     74  O   UNL     1     -12.464 -10.136  11.457  1.00  0.00    -0.744 OA
ENDBRANCH  70  71
ENDBRANCH  49  63
BRANCH  50  75
ATOM     75  C   UNL     1     -12.415   4.857   9.390  1.00  0.00     0.058 A 
ATOM     76  C   UNL     1     -12.544   5.832  10.390  1.00  0.00     0.135 A 
ATOM     77  C   UNL     1     -12.327   5.297   8.060  1.00  0.00     0.135 A 
ATOM     78  F   UNL     1     -12.623   5.463  11.678  1.00  0.00    -0.206 F 
ATOM     79  C   UNL     1     -12.606   7.188  10.086  1.00  0.00     0.059 A 
ATOM     80  C   UNL     1     -12.363   6.650   7.732  1.00  0.00     0.059 A 
ATOM     81  F   UNL     1     -12.172   4.408   7.066  1.00  0.00    -0.206 F 
ATOM     82  C   UNL     1     -12.514   7.588   8.752  1.00  0.00     0.060 A 
BRANCH  82  83
ATOM     83  S   UNL     1     -12.555   9.354   8.376  1.00  0.00     0.124 S 
ATOM     84  O   UNL     1     -13.955   9.675   8.627  1.00  0.00    -0.237 OA
ATOM     85  O   UNL     1     -11.594   9.893   9.333  1.00  0.00    -0.237 OA
ATOM     86  O   UNL     1     -12.134   9.409   6.979  1.00  0.00    -0.744 OA
ENDBRANCH  82  83
ENDBRANCH  50  75
BRANCH  62  87
ATOM     87  C   UNL     1     -16.852   0.190  12.086  1.00  0.00     0.058 A 
ATOM     88  C   UNL     1     -17.927   0.337  11.197  1.00  0.00     0.135 A 
ATOM     89  C   UNL     1     -17.132   0.099  13.458  1.00  0.00     0.135 A 
ATOM     90  F   UNL     1     -17.705   0.436   9.877  1.00  0.00    -0.206 F 
ATOM     91  C   UNL     1     -19.235   0.412  11.656  1.00  0.00     0.059 A 
ATOM     92  C   UNL     1     -18.435   0.141  13.936  1.00  0.00     0.059 A 
ATOM     93  F   UNL     1     -16.135  -0.054  14.344  1.00  0.00    -0.206 F 
ATOM     94  C   UNL     1     -19.479   0.309  13.027  1.00  0.00     0.060 A 
BRANCH  94  95
ATOM     95  S   UNL     1     -21.186   0.369  13.606  1.00  0.00     0.124 S 
ATOM     96  O   UNL     1     -21.497   1.786  13.451  1.00  0.00    -0.237 OA
ATOM     97  O   UNL     1     -21.861  -0.534  12.679  1.00  0.00    -0.237 OA
ATOM     98  O   UNL     1     -21.095  -0.108  14.982  1.00  0.00    -0.744 OA
ENDBRANCH  94  95
ENDBRANCH  62  87
ENDBRANCH  36  37
ENDBRANCH  28  31
ENDBRANCH  26  27
ENDBRANCH   1  26
TORSDOF 15
