REMARK SMILES CC(C)(Cn1cccc1C[NH3+])C(=O)NCCCCNC(=O)c1ccc(-c2c3nc(c(-c4c(F)cc(S(=O)(=O)[O-])cc4F)c4ccc([nH]4)c(-c4c(F)cc(S(=O)(=O)[O-])cc4F)c4nc(c(-c5c(F)cc(S(=O)(=O)[O-])cc5F)c5ccc2[nH]5)C=C4)C=C3)cc1
REMARK SMILES IDX 16 1 15 2 14 3 12 4 13 5 2 7 1 8 3 9 4 10 5 11 6 12 9 13
REMARK SMILES IDX 7 14 8 15 10 16 11 17 17 21 18 22 19 23 20 24 21 26 22 27
REMARK SMILES IDX 23 28 87 29 24 30 86 31 25 32 26 33 27 34 80 35 28 36 85 37
REMARK SMILES IDX 79 38 81 39 29 40 84 41 78 42 77 43 30 45 64 46 43 47 63 48
REMARK SMILES IDX 44 49 47 50 62 51 82 52 45 53 46 54 61 56 83 57 48 58 31 59
REMARK SMILES IDX 32 60 41 61 33 62 34 63 40 64 42 65 35 66 36 67 37 68 38 69
REMARK SMILES IDX 39 70 65 71 66 72 75 73 67 74 68 75 74 76 76 77 69 78 70 79
REMARK SMILES IDX 71 80 72 81 73 82 49 83 50 84 59 85 51 86 52 87 58 88 60 89
REMARK SMILES IDX 53 90 54 91 55 92 56 93 57 94
REMARK H PARENT 14 6 11 18 11 19 11 20 19 25 81 44 47 55
REMARK Flexibility Score: inf
ROOT
ATOM      1  C   UNL     1      -1.481  -3.261   3.942  1.00  0.00     0.023 C 
ENDROOT
BRANCH   1   2
ATOM      2  C   UNL     1      -0.243  -2.364   3.913  1.00  0.00     0.116 C 
BRANCH   2   3
ATOM      3  N   UNL     1       0.653  -2.678   2.813  1.00  0.00    -0.356 N 
ATOM      4  C   UNL     1       1.033  -2.006   1.690  1.00  0.00     0.227 C 
ATOM      5  O   UNL     1       1.858  -2.580   0.974  1.00  0.00    -0.274 OA
ATOM      6  H   UNL     1       1.075  -3.563   2.896  1.00  0.00     0.163 HD
BRANCH   4   7
ATOM      7  C   UNL     1       0.485  -0.617   1.314  1.00  0.00     0.061 C 
ATOM      8  C   UNL     1       1.128  -0.157  -0.020  1.00  0.00     0.023 C 
ATOM      9  C   UNL     1       0.941   0.415   2.367  1.00  0.00     0.023 C 
BRANCH   7  10
ATOM     10  C   UNL     1      -1.055  -0.626   1.158  1.00  0.00     0.138 C 
BRANCH  10  11
ATOM     11  N   UNL     1      -1.577  -1.392   0.028  1.00  0.00    -0.346 N 
ATOM     12  C   UNL     1      -1.537  -2.767  -0.037  1.00  0.00     0.086 A 
ATOM     13  C   UNL     1      -2.205  -0.910  -1.107  1.00  0.00     0.073 A 
ATOM     14  C   UNL     1      -2.030  -3.166  -1.255  1.00  0.00     0.020 A 
ATOM     15  C   UNL     1      -2.453  -2.003  -1.926  1.00  0.00     0.029 A 
BRANCH  13  16
ATOM     16  C   UNL     1      -2.538   0.517  -1.381  1.00  0.00     0.314 C 
BRANCH  16  17
ATOM     17  N   UNL     1      -1.752   0.997  -2.506  1.00  0.00    -0.353 N 
ATOM     18  H   UNL     1      -0.759   0.921  -2.284  1.00  0.00     0.344 HD
ATOM     19  H   UNL     1      -1.984   1.973  -2.691  1.00  0.00     0.344 HD
ATOM     20  H   UNL     1      -1.960   0.435  -3.331  1.00  0.00     0.344 HD
ENDBRANCH  16  17
ENDBRANCH  13  16
ENDBRANCH  10  11
ENDBRANCH   7  10
ENDBRANCH   4   7
ENDBRANCH   2   3
ENDBRANCH   1   2
BRANCH   1  21
ATOM     21  C   UNL     1      -1.205  -4.750   4.193  1.00  0.00     0.023 C 
BRANCH  21  22
ATOM     22  C   UNL     1      -0.505  -5.053   5.521  1.00  0.00     0.116 C 
BRANCH  22  23
ATOM     23  N   UNL     1      -1.324  -4.640   6.649  1.00  0.00    -0.352 N 
ATOM     24  C   UNL     1      -1.109  -4.771   7.997  1.00  0.00     0.251 C 
ATOM     25  H   UNL     1      -2.168  -4.194   6.406  1.00  0.00     0.163 HD
ATOM     26  O   UNL     1      -2.079  -4.704   8.748  1.00  0.00    -0.269 OA
BRANCH  24  27
ATOM     27  C   UNL     1       0.237  -5.003   8.570  1.00  0.00     0.039 A 
ATOM     28  C   UNL     1       0.328  -5.845   9.687  1.00  0.00     0.014 A 
ATOM     29  C   UNL     1       1.378  -4.336   8.109  1.00  0.00     0.014 A 
ATOM     30  C   UNL     1       1.560  -6.073  10.295  1.00  0.00     0.010 A 
ATOM     31  C   UNL     1       2.618  -4.566   8.713  1.00  0.00     0.010 A 
ATOM     32  C   UNL     1       2.714  -5.460   9.787  1.00  0.00    -0.014 A 
BRANCH  32  33
ATOM     33  C   UNL     1       4.034  -5.987  10.226  1.00  0.00     0.031 A 
ATOM     34  C   UNL     1       4.359  -7.312   9.475  1.00  0.00     0.074 A 
ATOM     35  C   UNL     1       4.706  -5.306  11.211  1.00  0.00     0.049 A 
ATOM     36  N   UNL     1       5.041  -8.349   9.857  1.00  0.00    -0.248 NA
ATOM     37  C   UNL     1       3.753  -7.562   8.132  1.00  0.00     0.031 C 
ATOM     38  C   UNL     1       4.273  -4.011  11.789  1.00  0.00     0.029 A 
ATOM     39  N   UNL     1       5.870  -5.532  11.929  1.00  0.00    -0.354 N 
ATOM     40  C   UNL     1       5.127  -9.248   8.761  1.00  0.00     0.074 A 
ATOM     41  C   UNL     1       4.210  -8.766   7.778  1.00  0.00     0.031 C 
ATOM     42  C   UNL     1       5.089  -3.626  12.798  1.00  0.00     0.029 A 
ATOM     43  C   UNL     1       6.146  -4.603  12.980  1.00  0.00     0.049 A 
ATOM     44  H   UNL     1       6.470  -6.286  11.728  1.00  0.00     0.167 HD
ATOM     45  C   UNL     1       6.054 -10.254   8.689  1.00  0.00     0.037 A 
ATOM     46  C   UNL     1       7.123  -4.644  13.949  1.00  0.00     0.037 A 
ATOM     47  C   UNL     1       6.845 -10.233   9.870  1.00  0.00     0.049 A 
ATOM     48  C   UNL     1       7.977  -5.777  13.570  1.00  0.00     0.074 A 
ATOM     49  C   UNL     1       6.570 -10.572  11.167  1.00  0.00     0.029 A 
ATOM     50  N   UNL     1       7.980  -9.461   9.823  1.00  0.00    -0.354 N 
ATOM     51  N   UNL     1       8.822  -5.778  12.584  1.00  0.00    -0.248 NA
ATOM     52  C   UNL     1       7.809  -7.045  14.295  1.00  0.00     0.031 C 
ATOM     53  C   UNL     1       7.246  -9.577  11.896  1.00  0.00     0.029 A 
ATOM     54  C   UNL     1       8.100  -8.861  11.047  1.00  0.00     0.049 A 
ATOM     55  H   UNL     1       8.589  -9.360   9.057  1.00  0.00     0.167 HD
ATOM     56  C   UNL     1       9.014  -7.120  12.377  1.00  0.00     0.074 A 
ATOM     57  C   UNL     1       8.673  -7.789  13.614  1.00  0.00     0.031 C 
ATOM     58  C   UNL     1       8.850  -7.631  11.131  1.00  0.00     0.037 A 
BRANCH  45  59
ATOM     59  C   UNL     1       6.561 -11.148   7.581  1.00  0.00     0.058 A 
ATOM     60  C   UNL     1       7.353 -12.268   7.955  1.00  0.00     0.135 A 
ATOM     61  C   UNL     1       6.638 -10.768   6.235  1.00  0.00     0.135 A 
ATOM     62  F   UNL     1       7.287 -12.775   9.199  1.00  0.00    -0.206 F 
ATOM     63  C   UNL     1       8.292 -12.845   7.109  1.00  0.00     0.059 A 
ATOM     64  C   UNL     1       7.542 -11.371   5.349  1.00  0.00     0.059 A 
ATOM     65  F   UNL     1       5.901  -9.755   5.761  1.00  0.00    -0.206 F 
ATOM     66  C   UNL     1       8.409 -12.361   5.815  1.00  0.00     0.060 A 
BRANCH  66  67
ATOM     67  S   UNL     1       9.726 -13.029   4.776  1.00  0.00     0.124 S 
ATOM     68  O   UNL     1      10.908 -12.399   5.352  1.00  0.00    -0.237 OA
ATOM     69  O   UNL     1       9.602 -14.466   5.005  1.00  0.00    -0.237 OA
ATOM     70  O   UNL     1       9.354 -12.584   3.436  1.00  0.00    -0.744 OA
ENDBRANCH  66  67
ENDBRANCH  45  59
BRANCH  46  71
ATOM     71  C   UNL     1       7.478  -3.976  15.278  1.00  0.00     0.058 A 
ATOM     72  C   UNL     1       6.911  -2.812  15.812  1.00  0.00     0.135 A 
ATOM     73  C   UNL     1       8.400  -4.613  16.168  1.00  0.00     0.135 A 
ATOM     74  F   UNL     1       6.164  -2.002  15.051  1.00  0.00    -0.206 F 
ATOM     75  C   UNL     1       7.094  -2.429  17.162  1.00  0.00     0.059 A 
ATOM     76  C   UNL     1       8.552  -4.293  17.514  1.00  0.00     0.059 A 
ATOM     77  F   UNL     1       9.198  -5.614  15.771  1.00  0.00    -0.206 F 
ATOM     78  C   UNL     1       7.860  -3.216  18.022  1.00  0.00     0.060 A 
BRANCH  78  79
ATOM     79  S   UNL     1       7.861  -2.943  19.810  1.00  0.00     0.124 S 
ATOM     80  O   UNL     1       8.885  -1.917  19.965  1.00  0.00    -0.237 OA
ATOM     81  O   UNL     1       6.487  -2.518  20.062  1.00  0.00    -0.237 OA
ATOM     82  O   UNL     1       8.201  -4.258  20.348  1.00  0.00    -0.744 OA
ENDBRANCH  78  79
ENDBRANCH  46  71
BRANCH  58  83
ATOM     83  C   UNL     1       9.151  -6.682   9.989  1.00  0.00     0.058 A 
ATOM     84  C   UNL     1      10.466  -6.229   9.798  1.00  0.00     0.135 A 
ATOM     85  C   UNL     1       8.186  -6.158   9.111  1.00  0.00     0.135 A 
ATOM     86  F   UNL     1      11.448  -6.678  10.596  1.00  0.00    -0.206 F 
ATOM     87  C   UNL     1      10.806  -5.327   8.786  1.00  0.00     0.059 A 
ATOM     88  C   UNL     1       8.498  -5.257   8.086  1.00  0.00     0.059 A 
ATOM     89  F   UNL     1       6.904  -6.505   9.228  1.00  0.00    -0.206 F 
ATOM     90  C   UNL     1       9.817  -4.851   7.926  1.00  0.00     0.060 A 
BRANCH  90  91
ATOM     91  S   UNL     1      10.287  -3.720   6.596  1.00  0.00     0.124 S 
ATOM     92  O   UNL     1      10.887  -2.607   7.326  1.00  0.00    -0.237 OA
ATOM     93  O   UNL     1      11.213  -4.535   5.817  1.00  0.00    -0.237 OA
ATOM     94  O   UNL     1       9.019  -3.414   5.936  1.00  0.00    -0.744 OA
ENDBRANCH  90  91
ENDBRANCH  58  83
ENDBRANCH  32  33
ENDBRANCH  24  27
ENDBRANCH  22  23
ENDBRANCH  21  22
ENDBRANCH   1  21
TORSDOF 18
