REMARK SMILES CCC[N@@H+]1CC2(CCN(c3nccnc3C)CC2)C[C@H]1C(=O)NCCCCNC(=O)c1ccc(-c2c3nc(c(-c4c(F)cc(S(=O)(=O)[O-])cc4F)c4ccc([nH]4)c(-c4c(F)cc(S(=O)(=O)[O-])cc4F)c4nc(c(-c5c(F)cc(S(=O)(=O)[O-])cc5F)c5ccc2[nH]5)C=C4)C=C3)cc1
REMARK SMILES IDX 26 1 25 2 24 3 23 4 21 5 22 6 20 8 4 9 5 10 6 12 19 13 7 14
REMARK SMILES IDX 18 15 8 16 17 17 9 18 3 19 2 20 1 21 10 22 11 23 15 24 12 25
REMARK SMILES IDX 14 26 16 27 13 28 27 29 28 30 29 31 30 33 31 34 32 35 96 36
REMARK SMILES IDX 33 37 95 38 34 39 35 40 36 41 89 42 37 43 94 44 88 45 90 46
REMARK SMILES IDX 38 47 93 48 87 49 86 50 39 52 73 53 52 54 72 55 53 56 56 57
REMARK SMILES IDX 71 58 91 59 54 60 55 61 70 63 92 64 57 65 40 66 41 67 50 68
REMARK SMILES IDX 42 69 43 70 49 71 51 72 44 73 45 74 46 75 47 76 48 77 74 78
REMARK SMILES IDX 75 79 84 80 76 81 77 82 83 83 85 84 78 85 79 86 80 87 81 88
REMARK SMILES IDX 82 89 58 90 59 91 68 92 60 93 61 94 67 95 69 96 62 97 63 98
REMARK SMILES IDX 64 99 65 100 66 101
REMARK H PARENT 23 7 4 11 28 32 90 51 56 62
REMARK Flexibility Score: inf
ROOT
ATOM      1  C   UNL     1      -3.146   4.326   3.268  1.00  0.00     0.023 C 
ENDROOT
BRANCH   1   2
ATOM      2  C   UNL     1      -2.052   3.287   3.023  1.00  0.00     0.023 C 
BRANCH   2   3
ATOM      3  C   UNL     1      -0.686   3.662   3.603  1.00  0.00     0.116 C 
BRANCH   3   4
ATOM      4  N   UNL     1      -0.224   2.772   4.640  1.00  0.00    -0.351 N 
ATOM      5  C   UNL     1       0.717   1.791   4.645  1.00  0.00     0.278 C 
ATOM      6  O   UNL     1       0.974   1.309   5.759  1.00  0.00    -0.268 OA
ATOM      7  H   UNL     1      -0.674   2.900   5.506  1.00  0.00     0.163 HD
BRANCH   5   8
ATOM      8  C   UNL     1       1.472   1.249   3.401  1.00  0.00     0.274 C 
ATOM      9  N   UNL     1       0.562   0.571   2.439  1.00  0.00    -0.324 N 
ATOM     10  C   UNL     1       0.519   1.414   1.240  1.00  0.00     0.270 C 
ATOM     11  H   UNL     1      -0.400   0.472   2.763  1.00  0.00     0.348 HD
ATOM     12  C   UNL     1       1.833   2.206   1.148  1.00  0.00     0.029 C 
ATOM     13  C   UNL     1       2.367   2.189   2.599  1.00  0.00     0.088 C 
ATOM     14  C   UNL     1       1.674   3.685   0.703  1.00  0.00     0.034 C 
ATOM     15  C   UNL     1       2.784   1.513   0.124  1.00  0.00     0.034 C 
ATOM     16  C   UNL     1       1.186   3.820  -0.727  1.00  0.00     0.119 C 
ATOM     17  C   UNL     1       2.328   1.723  -1.342  1.00  0.00     0.119 C 
ATOM     18  N   UNL     1       2.171   3.149  -1.552  1.00  0.00    -0.355 N 
BRANCH   9  19
ATOM     19  C   UNL     1       1.033  -0.815   2.245  1.00  0.00     0.262 C 
BRANCH  19  20
ATOM     20  C   UNL     1       0.223  -1.698   1.287  1.00  0.00     0.058 C 
ATOM     21  C   UNL     1       0.875  -1.867  -0.079  1.00  0.00     0.010 C 
ENDBRANCH  19  20
ENDBRANCH   9  19
BRANCH  18  22
ATOM     22  C   UNL     1       2.345   3.684  -2.814  1.00  0.00     0.150 A 
ATOM     23  N   UNL     1       1.709   3.114  -3.862  1.00  0.00    -0.236 NA
ATOM     24  C   UNL     1       3.151   4.832  -2.994  1.00  0.00     0.080 A 
ATOM     25  C   UNL     1       1.853   3.740  -5.053  1.00  0.00     0.133 A 
ATOM     26  N   UNL     1       3.304   5.440  -4.201  1.00  0.00    -0.256 NA
ATOM     27  C   UNL     1       3.883   5.448  -1.836  1.00  0.00     0.071 C 
ATOM     28  C   UNL     1       2.629   4.873  -5.220  1.00  0.00     0.131 A 
ENDBRANCH  18  22
ENDBRANCH   5   8
ENDBRANCH   3   4
ENDBRANCH   2   3
ENDBRANCH   1   2
BRANCH   1  29
ATOM     29  C   UNL     1      -2.890   5.709   2.670  1.00  0.00     0.116 C 
BRANCH  29  30
ATOM     30  N   UNL     1      -2.791   5.733   1.218  1.00  0.00    -0.352 N 
ATOM     31  C   UNL     1      -3.179   6.738   0.350  1.00  0.00     0.251 C 
ATOM     32  H   UNL     1      -2.399   4.933   0.801  1.00  0.00     0.163 HD
ATOM     33  O   UNL     1      -3.072   6.586  -0.853  1.00  0.00    -0.269 OA
BRANCH  31  34
ATOM     34  C   UNL     1      -3.780   7.977   0.904  1.00  0.00     0.039 A 
ATOM     35  C   UNL     1      -5.006   8.412   0.393  1.00  0.00     0.014 A 
ATOM     36  C   UNL     1      -3.181   8.660   1.965  1.00  0.00     0.014 A 
ATOM     37  C   UNL     1      -5.675   9.471   1.012  1.00  0.00     0.010 A 
ATOM     38  C   UNL     1      -3.883   9.665   2.627  1.00  0.00     0.010 A 
ATOM     39  C   UNL     1      -5.144  10.072   2.167  1.00  0.00    -0.014 A 
BRANCH  39  40
ATOM     40  C   UNL     1      -5.926  11.089   2.922  1.00  0.00     0.031 A 
ATOM     41  C   UNL     1      -5.423  12.500   3.062  1.00  0.00     0.074 A 
ATOM     42  C   UNL     1      -7.069  10.719   3.535  1.00  0.00     0.049 A 
ATOM     43  N   UNL     1      -5.979  13.515   3.671  1.00  0.00    -0.248 NA
ATOM     44  C   UNL     1      -4.113  12.803   2.466  1.00  0.00     0.031 C 
ATOM     45  C   UNL     1      -7.619   9.361   3.553  1.00  0.00     0.029 A 
ATOM     46  N   UNL     1      -7.976  11.450   4.262  1.00  0.00    -0.354 N 
ATOM     47  C   UNL     1      -5.087  14.573   3.540  1.00  0.00     0.074 A 
ATOM     48  C   UNL     1      -3.927  14.060   2.843  1.00  0.00     0.031 C 
ATOM     49  C   UNL     1      -8.783   9.364   4.223  1.00  0.00     0.029 A 
ATOM     50  C   UNL     1      -9.053  10.716   4.702  1.00  0.00     0.049 A 
ATOM     51  H   UNL     1      -7.865  12.409   4.452  1.00  0.00     0.167 HD
ATOM     52  C   UNL     1      -5.232  15.860   3.937  1.00  0.00     0.037 A 
ATOM     53  C   UNL     1     -10.141  11.090   5.403  1.00  0.00     0.037 A 
ATOM     54  C   UNL     1      -6.401  16.374   4.604  1.00  0.00     0.049 A 
ATOM     55  C   UNL     1     -10.302  12.534   5.791  1.00  0.00     0.074 A 
ATOM     56  C   UNL     1      -6.678  17.678   4.974  1.00  0.00     0.029 A 
ATOM     57  N   UNL     1      -7.486  15.607   5.002  1.00  0.00    -0.354 N 
ATOM     58  N   UNL     1      -9.490  13.540   5.573  1.00  0.00    -0.248 NA
ATOM     59  C   UNL     1     -11.533  12.895   6.507  1.00  0.00     0.031 C 
ATOM     60  C   UNL     1      -7.915  17.695   5.629  1.00  0.00     0.029 A 
ATOM     61  C   UNL     1      -8.427  16.407   5.630  1.00  0.00     0.049 A 
ATOM     62  H   UNL     1      -7.575  14.637   4.859  1.00  0.00     0.167 HD
ATOM     63  C   UNL     1     -10.118  14.658   6.112  1.00  0.00     0.074 A 
ATOM     64  C   UNL     1     -11.388  14.206   6.644  1.00  0.00     0.031 C 
ATOM     65  C   UNL     1      -9.682  15.941   6.164  1.00  0.00     0.037 A 
BRANCH  52  66
ATOM     66  C   UNL     1      -4.102  16.809   3.644  1.00  0.00     0.058 A 
ATOM     67  C   UNL     1      -3.820  17.232   2.334  1.00  0.00     0.135 A 
ATOM     68  C   UNL     1      -3.312  17.327   4.682  1.00  0.00     0.135 A 
ATOM     69  F   UNL     1      -4.535  16.756   1.302  1.00  0.00    -0.206 F 
ATOM     70  C   UNL     1      -2.776  18.109   2.061  1.00  0.00     0.059 A 
ATOM     71  C   UNL     1      -2.279  18.227   4.435  1.00  0.00     0.059 A 
ATOM     72  F   UNL     1      -3.538  16.957   5.953  1.00  0.00    -0.206 F 
ATOM     73  C   UNL     1      -2.009  18.599   3.119  1.00  0.00     0.060 A 
BRANCH  73  74
ATOM     74  S   UNL     1      -0.659  19.739   2.748  1.00  0.00     0.124 S 
ATOM     75  O   UNL     1       0.340  18.834   2.188  1.00  0.00    -0.237 OA
ATOM     76  O   UNL     1      -1.278  20.662   1.802  1.00  0.00    -0.237 OA
ATOM     77  O   UNL     1      -0.329  20.310   4.050  1.00  0.00    -0.744 OA
ENDBRANCH  73  74
ENDBRANCH  52  66
BRANCH  53  78
ATOM     78  C   UNL     1     -11.186  10.088   5.743  1.00  0.00     0.058 A 
ATOM     79  C   UNL     1     -12.431  10.098   5.096  1.00  0.00     0.135 A 
ATOM     80  C   UNL     1     -10.958   9.094   6.707  1.00  0.00     0.135 A 
ATOM     81  F   UNL     1     -12.698  11.032   4.171  1.00  0.00    -0.206 F 
ATOM     82  C   UNL     1     -13.420   9.168   5.403  1.00  0.00     0.059 A 
ATOM     83  C   UNL     1     -11.922   8.140   7.015  1.00  0.00     0.059 A 
ATOM     84  F   UNL     1      -9.776   9.031   7.340  1.00  0.00    -0.206 F 
ATOM     85  C   UNL     1     -13.155   8.191   6.364  1.00  0.00     0.060 A 
BRANCH  85  86
ATOM     86  S   UNL     1     -14.424   6.955   6.718  1.00  0.00     0.124 S 
ATOM     87  O   UNL     1     -15.365   7.723   7.524  1.00  0.00    -0.237 OA
ATOM     88  O   UNL     1     -14.878   6.589   5.380  1.00  0.00    -0.237 OA
ATOM     89  O   UNL     1     -13.685   5.913   7.426  1.00  0.00    -0.744 OA
ENDBRANCH  85  86
ENDBRANCH  53  78
BRANCH  65  90
ATOM     90  C   UNL     1     -10.593  16.946   6.812  1.00  0.00     0.058 A 
ATOM     91  C   UNL     1     -10.785  16.973   8.202  1.00  0.00     0.135 A 
ATOM     92  C   UNL     1     -11.265  17.904   6.037  1.00  0.00     0.135 A 
ATOM     93  F   UNL     1     -10.168  16.075   8.987  1.00  0.00    -0.206 F 
ATOM     94  C   UNL     1     -11.640  17.893   8.799  1.00  0.00     0.059 A 
ATOM     95  C   UNL     1     -12.105  18.850   6.616  1.00  0.00     0.059 A 
ATOM     96  F   UNL     1     -11.107  17.930   4.704  1.00  0.00    -0.206 F 
ATOM     97  C   UNL     1     -12.300  18.825   7.997  1.00  0.00     0.060 A 
BRANCH  97  98
ATOM     98  S   UNL     1     -13.404  20.019   8.781  1.00  0.00     0.124 S 
ATOM     99  O   UNL     1     -14.582  19.199   9.044  1.00  0.00    -0.237 OA
ATOM    100  O   UNL     1     -12.642  20.428   9.957  1.00  0.00    -0.237 OA
ATOM    101  O   UNL     1     -13.569  21.049   7.760  1.00  0.00    -0.744 OA
ENDBRANCH  97  98
ENDBRANCH  65  90
ENDBRANCH  39  40
ENDBRANCH  31  34
ENDBRANCH  29  30
ENDBRANCH   1  29
TORSDOF 17
