REMARK SMILES O=C(NCCCCNC(=O)c1cc(Cl)ccc1NC(=O)c1ccc2c(c1)C(=O)N(Cc1ccco1)C2=O)c1ccc(-c2c3nc(c(-c4c(F)cc(S(=O)(=O)[O-])cc4F)c4ccc([nH]4)c(-c4c(F)cc(S(=O)(=O)[O-])cc4F)c4nc(c(-c5c(F)cc(S(=O)(=O)[O-])cc5F)c5ccc2[nH]5)C=C4)C=C3)cc1
REMARK SMILES IDX 6 1 5 2 4 3 3 4 1 5 2 6 38 8 39 9 103 10 40 11 102 12 41 13
REMARK SMILES IDX 42 14 43 15 96 16 44 17 101 18 95 19 97 20 45 21 100 22
REMARK SMILES IDX 94 23 93 24 46 26 80 27 59 28 79 29 60 30 63 31 78 32 98 33
REMARK SMILES IDX 61 34 62 35 77 37 99 38 64 39 47 40 48 41 57 42 49 43 50 44
REMARK SMILES IDX 56 45 58 46 51 47 52 48 53 49 54 50 55 51 81 52 82 53 91 54
REMARK SMILES IDX 83 55 84 56 90 57 92 58 85 59 86 60 87 61 88 62 89 63 65 64
REMARK SMILES IDX 66 65 75 66 67 67 68 68 74 69 76 70 69 71 70 72 71 73 72 74
REMARK SMILES IDX 73 75 7 76 8 77 9 78 10 80 11 81 12 82 17 83 13 84 16 85
REMARK SMILES IDX 14 86 15 87 18 88 19 89 20 91 21 92 22 93 26 94 23 95 25 96
REMARK SMILES IDX 24 97 27 98 36 99 28 100 29 101 37 102 30 103 31 104 32 105
REMARK SMILES IDX 35 106 33 107 34 108
REMARK H PARENT 3 7 97 25 63 36 8 79 18 90
REMARK Flexibility Score: inf
ROOT
ATOM      1  C   UNL     1       4.405  -3.302  -1.765  1.00  0.00     0.023 C 
ENDROOT
BRANCH   1   2
ATOM      2  C   UNL     1       4.854  -2.395  -0.626  1.00  0.00     0.023 C 
BRANCH   2   3
ATOM      3  C   UNL     1       4.497  -0.925  -0.796  1.00  0.00     0.116 C 
BRANCH   3   4
ATOM      4  N   UNL     1       3.062  -0.676  -0.834  1.00  0.00    -0.352 N 
ATOM      5  O   UNL     1       1.072   0.130  -0.133  1.00  0.00    -0.269 OA
ATOM      6  C   UNL     1       2.294   0.133  -0.025  1.00  0.00     0.251 C 
ATOM      7  H   UNL     1       2.570  -1.154  -1.540  1.00  0.00     0.163 HD
BRANCH   6   8
ATOM      8  C   UNL     1       2.953   0.970   1.003  1.00  0.00     0.039 A 
ATOM      9  C   UNL     1       4.109   1.685   0.692  1.00  0.00     0.014 A 
ATOM     10  C   UNL     1       2.446   0.989   2.305  1.00  0.00     0.014 A 
ATOM     11  C   UNL     1       4.874   2.226   1.715  1.00  0.00     0.010 A 
ATOM     12  C   UNL     1       3.158   1.647   3.314  1.00  0.00     0.010 A 
ATOM     13  C   UNL     1       4.408   2.222   3.040  1.00  0.00    -0.014 A 
BRANCH  13  14
ATOM     14  C   UNL     1       5.241   2.854   4.100  1.00  0.00     0.031 A 
ATOM     15  C   UNL     1       5.765   2.057   5.268  1.00  0.00     0.074 A 
ATOM     16  C   UNL     1       5.569   4.155   3.972  1.00  0.00     0.049 A 
ATOM     17  N   UNL     1       6.544   2.446   6.246  1.00  0.00    -0.248 NA
ATOM     18  C   UNL     1       5.358   0.646   5.359  1.00  0.00     0.031 C 
ATOM     19  C   UNL     1       5.117   5.034   2.889  1.00  0.00     0.029 A 
ATOM     20  N   UNL     1       6.376   4.962   4.733  1.00  0.00    -0.354 N 
ATOM     21  C   UNL     1       6.699   1.343   7.079  1.00  0.00     0.074 A 
ATOM     22  C   UNL     1       5.910   0.274   6.506  1.00  0.00     0.031 C 
ATOM     23  C   UNL     1       5.701   6.233   3.019  1.00  0.00     0.029 A 
ATOM     24  C   UNL     1       6.505   6.237   4.234  1.00  0.00     0.049 A 
ATOM     25  H   UNL     1       6.820   4.657   5.557  1.00  0.00     0.167 HD
ATOM     26  C   UNL     1       7.436   1.231   8.212  1.00  0.00     0.037 A 
ATOM     27  C   UNL     1       7.181   7.300   4.706  1.00  0.00     0.037 A 
ATOM     28  C   UNL     1       8.233   2.300   8.765  1.00  0.00     0.049 A 
ATOM     29  C   UNL     1       7.969   7.155   5.976  1.00  0.00     0.074 A 
ATOM     30  C   UNL     1       9.049   2.274   9.883  1.00  0.00     0.029 A 
ATOM     31  N   UNL     1       8.307   3.587   8.251  1.00  0.00    -0.354 N 
ATOM     32  N   UNL     1       8.133   6.092   6.727  1.00  0.00    -0.248 NA
ATOM     33  C   UNL     1       8.665   8.352   6.462  1.00  0.00     0.031 C 
ATOM     34  C   UNL     1       9.563   3.559  10.082  1.00  0.00     0.029 A 
ATOM     35  C   UNL     1       9.130   4.370   9.046  1.00  0.00     0.049 A 
ATOM     36  H   UNL     1       7.843   3.899   7.440  1.00  0.00     0.167 HD
ATOM     37  C   UNL     1       8.979   6.485   7.758  1.00  0.00     0.074 A 
ATOM     38  C   UNL     1       9.301   7.878   7.524  1.00  0.00     0.031 C 
ATOM     39  C   UNL     1       9.449   5.756   8.801  1.00  0.00     0.037 A 
BRANCH  26  40
ATOM     40  C   UNL     1       7.399  -0.081   8.954  1.00  0.00     0.058 A 
ATOM     41  C   UNL     1       7.986  -1.249   8.441  1.00  0.00     0.135 A 
ATOM     42  C   UNL     1       6.805  -0.158  10.226  1.00  0.00     0.135 A 
ATOM     43  F   UNL     1       8.558  -1.242   7.227  1.00  0.00    -0.206 F 
ATOM     44  C   UNL     1       7.957  -2.450   9.146  1.00  0.00     0.059 A 
ATOM     45  C   UNL     1       6.793  -1.340  10.962  1.00  0.00     0.059 A 
ATOM     46  F   UNL     1       6.231   0.927  10.771  1.00  0.00    -0.206 F 
ATOM     47  C   UNL     1       7.358  -2.485  10.406  1.00  0.00     0.060 A 
BRANCH  47  48
ATOM     48  S   UNL     1       7.327  -4.051  11.305  1.00  0.00     0.124 S 
ATOM     49  O   UNL     1       6.366  -4.819  10.518  1.00  0.00    -0.237 OA
ATOM     50  O   UNL     1       8.716  -4.491  11.212  1.00  0.00    -0.237 OA
ATOM     51  O   UNL     1       6.880  -3.671  12.641  1.00  0.00    -0.744 OA
ENDBRANCH  47  48
ENDBRANCH  26  40
BRANCH  27  52
ATOM     52  C   UNL     1       7.140   8.591   3.969  1.00  0.00     0.058 A 
ATOM     53  C   UNL     1       8.286   9.105   3.344  1.00  0.00     0.135 A 
ATOM     54  C   UNL     1       5.950   9.329   3.860  1.00  0.00     0.135 A 
ATOM     55  F   UNL     1       9.448   8.440   3.422  1.00  0.00    -0.206 F 
ATOM     56  C   UNL     1       8.259  10.313   2.656  1.00  0.00     0.059 A 
ATOM     57  C   UNL     1       5.890  10.521   3.148  1.00  0.00     0.059 A 
ATOM     58  F   UNL     1       4.820   8.871   4.422  1.00  0.00    -0.206 F 
ATOM     59  C   UNL     1       7.054  11.012   2.560  1.00  0.00     0.060 A 
BRANCH  59  60
ATOM     60  S   UNL     1       7.023  12.558   1.629  1.00  0.00     0.124 S 
ATOM     61  O   UNL     1       7.769  13.447   2.511  1.00  0.00    -0.237 OA
ATOM     62  O   UNL     1       7.691  12.179   0.387  1.00  0.00    -0.237 OA
ATOM     63  O   UNL     1       5.597  12.845   1.502  1.00  0.00    -0.744 OA
ENDBRANCH  59  60
ENDBRANCH  27  52
BRANCH  39  64
ATOM     64  C   UNL     1      10.408   6.438   9.741  1.00  0.00     0.058 A 
ATOM     65  C   UNL     1      10.002   7.463  10.609  1.00  0.00     0.135 A 
ATOM     66  C   UNL     1      11.755   6.040   9.784  1.00  0.00     0.135 A 
ATOM     67  F   UNL     1       8.729   7.888  10.606  1.00  0.00    -0.206 F 
ATOM     68  C   UNL     1      10.904   8.097  11.458  1.00  0.00     0.059 A 
ATOM     69  C   UNL     1      12.666   6.634  10.650  1.00  0.00     0.059 A 
ATOM     70  F   UNL     1      12.197   5.057   8.983  1.00  0.00    -0.206 F 
ATOM     71  C   UNL     1      12.235   7.675  11.471  1.00  0.00     0.060 A 
BRANCH  71  72
ATOM     72  S   UNL     1      13.393   8.497  12.585  1.00  0.00     0.124 S 
ATOM     73  O   UNL     1      13.562   9.791  11.932  1.00  0.00    -0.237 OA
ATOM     74  O   UNL     1      12.656   8.513  13.845  1.00  0.00    -0.237 OA
ATOM     75  O   UNL     1      14.564   7.625  12.562  1.00  0.00    -0.744 OA
ENDBRANCH  71  72
ENDBRANCH  39  64
ENDBRANCH  13  14
ENDBRANCH   6   8
ENDBRANCH   3   4
ENDBRANCH   2   3
ENDBRANCH   1   2
BRANCH   1  76
ATOM     76  C   UNL     1       4.831  -2.846  -3.157  1.00  0.00     0.116 C 
BRANCH  76  77
ATOM     77  N   UNL     1       6.279  -2.796  -3.326  1.00  0.00    -0.352 N 
ATOM     78  C   UNL     1       7.063  -3.463  -4.237  1.00  0.00     0.253 C 
ATOM     79  H   UNL     1       6.760  -2.204  -2.704  1.00  0.00     0.163 HD
ATOM     80  O   UNL     1       8.286  -3.450  -4.158  1.00  0.00    -0.269 OA
BRANCH  78  81
ATOM     81  C   UNL     1       6.404  -4.272  -5.280  1.00  0.00     0.064 A 
ATOM     82  C   UNL     1       5.451  -3.647  -6.102  1.00  0.00     0.036 A 
ATOM     83  C   UNL     1       6.666  -5.649  -5.382  1.00  0.00     0.054 A 
ATOM     84  C   UNL     1       4.636  -4.421  -6.914  1.00  0.00     0.041 A 
ATOM     85  C   UNL     1       5.739  -6.409  -6.102  1.00  0.00     0.028 A 
ATOM     86  Cl  UNL     1       3.432  -3.677  -7.886  1.00  0.00    -0.084 Cl
ATOM     87  C   UNL     1       4.745  -5.805  -6.881  1.00  0.00     0.023 A 
BRANCH  83  88
ATOM     88  N   UNL     1       7.830  -6.192  -4.774  1.00  0.00    -0.321 N 
ATOM     89  C   UNL     1       8.523  -7.371  -4.978  1.00  0.00     0.255 C 
ATOM     90  H   UNL     1       8.216  -5.620  -4.072  1.00  0.00     0.170 HD
ATOM     91  O   UNL     1       9.460  -7.703  -4.258  1.00  0.00    -0.269 OA
BRANCH  89  92
ATOM     92  C   UNL     1       8.163  -8.266  -6.093  1.00  0.00     0.041 A 
ATOM     93  C   UNL     1       7.682  -9.554  -5.760  1.00  0.00     0.015 A 
ATOM     94  C   UNL     1       8.116  -7.773  -7.407  1.00  0.00     0.028 A 
ATOM     95  C   UNL     1       6.998 -10.312  -6.710  1.00  0.00     0.015 A 
ATOM     96  C   UNL     1       7.408  -8.534  -8.313  1.00  0.00     0.054 A 
ATOM     97  C   UNL     1       6.837  -9.746  -7.962  1.00  0.00     0.053 A 
ATOM     98  C   UNL     1       6.914  -8.182  -9.646  1.00  0.00     0.261 C 
ATOM     99  C   UNL     1       5.952 -10.145  -9.050  1.00  0.00     0.261 C 
ATOM    100  O   UNL     1       7.164  -7.136 -10.206  1.00  0.00    -0.269 OA
ATOM    101  N   UNL     1       6.083  -9.199 -10.026  1.00  0.00    -0.267 N 
ATOM    102  O   UNL     1       5.202 -11.103  -8.992  1.00  0.00    -0.269 OA
BRANCH 101 103
ATOM    103  C   UNL     1       5.329  -9.209 -11.261  1.00  0.00     0.204 C 
BRANCH 103 104
ATOM    104  C   UNL     1       5.857 -10.291 -12.131  1.00  0.00     0.123 A 
ATOM    105  C   UNL     1       5.737 -11.666 -12.101  1.00  0.00     0.047 A 
ATOM    106  O   UNL     1       6.659  -9.917 -13.168  1.00  0.00    -0.467 OA
ATOM    107  C   UNL     1       6.532 -12.160 -13.159  1.00  0.00     0.042 A 
ATOM    108  C   UNL     1       7.064 -11.057 -13.784  1.00  0.00     0.195 A 
ENDBRANCH 103 104
ENDBRANCH 101 103
ENDBRANCH  89  92
ENDBRANCH  83  88
ENDBRANCH  78  81
ENDBRANCH  76  77
ENDBRANCH   1  76
TORSDOF 18
