REMARK SMILES C[NH2+][C@@]1(C(=O)NCCCCNC(=O)c2ccc(-c3c4nc(c(-c5c(F)cc(S(=O)(=O)[O-])cc5F)c5ccc([nH]5)c(-c5c(F)cc(S(=O)(=O)[O-])cc5F)c5nc(c(-c6c(F)cc(S(=O)(=O)[O-])cc6F)c6ccc3[nH]6)C=C5)C=C4)cc2)CC[C@H]([NH+]2CC[NH+](C)CC2)C1
REMARK SMILES IDX 9 1 8 2 7 3 6 4 4 5 5 6 3 8 80 9 90 10 81 11 82 12 2 13 1 14
REMARK SMILES IDX 83 17 84 18 89 19 85 21 88 22 86 23 87 24 10 26 11 27 12 28
REMARK SMILES IDX 13 30 14 31 15 32 79 33 16 34 78 35 17 36 18 37 19 38 72 39
REMARK SMILES IDX 20 40 77 41 71 42 73 43 21 44 76 45 70 46 69 47 22 49 56 50
REMARK SMILES IDX 35 51 55 52 36 53 39 54 54 55 74 56 37 57 38 58 53 60 75 61
REMARK SMILES IDX 40 62 23 63 24 64 33 65 25 66 26 67 32 68 34 69 27 70 28 71
REMARK SMILES IDX 29 72 30 73 31 74 57 75 58 76 67 77 59 78 60 79 66 80 68 81
REMARK SMILES IDX 61 82 62 83 63 84 64 85 65 86 41 87 42 88 51 89 43 90 44 91
REMARK SMILES IDX 50 92 52 93 45 94 46 95 47 96 48 97 49 98
REMARK H PARENT 6 7 2 15 2 16 83 20 86 25 11 29 73 48 39 59
REMARK Flexibility Score: inf
ROOT
ATOM      1  C   UNL     1      -5.950  -0.291   2.325  1.00  0.00     0.023 C 
ENDROOT
BRANCH   1   2
ATOM      2  C   UNL     1      -5.171   0.498   1.036  1.00  0.00     0.023 C 
BRANCH   2   3
ATOM      3  C   UNL     1      -3.709   1.989   0.706  1.00  0.00     0.116 C 
BRANCH   3   4
ATOM      4  N   UNL     1      -2.211   2.209   1.262  1.00  0.00    -0.351 N 
ATOM      5  C   UNL     1      -0.923   1.929   0.940  1.00  0.00     0.281 C 
ATOM      6  O   UNL     1      -0.089   2.341   1.765  1.00  0.00    -0.268 OA
ATOM      7  H   UNL     1      -2.241   2.708   2.110  1.00  0.00     0.163 HD
BRANCH   5   8
ATOM      8  C   UNL     1      -0.430   1.217  -0.358  1.00  0.00     0.181 C 
ATOM      9  C   UNL     1      -0.930   2.035  -1.554  1.00  0.00     0.085 C 
ATOM     10  C   UNL     1      -0.973  -0.198  -0.589  1.00  0.00     0.144 C 
ATOM     11  C   UNL     1      -2.002   1.174  -2.210  1.00  0.00     0.072 C 
ATOM     12  C   UNL     1      -2.326   0.006  -1.242  1.00  0.00     0.191 C 
BRANCH   8  13
ATOM     13  N   UNL     1       1.069   1.301  -0.372  1.00  0.00    -0.336 N 
ATOM     14  C   UNL     1       1.760   0.105   0.092  1.00  0.00     0.331 C 
ATOM     15  H   UNL     1       1.366   1.486  -1.330  1.00  0.00     0.346 HD
ATOM     16  H   UNL     1       1.318   2.045   0.281  1.00  0.00     0.346 HD
ENDBRANCH   8  13
BRANCH  12  17
ATOM     17  N   UNL     1      -3.440   0.160  -0.314  1.00  0.00    -0.323 N 
ATOM     18  C   UNL     1      -4.852   1.117  -1.000  1.00  0.00     0.324 C 
ATOM     19  C   UNL     1      -3.199   0.101   1.542  1.00  0.00     0.324 C 
ATOM     20  H   UNL     1      -3.755  -0.809  -0.267  1.00  0.00     0.348 HD
ATOM     21  C   UNL     1      -5.745   2.447   0.109  1.00  0.00     0.324 C 
ATOM     22  C   UNL     1      -4.151   1.434   2.668  1.00  0.00     0.324 C 
ATOM     23  N   UNL     1      -5.540   2.405   1.930  1.00  0.00    -0.328 N 
ATOM     24  C   UNL     1      -5.688   3.739   2.503  1.00  0.00     0.333 C 
ATOM     25  H   UNL     1      -6.316   1.811   2.220  1.00  0.00     0.348 HD
ENDBRANCH  12  17
ENDBRANCH   5   8
ENDBRANCH   3   4
ENDBRANCH   2   3
ENDBRANCH   1   2
BRANCH   1  26
ATOM     26  C   UNL     1      -7.161   0.371   2.999  1.00  0.00     0.116 C 
BRANCH  26  27
ATOM     27  N   UNL     1      -8.178   0.831   2.059  1.00  0.00    -0.352 N 
ATOM     28  C   UNL     1      -9.379   1.427   2.333  1.00  0.00     0.251 C 
ATOM     29  H   UNL     1      -7.974   0.696   1.105  1.00  0.00     0.163 HD
ATOM     30  O   UNL     1     -10.136   1.786   1.438  1.00  0.00    -0.269 OA
BRANCH  28  31
ATOM     31  C   UNL     1      -9.764   1.555   3.743  1.00  0.00     0.039 A 
ATOM     32  C   UNL     1     -10.850   0.808   4.200  1.00  0.00     0.014 A 
ATOM     33  C   UNL     1      -8.978   2.309   4.616  1.00  0.00     0.014 A 
ATOM     34  C   UNL     1     -11.117   0.773   5.564  1.00  0.00     0.010 A 
ATOM     35  C   UNL     1      -9.201   2.214   5.981  1.00  0.00     0.010 A 
ATOM     36  C   UNL     1     -10.275   1.449   6.462  1.00  0.00    -0.014 A 
BRANCH  36  37
ATOM     37  C   UNL     1     -10.521   1.373   7.918  1.00  0.00     0.031 A 
ATOM     38  C   UNL     1     -10.938   2.609   8.658  1.00  0.00     0.074 A 
ATOM     39  C   UNL     1     -10.324   0.205   8.558  1.00  0.00     0.049 A 
ATOM     40  N   UNL     1     -11.194   2.760   9.929  1.00  0.00    -0.248 NA
ATOM     41  C   UNL     1     -11.053   3.849   7.870  1.00  0.00     0.031 C 
ATOM     42  C   UNL     1      -9.850  -1.033   7.932  1.00  0.00     0.029 A 
ATOM     43  N   UNL     1     -10.496  -0.135   9.874  1.00  0.00    -0.354 N 
ATOM     44  C   UNL     1     -11.485   4.109  10.095  1.00  0.00     0.074 A 
ATOM     45  C   UNL     1     -11.315   4.745   8.809  1.00  0.00     0.031 C 
ATOM     46  C   UNL     1      -9.797  -2.003   8.859  1.00  0.00     0.029 A 
ATOM     47  C   UNL     1     -10.211  -1.452  10.145  1.00  0.00     0.049 A 
ATOM     48  H   UNL     1     -10.796   0.504  10.560  1.00  0.00     0.167 HD
ATOM     49  C   UNL     1     -11.888   4.749  11.217  1.00  0.00     0.037 A 
ATOM     50  C   UNL     1     -10.286  -2.135  11.304  1.00  0.00     0.037 A 
ATOM     51  C   UNL     1     -12.085   4.085  12.477  1.00  0.00     0.049 A 
ATOM     52  C   UNL     1     -10.780  -1.412  12.527  1.00  0.00     0.074 A 
ATOM     53  C   UNL     1     -12.553   4.614  13.666  1.00  0.00     0.029 A 
ATOM     54  N   UNL     1     -11.826   2.740  12.708  1.00  0.00    -0.354 N 
ATOM     55  N   UNL     1     -11.128  -0.152  12.653  1.00  0.00    -0.248 NA
ATOM     56  C   UNL     1     -10.909  -2.200  13.759  1.00  0.00     0.031 C 
ATOM     57  C   UNL     1     -12.543   3.595  14.625  1.00  0.00     0.029 A 
ATOM     58  C   UNL     1     -12.111   2.423  14.023  1.00  0.00     0.049 A 
ATOM     59  H   UNL     1     -11.490   2.107  12.034  1.00  0.00     0.167 HD
ATOM     60  C   UNL     1     -11.536   0.000  13.973  1.00  0.00     0.074 A 
ATOM     61  C   UNL     1     -11.406  -1.301  14.599  1.00  0.00     0.031 C 
ATOM     62  C   UNL     1     -11.976   1.113  14.612  1.00  0.00     0.037 A 
BRANCH  49  63
ATOM     63  C   UNL     1     -12.146   6.226  11.120  1.00  0.00     0.058 A 
ATOM     64  C   UNL     1     -13.239   6.738  10.399  1.00  0.00     0.135 A 
ATOM     65  C   UNL     1     -11.300   7.144  11.762  1.00  0.00     0.135 A 
ATOM     66  F   UNL     1     -14.068   5.907   9.747  1.00  0.00    -0.206 F 
ATOM     67  C   UNL     1     -13.464   8.106  10.292  1.00  0.00     0.059 A 
ATOM     68  C   UNL     1     -11.524   8.517  11.693  1.00  0.00     0.059 A 
ATOM     69  F   UNL     1     -10.238   6.711  12.460  1.00  0.00    -0.206 F 
ATOM     70  C   UNL     1     -12.600   8.988  10.942  1.00  0.00     0.060 A 
BRANCH  70  71
ATOM     71  S   UNL     1     -12.910  10.761  10.799  1.00  0.00     0.124 S 
ATOM     72  O   UNL     1     -12.485  11.020   9.426  1.00  0.00    -0.237 OA
ATOM     73  O   UNL     1     -14.347  10.848  11.043  1.00  0.00    -0.237 OA
ATOM     74  O   UNL     1     -12.065  11.339  11.838  1.00  0.00    -0.744 OA
ENDBRANCH  70  71
ENDBRANCH  49  63
BRANCH  50  75
ATOM     75  C   UNL     1      -9.926  -3.577  11.343  1.00  0.00     0.058 A 
ATOM     76  C   UNL     1     -10.910  -4.565  11.497  1.00  0.00     0.135 A 
ATOM     77  C   UNL     1      -8.596  -4.000  11.196  1.00  0.00     0.135 A 
ATOM     78  F   UNL     1     -12.197  -4.212  11.642  1.00  0.00    -0.206 F 
ATOM     79  C   UNL     1     -10.589  -5.919  11.518  1.00  0.00     0.059 A 
ATOM     80  C   UNL     1      -8.252  -5.349  11.190  1.00  0.00     0.059 A 
ATOM     81  F   UNL     1      -7.618  -3.097  11.024  1.00  0.00    -0.206 F 
ATOM     82  C   UNL     1      -9.256  -6.301  11.361  1.00  0.00     0.060 A 
BRANCH  82  83
ATOM     83  S   UNL     1      -8.856  -8.063  11.336  1.00  0.00     0.124 S 
ATOM     84  O   UNL     1      -9.007  -8.418  12.742  1.00  0.00    -0.237 OA
ATOM     85  O   UNL     1      -9.870  -8.595  10.430  1.00  0.00    -0.237 OA
ATOM     86  O   UNL     1      -7.491  -8.089  10.821  1.00  0.00    -0.744 OA
ENDBRANCH  82  83
ENDBRANCH  50  75
BRANCH  62  87
ATOM     87  C   UNL     1     -12.370   0.964  16.053  1.00  0.00     0.058 A 
ATOM     88  C   UNL     1     -11.408   0.819  17.064  1.00  0.00     0.135 A 
ATOM     89  C   UNL     1     -13.720   1.035  16.429  1.00  0.00     0.135 A 
ATOM     90  F   UNL     1     -10.105   0.742  16.752  1.00  0.00    -0.206 F 
ATOM     91  C   UNL     1     -11.775   0.728  18.401  1.00  0.00     0.059 A 
ATOM     92  C   UNL     1     -14.107   0.973  17.763  1.00  0.00     0.059 A 
ATOM     93  F   UNL     1     -14.675   1.186  15.498  1.00  0.00    -0.206 F 
ATOM     94  C   UNL     1     -13.127   0.809  18.741  1.00  0.00     0.060 A 
BRANCH  94  95
ATOM     95  S   UNL     1     -13.586   0.731  20.484  1.00  0.00     0.124 S 
ATOM     96  O   UNL     1     -13.416  -0.690  20.768  1.00  0.00    -0.237 OA
ATOM     97  O   UNL     1     -12.613   1.623  21.105  1.00  0.00    -0.237 OA
ATOM     98  O   UNL     1     -14.964   1.213  20.494  1.00  0.00    -0.744 OA
ENDBRANCH  94  95
ENDBRANCH  62  87
ENDBRANCH  36  37
ENDBRANCH  28  31
ENDBRANCH  26  27
ENDBRANCH   1  26
TORSDOF 16
