REMARK SMILES C[C@H](NC(N)=O)C(=O)N[C@@H](CO)C(=O)NCCCCNC(=O)c1ccc(-c2c3nc(c(-c4c(F)cc(S(=O)(=O)[O-])cc4F)c4ccc([nH]4)c(-c4c(F)cc(S(=O)(=O)[O-])cc4F)c4nc(c(-c5c(F)cc(S(=O)(=O)[O-])cc5F)c5ccc2[nH]5)C=C4)C=C3)cc1
REMARK SMILES IDX 17 1 16 2 15 3 13 4 14 5 10 7 9 8 7 9 8 10 2 12 1 13 3 14
REMARK SMILES IDX 4 15 5 17 6 18 11 21 12 22 18 24 19 25 20 26 21 27 22 29
REMARK SMILES IDX 23 30 24 31 88 32 25 33 87 34 26 35 27 36 28 37 81 38 29 39
REMARK SMILES IDX 86 40 80 41 82 42 30 43 85 44 79 45 78 46 31 48 65 49 44 50
REMARK SMILES IDX 64 51 45 52 48 53 63 54 83 55 46 56 47 57 62 59 84 60 49 61
REMARK SMILES IDX 32 62 33 63 42 64 34 65 35 66 41 67 43 68 36 69 37 70 38 71
REMARK SMILES IDX 39 72 40 73 66 74 67 75 76 76 68 77 69 78 75 79 77 80 70 81
REMARK SMILES IDX 71 82 72 83 73 84 74 85 50 86 51 87 60 88 52 89 53 90 59 91
REMARK SMILES IDX 61 92 54 93 55 94 56 95 57 96 58 97
REMARK H PARENT 15 6 9 11 3 16 5 19 5 20 12 23 20 28 82 47 48 58
REMARK Flexibility Score: inf
ROOT
ATOM      1  C   UNL     1      -4.966  -1.612   2.532  1.00  0.00     0.023 C 
ENDROOT
BRANCH   1   2
ATOM      2  C   UNL     1      -4.005  -0.506   2.954  1.00  0.00     0.116 C 
BRANCH   2   3
ATOM      3  N   UNL     1      -2.807  -1.027   3.584  1.00  0.00    -0.354 N 
ATOM      4  C   UNL     1      -1.489  -0.797   3.336  1.00  0.00     0.244 C 
ATOM      5  O   UNL     1      -0.682  -1.191   4.185  1.00  0.00    -0.273 OA
ATOM      6  H   UNL     1      -2.978  -1.658   4.320  1.00  0.00     0.163 HD
BRANCH   4   7
ATOM      7  C   UNL     1      -0.980   0.014   2.126  1.00  0.00     0.197 C 
BRANCH   7   8
ATOM      8  N   UNL     1      -1.523  -0.437   0.839  1.00  0.00    -0.340 N 
ATOM      9  C   UNL     1      -0.988  -1.255  -0.111  1.00  0.00     0.243 C 
ATOM     10  O   UNL     1      -1.776  -1.735  -0.931  1.00  0.00    -0.273 OA
ATOM     11  H   UNL     1      -2.420  -0.091   0.627  1.00  0.00     0.164 HD
BRANCH   9  12
ATOM     12  C   UNL     1       0.508  -1.614  -0.147  1.00  0.00     0.170 C 
ATOM     13  C   UNL     1       0.868  -2.642   0.920  1.00  0.00     0.041 C 
BRANCH  12  14
ATOM     14  N   UNL     1       1.337  -0.413  -0.078  1.00  0.00    -0.327 N 
ATOM     15  C   UNL     1       2.621  -0.412  -0.520  1.00  0.00     0.312 C 
ATOM     16  H   UNL     1       0.956   0.413   0.298  1.00  0.00     0.166 HD
ATOM     17  N   UNL     1       3.228   0.787  -0.391  1.00  0.00    -0.352 N 
ATOM     18  O   UNL     1       3.208  -1.376  -0.999  1.00  0.00    -0.249 OA
ATOM     19  H   UNL     1       2.737   1.548  -0.003  1.00  0.00     0.161 HD
ATOM     20  H   UNL     1       4.161   0.901  -0.683  1.00  0.00     0.161 HD
ENDBRANCH  12  14
ENDBRANCH   9  12
ENDBRANCH   7   8
BRANCH   7  21
ATOM     21  C   UNL     1      -1.146   1.525   2.350  1.00  0.00     0.191 C 
BRANCH  21  22
ATOM     22  O   UNL     1      -2.445   2.011   2.024  1.00  0.00    -0.394 OA
ATOM     23  H   UNL     1      -2.617   1.865   1.080  1.00  0.00     0.210 HD
ENDBRANCH  21  22
ENDBRANCH   7  21
ENDBRANCH   4   7
ENDBRANCH   2   3
ENDBRANCH   1   2
BRANCH   1  24
ATOM     24  C   UNL     1      -5.635  -2.362   3.684  1.00  0.00     0.023 C 
BRANCH  24  25
ATOM     25  C   UNL     1      -6.348  -1.489   4.712  1.00  0.00     0.116 C 
BRANCH  25  26
ATOM     26  N   UNL     1      -7.339  -0.602   4.123  1.00  0.00    -0.352 N 
ATOM     27  C   UNL     1      -8.617  -0.322   4.540  1.00  0.00     0.251 C 
ATOM     28  H   UNL     1      -7.051  -0.134   3.306  1.00  0.00     0.163 HD
ATOM     29  O   UNL     1      -9.347   0.369   3.835  1.00  0.00    -0.269 OA
BRANCH  27  30
ATOM     30  C   UNL     1      -9.122  -0.874   5.817  1.00  0.00     0.039 A 
ATOM     31  C   UNL     1     -10.417  -1.399   5.857  1.00  0.00     0.014 A 
ATOM     32  C   UNL     1      -8.334  -0.870   6.971  1.00  0.00     0.014 A 
ATOM     33  C   UNL     1     -10.900  -1.962   7.039  1.00  0.00     0.010 A 
ATOM     34  C   UNL     1      -8.786  -1.506   8.124  1.00  0.00     0.010 A 
ATOM     35  C   UNL     1     -10.079  -2.044   8.177  1.00  0.00    -0.014 A 
BRANCH  35  36
ATOM     36  C   UNL     1     -10.576  -2.661   9.434  1.00  0.00     0.031 A 
ATOM     37  C   UNL     1     -10.716  -1.829  10.681  1.00  0.00     0.074 A 
ATOM     38  C   UNL     1     -10.862  -3.977   9.465  1.00  0.00     0.049 A 
ATOM     39  N   UNL     1     -11.115  -2.188  11.874  1.00  0.00    -0.248 NA
ATOM     40  C   UNL     1     -10.324  -0.414  10.582  1.00  0.00     0.031 C 
ATOM     41  C   UNL     1     -10.701  -4.905   8.344  1.00  0.00     0.029 A 
ATOM     42  N   UNL     1     -11.342  -4.765  10.480  1.00  0.00    -0.354 N 
ATOM     43  C   UNL     1     -11.017  -1.049  12.665  1.00  0.00     0.074 A 
ATOM     44  C   UNL     1     -10.452  -0.007  11.835  1.00  0.00     0.031 C 
ATOM     45  C   UNL     1     -11.096  -6.130   8.726  1.00  0.00     0.029 A 
ATOM     46  C   UNL     1     -11.516  -6.081  10.123  1.00  0.00     0.049 A 
ATOM     47  H   UNL     1     -11.544  -4.421  11.380  1.00  0.00     0.167 HD
ATOM     48  C   UNL     1     -11.394  -0.874  13.955  1.00  0.00     0.037 A 
ATOM     49  C   UNL     1     -11.967  -7.130  10.839  1.00  0.00     0.037 A 
ATOM     50  C   UNL     1     -11.972  -1.909  14.771  1.00  0.00     0.049 A 
ATOM     51  C   UNL     1     -12.414  -6.908  12.258  1.00  0.00     0.074 A 
ATOM     52  C   UNL     1     -12.425  -1.829  16.076  1.00  0.00     0.029 A 
ATOM     53  N   UNL     1     -12.178  -3.218  14.357  1.00  0.00    -0.354 N 
ATOM     54  N   UNL     1     -12.376  -5.808  12.972  1.00  0.00    -0.248 NA
ATOM     55  C   UNL     1     -12.986  -8.063  12.962  1.00  0.00     0.031 C 
ATOM     56  C   UNL     1     -12.875  -3.096  16.462  1.00  0.00     0.029 A 
ATOM     57  C   UNL     1     -12.747  -3.956  15.383  1.00  0.00     0.049 A 
ATOM     58  H   UNL     1     -11.954  -3.570  13.466  1.00  0.00     0.167 HD
ATOM     59  C   UNL     1     -12.940  -6.131  14.201  1.00  0.00     0.074 A 
ATOM     60  C   UNL     1     -13.326  -7.527  14.126  1.00  0.00     0.031 C 
ATOM     61  C   UNL     1     -13.125  -5.345  15.291  1.00  0.00     0.037 A 
BRANCH  48  62
ATOM     62  C   UNL     1     -11.198   0.496  14.549  1.00  0.00     0.058 A 
ATOM     63  C   UNL     1     -11.955   1.599  14.117  1.00  0.00     0.135 A 
ATOM     64  C   UNL     1     -10.243   0.714  15.554  1.00  0.00     0.135 A 
ATOM     65  F   UNL     1     -12.871   1.452  13.147  1.00  0.00    -0.206 F 
ATOM     66  C   UNL     1     -11.739   2.875  14.625  1.00  0.00     0.059 A 
ATOM     67  C   UNL     1     -10.032   1.978  16.100  1.00  0.00     0.059 A 
ATOM     68  F   UNL     1      -9.493  -0.302  16.008  1.00  0.00    -0.206 F 
ATOM     69  C   UNL     1     -10.769   3.056  15.612  1.00  0.00     0.060 A 
BRANCH  69  70
ATOM     70  S   UNL     1     -10.482   4.723  16.243  1.00  0.00     0.124 S 
ATOM     71  O   UNL     1      -9.754   5.331  15.133  1.00  0.00    -0.237 OA
ATOM     72  O   UNL     1     -11.839   5.217  16.455  1.00  0.00    -0.237 OA
ATOM     73  O   UNL     1      -9.704   4.498  17.456  1.00  0.00    -0.744 OA
ENDBRANCH  69  70
ENDBRANCH  48  62
BRANCH  49  74
ATOM     74  C   UNL     1     -12.053  -8.471  10.204  1.00  0.00     0.058 A 
ATOM     75  C   UNL     1     -13.291  -9.031   9.857  1.00  0.00     0.135 A 
ATOM     76  C   UNL     1     -10.895  -9.202   9.895  1.00  0.00     0.135 A 
ATOM     77  F   UNL     1     -14.427  -8.373  10.135  1.00  0.00    -0.206 F 
ATOM     78  C   UNL     1     -13.381 -10.273   9.235  1.00  0.00     0.059 A 
ATOM     79  C   UNL     1     -10.958 -10.435   9.252  1.00  0.00     0.059 A 
ATOM     80  F   UNL     1      -9.685  -8.701  10.189  1.00  0.00    -0.206 F 
ATOM     81  C   UNL     1     -12.207 -10.965   8.932  1.00  0.00     0.060 A 
BRANCH  81  82
ATOM     82  S   UNL     1     -12.332 -12.543   8.062  1.00  0.00     0.124 S 
ATOM     83  O   UNL     1     -12.814 -13.424   9.119  1.00  0.00    -0.237 OA
ATOM     84  O   UNL     1     -13.287 -12.235   7.002  1.00  0.00    -0.237 OA
ATOM     85  O   UNL     1     -10.965 -12.786   7.611  1.00  0.00    -0.744 OA
ENDBRANCH  81  82
ENDBRANCH  49  74
BRANCH  61  86
ATOM     86  C   UNL     1     -13.803  -5.967  16.481  1.00  0.00     0.058 A 
ATOM     87  C   UNL     1     -13.158  -6.915  17.290  1.00  0.00     0.135 A 
ATOM     88  C   UNL     1     -15.109  -5.587  16.831  1.00  0.00     0.135 A 
ATOM     89  F   UNL     1     -11.910  -7.316  16.997  1.00  0.00    -0.206 F 
ATOM     90  C   UNL     1     -13.795  -7.491  18.384  1.00  0.00     0.059 A 
ATOM     91  C   UNL     1     -15.756  -6.128  17.937  1.00  0.00     0.059 A 
ATOM     92  F   UNL     1     -15.767  -4.674  16.099  1.00  0.00    -0.206 F 
ATOM     93  C   UNL     1     -15.097  -7.093  18.698  1.00  0.00     0.060 A 
BRANCH  93  94
ATOM     94  S   UNL     1     -15.912  -7.841  20.124  1.00  0.00     0.124 S 
ATOM     95  O   UNL     1     -16.255  -9.161  19.607  1.00  0.00    -0.237 OA
ATOM     96  O   UNL     1     -14.863  -7.810  21.138  1.00  0.00    -0.237 OA
ATOM     97  O   UNL     1     -17.042  -6.950  20.374  1.00  0.00    -0.744 OA
ENDBRANCH  93  94
ENDBRANCH  61  86
ENDBRANCH  35  36
ENDBRANCH  27  30
ENDBRANCH  25  26
ENDBRANCH  24  25
ENDBRANCH   1  24
TORSDOF 19
