REMARK SMILES COC(=O)C[C@H](c1ccc(C(=O)NCCCCNC(=O)c2ccc(-c3c4nc(c(-c5c(F)cc(S(=O)(=O)[O-])cc5F)c5ccc([nH]5)c(-c5c(F)cc(S(=O)(=O)[O-])cc5F)c5nc(c(-c6c(F)cc(S(=O)(=O)[O-])cc6F)c6ccc3[nH]6)C=C5)C=C4)cc2)cc1)c1c(O)n[nH]c1C
REMARK SMILES IDX 15 1 14 2 13 3 11 4 12 5 10 7 7 8 8 9 88 10 9 11 87 12 6 13
REMARK SMILES IDX 5 14 3 15 4 16 2 17 1 18 89 19 90 20 94 21 92 22 93 23 95 24
REMARK SMILES IDX 91 26 16 28 17 29 18 30 19 31 20 33 21 34 22 35 86 36 23 37
REMARK SMILES IDX 85 38 24 39 25 40 26 41 79 42 27 43 84 44 78 45 80 46 28 47
REMARK SMILES IDX 83 48 77 49 76 50 29 52 63 53 42 54 62 55 43 56 46 57 61 58
REMARK SMILES IDX 81 59 44 60 45 61 60 63 82 64 47 65 30 66 31 67 40 68 32 69
REMARK SMILES IDX 33 70 39 71 41 72 34 73 35 74 36 75 37 76 38 77 64 78 65 79
REMARK SMILES IDX 74 80 66 81 67 82 73 83 75 84 68 85 69 86 70 87 71 88 72 89
REMARK SMILES IDX 48 90 49 91 58 92 50 93 51 94 57 95 59 96 52 97 53 98 54 99
REMARK SMILES IDX 55 100 56 101
REMARK H PARENT 13 6 93 25 91 27 18 32 80 51 46 62
REMARK Flexibility Score: inf
ROOT
ATOM      1  C   UNL     1       2.152   2.283   5.982  1.00  0.00     0.023 C 
ENDROOT
BRANCH   1   2
ATOM      2  C   UNL     1       1.222   1.342   5.213  1.00  0.00     0.116 C 
BRANCH   2   3
ATOM      3  N   UNL     1      -0.162   1.758   5.344  1.00  0.00    -0.352 N 
ATOM      4  C   UNL     1      -0.986   2.465   4.505  1.00  0.00     0.251 C 
ATOM      5  O   UNL     1      -2.159   2.626   4.843  1.00  0.00    -0.269 OA
ATOM      6  H   UNL     1      -0.587   1.482   6.188  1.00  0.00     0.163 HD
BRANCH   4   7
ATOM      7  C   UNL     1      -0.538   2.990   3.187  1.00  0.00     0.039 A 
ATOM      8  C   UNL     1       0.185   3.856   0.594  1.00  0.00    -0.040 A 
ATOM      9  C   UNL     1      -1.139   3.497   0.884  1.00  0.00     0.005 A 
ATOM     10  C   UNL     1       1.117   3.854   1.642  1.00  0.00     0.005 A 
ATOM     11  C   UNL     1      -1.491   3.054   2.162  1.00  0.00     0.014 A 
ATOM     12  C   UNL     1       0.751   3.453   2.928  1.00  0.00     0.014 A 
BRANCH   8  13
ATOM     13  C   UNL     1       0.655   4.213  -0.808  1.00  0.00     0.068 C 
BRANCH  13  14
ATOM     14  C   UNL     1       0.147   3.352  -1.977  1.00  0.00     0.136 C 
BRANCH  14  15
ATOM     15  C   UNL     1      -0.232   1.938  -1.617  1.00  0.00     0.306 C 
ATOM     16  O   UNL     1      -1.306   1.435  -1.924  1.00  0.00    -0.252 OA
BRANCH  15  17
ATOM     17  O   UNL     1       0.757   1.300  -0.936  1.00  0.00    -0.469 OA
ATOM     18  C   UNL     1       0.342   0.046  -0.389  1.00  0.00     0.282 C 
ENDBRANCH  15  17
ENDBRANCH  14  15
ENDBRANCH  13  14
BRANCH  13  19
ATOM     19  C   UNL     1       0.338   5.681  -0.938  1.00  0.00     0.044 A 
ATOM     20  C   UNL     1      -0.884   6.292  -1.270  1.00  0.00     0.234 A 
ATOM     21  C   UNL     1       1.167   6.777  -0.718  1.00  0.00     0.040 A 
ATOM     22  N   UNL     1      -0.872   7.614  -1.283  1.00  0.00    -0.137 NA
ATOM     23  N   UNL     1       0.390   7.892  -0.915  1.00  0.00    -0.279 N 
ATOM     24  C   UNL     1       2.586   6.883  -0.308  1.00  0.00     0.066 C 
ATOM     25  H   UNL     1       0.726   8.810  -0.797  1.00  0.00     0.190 HD
BRANCH  20  26
ATOM     26  O   UNL     1      -2.059   5.744  -1.566  1.00  0.00    -0.492 OA
ATOM     27  H   UNL     1      -2.151   4.811  -1.578  1.00  0.00     0.295 HD
ENDBRANCH  20  26
ENDBRANCH  13  19
ENDBRANCH   8  13
ENDBRANCH   4   7
ENDBRANCH   2   3
ENDBRANCH   1   2
BRANCH   1  28
ATOM     28  C   UNL     1       2.108   2.115   7.502  1.00  0.00     0.023 C 
BRANCH  28  29
ATOM     29  C   UNL     1       2.624   0.776   8.009  1.00  0.00     0.116 C 
BRANCH  29  30
ATOM     30  N   UNL     1       4.018   0.532   7.669  1.00  0.00    -0.352 N 
ATOM     31  C   UNL     1       4.933  -0.222   8.369  1.00  0.00     0.251 C 
ATOM     32  H   UNL     1       4.345   0.955   6.842  1.00  0.00     0.163 HD
ATOM     33  O   UNL     1       6.105  -0.266   8.026  1.00  0.00    -0.269 OA
BRANCH  31  34
ATOM     34  C   UNL     1       4.468  -0.937   9.575  1.00  0.00     0.039 A 
ATOM     35  C   UNL     1       5.085  -0.671  10.800  1.00  0.00     0.014 A 
ATOM     36  C   UNL     1       3.366  -1.792   9.499  1.00  0.00     0.014 A 
ATOM     37  C   UNL     1       4.545  -1.208  11.970  1.00  0.00     0.010 A 
ATOM     38  C   UNL     1       2.797  -2.278  10.670  1.00  0.00     0.010 A 
ATOM     39  C   UNL     1       3.374  -1.980  11.915  1.00  0.00    -0.014 A 
BRANCH  39  40
ATOM     40  C   UNL     1       2.715  -2.491  13.142  1.00  0.00     0.031 A 
ATOM     41  C   UNL     1       2.630  -3.973  13.371  1.00  0.00     0.074 A 
ATOM     42  C   UNL     1       2.101  -1.634  13.980  1.00  0.00     0.049 A 
ATOM     43  N   UNL     1       1.946  -4.632  14.268  1.00  0.00    -0.248 NA
ATOM     44  C   UNL     1       3.393  -4.826  12.445  1.00  0.00     0.031 C 
ATOM     45  C   UNL     1       2.085  -0.176  13.842  1.00  0.00     0.029 A 
ATOM     46  N   UNL     1       1.346  -1.868  15.102  1.00  0.00    -0.354 N 
ATOM     47  C   UNL     1       2.167  -5.976  13.996  1.00  0.00     0.074 A 
ATOM     48  C   UNL     1       3.025  -6.039  12.833  1.00  0.00     0.031 C 
ATOM     49  C   UNL     1       1.361   0.353  14.842  1.00  0.00     0.029 A 
ATOM     50  C   UNL     1       0.827  -0.727  15.667  1.00  0.00     0.049 A 
ATOM     51  H   UNL     1       1.192  -2.769  15.469  1.00  0.00     0.167 HD
ATOM     52  C   UNL     1       1.705  -7.059  14.665  1.00  0.00     0.037 A 
ATOM     53  C   UNL     1      -0.003  -0.571  16.716  1.00  0.00     0.037 A 
ATOM     54  C   UNL     1       0.884  -6.987  15.843  1.00  0.00     0.049 A 
ATOM     55  C   UNL     1      -0.490  -1.788  17.454  1.00  0.00     0.074 A 
ATOM     56  C   UNL     1       0.410  -8.024  16.626  1.00  0.00     0.029 A 
ATOM     57  N   UNL     1       0.422  -5.810  16.413  1.00  0.00    -0.354 N 
ATOM     58  N   UNL     1      -0.242  -3.053  17.208  1.00  0.00    -0.248 NA
ATOM     59  C   UNL     1      -1.369  -1.562  18.610  1.00  0.00     0.031 C 
ATOM     60  C   UNL     1      -0.360  -7.475  17.657  1.00  0.00     0.029 A 
ATOM     61  C   UNL     1      -0.338  -6.094  17.534  1.00  0.00     0.049 A 
ATOM     62  H   UNL     1       0.607  -4.905  16.070  1.00  0.00     0.167 HD
ATOM     63  C   UNL     1      -0.911  -3.770  18.192  1.00  0.00     0.074 A 
ATOM     64  C   UNL     1      -1.574  -2.801  19.040  1.00  0.00     0.031 C 
ATOM     65  C   UNL     1      -0.969  -5.111  18.378  1.00  0.00     0.037 A 
BRANCH  52  66
ATOM     66  C   UNL     1       2.082  -8.412  14.133  1.00  0.00     0.058 A 
ATOM     67  C   UNL     1       3.386  -8.913  14.260  1.00  0.00     0.135 A 
ATOM     68  C   UNL     1       1.124  -9.224  13.505  1.00  0.00     0.135 A 
ATOM     69  F   UNL     1       4.343  -8.169  14.838  1.00  0.00    -0.206 F 
ATOM     70  C   UNL     1       3.738 -10.159  13.753  1.00  0.00     0.059 A 
ATOM     71  C   UNL     1       1.448 -10.484  13.011  1.00  0.00     0.059 A 
ATOM     72  F   UNL     1      -0.138  -8.790  13.356  1.00  0.00    -0.206 F 
ATOM     73  C   UNL     1       2.762 -10.935  13.125  1.00  0.00     0.060 A 
BRANCH  73  74
ATOM     74  S   UNL     1       3.233 -12.547  12.463  1.00  0.00     0.124 S 
ATOM     75  O   UNL     1       3.926 -12.164  11.236  1.00  0.00    -0.237 OA
ATOM     76  O   UNL     1       4.077 -13.090  13.523  1.00  0.00    -0.237 OA
ATOM     77  O   UNL     1       1.954 -13.224  12.276  1.00  0.00    -0.744 OA
ENDBRANCH  73  74
ENDBRANCH  52  66
BRANCH  53  78
ATOM     78  C   UNL     1      -0.415   0.792  17.140  1.00  0.00     0.058 A 
ATOM     79  C   UNL     1       0.106   1.367  18.308  1.00  0.00     0.135 A 
ATOM     80  C   UNL     1      -1.318   1.553  16.382  1.00  0.00     0.135 A 
ATOM     81  F   UNL     1       0.969   0.675  19.068  1.00  0.00    -0.206 F 
ATOM     82  C   UNL     1      -0.260   2.645  18.717  1.00  0.00     0.059 A 
ATOM     83  C   UNL     1      -1.685   2.841  16.761  1.00  0.00     0.059 A 
ATOM     84  F   UNL     1      -1.832   1.052  15.248  1.00  0.00    -0.206 F 
ATOM     85  C   UNL     1      -1.156   3.375  17.935  1.00  0.00     0.060 A 
BRANCH  85  86
ATOM     86  S   UNL     1      -1.584   5.054  18.445  1.00  0.00     0.124 S 
ATOM     87  O   UNL     1      -2.517   4.801  19.536  1.00  0.00    -0.237 OA
ATOM     88  O   UNL     1      -0.286   5.601  18.829  1.00  0.00    -0.237 OA
ATOM     89  O   UNL     1      -2.164   5.632  17.236  1.00  0.00    -0.744 OA
ENDBRANCH  85  86
ENDBRANCH  53  78
BRANCH  65  90
ATOM     90  C   UNL     1      -1.738  -5.618  19.563  1.00  0.00     0.058 A 
ATOM     91  C   UNL     1      -3.138  -5.689  19.553  1.00  0.00     0.135 A 
ATOM     92  C   UNL     1      -1.058  -6.126  20.681  1.00  0.00     0.135 A 
ATOM     93  F   UNL     1      -3.832  -5.209  18.509  1.00  0.00    -0.206 F 
ATOM     94  C   UNL     1      -3.841  -6.251  20.614  1.00  0.00     0.059 A 
ATOM     95  C   UNL     1      -1.739  -6.708  21.745  1.00  0.00     0.059 A 
ATOM     96  F   UNL     1       0.283  -6.085  20.733  1.00  0.00    -0.206 F 
ATOM     97  C   UNL     1      -3.132  -6.764  21.702  1.00  0.00     0.060 A 
BRANCH  97  98
ATOM     98  S   UNL     1      -4.049  -7.560  23.039  1.00  0.00     0.124 S 
ATOM     99  O   UNL     1      -4.584  -6.407  23.755  1.00  0.00    -0.237 OA
ATOM    100  O   UNL     1      -5.027  -8.366  22.313  1.00  0.00    -0.237 OA
ATOM    101  O   UNL     1      -3.024  -8.320  23.748  1.00  0.00    -0.744 OA
ENDBRANCH  97  98
ENDBRANCH  65  90
ENDBRANCH  39  40
ENDBRANCH  31  34
ENDBRANCH  29  30
ENDBRANCH  28  29
ENDBRANCH   1  28
TORSDOF 20
