REMARK SMILES COc1ccc2c(c1C)OC(=O)[C@@H](CC(=O)N[C@@H](CC1=c3ccccc3=NC1)C(=O)NCCCCNC(=O)c1ccc(-c3c4nc(c(-c5c(F)cc(S(=O)(=O)[O-])cc5F)c5ccc([nH]5)c(-c5c(F)cc(S(=O)(=O)[O-])cc5F)c5nc(c(-c6c(F)cc(S(=O)(=O)[O-])cc6F)c6ccc3[nH]6)C=C5)C=C4)cc1)[C@H]2C
REMARK SMILES IDX 33 1 32 2 31 3 29 4 30 5 18 7 17 8 15 9 16 10 14 12 13 13
REMARK SMILES IDX 3 14 4 15 8 16 5 17 7 18 9 19 6 20 10 21 105 22 11 23 106 24
REMARK SMILES IDX 12 25 2 26 1 27 19 28 20 29 21 30 28 31 22 32 26 33 27 34
REMARK SMILES IDX 23 35 25 36 24 37 34 38 35 39 36 40 37 41 38 43 39 44 40 45
REMARK SMILES IDX 104 46 41 47 103 48 42 49 43 50 44 51 97 52 45 53 102 54
REMARK SMILES IDX 96 55 98 56 46 57 101 58 95 59 94 60 47 62 81 63 60 64 80 65
REMARK SMILES IDX 61 66 64 67 79 68 99 69 62 70 63 71 78 73 100 74 65 75 48 76
REMARK SMILES IDX 49 77 58 78 50 79 51 80 57 81 59 82 52 83 53 84 54 85 55 86
REMARK SMILES IDX 56 87 82 88 83 89 92 90 84 91 85 92 91 93 93 94 86 95 87 96
REMARK SMILES IDX 88 97 89 98 90 99 66 100 67 101 76 102 68 103 69 104 75 105
REMARK SMILES IDX 77 106 70 107 71 108 72 109 73 110 74 111
REMARK H PARENT 31 6 17 11 36 42 98 61 64 72
REMARK Flexibility Score: inf
ROOT
ATOM      1  C   UNL     1       6.417   5.529   1.154  1.00  0.00     0.023 C 
ENDROOT
BRANCH   1   2
ATOM      2  C   UNL     1       4.951   5.811   0.922  1.00  0.00     0.116 C 
BRANCH   2   3
ATOM      3  N   UNL     1       4.381   7.025   1.431  1.00  0.00    -0.354 N 
ATOM      4  C   UNL     1       3.158   7.531   1.061  1.00  0.00     0.242 C 
ATOM      5  O   UNL     1       2.665   8.441   1.732  1.00  0.00    -0.273 OA
ATOM      6  H   UNL     1       4.904   7.533   2.093  1.00  0.00     0.163 HD
BRANCH   4   7
ATOM      7  C   UNL     1       2.369   6.912  -0.140  1.00  0.00     0.175 C 
BRANCH   7   8
ATOM      8  N   UNL     1       3.053   7.181  -1.451  1.00  0.00    -0.344 N 
ATOM      9  C   UNL     1       2.783   7.558  -2.741  1.00  0.00     0.221 C 
ATOM     10  O   UNL     1       3.807   7.730  -3.423  1.00  0.00    -0.275 OA
ATOM     11  H   UNL     1       4.022   7.037  -1.349  1.00  0.00     0.164 HD
BRANCH   9  12
ATOM     12  C   UNL     1       1.401   7.754  -3.466  1.00  0.00     0.116 C 
BRANCH  12  13
ATOM     13  C   UNL     1       0.648   6.449  -3.827  1.00  0.00     0.116 C 
ATOM     14  C   UNL     1      -0.646   1.848  -2.644  1.00  0.00     0.125 A 
ATOM     15  C   UNL     1       0.711   2.051  -2.881  1.00  0.00     0.047 A 
ATOM     16  C   UNL     1      -1.575   2.881  -2.951  1.00  0.00     0.034 A 
ATOM     17  C   UNL     1       1.156   3.341  -2.992  1.00  0.00     0.012 A 
ATOM     18  C   UNL     1      -1.046   4.118  -3.302  1.00  0.00     0.140 A 
ATOM     19  C   UNL     1      -3.042   2.714  -2.720  1.00  0.00     0.052 C 
ATOM     20  C   UNL     1       0.228   4.354  -2.909  1.00  0.00    -0.001 A 
ATOM     21  O   UNL     1      -1.625   5.232  -3.971  1.00  0.00    -0.426 OA
ATOM     22  C   UNL     1       0.514   5.745  -2.528  1.00  0.00     0.035 C 
ATOM     23  C   UNL     1      -0.814   6.397  -4.393  1.00  0.00     0.315 C 
ATOM     24  C   UNL     1      -0.538   6.476  -1.616  1.00  0.00     0.014 C 
ATOM     25  O   UNL     1      -1.283   7.262  -5.125  1.00  0.00    -0.251 OA
BRANCH  14  26
ATOM     26  O   UNL     1      -1.072   0.642  -2.146  1.00  0.00    -0.496 OA
ATOM     27  C   UNL     1      -0.252   0.160  -1.062  1.00  0.00     0.278 C 
ENDBRANCH  14  26
ENDBRANCH  12  13
ENDBRANCH   9  12
ENDBRANCH   7   8
BRANCH   7  28
ATOM     28  C   UNL     1       1.916   5.449   0.301  1.00  0.00     0.068 C 
BRANCH  28  29
ATOM     29  C   UNL     1       2.547   4.085   0.067  1.00  0.00    -0.037 C 
ATOM     30  C   UNL     1       3.482   3.573  -0.739  1.00  0.00     0.001 A 
ATOM     31  C   UNL     1       2.030   2.989   0.984  1.00  0.00     0.174 C 
ATOM     32  C   UNL     1       4.302   4.039  -1.816  1.00  0.00     0.010 A 
ATOM     33  C   UNL     1       3.612   2.176  -0.264  1.00  0.00     0.065 A 
ATOM     34  N   UNL     1       2.823   1.786   0.684  1.00  0.00    -0.280 NA
ATOM     35  C   UNL     1       5.223   3.224  -2.351  1.00  0.00     0.001 A 
ATOM     36  C   UNL     1       4.674   1.350  -0.875  1.00  0.00     0.028 A 
ATOM     37  C   UNL     1       5.428   1.879  -1.850  1.00  0.00     0.002 A 
ENDBRANCH  28  29
ENDBRANCH   7  28
ENDBRANCH   4   7
ENDBRANCH   2   3
ENDBRANCH   1   2
BRANCH   1  38
ATOM     38  C   UNL     1       6.768   5.113   2.574  1.00  0.00     0.023 C 
BRANCH  38  39
ATOM     39  C   UNL     1       5.835   4.088   3.219  1.00  0.00     0.116 C 
BRANCH  39  40
ATOM     40  N   UNL     1       5.812   2.790   2.549  1.00  0.00    -0.352 N 
ATOM     41  C   UNL     1       6.393   1.602   2.949  1.00  0.00     0.251 C 
ATOM     42  H   UNL     1       5.317   2.758   1.698  1.00  0.00     0.163 HD
ATOM     43  O   UNL     1       6.383   0.607   2.252  1.00  0.00    -0.269 OA
BRANCH  41  44
ATOM     44  C   UNL     1       7.072   1.613   4.257  1.00  0.00     0.039 A 
ATOM     45  C   UNL     1       8.463   1.520   4.292  1.00  0.00     0.014 A 
ATOM     46  C   UNL     1       6.332   1.959   5.389  1.00  0.00     0.014 A 
ATOM     47  C   UNL     1       9.131   1.890   5.457  1.00  0.00     0.010 A 
ATOM     48  C   UNL     1       7.006   2.425   6.508  1.00  0.00     0.010 A 
ATOM     49  C   UNL     1       8.410   2.399   6.549  1.00  0.00    -0.014 A 
BRANCH  49  50
ATOM     50  C   UNL     1       9.097   2.867   7.776  1.00  0.00     0.031 A 
ATOM     51  C   UNL     1       8.839   2.139   9.063  1.00  0.00     0.074 A 
ATOM     52  C   UNL     1       9.883   3.962   7.746  1.00  0.00     0.049 A 
ATOM     53  N   UNL     1       9.248   2.425  10.269  1.00  0.00    -0.248 NA
ATOM     54  C   UNL     1       7.971   0.949   8.989  1.00  0.00     0.031 C 
ATOM     55  C   UNL     1      10.164   4.781   6.563  1.00  0.00     0.029 A 
ATOM     56  N   UNL     1      10.587   4.583   8.748  1.00  0.00    -0.354 N 
ATOM     57  C   UNL     1       8.678   1.464  11.093  1.00  0.00     0.074 A 
ATOM     58  C   UNL     1       7.835   0.632  10.266  1.00  0.00     0.031 C 
ATOM     59  C   UNL     1      11.000   5.777   6.904  1.00  0.00     0.029 A 
ATOM     60  C   UNL     1      11.292   5.688   8.331  1.00  0.00     0.049 A 
ATOM     61  H   UNL     1      10.587   4.265   9.680  1.00  0.00     0.167 HD
ATOM     62  C   UNL     1       8.874   1.263  12.415  1.00  0.00     0.037 A 
ATOM     63  C   UNL     1      12.084   6.529   9.027  1.00  0.00     0.037 A 
ATOM     64  C   UNL     1       9.756   2.059  13.220  1.00  0.00     0.049 A 
ATOM     65  C   UNL     1      12.289   6.281  10.499  1.00  0.00     0.074 A 
ATOM     66  C   UNL     1      10.077   1.902  14.555  1.00  0.00     0.029 A 
ATOM     67  N   UNL     1      10.468   3.156  12.758  1.00  0.00    -0.354 N 
ATOM     68  N   UNL     1      11.787   5.331  11.253  1.00  0.00    -0.248 NA
ATOM     69  C   UNL     1      13.169   7.215  11.217  1.00  0.00     0.031 C 
ATOM     70  C   UNL     1      10.961   2.925  14.910  1.00  0.00     0.029 A 
ATOM     71  C   UNL     1      11.219   3.695  13.786  1.00  0.00     0.049 A 
ATOM     72  H   UNL     1      10.444   3.499  11.835  1.00  0.00     0.167 HD
ATOM     73  C   UNL     1      12.305   5.541  12.526  1.00  0.00     0.074 A 
ATOM     74  C   UNL     1      13.172   6.697  12.438  1.00  0.00     0.031 C 
ATOM     75  C   UNL     1      12.082   4.843  13.667  1.00  0.00     0.037 A 
BRANCH  62  76
ATOM     76  C   UNL     1       8.148   0.117  13.056  1.00  0.00     0.058 A 
ATOM     77  C   UNL     1       8.512  -1.214  12.794  1.00  0.00     0.135 A 
ATOM     78  C   UNL     1       7.102   0.348  13.961  1.00  0.00     0.135 A 
ATOM     79  F   UNL     1       9.488  -1.487  11.913  1.00  0.00    -0.206 F 
ATOM     80  C   UNL     1       7.854  -2.278  13.397  1.00  0.00     0.059 A 
ATOM     81  C   UNL     1       6.446  -0.702  14.596  1.00  0.00     0.059 A 
ATOM     82  F   UNL     1       6.707   1.601  14.234  1.00  0.00    -0.206 F 
ATOM     83  C   UNL     1       6.825  -2.011  14.302  1.00  0.00     0.060 A 
BRANCH  83  84
ATOM     84  S   UNL     1       6.006  -3.406  15.100  1.00  0.00     0.124 S 
ATOM     85  O   UNL     1       5.241  -3.969  13.991  1.00  0.00    -0.237 OA
ATOM     86  O   UNL     1       7.136  -4.207  15.560  1.00  0.00    -0.237 OA
ATOM     87  O   UNL     1       5.214  -2.779  16.154  1.00  0.00    -0.744 OA
ENDBRANCH  83  84
ENDBRANCH  62  76
BRANCH  63  88
ATOM     88  C   UNL     1      12.766   7.663   8.346  1.00  0.00     0.058 A 
ATOM     89  C   UNL     1      14.155   7.652   8.146  1.00  0.00     0.135 A 
ATOM     90  C   UNL     1      12.051   8.781   7.890  1.00  0.00     0.135 A 
ATOM     91  F   UNL     1      14.884   6.609   8.571  1.00  0.00    -0.206 F 
ATOM     92  C   UNL     1      14.814   8.716   7.537  1.00  0.00     0.059 A 
ATOM     93  C   UNL     1      12.685   9.848   7.259  1.00  0.00     0.059 A 
ATOM     94  F   UNL     1      10.719   8.836   8.043  1.00  0.00    -0.206 F 
ATOM     95  C   UNL     1      14.070   9.810   7.096  1.00  0.00     0.060 A 
BRANCH  95  96
ATOM     96  S   UNL     1      14.933  11.167   6.272  1.00  0.00     0.124 S 
ATOM     97  O   UNL     1      15.642  11.784   7.386  1.00  0.00    -0.237 OA
ATOM     98  O   UNL     1      15.760  10.458   5.302  1.00  0.00    -0.237 OA
ATOM     99  O   UNL     1      13.846  11.957   5.700  1.00  0.00    -0.744 OA
ENDBRANCH  95  96
ENDBRANCH  63  88
BRANCH  75 100
ATOM    100  C   UNL     1      12.792   5.296  14.909  1.00  0.00     0.058 A 
ATOM    101  C   UNL     1      12.381   6.441  15.608  1.00  0.00     0.135 A 
ATOM    102  C   UNL     1      13.835   4.529  15.453  1.00  0.00     0.135 A 
ATOM    103  F   UNL     1      11.391   7.208  15.125  1.00  0.00    -0.206 F 
ATOM    104  C   UNL     1      12.987   6.816  16.801  1.00  0.00     0.059 A 
ATOM    105  C   UNL     1      14.438   4.872  16.658  1.00  0.00     0.059 A 
ATOM    106  F   UNL     1      14.255   3.418  14.827  1.00  0.00    -0.206 F 
ATOM    107  C   UNL     1      14.011   6.021  17.322  1.00  0.00     0.060 A 
BRANCH 107 108
ATOM    108  S   UNL     1      14.750   6.492  18.899  1.00  0.00     0.124 S 
ATOM    109  O   UNL     1      15.544   7.655  18.515  1.00  0.00    -0.237 OA
ATOM    110  O   UNL     1      13.577   6.770  19.723  1.00  0.00    -0.237 OA
ATOM    111  O   UNL     1      15.514   5.309  19.284  1.00  0.00    -0.744 OA
ENDBRANCH 107 108
ENDBRANCH  75 100
ENDBRANCH  49  50
ENDBRANCH  41  44
ENDBRANCH  39  40
ENDBRANCH  38  39
ENDBRANCH   1  38
TORSDOF 20
