REMARK SMILES COc1ccc(NC(=O)[C@H](CC(=O)NCCCCNC(=O)c2ccc(-c3c4nc(c(-c5c(F)cc(S(=O)(=O)[O-])cc5F)c5ccc([nH]5)c(-c5c(F)cc(S(=O)(=O)[O-])cc5F)c5nc(c(-c6c(F)cc(S(=O)(=O)[O-])cc6F)c6ccc3[nH]6)C=C5)C=C4)cc2)Cc2ccccc2)cc1
REMARK SMILES IDX 16 1 15 2 14 3 12 4 13 5 11 7 10 8 8 9 7 10 9 12 6 13 3 14
REMARK SMILES IDX 4 15 96 16 5 17 95 18 2 19 1 20 88 21 89 22 90 23 94 24
REMARK SMILES IDX 91 25 93 26 92 27 17 28 18 29 19 30 20 31 21 33 22 34 23 35
REMARK SMILES IDX 87 36 24 37 86 38 25 39 26 40 27 41 80 42 28 43 85 44 79 45
REMARK SMILES IDX 81 46 29 47 84 48 78 49 77 50 30 52 64 53 43 54 63 55 44 56
REMARK SMILES IDX 47 57 62 58 82 59 45 60 46 61 61 63 83 64 48 65 31 66 32 67
REMARK SMILES IDX 41 68 33 69 34 70 40 71 42 72 35 73 36 74 37 75 38 76 39 77
REMARK SMILES IDX 65 78 66 79 75 80 67 81 68 82 74 83 76 84 69 85 70 86 71 87
REMARK SMILES IDX 72 88 73 89 49 90 50 91 59 92 51 93 52 94 58 95 60 96 53 97
REMARK SMILES IDX 54 98 55 99 56 100 57 101
REMARK H PARENT 14 6 7 11 19 32 81 51 47 62
REMARK Flexibility Score: inf
ROOT
ATOM      1  C   UNL     1      -1.655  10.337  -2.717  1.00  0.00     0.023 C 
ENDROOT
BRANCH   1   2
ATOM      2  C   UNL     1      -0.159  10.029  -2.740  1.00  0.00     0.116 C 
BRANCH   2   3
ATOM      3  N   UNL     1       0.401  10.192  -1.418  1.00  0.00    -0.356 N 
ATOM      4  C   UNL     1       0.810   9.260  -0.524  1.00  0.00     0.220 C 
ATOM      5  O   UNL     1       1.171   9.643   0.588  1.00  0.00    -0.275 OA
ATOM      6  H   UNL     1       0.500  11.125  -1.120  1.00  0.00     0.163 HD
BRANCH   4   7
ATOM      7  C   UNL     1       0.979   7.821  -0.952  1.00  0.00     0.113 C 
BRANCH   7   8
ATOM      8  C   UNL     1      -0.268   6.995  -1.304  1.00  0.00     0.092 C 
BRANCH   8   9
ATOM      9  C   UNL     1      -0.099   6.074  -2.519  1.00  0.00     0.228 C 
ATOM     10  N   UNL     1       1.049   5.426  -2.872  1.00  0.00    -0.326 N 
ATOM     11  H   UNL     1       0.968   4.905  -3.703  1.00  0.00     0.169 HD
ATOM     12  O   UNL     1      -1.067   5.916  -3.277  1.00  0.00    -0.274 OA
BRANCH  10  13
ATOM     13  C   UNL     1       2.321   5.353  -2.285  1.00  0.00     0.041 A 
ATOM     14  C   UNL     1       4.904   5.712  -1.253  1.00  0.00     0.119 A 
ATOM     15  C   UNL     1       3.827   5.491  -0.399  1.00  0.00     0.048 A 
ATOM     16  C   UNL     1       4.710   5.609  -2.629  1.00  0.00     0.048 A 
ATOM     17  C   UNL     1       2.545   5.283  -0.915  1.00  0.00     0.030 A 
ATOM     18  C   UNL     1       3.423   5.415  -3.143  1.00  0.00     0.030 A 
BRANCH  14  19
ATOM     19  O   UNL     1       6.089   6.005  -0.639  1.00  0.00    -0.497 OA
ATOM     20  C   UNL     1       7.028   6.732  -1.427  1.00  0.00     0.278 C 
ENDBRANCH  14  19
ENDBRANCH  10  13
ENDBRANCH   8   9
BRANCH   8  21
ATOM     21  C   UNL     1      -0.925   6.183  -0.173  1.00  0.00     0.049 C 
BRANCH  21  22
ATOM     22  C   UNL     1      -1.091   6.968   1.099  1.00  0.00    -0.047 A 
ATOM     23  C   UNL     1      -2.101   7.933   1.218  1.00  0.00     0.004 A 
ATOM     24  C   UNL     1      -0.172   6.807   2.144  1.00  0.00     0.004 A 
ATOM     25  C   UNL     1      -2.162   8.748   2.348  1.00  0.00     0.000 A 
ATOM     26  C   UNL     1      -0.231   7.628   3.268  1.00  0.00     0.000 A 
ATOM     27  C   UNL     1      -1.220   8.603   3.366  1.00  0.00     0.000 A 
ENDBRANCH  21  22
ENDBRANCH   8  21
ENDBRANCH   7   8
ENDBRANCH   4   7
ENDBRANCH   2   3
ENDBRANCH   1   2
BRANCH   1  28
ATOM     28  C   UNL     1      -1.994  11.752  -2.235  1.00  0.00     0.023 C 
BRANCH  28  29
ATOM     29  C   UNL     1      -1.240  12.868  -2.947  1.00  0.00     0.116 C 
BRANCH  29  30
ATOM     30  N   UNL     1      -1.446  12.845  -4.386  1.00  0.00    -0.352 N 
ATOM     31  C   UNL     1      -1.663  13.905  -5.231  1.00  0.00     0.251 C 
ATOM     32  H   UNL     1      -1.427  11.956  -4.809  1.00  0.00     0.163 HD
ATOM     33  O   UNL     1      -1.964  13.711  -6.405  1.00  0.00    -0.269 OA
BRANCH  31  34
ATOM     34  C   UNL     1      -1.563  15.276  -4.696  1.00  0.00     0.039 A 
ATOM     35  C   UNL     1      -2.621  16.161  -4.910  1.00  0.00     0.014 A 
ATOM     36  C   UNL     1      -0.449  15.665  -3.946  1.00  0.00     0.014 A 
ATOM     37  C   UNL     1      -2.587  17.425  -4.320  1.00  0.00     0.010 A 
ATOM     38  C   UNL     1      -0.449  16.899  -3.304  1.00  0.00     0.010 A 
ATOM     39  C   UNL     1      -1.516  17.791  -3.486  1.00  0.00    -0.014 A 
BRANCH  39  40
ATOM     40  C   UNL     1      -1.504  19.103  -2.792  1.00  0.00     0.031 A 
ATOM     41  C   UNL     1      -0.446  20.119  -3.121  1.00  0.00     0.074 A 
ATOM     42  C   UNL     1      -2.410  19.351  -1.825  1.00  0.00     0.049 A 
ATOM     43  N   UNL     1      -0.239  21.296  -2.589  1.00  0.00    -0.248 NA
ATOM     44  C   UNL     1       0.524  19.755  -4.166  1.00  0.00     0.031 C 
ATOM     45  C   UNL     1      -3.450  18.420  -1.381  1.00  0.00     0.029 A 
ATOM     46  N   UNL     1      -2.597  20.458  -1.036  1.00  0.00    -0.354 N 
ATOM     47  C   UNL     1       0.886  21.807  -3.225  1.00  0.00     0.074 A 
ATOM     48  C   UNL     1       1.351  20.790  -4.143  1.00  0.00     0.031 C 
ATOM     49  C   UNL     1      -4.179  19.003  -0.415  1.00  0.00     0.029 A 
ATOM     50  C   UNL     1      -3.639  20.332  -0.147  1.00  0.00     0.049 A 
ATOM     51  H   UNL     1      -2.038  21.266  -1.100  1.00  0.00     0.167 HD
ATOM     52  C   UNL     1       1.464  23.022  -3.074  1.00  0.00     0.037 A 
ATOM     53  C   UNL     1      -4.104  21.190   0.782  1.00  0.00     0.037 A 
ATOM     54  C   UNL     1       0.980  24.038  -2.176  1.00  0.00     0.049 A 
ATOM     55  C   UNL     1      -3.448  22.537   0.926  1.00  0.00     0.074 A 
ATOM     56  C   UNL     1       1.457  25.324  -1.994  1.00  0.00     0.029 A 
ATOM     57  N   UNL     1      -0.092  23.882  -1.308  1.00  0.00    -0.354 N 
ATOM     58  N   UNL     1      -2.426  23.030   0.267  1.00  0.00    -0.248 NA
ATOM     59  C   UNL     1      -4.010  23.446   1.933  1.00  0.00     0.031 C 
ATOM     60  C   UNL     1       0.701  25.932  -0.986  1.00  0.00     0.029 A 
ATOM     61  C   UNL     1      -0.278  25.042  -0.574  1.00  0.00     0.049 A 
ATOM     62  H   UNL     1      -0.639  23.068  -1.227  1.00  0.00     0.167 HD
ATOM     63  C   UNL     1      -2.240  24.316   0.762  1.00  0.00     0.074 A 
ATOM     64  C   UNL     1      -3.263  24.529   1.765  1.00  0.00     0.031 C 
ATOM     65  C   UNL     1      -1.307  25.238   0.417  1.00  0.00     0.037 A 
BRANCH  52  66
ATOM     66  C   UNL     1       2.682  23.323  -3.905  1.00  0.00     0.058 A 
ATOM     67  C   UNL     1       2.596  23.517  -5.293  1.00  0.00     0.135 A 
ATOM     68  C   UNL     1       3.944  23.455  -3.304  1.00  0.00     0.135 A 
ATOM     69  F   UNL     1       1.417  23.387  -5.923  1.00  0.00    -0.206 F 
ATOM     70  C   UNL     1       3.721  23.802  -6.060  1.00  0.00     0.059 A 
ATOM     71  C   UNL     1       5.079  23.768  -4.047  1.00  0.00     0.059 A 
ATOM     72  F   UNL     1       4.084  23.279  -1.980  1.00  0.00    -0.206 F 
ATOM     73  C   UNL     1       4.959  23.926  -5.427  1.00  0.00     0.060 A 
BRANCH  73  74
ATOM     74  S   UNL     1       6.407  24.305  -6.435  1.00  0.00     0.124 S 
ATOM     75  O   UNL     1       6.628  23.033  -7.117  1.00  0.00    -0.237 OA
ATOM     76  O   UNL     1       5.927  25.398  -7.274  1.00  0.00    -0.237 OA
ATOM     77  O   UNL     1       7.421  24.672  -5.451  1.00  0.00    -0.744 OA
ENDBRANCH  73  74
ENDBRANCH  52  66
BRANCH  53  78
ATOM     78  C   UNL     1      -5.264  20.810   1.632  1.00  0.00     0.058 A 
ATOM     79  C   UNL     1      -6.513  21.426   1.464  1.00  0.00     0.135 A 
ATOM     80  C   UNL     1      -5.151  19.819   2.619  1.00  0.00     0.135 A 
ATOM     81  F   UNL     1      -6.670  22.383   0.537  1.00  0.00    -0.206 F 
ATOM     82  C   UNL     1      -7.605  21.087   2.256  1.00  0.00     0.059 A 
ATOM     83  C   UNL     1      -6.236  19.444   3.406  1.00  0.00     0.059 A 
ATOM     84  F   UNL     1      -3.982  19.187   2.807  1.00  0.00    -0.206 F 
ATOM     85  C   UNL     1      -7.457  20.092   3.224  1.00  0.00     0.060 A 
BRANCH  85  86
ATOM     86  S   UNL     1      -8.893  19.628   4.216  1.00  0.00     0.124 S 
ATOM     87  O   UNL     1      -9.012  20.771   5.113  1.00  0.00    -0.237 OA
ATOM     88  O   UNL     1      -9.936  19.498   3.204  1.00  0.00    -0.237 OA
ATOM     89  O   UNL     1      -8.477  18.375   4.840  1.00  0.00    -0.744 OA
ENDBRANCH  85  86
ENDBRANCH  53  78
BRANCH  65  90
ATOM     90  C   UNL     1      -1.366  26.573   1.107  1.00  0.00     0.058 A 
ATOM     91  C   UNL     1      -0.982  26.728   2.448  1.00  0.00     0.135 A 
ATOM     92  C   UNL     1      -1.766  27.719   0.402  1.00  0.00     0.135 A 
ATOM     93  F   UNL     1      -0.598  25.662   3.168  1.00  0.00    -0.206 F 
ATOM     94  C   UNL     1      -1.015  27.970   3.073  1.00  0.00     0.059 A 
ATOM     95  C   UNL     1      -1.780  28.976   0.999  1.00  0.00     0.059 A 
ATOM     96  F   UNL     1      -2.133  27.627  -0.886  1.00  0.00    -0.206 F 
ATOM     97  C   UNL     1      -1.414  29.089   2.339  1.00  0.00     0.060 A 
BRANCH  97  98
ATOM     98  S   UNL     1      -1.421  30.700   3.153  1.00  0.00     0.124 S 
ATOM     99  O   UNL     1      -2.603  30.595   4.002  1.00  0.00    -0.237 OA
ATOM    100  O   UNL     1      -0.139  30.705   3.849  1.00  0.00    -0.237 OA
ATOM    101  O   UNL     1      -1.528  31.641   2.042  1.00  0.00    -0.744 OA
ENDBRANCH  97  98
ENDBRANCH  65  90
ENDBRANCH  39  40
ENDBRANCH  31  34
ENDBRANCH  29  30
ENDBRANCH  28  29
ENDBRANCH   1  28
TORSDOF 20
