REMARK SMILES O=C(CC1CC1)NCc1ccc(C(=O)NCCCCNC(=O)c2ccc(-c3c4nc(c(-c5c(F)cc(S(=O)(=O)[O-])cc5F)c5ccc([nH]5)c(-c5c(F)cc(S(=O)(=O)[O-])cc5F)c5nc(c(-c6c(F)cc(S(=O)(=O)[O-])cc6F)c6ccc3[nH]6)C=C5)C=C4)cc2)o1
REMARK SMILES IDX 17 1 16 2 15 3 13 4 14 5 12 7 9 8 10 9 89 10 11 11 8 12 7 13
REMARK SMILES IDX 1 14 2 15 3 17 4 18 5 19 6 20 18 21 19 22 20 23 21 24 22 26
REMARK SMILES IDX 23 27 24 28 88 29 25 30 87 31 26 32 27 33 28 34 81 35 29 36
REMARK SMILES IDX 86 37 80 38 82 39 30 40 85 41 79 42 78 43 31 45 65 46 44 47
REMARK SMILES IDX 64 48 45 49 48 50 63 51 83 52 46 53 47 54 62 56 84 57 49 58
REMARK SMILES IDX 32 59 33 60 42 61 34 62 35 63 41 64 43 65 36 66 37 67 38 68
REMARK SMILES IDX 39 69 40 70 66 71 67 72 76 73 68 74 69 75 75 76 77 77 70 78
REMARK SMILES IDX 71 79 72 80 73 81 74 82 50 83 51 84 60 85 52 86 53 87 59 88
REMARK SMILES IDX 61 89 54 90 55 91 56 92 57 93 58 94
REMARK H PARENT 15 6 7 16 20 25 82 44 48 55
REMARK Flexibility Score: inf
ROOT
ATOM      1  C   UNL     1       4.882  -2.075  -7.904  1.00  0.00     0.023 C 
ENDROOT
BRANCH   1   2
ATOM      2  C   UNL     1       3.438  -2.477  -7.607  1.00  0.00     0.116 C 
BRANCH   2   3
ATOM      3  N   UNL     1       3.386  -3.717  -6.863  1.00  0.00    -0.349 N 
ATOM      4  C   UNL     1       3.191  -3.960  -5.523  1.00  0.00     0.286 C 
ATOM      5  O   UNL     1       3.132  -5.146  -5.193  1.00  0.00    -0.266 OA
ATOM      6  H   UNL     1       3.514  -4.526  -7.410  1.00  0.00     0.163 HD
BRANCH   4   7
ATOM      7  C   UNL     1       3.042  -2.871  -4.572  1.00  0.00     0.191 A 
ATOM      8  C   UNL     1       2.444  -2.063  -2.599  1.00  0.00     0.124 A 
ATOM      9  C   UNL     1       2.872  -0.987  -3.345  1.00  0.00     0.048 A 
ATOM     10  O   UNL     1       2.534  -3.201  -3.335  1.00  0.00    -0.454 OA
ATOM     11  C   UNL     1       3.319  -1.515  -4.576  1.00  0.00     0.056 A 
BRANCH   8  12
ATOM     12  C   UNL     1       1.994  -2.202  -1.190  1.00  0.00     0.191 C 
BRANCH  12  13
ATOM     13  N   UNL     1       2.721  -1.205  -0.438  1.00  0.00    -0.349 N 
ATOM     14  O   UNL     1       0.922   0.040   0.258  1.00  0.00    -0.275 OA
ATOM     15  C   UNL     1       2.133  -0.110   0.142  1.00  0.00     0.220 C 
ATOM     16  H   UNL     1       3.694  -1.318  -0.336  1.00  0.00     0.163 HD
BRANCH  15  17
ATOM     17  C   UNL     1       3.136   0.951   0.554  1.00  0.00     0.103 C 
BRANCH  17  18
ATOM     18  C   UNL     1       3.929   0.607   1.780  1.00  0.00    -0.002 C 
ATOM     19  C   UNL     1       4.959  -0.497   1.820  1.00  0.00     0.004 C 
ATOM     20  C   UNL     1       5.402   0.936   1.822  1.00  0.00     0.004 C 
ENDBRANCH  17  18
ENDBRANCH  15  17
ENDBRANCH  12  13
ENDBRANCH   8  12
ENDBRANCH   4   7
ENDBRANCH   2   3
ENDBRANCH   1   2
BRANCH   1  21
ATOM     21  C   UNL     1       5.466  -2.773  -9.136  1.00  0.00     0.023 C 
BRANCH  21  22
ATOM     22  C   UNL     1       4.722  -2.502 -10.442  1.00  0.00     0.116 C 
BRANCH  22  23
ATOM     23  N   UNL     1       4.614  -1.085 -10.759  1.00  0.00    -0.352 N 
ATOM     24  C   UNL     1       4.717  -0.478 -11.989  1.00  0.00     0.251 C 
ATOM     25  H   UNL     1       4.446  -0.485  -9.997  1.00  0.00     0.163 HD
ATOM     26  O   UNL     1       4.721   0.745 -12.082  1.00  0.00    -0.269 OA
BRANCH  24  27
ATOM     27  C   UNL     1       4.866  -1.326 -13.188  1.00  0.00     0.039 A 
ATOM     28  C   UNL     1       5.948  -1.106 -14.042  1.00  0.00     0.014 A 
ATOM     29  C   UNL     1       3.987  -2.389 -13.409  1.00  0.00     0.014 A 
ATOM     30  C   UNL     1       6.202  -2.012 -15.072  1.00  0.00     0.010 A 
ATOM     31  C   UNL     1       4.282  -3.328 -14.391  1.00  0.00     0.010 A 
ATOM     32  C   UNL     1       5.403  -3.159 -15.220  1.00  0.00    -0.014 A 
BRANCH  32  33
ATOM     33  C   UNL     1       5.745  -4.221 -16.199  1.00  0.00     0.031 A 
ATOM     34  C   UNL     1       4.799  -4.544 -17.322  1.00  0.00     0.074 A 
ATOM     35  C   UNL     1       6.863  -4.953 -16.020  1.00  0.00     0.049 A 
ATOM     36  N   UNL     1       4.864  -5.508 -18.202  1.00  0.00    -0.248 NA
ATOM     37  C   UNL     1       3.612  -3.685 -17.456  1.00  0.00     0.031 C 
ATOM     38  C   UNL     1       7.838  -4.759 -14.943  1.00  0.00     0.029 A 
ATOM     39  N   UNL     1       7.360  -6.021 -16.725  1.00  0.00    -0.354 N 
ATOM     40  C   UNL     1       3.726  -5.380 -18.988  1.00  0.00     0.074 A 
ATOM     41  C   UNL     1       2.962  -4.275 -18.449  1.00  0.00     0.031 C 
ATOM     42  C   UNL     1       8.819  -5.666 -15.068  1.00  0.00     0.029 A 
ATOM     43  C   UNL     1       8.521  -6.539 -16.198  1.00  0.00     0.049 A 
ATOM     44  H   UNL     1       6.926  -6.382 -17.531  1.00  0.00     0.167 HD
ATOM     45  C   UNL     1       3.362  -6.105 -20.073  1.00  0.00     0.037 A 
ATOM     46  C   UNL     1       9.250  -7.610 -16.568  1.00  0.00     0.037 A 
ATOM     47  C   UNL     1       4.137  -7.195 -20.608  1.00  0.00     0.049 A 
ATOM     48  C   UNL     1       8.801  -8.427 -17.750  1.00  0.00     0.074 A 
ATOM     49  C   UNL     1       3.885  -7.953 -21.738  1.00  0.00     0.029 A 
ATOM     50  N   UNL     1       5.306  -7.689 -20.048  1.00  0.00    -0.354 N 
ATOM     51  N   UNL     1       7.760  -8.247 -18.528  1.00  0.00    -0.248 NA
ATOM     52  C   UNL     1       9.620  -9.595 -18.104  1.00  0.00     0.031 C 
ATOM     53  C   UNL     1       4.868  -8.943 -21.828  1.00  0.00     0.029 A 
ATOM     54  C   UNL     1       5.766  -8.767 -20.787  1.00  0.00     0.049 A 
ATOM     55  H   UNL     1       5.744  -7.328 -19.244  1.00  0.00     0.167 HD
ATOM     56  C   UNL     1       7.809  -9.267 -19.472  1.00  0.00     0.074 A 
ATOM     57  C   UNL     1       8.994 -10.048 -19.181  1.00  0.00     0.031 C 
ATOM     58  C   UNL     1       6.948  -9.536 -20.484  1.00  0.00     0.037 A 
BRANCH  45  59
ATOM     59  C   UNL     1       2.070  -5.747 -20.754  1.00  0.00     0.058 A 
ATOM     60  C   UNL     1       1.923  -4.553 -21.477  1.00  0.00     0.135 A 
ATOM     61  C   UNL     1       0.978  -6.631 -20.724  1.00  0.00     0.135 A 
ATOM     62  F   UNL     1       2.928  -3.664 -21.527  1.00  0.00    -0.206 F 
ATOM     63  C   UNL     1       0.734  -4.236 -22.125  1.00  0.00     0.059 A 
ATOM     64  C   UNL     1      -0.211  -6.348 -21.390  1.00  0.00     0.059 A 
ATOM     65  F   UNL     1       1.062  -7.786 -20.045  1.00  0.00    -0.206 F 
ATOM     66  C   UNL     1      -0.327  -5.141 -22.077  1.00  0.00     0.060 A 
BRANCH  66  67
ATOM     67  S   UNL     1      -1.858  -4.717 -22.935  1.00  0.00     0.124 S 
ATOM     68  O   UNL     1      -2.375  -3.643 -22.092  1.00  0.00    -0.237 OA
ATOM     69  O   UNL     1      -1.374  -4.312 -24.251  1.00  0.00    -0.237 OA
ATOM     70  O   UNL     1      -2.622  -5.960 -22.904  1.00  0.00    -0.744 OA
ENDBRANCH  66  67
ENDBRANCH  45  59
BRANCH  46  71
ATOM     71  C   UNL     1      10.476  -7.978 -15.809  1.00  0.00     0.058 A 
ATOM     72  C   UNL     1      11.748  -7.854 -16.387  1.00  0.00     0.135 A 
ATOM     73  C   UNL     1      10.404  -8.454 -14.490  1.00  0.00     0.135 A 
ATOM     74  F   UNL     1      11.871  -7.412 -17.648  1.00  0.00    -0.206 F 
ATOM     75  C   UNL     1      12.902  -8.204 -15.694  1.00  0.00     0.059 A 
ATOM     76  C   UNL     1      11.545  -8.783 -13.765  1.00  0.00     0.059 A 
ATOM     77  F   UNL     1       9.213  -8.578 -13.883  1.00  0.00    -0.206 F 
ATOM     78  C   UNL     1      12.790  -8.664 -14.381  1.00  0.00     0.060 A 
BRANCH  78  79
ATOM     79  S   UNL     1      14.299  -9.070 -13.475  1.00  0.00     0.124 S 
ATOM     80  O   UNL     1      14.717 -10.300 -14.137  1.00  0.00    -0.237 OA
ATOM     81  O   UNL     1      15.129  -7.896 -13.724  1.00  0.00    -0.237 OA
ATOM     82  O   UNL     1      13.834  -9.220 -12.099  1.00  0.00    -0.744 OA
ENDBRANCH  78  79
ENDBRANCH  46  71
BRANCH  58  83
ATOM     83  C   UNL     1       7.255 -10.718 -21.363  1.00  0.00     0.058 A 
ATOM     84  C   UNL     1       7.092 -12.034 -20.906  1.00  0.00     0.135 A 
ATOM     85  C   UNL     1       7.645 -10.531 -22.700  1.00  0.00     0.135 A 
ATOM     86  F   UNL     1       6.731 -12.268 -19.634  1.00  0.00    -0.206 F 
ATOM     87  C   UNL     1       7.316 -13.126 -21.738  1.00  0.00     0.059 A 
ATOM     88  C   UNL     1       7.846 -11.608 -23.559  1.00  0.00     0.059 A 
ATOM     89  F   UNL     1       7.809  -9.293 -23.190  1.00  0.00    -0.206 F 
ATOM     90  C   UNL     1       7.685 -12.902 -23.066  1.00  0.00     0.060 A 
BRANCH  90  91
ATOM     91  S   UNL     1       7.913 -14.328 -24.149  1.00  0.00     0.124 S 
ATOM     92  O   UNL     1       9.152 -14.897 -23.630  1.00  0.00    -0.237 OA
ATOM     93  O   UNL     1       6.704 -15.105 -23.898  1.00  0.00    -0.237 OA
ATOM     94  O   UNL     1       8.005 -13.734 -25.480  1.00  0.00    -0.744 OA
ENDBRANCH  90  91
ENDBRANCH  58  83
ENDBRANCH  32  33
ENDBRANCH  24  27
ENDBRANCH  22  23
ENDBRANCH  21  22
ENDBRANCH   1  21
TORSDOF 18
