REMARK SMILES [NH3+]Cc1c(-c2ccccc2)c(C(=O)NCCCCNC(=O)c2ccc(-c3c4nc(c(-c5c(F)cc(S(=O)(=O)[O-])cc5F)c5ccc([nH]5)c(-c5c(F)cc(S(=O)(=O)[O-])cc5F)c5nc(c(-c6c(F)cc(S(=O)(=O)[O-])cc6F)c6ccc3[nH]6)C=C5)C=C4)cc2)c2ccccn12
REMARK SMILES IDX 17 1 16 2 15 3 14 4 12 5 13 6 11 8 3 9 4 10 93 11 88 12
REMARK SMILES IDX 92 13 89 14 91 15 90 16 2 17 1 18 5 22 6 23 10 24 7 25 9 26
REMARK SMILES IDX 8 27 18 28 19 29 20 30 21 32 22 33 23 34 87 35 24 36 86 37
REMARK SMILES IDX 25 38 26 39 27 40 80 41 28 42 85 43 79 44 81 45 29 46 84 47
REMARK SMILES IDX 78 48 77 49 30 51 64 52 43 53 63 54 44 55 47 56 62 57 82 58
REMARK SMILES IDX 45 59 46 60 61 62 83 63 48 64 31 65 32 66 41 67 33 68 34 69
REMARK SMILES IDX 40 70 42 71 35 72 36 73 37 74 38 75 39 76 65 77 66 78 75 79
REMARK SMILES IDX 67 80 68 81 74 82 76 83 69 84 70 85 71 86 72 87 73 88 49 89
REMARK SMILES IDX 50 90 59 91 51 92 52 93 58 94 60 95 53 96 54 97 55 98 56 99
REMARK SMILES IDX 57 100
REMARK H PARENT 14 7 1 19 1 20 1 21 19 31 81 50 47 61
REMARK Flexibility Score: inf
ROOT
ATOM      1  C   UNL     1       1.016  -7.053   6.292  1.00  0.00     0.023 C 
ENDROOT
BRANCH   1   2
ATOM      2  C   UNL     1       0.695  -5.641   5.804  1.00  0.00     0.023 C 
BRANCH   2   3
ATOM      3  C   UNL     1       1.511  -5.104   4.633  1.00  0.00     0.116 C 
BRANCH   3   4
ATOM      4  N   UNL     1       1.453  -5.886   3.415  1.00  0.00    -0.352 N 
ATOM      5  C   UNL     1       1.544  -5.498   2.091  1.00  0.00     0.254 C 
ATOM      6  O   UNL     1       1.538  -6.398   1.253  1.00  0.00    -0.269 OA
ATOM      7  H   UNL     1       1.327  -6.852   3.552  1.00  0.00     0.163 HD
BRANCH   5   8
ATOM      8  C   UNL     1       1.555  -4.082   1.705  1.00  0.00     0.073 A 
ATOM      9  C   UNL     1       1.039  -2.127   0.578  1.00  0.00     0.086 A 
ATOM     10  C   UNL     1       0.947  -3.523   0.530  1.00  0.00     0.022 A 
ATOM     11  N   UNL     1       1.726  -1.825   1.749  1.00  0.00    -0.314 N 
ATOM     12  C   UNL     1       2.234  -3.018   2.280  1.00  0.00     0.059 A 
ATOM     13  C   UNL     1       1.947  -0.599   2.394  1.00  0.00     0.092 A 
ATOM     14  C   UNL     1       3.236  -2.901   3.294  1.00  0.00     0.027 A 
ATOM     15  C   UNL     1       2.762  -0.525   3.458  1.00  0.00     0.018 A 
ATOM     16  C   UNL     1       3.471  -1.714   3.877  1.00  0.00     0.004 A 
BRANCH   9  17
ATOM     17  C   UNL     1       0.470  -1.175  -0.440  1.00  0.00     0.315 C 
BRANCH  17  18
ATOM     18  N   UNL     1       0.969   0.188  -0.433  1.00  0.00    -0.353 N 
ATOM     19  H   UNL     1       0.504   0.724  -1.167  1.00  0.00     0.344 HD
ATOM     20  H   UNL     1       1.975   0.183  -0.603  1.00  0.00     0.344 HD
ATOM     21  H   UNL     1       0.779   0.616   0.473  1.00  0.00     0.344 HD
ENDBRANCH  17  18
ENDBRANCH   9  17
BRANCH  10  22
ATOM     22  C   UNL     1       0.309  -4.216  -0.584  1.00  0.00    -0.016 A 
ATOM     23  C   UNL     1      -0.950  -4.803  -0.442  1.00  0.00     0.009 A 
ATOM     24  C   UNL     1       0.969  -4.287  -1.819  1.00  0.00     0.009 A 
ATOM     25  C   UNL     1      -1.548  -5.443  -1.532  1.00  0.00     0.001 A 
ATOM     26  C   UNL     1       0.367  -4.919  -2.908  1.00  0.00     0.001 A 
ATOM     27  C   UNL     1      -0.892  -5.496  -2.764  1.00  0.00     0.000 A 
ENDBRANCH  10  22
ENDBRANCH   5   8
ENDBRANCH   3   4
ENDBRANCH   2   3
ENDBRANCH   1   2
BRANCH   1  28
ATOM     28  C   UNL     1       2.487  -7.401   6.492  1.00  0.00     0.116 C 
BRANCH  28  29
ATOM     29  N   UNL     1       3.180  -6.545   7.444  1.00  0.00    -0.352 N 
ATOM     30  C   UNL     1       3.850  -6.858   8.605  1.00  0.00     0.251 C 
ATOM     31  H   UNL     1       3.166  -5.586   7.221  1.00  0.00     0.163 HD
ATOM     32  O   UNL     1       4.317  -5.953   9.293  1.00  0.00    -0.269 OA
BRANCH  30  33
ATOM     33  C   UNL     1       3.972  -8.264   9.055  1.00  0.00     0.039 A 
ATOM     34  C   UNL     1       3.718  -8.565  10.397  1.00  0.00     0.014 A 
ATOM     35  C   UNL     1       4.319  -9.287   8.170  1.00  0.00     0.014 A 
ATOM     36  C   UNL     1       3.713  -9.897  10.824  1.00  0.00     0.010 A 
ATOM     37  C   UNL     1       4.226 -10.617   8.576  1.00  0.00     0.010 A 
ATOM     38  C   UNL     1       3.916 -10.940   9.905  1.00  0.00    -0.014 A 
BRANCH  38  39
ATOM     39  C   UNL     1       3.794 -12.366  10.313  1.00  0.00     0.031 A 
ATOM     40  C   UNL     1       4.974 -13.294  10.198  1.00  0.00     0.074 A 
ATOM     41  C   UNL     1       2.600 -12.846  10.721  1.00  0.00     0.049 A 
ATOM     42  N   UNL     1       5.043 -14.578  10.441  1.00  0.00    -0.248 NA
ATOM     43  C   UNL     1       6.236 -12.709   9.718  1.00  0.00     0.031 C 
ATOM     44  C   UNL     1       1.362 -12.069  10.815  1.00  0.00     0.029 A 
ATOM     45  N   UNL     1       2.228 -14.105  11.122  1.00  0.00    -0.354 N 
ATOM     46  C   UNL     1       6.343 -14.956  10.126  1.00  0.00     0.074 A 
ATOM     47  C   UNL     1       7.013 -13.777   9.621  1.00  0.00     0.031 C 
ATOM     48  C   UNL     1       0.377 -12.860  11.271  1.00  0.00     0.029 A 
ATOM     49  C   UNL     1       0.901 -14.207  11.470  1.00  0.00     0.049 A 
ATOM     50  H   UNL     1       2.853 -14.865  11.158  1.00  0.00     0.167 HD
ATOM     51  C   UNL     1       6.935 -16.166  10.269  1.00  0.00     0.037 A 
ATOM     52  C   UNL     1       0.185 -15.265  11.898  1.00  0.00     0.037 A 
ATOM     53  C   UNL     1       6.277 -17.329  10.805  1.00  0.00     0.049 A 
ATOM     54  C   UNL     1       0.869 -16.595  12.070  1.00  0.00     0.074 A 
ATOM     55  C   UNL     1       6.810 -18.581  11.056  1.00  0.00     0.029 A 
ATOM     56  N   UNL     1       4.941 -17.382  11.176  1.00  0.00    -0.354 N 
ATOM     57  N   UNL     1       2.119 -16.914  11.835  1.00  0.00    -0.248 NA
ATOM     58  C   UNL     1       0.049 -17.705  12.573  1.00  0.00     0.031 C 
ATOM     59  C   UNL     1       5.788 -19.403  11.544  1.00  0.00     0.029 A 
ATOM     60  C   UNL     1       4.628 -18.650  11.638  1.00  0.00     0.049 A 
ATOM     61  H   UNL     1       4.309 -16.630  11.120  1.00  0.00     0.167 HD
ATOM     62  C   UNL     1       2.241 -18.255  12.182  1.00  0.00     0.074 A 
ATOM     63  C   UNL     1       0.941 -18.682  12.658  1.00  0.00     0.031 C 
ATOM     64  C   UNL     1       3.330 -19.060  12.113  1.00  0.00     0.037 A 
BRANCH  51  65
ATOM     65  C   UNL     1       8.375 -16.289   9.851  1.00  0.00     0.058 A 
ATOM     66  C   UNL     1       9.406 -15.676  10.581  1.00  0.00     0.135 A 
ATOM     67  C   UNL     1       8.733 -17.049   8.726  1.00  0.00     0.135 A 
ATOM     68  F   UNL     1       9.120 -14.926  11.657  1.00  0.00    -0.206 F 
ATOM     69  C   UNL     1      10.737 -15.782  10.190  1.00  0.00     0.059 A 
ATOM     70  C   UNL     1      10.061 -17.192   8.333  1.00  0.00     0.059 A 
ATOM     71  F   UNL     1       7.788 -17.658   7.992  1.00  0.00    -0.206 F 
ATOM     72  C   UNL     1      11.054 -16.540   9.062  1.00  0.00     0.060 A 
BRANCH  72  73
ATOM     73  S   UNL     1      12.786 -16.667   8.569  1.00  0.00     0.124 S 
ATOM     74  O   UNL     1      13.022 -15.344   7.999  1.00  0.00    -0.237 OA
ATOM     75  O   UNL     1      13.454 -16.938   9.837  1.00  0.00    -0.237 OA
ATOM     76  O   UNL     1      12.788 -17.771   7.614  1.00  0.00    -0.744 OA
ENDBRANCH  72  73
ENDBRANCH  51  65
BRANCH  52  77
ATOM     77  C   UNL     1      -1.258 -15.105  12.226  1.00  0.00     0.058 A 
ATOM     78  C   UNL     1      -1.702 -15.144  13.556  1.00  0.00     0.135 A 
ATOM     79  C   UNL     1      -2.217 -14.901  11.222  1.00  0.00     0.135 A 
ATOM     80  F   UNL     1      -0.824 -15.343  14.550  1.00  0.00    -0.206 F 
ATOM     81  C   UNL     1      -3.047 -15.003  13.880  1.00  0.00     0.059 A 
ATOM     82  C   UNL     1      -3.566 -14.734  11.523  1.00  0.00     0.059 A 
ATOM     83  F   UNL     1      -1.842 -14.840   9.935  1.00  0.00    -0.206 F 
ATOM     84  C   UNL     1      -3.973 -14.796  12.856  1.00  0.00     0.060 A 
BRANCH  84  85
ATOM     85  S   UNL     1      -5.710 -14.564  13.291  1.00  0.00     0.124 S 
ATOM     86  O   UNL     1      -6.111 -15.923  13.636  1.00  0.00    -0.237 OA
ATOM     87  O   UNL     1      -5.626 -13.621  14.402  1.00  0.00    -0.237 OA
ATOM     88  O   UNL     1      -6.293 -14.025  12.066  1.00  0.00    -0.744 OA
ENDBRANCH  84  85
ENDBRANCH  52  77
BRANCH  64  89
ATOM     89  C   UNL     1       3.173 -20.478  12.587  1.00  0.00     0.058 A 
ATOM     90  C   UNL     1       2.467 -21.430  11.837  1.00  0.00     0.135 A 
ATOM     91  C   UNL     1       3.775 -20.899  13.783  1.00  0.00     0.135 A 
ATOM     92  F   UNL     1       1.867 -21.077  10.689  1.00  0.00    -0.206 F 
ATOM     93  C   UNL     1       2.343 -22.747  12.268  1.00  0.00     0.059 A 
ATOM     94  C   UNL     1       3.687 -22.217  14.220  1.00  0.00     0.059 A 
ATOM     95  F   UNL     1       4.471 -20.029  14.533  1.00  0.00    -0.206 F 
ATOM     96  C   UNL     1       2.958 -23.131  13.461  1.00  0.00     0.060 A 
BRANCH  96  97
ATOM     97  S   UNL     1       2.816 -24.850  13.995  1.00  0.00     0.124 S 
ATOM     98  O   UNL     1       1.443 -24.893  14.486  1.00  0.00    -0.237 OA
ATOM     99  O   UNL     1       3.072 -25.584  12.760  1.00  0.00    -0.237 OA
ATOM    100  O   UNL     1       3.853 -24.974  15.016  1.00  0.00    -0.744 OA
ENDBRANCH  96  97
ENDBRANCH  64  89
ENDBRANCH  38  39
ENDBRANCH  30  33
ENDBRANCH  28  29
ENDBRANCH   1  28
TORSDOF 17
