REMARK SMILES O=C(NCCCCNC(=O)c1cc(Br)ccc1OC(=O)c1ccc(F)cc1)c1ccc(-c2c3nc(c(-c4c(F)cc(S(=O)(=O)[O-])cc4F)c4ccc([nH]4)c(-c4c(F)cc(S(=O)(=O)[O-])cc4F)c4nc(c(-c5c(F)cc(S(=O)(=O)[O-])cc5F)c5ccc2[nH]5)C=C4)C=C3)cc1
REMARK SMILES IDX 5 1 4 2 3 3 1 4 2 5 28 7 29 8 93 9 30 10 92 11 31 12 32 13
REMARK SMILES IDX 33 14 86 15 34 16 91 17 85 18 87 19 35 20 90 21 84 22 83 23
REMARK SMILES IDX 36 25 70 26 49 27 69 28 50 29 53 30 68 31 88 32 51 33 52 34
REMARK SMILES IDX 67 36 89 37 54 38 37 39 38 40 47 41 39 42 40 43 46 44 48 45
REMARK SMILES IDX 41 46 42 47 43 48 44 49 45 50 71 51 72 52 81 53 73 54 74 55
REMARK SMILES IDX 80 56 82 57 75 58 76 59 77 60 78 61 79 62 55 63 56 64 65 65
REMARK SMILES IDX 57 66 58 67 64 68 66 69 59 70 60 71 61 72 62 73 63 74 6 75
REMARK SMILES IDX 7 76 8 77 9 78 10 80 11 81 12 82 17 83 13 84 16 85 14 86
REMARK SMILES IDX 15 87 18 88 19 89 20 90 21 91 22 92 27 93 23 94 26 95 24 96
REMARK SMILES IDX 25 97
REMARK H PARENT 3 6 87 24 53 35 8 79
REMARK Flexibility Score: inf
ROOT
ATOM      1  C   UNL     1       5.132  -2.494  -0.892  1.00  0.00     0.023 C 
ENDROOT
BRANCH   1   2
ATOM      2  C   UNL     1       4.749  -1.024  -0.799  1.00  0.00     0.116 C 
BRANCH   2   3
ATOM      3  N   UNL     1       3.312  -0.785  -0.821  1.00  0.00    -0.352 N 
ATOM      4  O   UNL     1       1.321   0.001  -0.105  1.00  0.00    -0.269 OA
ATOM      5  C   UNL     1       2.541  -0.021   0.027  1.00  0.00     0.251 C 
ATOM      6  H   UNL     1       2.821  -1.234  -1.546  1.00  0.00     0.163 HD
BRANCH   5   7
ATOM      7  C   UNL     1       3.185   0.733   1.127  1.00  0.00     0.039 A 
ATOM      8  C   UNL     1       4.348   1.470   0.901  1.00  0.00     0.014 A 
ATOM      9  C   UNL     1       2.641   0.659   2.413  1.00  0.00     0.014 A 
ATOM     10  C   UNL     1       5.068   1.963   1.983  1.00  0.00     0.010 A 
ATOM     11  C   UNL     1       3.318   1.244   3.489  1.00  0.00     0.010 A 
ATOM     12  C   UNL     1       4.566   1.854   3.291  1.00  0.00    -0.014 A 
BRANCH  12  13
ATOM     13  C   UNL     1       5.365   2.401   4.419  1.00  0.00     0.031 A 
ATOM     14  C   UNL     1       5.922   1.501   5.491  1.00  0.00     0.074 A 
ATOM     15  C   UNL     1       5.651   3.718   4.432  1.00  0.00     0.049 A 
ATOM     16  N   UNL     1       6.690   1.809   6.506  1.00  0.00    -0.248 NA
ATOM     17  C   UNL     1       5.569   0.074   5.423  1.00  0.00     0.031 C 
ATOM     18  C   UNL     1       5.166   4.691   3.449  1.00  0.00     0.029 A 
ATOM     19  N   UNL     1       6.445   4.460   5.269  1.00  0.00    -0.354 N 
ATOM     20  C   UNL     1       6.900   0.625   7.203  1.00  0.00     0.074 A 
ATOM     21  C   UNL     1       6.154  -0.405   6.513  1.00  0.00     0.031 C 
ATOM     22  C   UNL     1       5.728   5.882   3.696  1.00  0.00     0.029 A 
ATOM     23  C   UNL     1       6.563   5.775   4.888  1.00  0.00     0.049 A 
ATOM     24  H   UNL     1       6.887   4.086   6.065  1.00  0.00     0.167 HD
ATOM     25  C   UNL     1       7.655   0.414   8.309  1.00  0.00     0.037 A 
ATOM     26  C   UNL     1       7.263   6.788   5.433  1.00  0.00     0.037 A 
ATOM     27  C   UNL     1       8.411   1.440   8.982  1.00  0.00     0.049 A 
ATOM     28  C   UNL     1       8.088   6.532   6.659  1.00  0.00     0.074 A 
ATOM     29  C   UNL     1       9.209   1.324  10.108  1.00  0.00     0.029 A 
ATOM     30  N   UNL     1       8.470   2.770   8.590  1.00  0.00    -0.354 N 
ATOM     31  N   UNL     1       8.264   5.406   7.308  1.00  0.00    -0.248 NA
ATOM     32  C   UNL     1       8.801   7.680   7.231  1.00  0.00     0.031 C 
ATOM     33  C   UNL     1       9.725   2.588  10.414  1.00  0.00     0.029 A 
ATOM     34  C   UNL     1       9.282   3.486   9.456  1.00  0.00     0.049 A 
ATOM     35  H   UNL     1       8.003   3.150   7.810  1.00  0.00     0.167 HD
ATOM     36  C   UNL     1       9.113   5.709   8.365  1.00  0.00     0.074 A 
ATOM     37  C   UNL     1       9.430   7.119   8.256  1.00  0.00     0.031 C 
ATOM     38  C   UNL     1       9.582   4.891   9.340  1.00  0.00     0.037 A 
BRANCH  25  39
ATOM     39  C   UNL     1       7.696  -0.980   8.873  1.00  0.00     0.058 A 
ATOM     40  C   UNL     1       7.050  -1.282  10.082  1.00  0.00     0.135 A 
ATOM     41  C   UNL     1       8.412  -2.010   8.239  1.00  0.00     0.135 A 
ATOM     42  F   UNL     1       6.348  -0.338  10.728  1.00  0.00    -0.206 F 
ATOM     43  C   UNL     1       7.114  -2.553  10.646  1.00  0.00     0.059 A 
ATOM     44  C   UNL     1       8.472  -3.294   8.774  1.00  0.00     0.059 A 
ATOM     45  F   UNL     1       9.031  -1.780   7.071  1.00  0.00    -0.206 F 
ATOM     46  C   UNL     1       7.828  -3.554   9.984  1.00  0.00     0.060 A 
BRANCH  46  47
ATOM     47  S   UNL     1       7.855  -5.214  10.696  1.00  0.00     0.124 S 
ATOM     48  O   UNL     1       8.769  -5.044  11.819  1.00  0.00    -0.237 OA
ATOM     49  O   UNL     1       6.452  -5.425  11.041  1.00  0.00    -0.237 OA
ATOM     50  O   UNL     1       8.349  -6.041   9.599  1.00  0.00    -0.744 OA
ENDBRANCH  46  47
ENDBRANCH  25  39
BRANCH  26  51
ATOM     51  C   UNL     1       7.215   8.126   4.791  1.00  0.00     0.058 A 
ATOM     52  C   UNL     1       6.045   8.900   4.817  1.00  0.00     0.135 A 
ATOM     53  C   UNL     1       8.311   8.617   4.067  1.00  0.00     0.135 A 
ATOM     54  F   UNL     1       4.966   8.466   5.487  1.00  0.00    -0.206 F 
ATOM     55  C   UNL     1       5.947  10.092   4.111  1.00  0.00     0.059 A 
ATOM     56  C   UNL     1       8.245   9.820   3.372  1.00  0.00     0.059 A 
ATOM     57  F   UNL     1       9.454   7.915   4.023  1.00  0.00    -0.206 F 
ATOM     58  C   UNL     1       7.049  10.538   3.381  1.00  0.00     0.060 A 
BRANCH  58  59
ATOM     59  S   UNL     1       6.887  12.065   2.431  1.00  0.00     0.124 S 
ATOM     60  O   UNL     1       6.019  11.635   1.339  1.00  0.00    -0.237 OA
ATOM     61  O   UNL     1       6.284  12.970   3.404  1.00  0.00    -0.237 OA
ATOM     62  O   UNL     1       8.263  12.376   2.056  1.00  0.00    -0.744 OA
ENDBRANCH  58  59
ENDBRANCH  26  51
BRANCH  38  63
ATOM     63  C   UNL     1      10.495   5.498  10.367  1.00  0.00     0.058 A 
ATOM     64  C   UNL     1      11.868   5.207  10.361  1.00  0.00     0.135 A 
ATOM     65  C   UNL     1      10.001   6.325  11.387  1.00  0.00     0.135 A 
ATOM     66  F   UNL     1      12.389   4.419   9.407  1.00  0.00    -0.206 F 
ATOM     67  C   UNL     1      12.720   5.708  11.339  1.00  0.00     0.059 A 
ATOM     68  C   UNL     1      10.839   6.855  12.364  1.00  0.00     0.059 A 
ATOM     69  F   UNL     1       8.697   6.643  11.428  1.00  0.00    -0.206 F 
ATOM     70  C   UNL     1      12.195   6.529  12.339  1.00  0.00     0.060 A 
BRANCH  70  71
ATOM     71  S   UNL     1      13.318   7.193  13.587  1.00  0.00     0.124 S 
ATOM     72  O   UNL     1      13.570   6.019  14.416  1.00  0.00    -0.237 OA
ATOM     73  O   UNL     1      14.444   7.653  12.780  1.00  0.00    -0.237 OA
ATOM     74  O   UNL     1      12.535   8.252  14.217  1.00  0.00    -0.744 OA
ENDBRANCH  70  71
ENDBRANCH  38  63
ENDBRANCH  12  13
ENDBRANCH   5   7
ENDBRANCH   2   3
ENDBRANCH   1   2
BRANCH   1  75
ATOM     75  C   UNL     1       4.655  -3.224  -2.142  1.00  0.00     0.023 C 
BRANCH  75  76
ATOM     76  C   UNL     1       4.924  -2.513  -3.464  1.00  0.00     0.116 C 
BRANCH  76  77
ATOM     77  N   UNL     1       6.335  -2.263  -3.725  1.00  0.00    -0.352 N 
ATOM     78  C   UNL     1       7.143  -2.787  -4.707  1.00  0.00     0.255 C 
ATOM     79  H   UNL     1       6.772  -1.628  -3.112  1.00  0.00     0.163 HD
ATOM     80  O   UNL     1       8.341  -2.529  -4.747  1.00  0.00    -0.269 OA
BRANCH  78  81
ATOM     81  C   UNL     1       6.553  -3.682  -5.718  1.00  0.00     0.083 A 
ATOM     82  C   UNL     1       5.493  -3.211  -6.505  1.00  0.00     0.033 A 
ATOM     83  C   UNL     1       7.028  -4.984  -5.906  1.00  0.00     0.144 A 
ATOM     84  C   UNL     1       4.854  -4.076  -7.390  1.00  0.00     0.019 A 
ATOM     85  C   UNL     1       6.397  -5.841  -6.810  1.00  0.00     0.049 A 
ATOM     86  Br  UNL     1       3.370  -3.462  -8.387  1.00  0.00    -0.051 Br
ATOM     87  C   UNL     1       5.289  -5.394  -7.532  1.00  0.00     0.019 A 
BRANCH  83  88
ATOM     88  O   UNL     1       8.214  -5.461  -5.326  1.00  0.00    -0.422 OA
BRANCH  88  89
ATOM     89  C   UNL     1       8.238  -5.621  -3.955  1.00  0.00     0.343 C 
ATOM     90  O   UNL     1       7.303  -5.458  -3.179  1.00  0.00    -0.246 OA
BRANCH  89  91
ATOM     91  C   UNL     1       9.600  -6.054  -3.541  1.00  0.00     0.060 A 
ATOM     92  C   UNL     1      10.475  -6.695  -4.435  1.00  0.00     0.019 A 
ATOM     93  C   UNL     1       9.999  -5.845  -2.213  1.00  0.00     0.019 A 
ATOM     94  C   UNL     1      11.731  -7.124  -4.000  1.00  0.00     0.040 A 
ATOM     95  C   UNL     1      11.260  -6.270  -1.784  1.00  0.00     0.040 A 
ATOM     96  C   UNL     1      12.112  -6.908  -2.680  1.00  0.00     0.123 A 
ATOM     97  F   UNL     1      13.315  -7.328  -2.268  1.00  0.00    -0.207 F 
ENDBRANCH  89  91
ENDBRANCH  88  89
ENDBRANCH  83  88
ENDBRANCH  78  81
ENDBRANCH  76  77
ENDBRANCH  75  76
ENDBRANCH   1  75
TORSDOF 17
