REMARK SMILES CC(C)C(=O)Nc1ccc(NC(=O)[C@@H]2[C@@H](C(=O)NCCCCNC(=O)c3ccc(-c4c5nc(c(-c6c(F)cc(S(=O)(=O)[O-])cc6F)c6ccc([nH]6)c(-c6c(F)cc(S(=O)(=O)[O-])cc6F)c6nc(c(-c7c(F)cc(S(=O)(=O)[O-])cc7F)c7ccc4[nH]7)C=C6)C=C5)cc3)C2(C)C)cc1Cl
REMARK SMILES IDX 20 1 19 2 18 3 16 4 17 5 15 7 14 8 92 9 93 10 94 11 12 12
REMARK SMILES IDX 11 13 13 15 10 16 7 17 8 18 96 19 9 20 95 21 97 22 6 23 4 24
REMARK SMILES IDX 5 25 2 27 1 28 3 29 21 30 22 31 23 32 24 33 25 35 26 36
REMARK SMILES IDX 27 37 91 38 28 39 90 40 29 41 30 42 31 43 84 44 32 45 89 46
REMARK SMILES IDX 83 47 85 48 33 49 88 50 82 51 81 52 34 54 68 55 47 56 67 57
REMARK SMILES IDX 48 58 51 59 66 60 86 61 49 62 50 63 65 65 87 66 52 67 35 68
REMARK SMILES IDX 36 69 45 70 37 71 38 72 44 73 46 74 39 75 40 76 41 77 42 78
REMARK SMILES IDX 43 79 69 80 70 81 79 82 71 83 72 84 78 85 80 86 73 87 74 88
REMARK SMILES IDX 75 89 76 90 77 91 53 92 54 93 63 94 55 95 56 96 62 97 64 98
REMARK SMILES IDX 57 99 58 100 59 101 60 102 61 103
REMARK H PARENT 18 6 11 14 6 26 23 34 85 53 51 64
REMARK Flexibility Score: inf
ROOT
ATOM      1  C   UNL     1       0.124  -2.601  -2.039  1.00  0.00     0.023 C 
ENDROOT
BRANCH   1   2
ATOM      2  C   UNL     1       0.024  -3.491  -3.276  1.00  0.00     0.116 C 
BRANCH   2   3
ATOM      3  N   UNL     1      -1.344  -3.860  -3.613  1.00  0.00    -0.356 N 
ATOM      4  C   UNL     1      -2.169  -3.664  -4.697  1.00  0.00     0.224 C 
ATOM      5  O   UNL     1      -3.327  -4.065  -4.590  1.00  0.00    -0.275 OA
ATOM      6  H   UNL     1      -1.783  -4.370  -2.894  1.00  0.00     0.163 HD
BRANCH   4   7
ATOM      7  C   UNL     1      -1.780  -3.025  -5.997  1.00  0.00     0.098 C 
ATOM      8  C   UNL     1      -0.357  -2.893  -6.453  1.00  0.00     0.098 C 
ATOM      9  C   UNL     1      -1.191  -1.625  -6.120  1.00  0.00    -0.011 C 
ATOM     10  C   UNL     1      -0.972  -0.794  -4.875  1.00  0.00     0.013 C 
ATOM     11  C   UNL     1      -1.619  -0.767  -7.296  1.00  0.00     0.013 C 
BRANCH   8  12
ATOM     12  C   UNL     1       0.106  -3.127  -7.844  1.00  0.00     0.228 C 
ATOM     13  N   UNL     1       1.429  -2.891  -8.164  1.00  0.00    -0.326 N 
ATOM     14  H   UNL     1       1.679  -3.201  -9.064  1.00  0.00     0.169 HD
ATOM     15  O   UNL     1      -0.662  -3.565  -8.692  1.00  0.00    -0.274 OA
BRANCH  13  16
ATOM     16  C   UNL     1       2.494  -2.293  -7.456  1.00  0.00     0.042 A 
ATOM     17  C   UNL     1       4.623  -0.853  -6.289  1.00  0.00     0.060 A 
ATOM     18  C   UNL     1       3.425  -1.000  -5.607  1.00  0.00     0.030 A 
ATOM     19  C   UNL     1       4.822  -1.579  -7.468  1.00  0.00     0.066 A 
ATOM     20  C   UNL     1       2.379  -1.704  -6.200  1.00  0.00     0.028 A 
ATOM     21  C   UNL     1       3.751  -2.262  -8.067  1.00  0.00     0.048 A 
ATOM     22  Cl  UNL     1       6.395  -1.778  -8.154  1.00  0.00    -0.082 Cl
BRANCH  17  23
ATOM     23  N   UNL     1       5.559   0.018  -5.721  1.00  0.00    -0.325 N 
ATOM     24  C   UNL     1       5.786   1.324  -6.056  1.00  0.00     0.226 C 
ATOM     25  O   UNL     1       6.419   2.005  -5.239  1.00  0.00    -0.274 OA
ATOM     26  H   UNL     1       6.117  -0.352  -4.998  1.00  0.00     0.169 HD
BRANCH  24  27
ATOM     27  C   UNL     1       5.264   1.994  -7.334  1.00  0.00     0.072 C 
ATOM     28  C   UNL     1       5.868   1.447  -8.617  1.00  0.00     0.018 C 
ATOM     29  C   UNL     1       3.746   2.113  -7.420  1.00  0.00     0.018 C 
ENDBRANCH  24  27
ENDBRANCH  17  23
ENDBRANCH  13  16
ENDBRANCH   8  12
ENDBRANCH   4   7
ENDBRANCH   2   3
ENDBRANCH   1   2
BRANCH   1  30
ATOM     30  C   UNL     1      -0.099  -3.310  -0.714  1.00  0.00     0.023 C 
BRANCH  30  31
ATOM     31  C   UNL     1       0.865  -4.451  -0.433  1.00  0.00     0.116 C 
BRANCH  31  32
ATOM     32  N   UNL     1       2.263  -4.045  -0.473  1.00  0.00    -0.352 N 
ATOM     33  C   UNL     1       3.263  -4.305   0.433  1.00  0.00     0.251 C 
ATOM     34  H   UNL     1       2.528  -3.511  -1.256  1.00  0.00     0.163 HD
ATOM     35  O   UNL     1       4.354  -3.756   0.311  1.00  0.00    -0.269 OA
BRANCH  33  36
ATOM     36  C   UNL     1       3.005  -5.226   1.561  1.00  0.00     0.039 A 
ATOM     37  C   UNL     1       3.468  -4.892   2.834  1.00  0.00     0.014 A 
ATOM     38  C   UNL     1       2.285  -6.408   1.363  1.00  0.00     0.014 A 
ATOM     39  C   UNL     1       3.167  -5.724   3.914  1.00  0.00     0.010 A 
ATOM     40  C   UNL     1       1.890  -7.171   2.454  1.00  0.00     0.010 A 
ATOM     41  C   UNL     1       2.354  -6.856   3.738  1.00  0.00    -0.014 A 
BRANCH  41  42
ATOM     42  C   UNL     1       2.035  -7.757   4.874  1.00  0.00     0.031 A 
ATOM     43  C   UNL     1       2.490  -9.195   4.837  1.00  0.00     0.074 A 
ATOM     44  C   UNL     1       1.328  -7.292   5.924  1.00  0.00     0.049 A 
ATOM     45  N   UNL     1       2.308 -10.142   5.722  1.00  0.00    -0.248 NA
ATOM     46  C   UNL     1       3.219  -9.637   3.635  1.00  0.00     0.031 C 
ATOM     47  C   UNL     1       0.786  -5.936   6.049  1.00  0.00     0.029 A 
ATOM     48  N   UNL     1       0.951  -7.906   7.091  1.00  0.00    -0.354 N 
ATOM     49  C   UNL     1       2.904 -11.278   5.187  1.00  0.00     0.074 A 
ATOM     50  C   UNL     1       3.369 -10.932   3.864  1.00  0.00     0.031 C 
ATOM     51  C   UNL     1       0.187  -5.809   7.245  1.00  0.00     0.029 A 
ATOM     52  C   UNL     1       0.270  -7.080   7.956  1.00  0.00     0.049 A 
ATOM     53  H   UNL     1       1.149  -8.849   7.291  1.00  0.00     0.167 HD
ATOM     54  C   UNL     1       3.092 -12.490   5.761  1.00  0.00     0.037 A 
ATOM     55  C   UNL     1      -0.223  -7.324   9.185  1.00  0.00     0.037 A 
ATOM     56  C   UNL     1       2.649 -12.824   7.088  1.00  0.00     0.049 A 
ATOM     57  C   UNL     1      -0.022  -8.690   9.791  1.00  0.00     0.074 A 
ATOM     58  C   UNL     1       2.808 -14.013   7.776  1.00  0.00     0.029 A 
ATOM     59  N   UNL     1       1.966 -11.961   7.933  1.00  0.00    -0.354 N 
ATOM     60  N   UNL     1       0.597  -9.735   9.291  1.00  0.00    -0.248 NA
ATOM     61  C   UNL     1      -0.576  -8.906  11.134  1.00  0.00     0.031 C 
ATOM     62  C   UNL     1       2.186 -13.884   9.021  1.00  0.00     0.029 A 
ATOM     63  C   UNL     1       1.686 -12.596   9.130  1.00  0.00     0.049 A 
ATOM     64  H   UNL     1       1.717 -11.034   7.713  1.00  0.00     0.167 HD
ATOM     65  C   UNL     1       0.537 -10.717  10.274  1.00  0.00     0.074 A 
ATOM     66  C   UNL     1      -0.156 -10.133  11.403  1.00  0.00     0.031 C 
ATOM     67  C   UNL     1       1.006 -11.990  10.248  1.00  0.00     0.037 A 
BRANCH  54  68
ATOM     68  C   UNL     1       3.840 -13.528   4.969  1.00  0.00     0.058 A 
ATOM     69  C   UNL     1       5.212 -13.391   4.696  1.00  0.00     0.135 A 
ATOM     70  C   UNL     1       3.197 -14.689   4.511  1.00  0.00     0.135 A 
ATOM     71  F   UNL     1       5.874 -12.291   5.090  1.00  0.00    -0.206 F 
ATOM     72  C   UNL     1       5.913 -14.356   3.981  1.00  0.00     0.059 A 
ATOM     73  C   UNL     1       3.886 -15.682   3.821  1.00  0.00     0.059 A 
ATOM     74  F   UNL     1       1.886 -14.869   4.737  1.00  0.00    -0.206 F 
ATOM     75  C   UNL     1       5.242 -15.501   3.552  1.00  0.00     0.060 A 
BRANCH  75  76
ATOM     76  S   UNL     1       6.177 -16.754   2.650  1.00  0.00     0.124 S 
ATOM     77  O   UNL     1       6.418 -16.078   1.378  1.00  0.00    -0.237 OA
ATOM     78  O   UNL     1       7.348 -16.939   3.501  1.00  0.00    -0.237 OA
ATOM     79  O   UNL     1       5.260 -17.888   2.592  1.00  0.00    -0.744 OA
ENDBRANCH  75  76
ENDBRANCH  54  68
BRANCH  55  80
ATOM     80  C   UNL     1      -0.930  -6.257   9.947  1.00  0.00     0.058 A 
ATOM     81  C   UNL     1      -0.389  -5.736  11.133  1.00  0.00     0.135 A 
ATOM     82  C   UNL     1      -2.180  -5.770   9.533  1.00  0.00     0.135 A 
ATOM     83  F   UNL     1       0.802  -6.168  11.573  1.00  0.00    -0.206 F 
ATOM     84  C   UNL     1      -1.080  -4.809  11.906  1.00  0.00     0.059 A 
ATOM     85  C   UNL     1      -2.875  -4.818  10.272  1.00  0.00     0.059 A 
ATOM     86  F   UNL     1      -2.734  -6.216   8.396  1.00  0.00    -0.206 F 
ATOM     87  C   UNL     1      -2.328  -4.361  11.470  1.00  0.00     0.060 A 
BRANCH  87  88
ATOM     88  S   UNL     1      -3.222  -3.164  12.484  1.00  0.00     0.124 S 
ATOM     89  O   UNL     1      -3.650  -3.992  13.605  1.00  0.00    -0.237 OA
ATOM     90  O   UNL     1      -2.188  -2.176  12.777  1.00  0.00    -0.237 OA
ATOM     91  O   UNL     1      -4.285  -2.702  11.597  1.00  0.00    -0.744 OA
ENDBRANCH  87  88
ENDBRANCH  55  80
BRANCH  67  92
ATOM     92  C   UNL     1       0.825 -12.815  11.493  1.00  0.00     0.058 A 
ATOM     93  C   UNL     1      -0.440 -13.260  11.908  1.00  0.00     0.135 A 
ATOM     94  C   UNL     1       1.936 -13.180  12.271  1.00  0.00     0.135 A 
ATOM     95  F   UNL     1      -1.536 -12.938  11.202  1.00  0.00    -0.206 F 
ATOM     96  C   UNL     1      -0.603 -13.996  13.077  1.00  0.00     0.059 A 
ATOM     97  C   UNL     1       1.800 -13.946  13.423  1.00  0.00     0.059 A 
ATOM     98  F   UNL     1       3.171 -12.796  11.910  1.00  0.00    -0.206 F 
ATOM     99  C   UNL     1       0.524 -14.331  13.830  1.00  0.00     0.060 A 
BRANCH  99 100
ATOM    100  S   UNL     1       0.298 -15.287  15.344  1.00  0.00     0.124 S 
ATOM    101  O   UNL     1      -0.274 -14.286  16.239  1.00  0.00    -0.237 OA
ATOM    102  O   UNL     1      -0.610 -16.345  14.912  1.00  0.00    -0.237 OA
ATOM    103  O   UNL     1       1.651 -15.725  15.675  1.00  0.00    -0.744 OA
ENDBRANCH  99 100
ENDBRANCH  67  92
ENDBRANCH  41  42
ENDBRANCH  33  36
ENDBRANCH  31  32
ENDBRANCH  30  31
ENDBRANCH   1  30
TORSDOF 18
