REMARK SMILES CC(C)c1ccc2c(c1)c(SC(C)(C)C)c(CC(C)(C)C(=O)NCCCCNC(=O)c1ccc(-c3c4nc(c(-c5c(F)cc(S(=O)(=O)[O-])cc5F)c5ccc([nH]5)c(-c5c(F)cc(S(=O)(=O)[O-])cc5F)c5nc(c(-c6c(F)cc(S(=O)(=O)[O-])cc6F)c6ccc3[nH]6)C=C5)C=C4)cc1)n2Cc1ccc(Cl)cc1
REMARK SMILES IDX 25 1 24 2 23 3 21 4 22 5 18 7 19 8 20 9 17 10 16 11 4 12
REMARK SMILES IDX 5 13 9 14 6 15 8 16 7 17 10 18 97 19 2 20 1 21 3 22 11 23
REMARK SMILES IDX 12 24 13 25 14 26 15 27 98 28 99 29 100 30 105 31 101 32
REMARK SMILES IDX 104 33 102 34 103 35 26 36 27 37 28 38 29 39 30 41 31 42
REMARK SMILES IDX 32 43 96 44 33 45 95 46 34 47 35 48 36 49 89 50 37 51 94 52
REMARK SMILES IDX 88 53 90 54 38 55 93 56 87 57 86 58 39 60 73 61 52 62 72 63
REMARK SMILES IDX 53 64 56 65 71 66 91 67 54 68 55 69 70 71 92 72 57 73 40 74
REMARK SMILES IDX 41 75 50 76 42 77 43 78 49 79 51 80 44 81 45 82 46 83 47 84
REMARK SMILES IDX 48 85 74 86 75 87 84 88 76 89 77 90 83 91 85 92 78 93 79 94
REMARK SMILES IDX 80 95 81 96 82 97 58 98 59 99 68 100 60 101 61 102 67 103
REMARK SMILES IDX 69 104 62 105 63 106 64 107 65 108 66 109
REMARK H PARENT 23 6 28 40 90 59 56 70
REMARK Flexibility Score: inf
ROOT
ATOM      1  C   UNL     1      -8.319   4.658   4.104  1.00  0.00     0.023 C 
ENDROOT
BRANCH   1   2
ATOM      2  C   UNL     1      -7.127   4.312   3.253  1.00  0.00     0.116 C 
BRANCH   2   3
ATOM      3  N   UNL     1      -7.051   2.899   2.917  1.00  0.00    -0.356 N 
ATOM      4  C   UNL     1      -6.712   2.342   1.707  1.00  0.00     0.226 C 
ATOM      5  O   UNL     1      -6.245   1.208   1.724  1.00  0.00    -0.275 OA
ATOM      6  H   UNL     1      -7.267   2.268   3.641  1.00  0.00     0.163 HD
BRANCH   4   7
ATOM      7  C   UNL     1      -6.707   3.245   0.469  1.00  0.00     0.049 C 
ATOM      8  C   UNL     1      -5.383   3.995   0.763  1.00  0.00     0.022 C 
ATOM      9  C   UNL     1      -8.067   4.012   0.433  1.00  0.00     0.022 C 
BRANCH   7  10
ATOM     10  C   UNL     1      -6.685   2.583  -0.941  1.00  0.00     0.071 C 
BRANCH  10  11
ATOM     11  C   UNL     1      -5.439   1.929  -1.370  1.00  0.00     0.034 A 
ATOM     12  C   UNL     1      -1.151   0.186  -1.544  1.00  0.00    -0.045 A 
ATOM     13  C   UNL     1      -1.876  -0.983  -1.300  1.00  0.00     0.006 A 
ATOM     14  C   UNL     1      -1.857   1.384  -1.781  1.00  0.00     0.015 A 
ATOM     15  C   UNL     1      -3.273  -0.980  -1.247  1.00  0.00     0.027 A 
ATOM     16  C   UNL     1      -3.276   1.432  -1.708  1.00  0.00     0.014 A 
ATOM     17  C   UNL     1      -3.952   0.239  -1.415  1.00  0.00     0.050 A 
ATOM     18  C   UNL     1      -4.254   2.492  -1.824  1.00  0.00     0.037 A 
ATOM     19  N   UNL     1      -5.303   0.542  -1.335  1.00  0.00    -0.339 N 
BRANCH  12  20
ATOM     20  C   UNL     1       0.369   0.204  -1.479  1.00  0.00     0.013 C 
ATOM     21  C   UNL     1       0.849   0.073  -0.028  1.00  0.00     0.012 C 
ATOM     22  C   UNL     1       1.018  -0.876  -2.350  1.00  0.00     0.012 C 
ENDBRANCH  12  20
BRANCH  18  23
ATOM     23  S   UNL     1      -3.752   4.162  -2.199  1.00  0.00    -0.118 SA
BRANCH  23  24
ATOM     24  C   UNL     1      -5.041   5.460  -2.598  1.00  0.00     0.012 C 
ATOM     25  C   UNL     1      -5.805   5.094  -3.874  1.00  0.00     0.023 C 
ATOM     26  C   UNL     1      -6.056   5.990  -1.559  1.00  0.00     0.023 C 
ATOM     27  C   UNL     1      -4.176   6.725  -2.856  1.00  0.00     0.023 C 
ENDBRANCH  23  24
ENDBRANCH  18  23
BRANCH  19  28
ATOM     28  C   UNL     1      -6.388  -0.471  -1.430  1.00  0.00     0.158 C 
BRANCH  28  29
ATOM     29  C   UNL     1      -7.262  -0.698  -0.209  1.00  0.00    -0.028 A 
ATOM     30  C   UNL     1      -8.533  -0.096  -0.105  1.00  0.00     0.007 A 
ATOM     31  C   UNL     1      -6.827  -1.490   0.866  1.00  0.00     0.007 A 
ATOM     32  C   UNL     1      -9.251  -0.116   1.095  1.00  0.00     0.021 A 
ATOM     33  C   UNL     1      -7.574  -1.559   2.053  1.00  0.00     0.021 A 
ATOM     34  C   UNL     1      -8.754  -0.829   2.179  1.00  0.00     0.041 A 
ATOM     35  Cl  UNL     1      -9.577  -0.773   3.688  1.00  0.00    -0.084 Cl
ENDBRANCH  28  29
ENDBRANCH  19  28
ENDBRANCH  10  11
ENDBRANCH   7  10
ENDBRANCH   4   7
ENDBRANCH   2   3
ENDBRANCH   1   2
BRANCH   1  36
ATOM     36  C   UNL     1      -8.172   4.142   5.524  1.00  0.00     0.023 C 
BRANCH  36  37
ATOM     37  C   UNL     1      -6.808   4.454   6.164  1.00  0.00     0.116 C 
BRANCH  37  38
ATOM     38  N   UNL     1      -6.415   5.852   6.083  1.00  0.00    -0.352 N 
ATOM     39  C   UNL     1      -6.720   6.964   6.820  1.00  0.00     0.251 C 
ATOM     40  H   UNL     1      -5.798   6.038   5.339  1.00  0.00     0.163 HD
ATOM     41  O   UNL     1      -6.120   8.001   6.528  1.00  0.00    -0.269 OA
BRANCH  39  42
ATOM     42  C   UNL     1      -7.747   6.995   7.893  1.00  0.00     0.039 A 
ATOM     43  C   UNL     1      -8.486   5.891   8.308  1.00  0.00     0.014 A 
ATOM     44  C   UNL     1      -8.021   8.242   8.482  1.00  0.00     0.014 A 
ATOM     45  C   UNL     1      -9.550   6.033   9.174  1.00  0.00     0.010 A 
ATOM     46  C   UNL     1      -9.052   8.383   9.408  1.00  0.00     0.010 A 
ATOM     47  C   UNL     1      -9.843   7.282   9.714  1.00  0.00    -0.014 A 
BRANCH  47  48
ATOM     48  C   UNL     1     -10.941   7.305  10.669  1.00  0.00     0.031 A 
ATOM     49  C   UNL     1     -10.766   6.387  11.828  1.00  0.00     0.074 A 
ATOM     50  C   UNL     1     -12.025   8.089  10.544  1.00  0.00     0.049 A 
ATOM     51  N   UNL     1     -11.447   5.327  12.115  1.00  0.00    -0.248 NA
ATOM     52  C   UNL     1      -9.597   6.603  12.695  1.00  0.00     0.031 C 
ATOM     53  C   UNL     1     -12.208   9.212   9.623  1.00  0.00     0.029 A 
ATOM     54  N   UNL     1     -13.166   8.103  11.291  1.00  0.00    -0.354 N 
ATOM     55  C   UNL     1     -10.934   4.866  13.325  1.00  0.00     0.074 A 
ATOM     56  C   UNL     1      -9.709   5.588  13.553  1.00  0.00     0.031 C 
ATOM     57  C   UNL     1     -13.275   9.938  10.022  1.00  0.00     0.029 A 
ATOM     58  C   UNL     1     -13.934   9.243  11.116  1.00  0.00     0.049 A 
ATOM     59  H   UNL     1     -13.420   7.371  11.899  1.00  0.00     0.167 HD
ATOM     60  C   UNL     1     -11.684   4.111  14.173  1.00  0.00     0.037 A 
ATOM     61  C   UNL     1     -15.002   9.617  11.856  1.00  0.00     0.037 A 
ATOM     62  C   UNL     1     -12.850   3.574  13.526  1.00  0.00     0.049 A 
ATOM     63  C   UNL     1     -15.588   8.398  12.465  1.00  0.00     0.074 A 
ATOM     64  C   UNL     1     -13.147   2.511  12.703  1.00  0.00     0.029 A 
ATOM     65  N   UNL     1     -13.912   4.434  13.482  1.00  0.00    -0.354 N 
ATOM     66  N   UNL     1     -16.140   7.437  11.775  1.00  0.00    -0.248 NA
ATOM     67  C   UNL     1     -15.320   8.082  13.866  1.00  0.00     0.031 C 
ATOM     68  C   UNL     1     -14.358   2.853  12.027  1.00  0.00     0.029 A 
ATOM     69  C   UNL     1     -14.772   4.108  12.467  1.00  0.00     0.049 A 
ATOM     70  H   UNL     1     -14.041   5.190  14.100  1.00  0.00     0.167 HD
ATOM     71  C   UNL     1     -15.908   6.300  12.521  1.00  0.00     0.074 A 
ATOM     72  C   UNL     1     -15.577   6.772  13.857  1.00  0.00     0.031 C 
ATOM     73  C   UNL     1     -15.676   5.098  11.922  1.00  0.00     0.037 A 
BRANCH  60  74
ATOM     74  C   UNL     1     -11.618   4.227  15.679  1.00  0.00     0.058 A 
ATOM     75  C   UNL     1     -12.254   3.265  16.489  1.00  0.00     0.135 A 
ATOM     76  C   UNL     1     -11.212   5.408  16.341  1.00  0.00     0.135 A 
ATOM     77  F   UNL     1     -12.707   2.118  15.958  1.00  0.00    -0.206 F 
ATOM     78  C   UNL     1     -12.499   3.477  17.849  1.00  0.00     0.059 A 
ATOM     79  C   UNL     1     -11.399   5.618  17.703  1.00  0.00     0.059 A 
ATOM     80  F   UNL     1     -10.707   6.455  15.676  1.00  0.00    -0.206 F 
ATOM     81  C   UNL     1     -12.074   4.662  18.444  1.00  0.00     0.060 A 
BRANCH  81  82
ATOM     82  S   UNL     1     -12.456   4.976  20.177  1.00  0.00     0.124 S 
ATOM     83  O   UNL     1     -13.901   5.162  20.131  1.00  0.00    -0.237 OA
ATOM     84  O   UNL     1     -11.989   3.750  20.817  1.00  0.00    -0.237 OA
ATOM     85  O   UNL     1     -11.673   6.170  20.482  1.00  0.00    -0.744 OA
ENDBRANCH  81  82
ENDBRANCH  60  74
BRANCH  61  86
ATOM     86  C   UNL     1     -15.352  10.982  12.321  1.00  0.00     0.058 A 
ATOM     87  C   UNL     1     -16.593  11.225  12.934  1.00  0.00     0.135 A 
ATOM     88  C   UNL     1     -14.373  11.986  12.464  1.00  0.00     0.135 A 
ATOM     89  F   UNL     1     -17.580  10.321  12.845  1.00  0.00    -0.206 F 
ATOM     90  C   UNL     1     -16.820  12.351  13.727  1.00  0.00     0.059 A 
ATOM     91  C   UNL     1     -14.583  13.125  13.237  1.00  0.00     0.059 A 
ATOM     92  F   UNL     1     -13.146  11.842  11.943  1.00  0.00    -0.206 F 
ATOM     93  C   UNL     1     -15.794  13.279  13.900  1.00  0.00     0.060 A 
BRANCH  93  94
ATOM     94  S   UNL     1     -16.005  14.604  15.109  1.00  0.00     0.124 S 
ATOM     95  O   UNL     1     -17.041  15.419  14.484  1.00  0.00    -0.237 OA
ATOM     96  O   UNL     1     -16.406  13.866  16.301  1.00  0.00    -0.237 OA
ATOM     97  O   UNL     1     -14.681  15.217  15.173  1.00  0.00    -0.744 OA
ENDBRANCH  93  94
ENDBRANCH  61  86
BRANCH  73  98
ATOM     98  C   UNL     1     -16.255   4.880  10.557  1.00  0.00     0.058 A 
ATOM     99  C   UNL     1     -15.853   5.558   9.396  1.00  0.00     0.135 A 
ATOM    100  C   UNL     1     -17.239   3.888  10.417  1.00  0.00     0.135 A 
ATOM    101  F   UNL     1     -14.863   6.462   9.434  1.00  0.00    -0.206 F 
ATOM    102  C   UNL     1     -16.436   5.291   8.155  1.00  0.00     0.059 A 
ATOM    103  C   UNL     1     -17.811   3.583   9.187  1.00  0.00     0.059 A 
ATOM    104  F   UNL     1     -17.633   3.176  11.486  1.00  0.00    -0.206 F 
ATOM    105  C   UNL     1     -17.415   4.300   8.062  1.00  0.00     0.060 A 
BRANCH 105 106
ATOM    106  S   UNL     1     -18.127   3.919   6.447  1.00  0.00     0.124 S 
ATOM    107  O   UNL     1     -18.917   5.111   6.167  1.00  0.00    -0.237 OA
ATOM    108  O   UNL     1     -16.942   3.732   5.615  1.00  0.00    -0.237 OA
ATOM    109  O   UNL     1     -18.901   2.701   6.694  1.00  0.00    -0.744 OA
ENDBRANCH 105 106
ENDBRANCH  73  98
ENDBRANCH  47  48
ENDBRANCH  39  42
ENDBRANCH  37  38
ENDBRANCH  36  37
ENDBRANCH   1  36
TORSDOF 21
