REMARK SMILES CO[C@@H]1C[C@H](C(=O)NCCCCNC(=O)c2ccc(-c3c4nc(c(-c5c(F)cc(S(=O)(=O)[O-])cc5F)c5ccc([nH]5)c(-c5c(F)cc(S(=O)(=O)[O-])cc5F)c5nc(c(-c6c(F)cc(S(=O)(=O)[O-])cc6F)c6ccc3[nH]6)C=C5)C=C4)cc2)N(C(=O)c2ncc(Cl)c(Cl)c2Cl)C1
REMARK SMILES IDX 11 1 10 2 9 3 8 4 6 5 7 6 5 8 3 9 4 10 94 11 82 12 2 13 1 14
REMARK SMILES IDX 83 15 84 16 85 17 86 18 92 19 87 20 90 21 93 22 88 23 91 24
REMARK SMILES IDX 89 25 12 26 13 27 14 28 15 30 16 31 17 32 81 33 18 34 80 35
REMARK SMILES IDX 19 36 20 37 21 38 74 39 22 40 79 41 73 42 75 43 23 44 78 45
REMARK SMILES IDX 72 46 71 47 24 49 58 50 37 51 57 52 38 53 41 54 56 55 76 56
REMARK SMILES IDX 39 57 40 58 55 60 77 61 42 62 25 63 26 64 35 65 27 66 28 67
REMARK SMILES IDX 34 68 36 69 29 70 30 71 31 72 32 73 33 74 59 75 60 76 69 77
REMARK SMILES IDX 61 78 62 79 68 80 70 81 63 82 64 83 65 84 66 85 67 86 43 87
REMARK SMILES IDX 44 88 53 89 45 90 46 91 52 92 54 93 47 94 48 95 49 96 50 97
REMARK SMILES IDX 51 98
REMARK H PARENT 8 7 13 29 75 48 41 59
REMARK Flexibility Score: inf
ROOT
ATOM      1  C   UNL     1      -0.755   0.259  -2.845  1.00  0.00     0.023 C 
ENDROOT
BRANCH   1   2
ATOM      2  C   UNL     1      -0.258   0.965  -1.586  1.00  0.00     0.023 C 
BRANCH   2   3
ATOM      3  C   UNL     1       0.858   1.988  -1.806  1.00  0.00     0.116 C 
BRANCH   3   4
ATOM      4  N   UNL     1       0.352   3.342  -1.907  1.00  0.00    -0.354 N 
ATOM      5  C   UNL     1       0.328   4.354  -1.000  1.00  0.00     0.242 C 
ATOM      6  O   UNL     1      -0.095   5.450  -1.391  1.00  0.00    -0.273 OA
ATOM      7  H   UNL     1      -0.041   3.567  -2.781  1.00  0.00     0.163 HD
BRANCH   5   8
ATOM      8  C   UNL     1       0.802   4.225   0.468  1.00  0.00     0.177 C 
ATOM      9  C   UNL     1       1.249   2.177   1.760  1.00  0.00     0.139 C 
ATOM     10  C   UNL     1       0.138   3.129   1.295  1.00  0.00     0.069 C 
ATOM     11  C   UNL     1       2.567   2.803   1.297  1.00  0.00     0.152 C 
ATOM     12  N   UNL     1       2.238   4.067   0.672  1.00  0.00    -0.323 N 
BRANCH   9  13
ATOM     13  O   UNL     1       0.996   0.892   1.198  1.00  0.00    -0.380 OA
ATOM     14  C   UNL     1       1.851  -0.135   1.681  1.00  0.00     0.195 C 
ENDBRANCH   9  13
BRANCH  12  15
ATOM     15  C   UNL     1       3.228   5.031   0.539  1.00  0.00     0.274 C 
ATOM     16  O   UNL     1       4.415   4.800   0.768  1.00  0.00    -0.267 OA
BRANCH  15  17
ATOM     17  C   UNL     1       2.851   6.420   0.176  1.00  0.00     0.148 A 
ATOM     18  N   UNL     1       3.141   6.780  -1.103  1.00  0.00    -0.248 NA
ATOM     19  C   UNL     1       2.344   7.291   1.141  1.00  0.00     0.092 A 
ATOM     20  C   UNL     1       2.889   8.064  -1.442  1.00  0.00     0.134 A 
ATOM     21  C   UNL     1       2.078   8.608   0.742  1.00  0.00     0.082 A 
ATOM     22  Cl  UNL     1       2.084   6.771   2.777  1.00  0.00    -0.080 Cl
ATOM     23  C   UNL     1       2.361   9.006  -0.571  1.00  0.00     0.079 A 
ATOM     24  Cl  UNL     1       1.412   9.751   1.871  1.00  0.00    -0.081 Cl
ATOM     25  Cl  UNL     1       2.113  10.613  -1.147  1.00  0.00    -0.081 Cl
ENDBRANCH  15  17
ENDBRANCH  12  15
ENDBRANCH   5   8
ENDBRANCH   3   4
ENDBRANCH   2   3
ENDBRANCH   1   2
BRANCH   1  26
ATOM     26  C   UNL     1       0.302  -0.519  -3.623  1.00  0.00     0.116 C 
BRANCH  26  27
ATOM     27  N   UNL     1       1.083  -1.458  -2.826  1.00  0.00    -0.352 N 
ATOM     28  C   UNL     1       1.654  -2.646  -3.234  1.00  0.00     0.251 C 
ATOM     29  H   UNL     1       1.218  -1.215  -1.882  1.00  0.00     0.163 HD
ATOM     30  O   UNL     1       2.254  -3.358  -2.439  1.00  0.00    -0.269 OA
BRANCH  28  31
ATOM     31  C   UNL     1       1.473  -3.067  -4.639  1.00  0.00     0.039 A 
ATOM     32  C   UNL     1       0.888  -4.308  -4.901  1.00  0.00     0.014 A 
ATOM     33  C   UNL     1       1.762  -2.183  -5.681  1.00  0.00     0.014 A 
ATOM     34  C   UNL     1       0.487  -4.615  -6.203  1.00  0.00     0.010 A 
ATOM     35  C   UNL     1       1.292  -2.458  -6.959  1.00  0.00     0.010 A 
ATOM     36  C   UNL     1       0.628  -3.665  -7.229  1.00  0.00    -0.014 A 
BRANCH  36  37
ATOM     37  C   UNL     1       0.050  -3.884  -8.580  1.00  0.00     0.031 A 
ATOM     38  C   UNL     1       0.945  -3.909  -9.786  1.00  0.00     0.074 A 
ATOM     39  C   UNL     1      -1.290  -3.945  -8.730  1.00  0.00     0.049 A 
ATOM     40  N   UNL     1       0.623  -3.940 -11.053  1.00  0.00    -0.248 NA
ATOM     41  C   UNL     1       2.394  -3.853  -9.535  1.00  0.00     0.031 C 
ATOM     42  C   UNL     1      -2.272  -3.863  -7.646  1.00  0.00     0.029 A 
ATOM     43  N   UNL     1      -2.058  -4.071  -9.861  1.00  0.00    -0.354 N 
ATOM     44  C   UNL     1       1.823  -3.872 -11.749  1.00  0.00     0.074 A 
ATOM     45  C   UNL     1       2.878  -3.759 -10.764  1.00  0.00     0.031 C 
ATOM     46  C   UNL     1      -3.508  -3.963  -8.161  1.00  0.00     0.029 A 
ATOM     47  C   UNL     1      -3.411  -4.079  -9.612  1.00  0.00     0.049 A 
ATOM     48  H   UNL     1      -1.677  -4.148 -10.765  1.00  0.00     0.167 HD
ATOM     49  C   UNL     1       2.030  -3.918 -13.087  1.00  0.00     0.037 A 
ATOM     50  C   UNL     1      -4.456  -4.162 -10.459  1.00  0.00     0.037 A 
ATOM     51  C   UNL     1       0.984  -4.083 -14.061  1.00  0.00     0.049 A 
ATOM     52  C   UNL     1      -4.199  -4.271 -11.936  1.00  0.00     0.074 A 
ATOM     53  C   UNL     1       1.099  -4.214 -15.434  1.00  0.00     0.029 A 
ATOM     54  N   UNL     1      -0.368  -4.153 -13.763  1.00  0.00    -0.354 N 
ATOM     55  N   UNL     1      -3.053  -4.256 -12.573  1.00  0.00    -0.248 NA
ATOM     56  C   UNL     1      -5.373  -4.411 -12.808  1.00  0.00     0.031 C 
ATOM     57  C   UNL     1      -0.188  -4.345 -15.969  1.00  0.00     0.029 A 
ATOM     58  C   UNL     1      -1.100  -4.322 -14.926  1.00  0.00     0.049 A 
ATOM     59  H   UNL     1      -0.752  -4.090 -12.858  1.00  0.00     0.167 HD
ATOM     60  C   UNL     1      -3.366  -4.406 -13.919  1.00  0.00     0.074 A 
ATOM     61  C   UNL     1      -4.808  -4.519 -14.003  1.00  0.00     0.031 C 
ATOM     62  C   UNL     1      -2.534  -4.447 -14.988  1.00  0.00     0.037 A 
BRANCH  49  63
ATOM     63  C   UNL     1       3.448  -3.803 -13.569  1.00  0.00     0.058 A 
ATOM     64  C   UNL     1       4.367  -4.850 -13.400  1.00  0.00     0.135 A 
ATOM     65  C   UNL     1       3.892  -2.637 -14.213  1.00  0.00     0.135 A 
ATOM     66  F   UNL     1       3.997  -5.979 -12.774  1.00  0.00    -0.206 F 
ATOM     67  C   UNL     1       5.687  -4.733 -13.820  1.00  0.00     0.059 A 
ATOM     68  C   UNL     1       5.202  -2.508 -14.664  1.00  0.00     0.059 A 
ATOM     69  F   UNL     1       3.053  -1.606 -14.399  1.00  0.00    -0.206 F 
ATOM     70  C   UNL     1       6.097  -3.555 -14.446  1.00  0.00     0.060 A 
BRANCH  70  71
ATOM     71  S   UNL     1       7.816  -3.409 -14.976  1.00  0.00     0.124 S 
ATOM     72  O   UNL     1       8.484  -3.115 -13.712  1.00  0.00    -0.237 OA
ATOM     73  O   UNL     1       8.085  -4.727 -15.542  1.00  0.00    -0.237 OA
ATOM     74  O   UNL     1       7.780  -2.313 -15.940  1.00  0.00    -0.744 OA
ENDBRANCH  70  71
ENDBRANCH  49  63
BRANCH  50  75
ATOM     75  C   UNL     1      -5.843  -4.181  -9.926  1.00  0.00     0.058 A 
ATOM     76  C   UNL     1      -6.583  -5.372  -9.902  1.00  0.00     0.135 A 
ATOM     77  C   UNL     1      -6.448  -3.022  -9.418  1.00  0.00     0.135 A 
ATOM     78  F   UNL     1      -6.047  -6.504 -10.383  1.00  0.00    -0.206 F 
ATOM     79  C   UNL     1      -7.881  -5.413  -9.405  1.00  0.00     0.059 A 
ATOM     80  C   UNL     1      -7.739  -3.041  -8.898  1.00  0.00     0.059 A 
ATOM     81  F   UNL     1      -5.773  -1.862  -9.402  1.00  0.00    -0.206 F 
ATOM     82  C   UNL     1      -8.451  -4.241  -8.905  1.00  0.00     0.060 A 
BRANCH  82  83
ATOM     83  S   UNL     1     -10.118  -4.312  -8.211  1.00  0.00     0.124 S 
ATOM     84  O   UNL     1     -10.936  -4.337  -9.418  1.00  0.00    -0.237 OA
ATOM     85  O   UNL     1     -10.079  -5.551  -7.439  1.00  0.00    -0.237 OA
ATOM     86  O   UNL     1     -10.199  -3.091  -7.416  1.00  0.00    -0.744 OA
ENDBRANCH  82  83
ENDBRANCH  50  75
BRANCH  62  87
ATOM     87  C   UNL     1      -3.157  -4.652 -16.338  1.00  0.00     0.058 A 
ATOM     88  C   UNL     1      -3.806  -3.607 -17.012  1.00  0.00     0.135 A 
ATOM     89  C   UNL     1      -3.048  -5.891 -16.989  1.00  0.00     0.135 A 
ATOM     90  F   UNL     1      -3.942  -2.407 -16.427  1.00  0.00    -0.206 F 
ATOM     91  C   UNL     1      -4.340  -3.788 -18.284  1.00  0.00     0.059 A 
ATOM     92  C   UNL     1      -3.557  -6.088 -18.268  1.00  0.00     0.059 A 
ATOM     93  F   UNL     1      -2.429  -6.919 -16.387  1.00  0.00    -0.206 F 
ATOM     94  C   UNL     1      -4.209  -5.032 -18.904  1.00  0.00     0.060 A 
BRANCH  94  95
ATOM     95  S   UNL     1      -4.862  -5.244 -20.574  1.00  0.00     0.124 S 
ATOM     96  O   UNL     1      -6.288  -5.404 -20.313  1.00  0.00    -0.237 OA
ATOM     97  O   UNL     1      -4.472  -3.998 -21.227  1.00  0.00    -0.237 OA
ATOM     98  O   UNL     1      -4.173  -6.437 -21.057  1.00  0.00    -0.744 OA
ENDBRANCH  94  95
ENDBRANCH  62  87
ENDBRANCH  36  37
ENDBRANCH  28  31
ENDBRANCH  26  27
ENDBRANCH   1  26
TORSDOF 17
