REMARK SMILES NS(=O)(=O)c1ccc(-c2cc(Cl)cc3c2O[C@H](C(F)(F)F)C(C(=O)NCCCCNC(=O)c2ccc(-c4c5nc(c(-c6c(F)cc(S(=O)(=O)[O-])cc6F)c6ccc([nH]6)c(-c6c(F)cc(S(=O)(=O)[O-])cc6F)c6nc(c(-c7c(F)cc(S(=O)(=O)[O-])cc7F)c7ccc4[nH]7)C=C6)C=C5)cc2)=C3)cc1
REMARK SMILES IDX 27 1 26 2 25 3 23 4 24 5 22 7 9 8 10 9 15 10 11 11 14 12
REMARK SMILES IDX 16 13 12 14 13 15 99 16 17 17 8 18 5 19 6 20 101 21 7 22
REMARK SMILES IDX 100 23 2 24 3 25 4 26 1 27 18 30 19 31 20 32 21 33 28 34
REMARK SMILES IDX 29 35 30 36 31 37 32 39 33 40 34 41 98 42 35 43 97 44 36 45
REMARK SMILES IDX 37 46 38 47 91 48 39 49 96 50 90 51 92 52 40 53 95 54 89 55
REMARK SMILES IDX 88 56 41 58 75 59 54 60 74 61 55 62 58 63 73 64 93 65 56 66
REMARK SMILES IDX 57 67 72 69 94 70 59 71 42 72 43 73 52 74 44 75 45 76 51 77
REMARK SMILES IDX 53 78 46 79 47 80 48 81 49 82 50 83 76 84 77 85 86 86 78 87
REMARK SMILES IDX 79 88 85 89 87 90 80 91 81 92 82 93 83 94 84 95 60 96 61 97
REMARK SMILES IDX 70 98 62 99 63 100 69 101 71 102 64 103 65 104 66 105 67 106
REMARK SMILES IDX 68 107
REMARK H PARENT 25 6 1 28 1 29 30 38 92 57 58 68
REMARK Flexibility Score: inf
ROOT
ATOM      1  C   UNL     1       2.864  14.206   3.798  1.00  0.00     0.023 C 
ENDROOT
BRANCH   1   2
ATOM      2  C   UNL     1       2.339  13.688   2.451  1.00  0.00     0.116 C 
BRANCH   2   3
ATOM      3  N   UNL     1       3.276  12.734   1.898  1.00  0.00    -0.352 N 
ATOM      4  C   UNL     1       3.052  11.490   1.418  1.00  0.00     0.251 C 
ATOM      5  O   UNL     1       3.931  10.646   1.555  1.00  0.00    -0.270 OA
ATOM      6  H   UNL     1       4.213  13.035   1.866  1.00  0.00     0.163 HD
BRANCH   4   7
ATOM      7  C   UNL     1       1.802  11.239   0.637  1.00  0.00     0.067 C 
ATOM      8  C   UNL     1       2.232   7.229   0.050  1.00  0.00     0.026 A 
ATOM      9  C   UNL     1       3.587   7.034  -0.334  1.00  0.00     0.033 A 
ATOM     10  C   UNL     1       1.769   8.559   0.026  1.00  0.00     0.135 A 
ATOM     11  C   UNL     1       4.369   8.046  -0.884  1.00  0.00     0.042 A 
ATOM     12  C   UNL     1       2.535   9.542  -0.653  1.00  0.00     0.019 A 
ATOM     13  O   UNL     1       0.628   8.990   0.694  1.00  0.00    -0.475 OA
ATOM     14  Cl  UNL     1       6.008   7.732  -1.289  1.00  0.00    -0.084 Cl
ATOM     15  C   UNL     1       3.819   9.287  -1.126  1.00  0.00     0.032 A 
ATOM     16  C   UNL     1       2.036  10.934  -0.654  1.00  0.00     0.025 C 
ATOM     17  C   UNL     1       0.774  10.347   1.322  1.00  0.00     0.314 C 
BRANCH   8  18
ATOM     18  C   UNL     1       1.448   5.963   0.174  1.00  0.00    -0.015 A 
ATOM     19  C   UNL     1       0.794   3.299  -0.548  1.00  0.00     0.082 A 
ATOM     20  C   UNL     1       1.694   3.530   0.490  1.00  0.00     0.022 A 
ATOM     21  C   UNL     1       0.114   4.373  -1.131  1.00  0.00     0.022 A 
ATOM     22  C   UNL     1       1.993   4.852   0.864  1.00  0.00     0.010 A 
ATOM     23  C   UNL     1       0.434   5.693  -0.765  1.00  0.00     0.010 A 
BRANCH  19  24
ATOM     24  S   UNL     1       0.569   1.681  -1.236  1.00  0.00     0.238 S 
ATOM     25  O   UNL     1       1.427   1.549  -2.388  1.00  0.00    -0.207 OA
ATOM     26  O   UNL     1      -0.847   1.391  -1.285  1.00  0.00    -0.207 OA
BRANCH  24  27
ATOM     27  N   UNL     1       1.194   0.615  -0.094  1.00  0.00    -0.225 NA
ATOM     28  H   UNL     1       1.094  -0.343  -0.432  1.00  0.00     0.137 HD
ATOM     29  H   UNL     1       0.685   0.720   0.784  1.00  0.00     0.137 HD
ENDBRANCH  24  27
ENDBRANCH  19  24
ENDBRANCH   8  18
BRANCH  17  30
ATOM     30  C   UNL     1      -0.568  11.118   1.356  1.00  0.00     0.429 C 
ATOM     31  F   UNL     1      -1.497  10.588   0.529  1.00  0.00    -0.167 F 
ATOM     32  F   UNL     1      -1.093  11.137   2.605  1.00  0.00    -0.167 F 
ATOM     33  F   UNL     1      -0.429  12.421   0.989  1.00  0.00    -0.167 F 
ENDBRANCH  17  30
ENDBRANCH   4   7
ENDBRANCH   2   3
ENDBRANCH   1   2
BRANCH   1  34
ATOM     34  C   UNL     1       4.231  14.904   3.744  1.00  0.00     0.023 C 
BRANCH  34  35
ATOM     35  C   UNL     1       4.324  16.059   2.755  1.00  0.00     0.116 C 
BRANCH  35  36
ATOM     36  N   UNL     1       3.445  17.157   3.122  1.00  0.00    -0.352 N 
ATOM     37  C   UNL     1       3.759  18.470   3.382  1.00  0.00     0.251 C 
ATOM     38  H   UNL     1       2.490  16.929   3.193  1.00  0.00     0.163 HD
ATOM     39  O   UNL     1       2.917  19.211   3.879  1.00  0.00    -0.269 OA
BRANCH  37  40
ATOM     40  C   UNL     1       5.118  18.975   3.087  1.00  0.00     0.039 A 
ATOM     41  C   UNL     1       5.771  19.760   4.039  1.00  0.00     0.014 A 
ATOM     42  C   UNL     1       5.749  18.671   1.877  1.00  0.00     0.014 A 
ATOM     43  C   UNL     1       7.083  20.181   3.807  1.00  0.00     0.010 A 
ATOM     44  C   UNL     1       7.082  19.025   1.681  1.00  0.00     0.010 A 
ATOM     45  C   UNL     1       7.765  19.784   2.644  1.00  0.00    -0.014 A 
BRANCH  45  46
ATOM     46  C   UNL     1       9.189  20.151   2.420  1.00  0.00     0.031 A 
ATOM     47  C   UNL     1       9.573  21.011   1.244  1.00  0.00     0.074 A 
ATOM     48  C   UNL     1      10.143  19.669   3.244  1.00  0.00     0.049 A 
ATOM     49  N   UNL     1      10.763  21.369   0.837  1.00  0.00    -0.248 NA
ATOM     50  C   UNL     1       8.476  21.518   0.402  1.00  0.00     0.031 C 
ATOM     51  C   UNL     1       9.904  18.792   4.394  1.00  0.00     0.029 A 
ATOM     52  N   UNL     1      11.506  19.836   3.237  1.00  0.00    -0.354 N 
ATOM     53  C   UNL     1      10.560  22.141  -0.301  1.00  0.00     0.074 A 
ATOM     54  C   UNL     1       9.137  22.147  -0.559  1.00  0.00     0.031 C 
ATOM     55  C   UNL     1      11.076  18.516   4.990  1.00  0.00     0.029 A 
ATOM     56  C   UNL     1      12.154  19.155   4.242  1.00  0.00     0.049 A 
ATOM     57  H   UNL     1      11.976  20.391   2.574  1.00  0.00     0.167 HD
ATOM     58  C   UNL     1      11.472  22.812  -1.045  1.00  0.00     0.037 A 
ATOM     59  C   UNL     1      13.468  19.044   4.521  1.00  0.00     0.037 A 
ATOM     60  C   UNL     1      12.886  22.818  -0.775  1.00  0.00     0.049 A 
ATOM     61  C   UNL     1      14.463  19.771   3.653  1.00  0.00     0.074 A 
ATOM     62  C   UNL     1      13.888  23.487  -1.457  1.00  0.00     0.029 A 
ATOM     63  N   UNL     1      13.500  22.130   0.261  1.00  0.00    -0.354 N 
ATOM     64  N   UNL     1      14.245  20.538   2.610  1.00  0.00    -0.248 NA
ATOM     65  C   UNL     1      15.884  19.626   4.002  1.00  0.00     0.031 C 
ATOM     66  C   UNL     1      15.112  23.169  -0.861  1.00  0.00     0.029 A 
ATOM     67  C   UNL     1      14.867  22.349   0.228  1.00  0.00     0.049 A 
ATOM     68  H   UNL     1      13.033  21.569   0.922  1.00  0.00     0.167 HD
ATOM     69  C   UNL     1      15.495  20.994   2.206  1.00  0.00     0.074 A 
ATOM     70  C   UNL     1      16.463  20.432   3.124  1.00  0.00     0.031 C 
ATOM     71  C   UNL     1      15.816  21.804   1.167  1.00  0.00     0.037 A 
BRANCH  58  72
ATOM     72  C   UNL     1      10.973  23.624  -2.209  1.00  0.00     0.058 A 
ATOM     73  C   UNL     1      10.249  24.811  -2.014  1.00  0.00     0.135 A 
ATOM     74  C   UNL     1      11.290  23.261  -3.529  1.00  0.00     0.135 A 
ATOM     75  F   UNL     1       9.903  25.196  -0.775  1.00  0.00    -0.206 F 
ATOM     76  C   UNL     1       9.851  25.605  -3.083  1.00  0.00     0.059 A 
ATOM     77  C   UNL     1      10.926  24.055  -4.612  1.00  0.00     0.059 A 
ATOM     78  F   UNL     1      11.977  22.134  -3.773  1.00  0.00    -0.206 F 
ATOM     79  C   UNL     1      10.203  25.224  -4.379  1.00  0.00     0.060 A 
BRANCH  79  80
ATOM     80  S   UNL     1       9.718  26.295  -5.749  1.00  0.00     0.124 S 
ATOM     81  O   UNL     1       8.271  26.104  -5.770  1.00  0.00    -0.237 OA
ATOM     82  O   UNL     1      10.178  27.604  -5.296  1.00  0.00    -0.237 OA
ATOM     83  O   UNL     1      10.439  25.738  -6.889  1.00  0.00    -0.744 OA
ENDBRANCH  79  80
ENDBRANCH  58  72
BRANCH  59  84
ATOM     84  C   UNL     1      13.935  18.211   5.665  1.00  0.00     0.058 A 
ATOM     85  C   UNL     1      14.575  18.790   6.772  1.00  0.00     0.135 A 
ATOM     86  C   UNL     1      13.797  16.814   5.652  1.00  0.00     0.135 A 
ATOM     87  F   UNL     1      14.736  20.121   6.833  1.00  0.00    -0.206 F 
ATOM     88  C   UNL     1      15.105  18.015   7.798  1.00  0.00     0.059 A 
ATOM     89  C   UNL     1      14.287  16.019   6.684  1.00  0.00     0.059 A 
ATOM     90  F   UNL     1      13.174  16.208   4.630  1.00  0.00    -0.206 F 
ATOM     91  C   UNL     1      14.962  16.628   7.741  1.00  0.00     0.060 A 
BRANCH  91  92
ATOM     92  S   UNL     1      15.665  15.627   9.070  1.00  0.00     0.124 S 
ATOM     93  O   UNL     1      17.092  15.724   8.785  1.00  0.00    -0.237 OA
ATOM     94  O   UNL     1      15.201  16.331  10.261  1.00  0.00    -0.237 OA
ATOM     95  O   UNL     1      15.065  14.314   8.853  1.00  0.00    -0.744 OA
ENDBRANCH  91  92
ENDBRANCH  59  84
BRANCH  71  96
ATOM     96  C   UNL     1      17.262  22.182   0.997  1.00  0.00     0.058 A 
ATOM     97  C   UNL     1      18.225  21.259   0.562  1.00  0.00     0.135 A 
ATOM     98  C   UNL     1      17.679  23.505   1.224  1.00  0.00     0.135 A 
ATOM     99  F   UNL     1      17.883  19.980   0.337  1.00  0.00    -0.206 F 
ATOM    100  C   UNL     1      19.555  21.626   0.384  1.00  0.00     0.059 A 
ATOM    101  C   UNL     1      18.996  23.902   1.020  1.00  0.00     0.059 A 
ATOM    102  F   UNL     1      16.796  24.432   1.630  1.00  0.00    -0.206 F 
ATOM    103  C   UNL     1      19.930  22.952   0.611  1.00  0.00     0.060 A 
BRANCH 103 104
ATOM    104  S   UNL     1      21.651  23.422   0.339  1.00  0.00     0.124 S 
ATOM    105  O   UNL     1      22.313  22.785   1.474  1.00  0.00    -0.237 OA
ATOM    106  O   UNL     1      21.931  22.836  -0.968  1.00  0.00    -0.237 OA
ATOM    107  O   UNL     1      21.616  24.881   0.371  1.00  0.00    -0.744 OA
ENDBRANCH 103 104
ENDBRANCH  71  96
ENDBRANCH  45  46
ENDBRANCH  37  40
ENDBRANCH  35  36
ENDBRANCH  34  35
ENDBRANCH   1  34
TORSDOF 18
