REMARK SMILES Cc1ccc(-c2nc(C)cc(N3CCCC[C@H]3C(=O)NCCCCNC(=O)c3ccc(-c4c5nc(c(-c6c(F)cc(S(=O)(=O)[O-])cc6F)c6ccc([nH]6)c(-c6c(F)cc(S(=O)(=O)[O-])cc6F)c6nc(c(-c7c(F)cc(S(=O)(=O)[O-])cc7F)c7ccc4[nH]7)C=C6)C=C5)cc3)n2)cc1
REMARK SMILES IDX 23 1 22 2 21 3 20 4 18 5 19 6 17 8 12 9 13 10 14 11 16 12
REMARK SMILES IDX 15 13 11 14 6 15 7 16 94 17 8 18 9 19 10 20 5 21 1 22 2 23
REMARK SMILES IDX 3 24 96 25 4 26 95 27 24 28 25 29 26 30 27 32 28 33 29 34
REMARK SMILES IDX 93 35 30 36 92 37 31 38 32 39 33 40 86 41 34 42 91 43 85 44
REMARK SMILES IDX 87 45 35 46 90 47 84 48 83 49 36 51 70 52 49 53 69 54 50 55
REMARK SMILES IDX 53 56 68 57 88 58 51 59 52 60 67 62 89 63 54 64 37 65 38 66
REMARK SMILES IDX 47 67 39 68 40 69 46 70 48 71 41 72 42 73 43 74 44 75 45 76
REMARK SMILES IDX 71 77 72 78 81 79 73 80 74 81 80 82 82 83 75 84 76 85 77 86
REMARK SMILES IDX 78 87 79 88 55 89 56 90 65 91 57 92 58 93 64 94 66 95 59 96
REMARK SMILES IDX 60 97 61 98 62 99 63 100
REMARK H PARENT 20 7 25 31 87 50 53 61
REMARK Flexibility Score: inf
ROOT
ATOM      1  C   UNL     1      -9.117   3.316  -6.754  1.00  0.00     0.023 C 
ENDROOT
BRANCH   1   2
ATOM      2  C   UNL     1      -7.940   3.777  -5.896  1.00  0.00     0.023 C 
BRANCH   2   3
ATOM      3  C   UNL     1      -8.266   4.106  -4.431  1.00  0.00     0.116 C 
BRANCH   3   4
ATOM      4  N   UNL     1      -8.647   2.934  -3.661  1.00  0.00    -0.354 N 
ATOM      5  C   UNL     1      -8.079   2.202  -2.674  1.00  0.00     0.242 C 
ATOM      6  O   UNL     1      -8.825   1.325  -2.201  1.00  0.00    -0.273 OA
ATOM      7  H   UNL     1      -9.533   2.590  -3.919  1.00  0.00     0.163 HD
BRANCH   5   8
ATOM      8  C   UNL     1      -6.631   2.327  -2.105  1.00  0.00     0.173 C 
ATOM      9  N   UNL     1      -5.954   1.015  -2.249  1.00  0.00    -0.344 N 
ATOM     10  C   UNL     1      -5.418   0.702  -3.566  1.00  0.00     0.119 C 
ATOM     11  C   UNL     1      -4.403   1.750  -4.007  1.00  0.00     0.022 C 
ATOM     12  C   UNL     1      -5.646   3.420  -2.533  1.00  0.00     0.035 C 
ATOM     13  C   UNL     1      -4.955   3.166  -3.874  1.00  0.00     0.004 C 
BRANCH   9  14
ATOM     14  C   UNL     1      -5.285   0.517  -1.140  1.00  0.00     0.133 A 
ATOM     15  C   UNL     1      -3.334  -0.054  -0.076  1.00  0.00     0.161 A 
ATOM     16  N   UNL     1      -3.956  -0.571   0.998  1.00  0.00    -0.233 NA
ATOM     17  N   UNL     1      -3.944   0.472  -1.151  1.00  0.00    -0.211 NA
ATOM     18  C   UNL     1      -5.301  -0.503   0.993  1.00  0.00     0.043 A 
ATOM     19  C   UNL     1      -6.005  -1.087   2.179  1.00  0.00     0.067 C 
ATOM     20  C   UNL     1      -6.008   0.050  -0.057  1.00  0.00     0.070 A 
BRANCH  15  21
ATOM     21  C   UNL     1      -1.871  -0.040  -0.066  1.00  0.00     0.019 A 
ATOM     22  C   UNL     1       2.459   0.002  -0.016  1.00  0.00     0.044 C 
ATOM     23  C   UNL     1       0.960  -0.003  -0.027  1.00  0.00    -0.051 A 
ATOM     24  C   UNL     1       0.263  -1.211   0.083  1.00  0.00     0.004 A 
ATOM     25  C   UNL     1       0.238   1.187  -0.168  1.00  0.00     0.004 A 
ATOM     26  C   UNL     1      -1.136  -1.227   0.075  1.00  0.00     0.012 A 
ATOM     27  C   UNL     1      -1.160   1.165  -0.194  1.00  0.00     0.012 A 
ENDBRANCH  15  21
ENDBRANCH   9  14
ENDBRANCH   5   8
ENDBRANCH   3   4
ENDBRANCH   2   3
ENDBRANCH   1   2
BRANCH   1  28
ATOM     28  C   UNL     1     -10.181   4.377  -6.971  1.00  0.00     0.116 C 
BRANCH  28  29
ATOM     29  N   UNL     1      -9.982   5.245  -8.116  1.00  0.00    -0.352 N 
ATOM     30  C   UNL     1     -10.756   6.325  -8.531  1.00  0.00     0.251 C 
ATOM     31  H   UNL     1      -9.196   5.044  -8.673  1.00  0.00     0.163 HD
ATOM     32  O   UNL     1     -10.645   6.745  -9.669  1.00  0.00    -0.269 OA
BRANCH  30  33
ATOM     33  C   UNL     1     -11.652   7.001  -7.551  1.00  0.00     0.039 A 
ATOM     34  C   UNL     1     -11.652   8.402  -7.488  1.00  0.00     0.014 A 
ATOM     35  C   UNL     1     -12.341   6.274  -6.591  1.00  0.00     0.014 A 
ATOM     36  C   UNL     1     -12.172   9.052  -6.363  1.00  0.00     0.010 A 
ATOM     37  C   UNL     1     -12.714   6.896  -5.423  1.00  0.00     0.010 A 
ATOM     38  C   UNL     1     -12.624   8.287  -5.295  1.00  0.00    -0.014 A 
BRANCH  38  39
ATOM     39  C   UNL     1     -13.046   8.777  -3.987  1.00  0.00     0.031 A 
ATOM     40  C   UNL     1     -14.462   8.600  -3.570  1.00  0.00     0.074 A 
ATOM     41  C   UNL     1     -12.113   9.108  -3.068  1.00  0.00     0.049 A 
ATOM     42  N   UNL     1     -14.967   9.049  -2.473  1.00  0.00    -0.248 NA
ATOM     43  C   UNL     1     -15.444   7.894  -4.390  1.00  0.00     0.031 C 
ATOM     44  C   UNL     1     -12.259   9.053  -1.615  1.00  0.00     0.029 A 
ATOM     45  N   UNL     1     -10.888   9.734  -3.259  1.00  0.00    -0.354 N 
ATOM     46  C   UNL     1     -16.214   8.485  -2.307  1.00  0.00     0.074 A 
ATOM     47  C   UNL     1     -16.475   7.796  -3.547  1.00  0.00     0.031 C 
ATOM     48  C   UNL     1     -11.301   9.799  -1.045  1.00  0.00     0.029 A 
ATOM     49  C   UNL     1     -10.617  10.503  -2.113  1.00  0.00     0.049 A 
ATOM     50  H   UNL     1     -10.312   9.654  -4.054  1.00  0.00     0.167 HD
ATOM     51  C   UNL     1     -16.827   8.584  -1.091  1.00  0.00     0.037 A 
ATOM     52  C   UNL     1     -10.517  11.867  -2.180  1.00  0.00     0.037 A 
ATOM     53  C   UNL     1     -16.034   9.408  -0.182  1.00  0.00     0.049 A 
ATOM     54  C   UNL     1     -11.548  12.613  -1.363  1.00  0.00     0.074 A 
ATOM     55  C   UNL     1     -15.124   9.106   0.818  1.00  0.00     0.029 A 
ATOM     56  N   UNL     1     -15.905  10.766  -0.438  1.00  0.00    -0.354 N 
ATOM     57  N   UNL     1     -12.645  12.079  -0.903  1.00  0.00    -0.248 NA
ATOM     58  C   UNL     1     -11.427  14.021  -0.999  1.00  0.00     0.031 C 
ATOM     59  C   UNL     1     -14.420  10.293   1.143  1.00  0.00     0.029 A 
ATOM     60  C   UNL     1     -14.914  11.315   0.350  1.00  0.00     0.049 A 
ATOM     61  H   UNL     1     -16.445  11.268  -1.090  1.00  0.00     0.167 HD
ATOM     62  C   UNL     1     -13.386  13.028  -0.241  1.00  0.00     0.074 A 
ATOM     63  C   UNL     1     -12.559  14.219  -0.300  1.00  0.00     0.031 C 
ATOM     64  C   UNL     1     -14.619  12.739   0.278  1.00  0.00     0.037 A 
BRANCH  51  65
ATOM     65  C   UNL     1     -18.021   7.768  -0.632  1.00  0.00     0.058 A 
ATOM     66  C   UNL     1     -18.231   7.517   0.745  1.00  0.00     0.135 A 
ATOM     67  C   UNL     1     -18.976   7.175  -1.480  1.00  0.00     0.135 A 
ATOM     68  F   UNL     1     -17.460   8.076   1.688  1.00  0.00    -0.206 F 
ATOM     69  C   UNL     1     -19.235   6.674   1.226  1.00  0.00     0.059 A 
ATOM     70  C   UNL     1     -19.957   6.284  -1.028  1.00  0.00     0.059 A 
ATOM     71  F   UNL     1     -19.041   7.476  -2.782  1.00  0.00    -0.206 F 
ATOM     72  C   UNL     1     -20.074   6.032   0.329  1.00  0.00     0.060 A 
BRANCH  72  73
ATOM     73  S   UNL     1     -21.315   4.889   0.962  1.00  0.00     0.124 S 
ATOM     74  O   UNL     1     -20.501   3.939   1.714  1.00  0.00    -0.237 OA
ATOM     75  O   UNL     1     -22.165   5.769   1.757  1.00  0.00    -0.237 OA
ATOM     76  O   UNL     1     -21.931   4.352  -0.249  1.00  0.00    -0.744 OA
ENDBRANCH  72  73
ENDBRANCH  51  65
BRANCH  52  77
ATOM     77  C   UNL     1      -9.922  12.334  -3.463  1.00  0.00     0.058 A 
ATOM     78  C   UNL     1      -8.562  12.036  -3.672  1.00  0.00     0.135 A 
ATOM     79  C   UNL     1     -10.733  12.524  -4.592  1.00  0.00     0.135 A 
ATOM     80  F   UNL     1      -7.741  11.876  -2.621  1.00  0.00    -0.206 F 
ATOM     81  C   UNL     1      -8.079  11.714  -4.933  1.00  0.00     0.059 A 
ATOM     82  C   UNL     1     -10.264  12.219  -5.870  1.00  0.00     0.059 A 
ATOM     83  F   UNL     1     -12.032  12.825  -4.449  1.00  0.00    -0.206 F 
ATOM     84  C   UNL     1      -8.966  11.724  -6.009  1.00  0.00     0.060 A 
BRANCH  84  85
ATOM     85  S   UNL     1      -8.466  10.848  -7.510  1.00  0.00     0.124 S 
ATOM     86  O   UNL     1      -7.198  11.491  -7.835  1.00  0.00    -0.237 OA
ATOM     87  O   UNL     1      -8.371   9.475  -7.016  1.00  0.00    -0.237 OA
ATOM     88  O   UNL     1      -9.564  11.111  -8.433  1.00  0.00    -0.744 OA
ENDBRANCH  84  85
ENDBRANCH  52  77
BRANCH  64  89
ATOM     89  C   UNL     1     -15.652  13.710   0.827  1.00  0.00     0.058 A 
ATOM     90  C   UNL     1     -15.705  15.081   0.527  1.00  0.00     0.135 A 
ATOM     91  C   UNL     1     -16.747  13.227   1.596  1.00  0.00     0.135 A 
ATOM     92  F   UNL     1     -14.805  15.660  -0.277  1.00  0.00    -0.206 F 
ATOM     93  C   UNL     1     -16.724  15.918   0.997  1.00  0.00     0.059 A 
ATOM     94  C   UNL     1     -17.804  14.030   2.019  1.00  0.00     0.059 A 
ATOM     95  F   UNL     1     -16.845  11.938   1.952  1.00  0.00    -0.206 F 
ATOM     96  C   UNL     1     -17.772  15.384   1.738  1.00  0.00     0.060 A 
BRANCH  96  97
ATOM     97  S   UNL     1     -19.127  16.443   2.273  1.00  0.00     0.124 S 
ATOM     98  O   UNL     1     -18.636  16.914   3.564  1.00  0.00    -0.237 OA
ATOM     99  O   UNL     1     -19.187  17.450   1.217  1.00  0.00    -0.237 OA
ATOM    100  O   UNL     1     -20.266  15.532   2.322  1.00  0.00    -0.744 OA
ENDBRANCH  96  97
ENDBRANCH  64  89
ENDBRANCH  38  39
ENDBRANCH  30  33
ENDBRANCH  28  29
ENDBRANCH   1  28
TORSDOF 16
