REMARK SMILES C[C@@H](O)[C@@H](NC(=O)Nc1ccc(F)cc1F)C(=O)NCCCCNC(=O)c1ccc(-c2c3nc(c(-c4c(F)cc(S(=O)(=O)[O-])cc4F)c4ccc([nH]4)c(-c4c(F)cc(S(=O)(=O)[O-])cc4F)c4nc(c(-c5c(F)cc(S(=O)(=O)[O-])cc5F)c5ccc2[nH]5)C=C4)C=C3)cc1
REMARK SMILES IDX 22 1 21 2 20 3 19 4 17 5 18 6 4 8 2 9 1 10 3 11 5 13 6 14
REMARK SMILES IDX 7 16 8 17 9 19 10 20 15 21 11 22 14 23 16 24 12 25 13 26
REMARK SMILES IDX 23 27 24 28 25 29 26 31 27 32 28 33 92 34 29 35 91 36 30 37
REMARK SMILES IDX 31 38 32 39 85 40 33 41 90 42 84 43 86 44 34 45 89 46 83 47
REMARK SMILES IDX 82 48 35 50 69 51 48 52 68 53 49 54 52 55 67 56 87 57 50 58
REMARK SMILES IDX 51 59 66 61 88 62 53 63 36 64 37 65 46 66 38 67 39 68 45 69
REMARK SMILES IDX 47 70 40 71 41 72 42 73 43 74 44 75 70 76 71 77 80 78 72 79
REMARK SMILES IDX 73 80 79 81 81 82 74 83 75 84 76 85 77 86 78 87 54 88 55 89
REMARK SMILES IDX 64 90 56 91 57 92 63 93 65 94 58 95 59 96 60 97 61 98 62 99
REMARK H PARENT 19 7 3 12 5 15 8 18 24 30 86 49 52 60
REMARK Flexibility Score: inf
ROOT
ATOM      1  C   UNL     1       1.554  -4.338   4.507  1.00  0.00     0.023 C 
ENDROOT
BRANCH   1   2
ATOM      2  C   UNL     1       1.845  -3.857   3.075  1.00  0.00     0.023 C 
BRANCH   2   3
ATOM      3  C   UNL     1       0.594  -3.507   2.262  1.00  0.00     0.116 C 
BRANCH   3   4
ATOM      4  N   UNL     1      -0.182  -2.525   2.986  1.00  0.00    -0.354 N 
ATOM      5  C   UNL     1      -0.032  -1.179   2.831  1.00  0.00     0.245 C 
ATOM      6  O   UNL     1       0.455  -0.519   3.752  1.00  0.00    -0.273 OA
ATOM      7  H   UNL     1      -0.856  -2.847   3.628  1.00  0.00     0.163 HD
BRANCH   5   8
ATOM      8  C   UNL     1      -0.386  -0.531   1.482  1.00  0.00     0.201 C 
BRANCH   8   9
ATOM      9  C   UNL     1       0.974  -0.243   0.790  1.00  0.00     0.143 C 
ATOM     10  C   UNL     1       0.866   0.116  -0.686  1.00  0.00     0.041 C 
BRANCH   9  11
ATOM     11  O   UNL     1       1.612   0.880   1.422  1.00  0.00    -0.391 OA
ATOM     12  H   UNL     1       1.065   1.673   1.304  1.00  0.00     0.211 HD
ENDBRANCH   9  11
ENDBRANCH   8   9
BRANCH   8  13
ATOM     13  N   UNL     1      -1.357  -1.308   0.698  1.00  0.00    -0.323 N 
ATOM     14  C   UNL     1      -2.583  -1.807   0.969  1.00  0.00     0.320 C 
ATOM     15  H   UNL     1      -1.049  -1.505  -0.216  1.00  0.00     0.166 HD
ATOM     16  O   UNL     1      -3.140  -2.430   0.061  1.00  0.00    -0.248 OA
ATOM     17  N   UNL     1      -3.127  -1.826   2.205  1.00  0.00    -0.305 N 
ATOM     18  H   UNL     1      -3.753  -2.572   2.350  1.00  0.00     0.171 HD
BRANCH  17  19
ATOM     19  C   UNL     1      -2.974  -0.993   3.321  1.00  0.00     0.079 A 
ATOM     20  C   UNL     1      -2.879   0.393   3.208  1.00  0.00     0.032 A 
ATOM     21  C   UNL     1      -2.880  -1.589   4.588  1.00  0.00     0.149 A 
ATOM     22  C   UNL     1      -2.568   1.156   4.336  1.00  0.00     0.041 A 
ATOM     23  C   UNL     1      -2.548  -0.840   5.710  1.00  0.00     0.080 A 
ATOM     24  F   UNL     1      -2.968  -2.924   4.703  1.00  0.00    -0.205 F 
ATOM     25  C   UNL     1      -2.376   0.530   5.566  1.00  0.00     0.126 A 
ATOM     26  F   UNL     1      -2.014   1.264   6.626  1.00  0.00    -0.207 F 
ENDBRANCH  17  19
ENDBRANCH   8  13
ENDBRANCH   5   8
ENDBRANCH   3   4
ENDBRANCH   2   3
ENDBRANCH   1   2
BRANCH   1  27
ATOM     27  C   UNL     1       0.498  -5.436   4.610  1.00  0.00     0.116 C 
BRANCH  27  28
ATOM     28  N   UNL     1       0.864  -6.597   3.820  1.00  0.00    -0.352 N 
ATOM     29  C   UNL     1       0.985  -7.903   4.213  1.00  0.00     0.251 C 
ATOM     30  H   UNL     1       1.050  -6.421   2.869  1.00  0.00     0.163 HD
ATOM     31  O   UNL     1       1.529  -8.714   3.471  1.00  0.00    -0.269 OA
BRANCH  29  32
ATOM     32  C   UNL     1       0.467  -8.323   5.530  1.00  0.00     0.039 A 
ATOM     33  C   UNL     1       1.263  -9.145   6.330  1.00  0.00     0.014 A 
ATOM     34  C   UNL     1      -0.808  -7.937   5.958  1.00  0.00     0.014 A 
ATOM     35  C   UNL     1       0.789  -9.563   7.573  1.00  0.00     0.010 A 
ATOM     36  C   UNL     1      -1.255  -8.306   7.224  1.00  0.00     0.010 A 
ATOM     37  C   UNL     1      -0.468  -9.137   8.035  1.00  0.00    -0.014 A 
BRANCH  37  38
ATOM     38  C   UNL     1      -0.975  -9.587   9.354  1.00  0.00     0.031 A 
ATOM     39  C   UNL     1      -2.167 -10.502   9.431  1.00  0.00     0.074 A 
ATOM     40  C   UNL     1      -0.373  -9.154  10.478  1.00  0.00     0.049 A 
ATOM     41  N   UNL     1      -2.757 -10.999  10.487  1.00  0.00    -0.248 NA
ATOM     42  C   UNL     1      -2.793 -10.893   8.157  1.00  0.00     0.031 C 
ATOM     43  C   UNL     1       0.758  -8.224  10.526  1.00  0.00     0.029 A 
ATOM     44  N   UNL     1      -0.625  -9.438  11.796  1.00  0.00    -0.354 N 
ATOM     45  C   UNL     1      -3.826 -11.748  10.008  1.00  0.00     0.074 A 
ATOM     46  C   UNL     1      -3.833 -11.603   8.569  1.00  0.00     0.031 C 
ATOM     47  C   UNL     1       1.117  -8.034  11.806  1.00  0.00     0.029 A 
ATOM     48  C   UNL     1       0.229  -8.807  12.670  1.00  0.00     0.049 A 
ATOM     49  H   UNL     1      -1.350 -10.036  12.089  1.00  0.00     0.167 HD
ATOM     50  C   UNL     1      -4.705 -12.506  10.704  1.00  0.00     0.037 A 
ATOM     51  C   UNL     1       0.292  -8.853  14.014  1.00  0.00     0.037 A 
ATOM     52  C   UNL     1      -4.668 -12.673  12.134  1.00  0.00     0.049 A 
ATOM     53  C   UNL     1      -0.669  -9.736  14.761  1.00  0.00     0.074 A 
ATOM     54  C   UNL     1      -5.482 -13.460  12.930  1.00  0.00     0.029 A 
ATOM     55  N   UNL     1      -3.764 -12.049  12.980  1.00  0.00    -0.354 N 
ATOM     56  N   UNL     1      -1.641 -10.480  14.287  1.00  0.00    -0.248 NA
ATOM     57  C   UNL     1      -0.518  -9.801  16.220  1.00  0.00     0.031 C 
ATOM     58  C   UNL     1      -5.091 -13.286  14.261  1.00  0.00     0.029 A 
ATOM     59  C   UNL     1      -4.005 -12.426  14.291  1.00  0.00     0.049 A 
ATOM     60  H   UNL     1      -3.055 -11.429  12.692  1.00  0.00     0.167 HD
ATOM     61  C   UNL     1      -2.200 -11.121  15.387  1.00  0.00     0.074 A 
ATOM     62  C   UNL     1      -1.449 -10.687  16.547  1.00  0.00     0.031 C 
ATOM     63  C   UNL     1      -3.240 -11.990  15.432  1.00  0.00     0.037 A 
BRANCH  50  64
ATOM     64  C   UNL     1      -5.777 -13.226   9.933  1.00  0.00     0.058 A 
ATOM     65  C   UNL     1      -7.122 -12.838  10.047  1.00  0.00     0.135 A 
ATOM     66  C   UNL     1      -5.483 -14.338   9.128  1.00  0.00     0.135 A 
ATOM     67  F   UNL     1      -7.458 -11.779  10.801  1.00  0.00    -0.206 F 
ATOM     68  C   UNL     1      -8.140 -13.532   9.400  1.00  0.00     0.059 A 
ATOM     69  C   UNL     1      -6.482 -15.030   8.451  1.00  0.00     0.059 A 
ATOM     70  F   UNL     1      -4.212 -14.740   8.969  1.00  0.00    -0.206 F 
ATOM     71  C   UNL     1      -7.809 -14.623   8.598  1.00  0.00     0.060 A 
BRANCH  71  72
ATOM     72  S   UNL     1      -9.093 -15.552   7.734  1.00  0.00     0.124 S 
ATOM     73  O   UNL     1      -8.837 -15.184   6.345  1.00  0.00    -0.237 OA
ATOM     74  O   UNL     1      -8.774 -16.930   8.094  1.00  0.00    -0.237 OA
ATOM     75  O   UNL     1     -10.332 -15.030   8.302  1.00  0.00    -0.744 OA
ENDBRANCH  71  72
ENDBRANCH  50  64
BRANCH  51  76
ATOM     76  C   UNL     1       1.327  -8.064  14.734  1.00  0.00     0.058 A 
ATOM     77  C   UNL     1       1.256  -6.664  14.803  1.00  0.00     0.135 A 
ATOM     78  C   UNL     1       2.419  -8.694  15.348  1.00  0.00     0.135 A 
ATOM     79  F   UNL     1       0.242  -6.013  14.214  1.00  0.00    -0.206 F 
ATOM     80  C   UNL     1       2.234  -5.914  15.448  1.00  0.00     0.059 A 
ATOM     81  C   UNL     1       3.396  -7.968  16.021  1.00  0.00     0.059 A 
ATOM     82  F   UNL     1       2.529 -10.031  15.312  1.00  0.00    -0.206 F 
ATOM     83  C   UNL     1       3.296  -6.576  16.063  1.00  0.00     0.060 A 
BRANCH  83  84
ATOM     84  S   UNL     1       4.595  -5.640  16.898  1.00  0.00     0.124 S 
ATOM     85  O   UNL     1       4.328  -5.951  18.298  1.00  0.00    -0.237 OA
ATOM     86  O   UNL     1       5.806  -6.228  16.333  1.00  0.00    -0.237 OA
ATOM     87  O   UNL     1       4.329  -4.263  16.495  1.00  0.00    -0.744 OA
ENDBRANCH  83  84
ENDBRANCH  51  76
BRANCH  63  88
ATOM     88  C   UNL     1      -3.606 -12.558  16.774  1.00  0.00     0.058 A 
ATOM     89  C   UNL     1      -3.346 -13.907  17.068  1.00  0.00     0.135 A 
ATOM     90  C   UNL     1      -4.255 -11.786  17.750  1.00  0.00     0.135 A 
ATOM     91  F   UNL     1      -2.740 -14.691  16.163  1.00  0.00    -0.206 F 
ATOM     92  C   UNL     1      -3.712 -14.472  18.285  1.00  0.00     0.059 A 
ATOM     93  C   UNL     1      -4.606 -12.324  18.984  1.00  0.00     0.059 A 
ATOM     94  F   UNL     1      -4.523 -10.492  17.519  1.00  0.00    -0.206 F 
ATOM     95  C   UNL     1      -4.329 -13.668  19.242  1.00  0.00     0.060 A 
BRANCH  95  96
ATOM     96  S   UNL     1      -4.805 -14.356  20.842  1.00  0.00     0.124 S 
ATOM     97  O   UNL     1      -3.815 -13.752  21.727  1.00  0.00    -0.237 OA
ATOM     98  O   UNL     1      -6.173 -13.872  20.995  1.00  0.00    -0.237 OA
ATOM     99  O   UNL     1      -4.675 -15.797  20.645  1.00  0.00    -0.744 OA
ENDBRANCH  95  96
ENDBRANCH  63  88
ENDBRANCH  37  38
ENDBRANCH  29  32
ENDBRANCH  27  28
ENDBRANCH   1  27
TORSDOF 18
