REMARK SMILES O=C(NCCCCNC(=O)[C@@H]1CSCN1C(=O)c1cccc(Cl)c1)c1ccc(-c2c3nc(c(-c4c(F)cc(S(=O)(=O)[O-])cc4F)c4ccc([nH]4)c(-c4c(F)cc(S(=O)(=O)[O-])cc4F)c4nc(c(-c5c(F)cc(S(=O)(=O)[O-])cc5F)c5ccc2[nH]5)C=C4)C=C3)cc1
REMARK SMILES IDX 5 1 4 2 3 3 1 4 2 5 25 7 26 8 90 9 27 10 89 11 28 12 29 13
REMARK SMILES IDX 30 14 83 15 31 16 88 17 82 18 84 19 32 20 87 21 81 22 80 23
REMARK SMILES IDX 33 25 67 26 46 27 66 28 47 29 50 30 65 31 85 32 48 33 49 34
REMARK SMILES IDX 64 36 86 37 51 38 34 39 35 40 44 41 36 42 37 43 43 44 45 45
REMARK SMILES IDX 38 46 39 47 40 48 41 49 42 50 68 51 69 52 78 53 70 54 71 55
REMARK SMILES IDX 77 56 79 57 72 58 73 59 74 60 75 61 76 62 52 63 53 64 62 65
REMARK SMILES IDX 54 66 55 67 61 68 63 69 56 70 57 71 58 72 59 73 60 74 6 75
REMARK SMILES IDX 7 76 8 77 9 78 10 80 11 81 12 82 15 83 13 84 14 85 16 86
REMARK SMILES IDX 17 87 18 88 19 89 24 90 20 91 22 92 21 93 23 94
REMARK H PARENT 3 6 84 24 50 35 8 79
REMARK Flexibility Score: inf
ROOT
ATOM      1  C   UNL     1       6.487   2.262  -7.004  1.00  0.00     0.023 C 
ENDROOT
BRANCH   1   2
ATOM      2  C   UNL     1       7.869   1.825  -7.471  1.00  0.00     0.116 C 
BRANCH   2   3
ATOM      3  N   UNL     1       8.252   0.513  -6.975  1.00  0.00    -0.352 N 
ATOM      4  O   UNL     1       8.985  -1.617  -7.122  1.00  0.00    -0.269 OA
ATOM      5  C   UNL     1       8.845  -0.523  -7.662  1.00  0.00     0.251 C 
ATOM      6  H   UNL     1       8.064   0.343  -6.024  1.00  0.00     0.163 HD
BRANCH   5   7
ATOM      7  C   UNL     1       9.280  -0.317  -9.062  1.00  0.00     0.039 A 
ATOM      8  C   UNL     1       9.979   0.837  -9.422  1.00  0.00     0.014 A 
ATOM      9  C   UNL     1       8.970  -1.279 -10.028  1.00  0.00     0.014 A 
ATOM     10  C   UNL     1      10.235   1.096 -10.763  1.00  0.00     0.010 A 
ATOM     11  C   UNL     1       9.307  -1.055 -11.368  1.00  0.00     0.010 A 
ATOM     12  C   UNL     1       9.915   0.149 -11.751  1.00  0.00    -0.014 A 
BRANCH  12  13
ATOM     13  C   UNL     1      10.300   0.431 -13.158  1.00  0.00     0.031 A 
ATOM     14  C   UNL     1       9.267   0.637 -14.232  1.00  0.00     0.074 A 
ATOM     15  C   UNL     1      11.611   0.567 -13.443  1.00  0.00     0.049 A 
ATOM     16  N   UNL     1       9.443   0.963 -15.487  1.00  0.00    -0.248 NA
ATOM     17  C   UNL     1       7.856   0.448 -13.857  1.00  0.00     0.031 C 
ATOM     18  C   UNL     1      12.703   0.361 -12.486  1.00  0.00     0.029 A 
ATOM     19  N   UNL     1      12.248   0.938 -14.597  1.00  0.00    -0.354 N 
ATOM     20  C   UNL     1       8.176   1.011 -16.055  1.00  0.00     0.074 A 
ATOM     21  C   UNL     1       7.237   0.654 -15.013  1.00  0.00     0.031 C 
ATOM     22  C   UNL     1      13.868   0.665 -13.075  1.00  0.00     0.029 A 
ATOM     23  C   UNL     1      13.613   1.035 -14.463  1.00  0.00     0.049 A 
ATOM     24  H   UNL     1      11.775   1.119 -15.441  1.00  0.00     0.167 HD
ATOM     25  C   UNL     1       7.830   1.333 -17.326  1.00  0.00     0.037 A 
ATOM     26  C   UNL     1      14.559   1.376 -15.356  1.00  0.00     0.037 A 
ATOM     27  C   UNL     1       8.771   1.700 -18.355  1.00  0.00     0.049 A 
ATOM     28  C   UNL     1      14.144   1.745 -16.750  1.00  0.00     0.074 A 
ATOM     29  C   UNL     1       8.516   2.052 -19.671  1.00  0.00     0.029 A 
ATOM     30  N   UNL     1      10.146   1.772 -18.186  1.00  0.00    -0.354 N 
ATOM     31  N   UNL     1      12.937   1.794 -17.262  1.00  0.00    -0.248 NA
ATOM     32  C   UNL     1      15.215   2.102 -17.688  1.00  0.00     0.031 C 
ATOM     33  C   UNL     1       9.738   2.308 -20.303  1.00  0.00     0.029 A 
ATOM     34  C   UNL     1      10.752   2.152 -19.372  1.00  0.00     0.049 A 
ATOM     35  H   UNL     1      10.621   1.580 -17.345  1.00  0.00     0.167 HD
ATOM     36  C   UNL     1      13.104   2.183 -18.584  1.00  0.00     0.074 A 
ATOM     37  C   UNL     1      14.525   2.392 -18.782  1.00  0.00     0.031 C 
ATOM     38  C   UNL     1      12.169   2.340 -19.552  1.00  0.00     0.037 A 
BRANCH  25  39
ATOM     39  C   UNL     1       6.370   1.306 -17.687  1.00  0.00     0.058 A 
ATOM     40  C   UNL     1       5.492   2.318 -17.267  1.00  0.00     0.135 A 
ATOM     41  C   UNL     1       5.857   0.300 -18.522  1.00  0.00     0.135 A 
ATOM     42  F   UNL     1       5.926   3.295 -16.455  1.00  0.00    -0.206 F 
ATOM     43  C   UNL     1       4.155   2.329 -17.655  1.00  0.00     0.059 A 
ATOM     44  C   UNL     1       4.528   0.302 -18.939  1.00  0.00     0.059 A 
ATOM     45  F   UNL     1       6.652  -0.692 -18.952  1.00  0.00    -0.206 F 
ATOM     46  C   UNL     1       3.683   1.318 -18.493  1.00  0.00     0.060 A 
BRANCH  46  47
ATOM     47  S   UNL     1       1.953   1.362 -19.011  1.00  0.00     0.124 S 
ATOM     48  O   UNL     1       1.273   0.946 -17.788  1.00  0.00    -0.237 OA
ATOM     49  O   UNL     1       1.775   2.760 -19.390  1.00  0.00    -0.237 OA
ATOM     50  O   UNL     1       1.903   0.407 -20.113  1.00  0.00    -0.744 OA
ENDBRANCH  46  47
ENDBRANCH  25  39
BRANCH  26  51
ATOM     51  C   UNL     1      15.989   1.368 -14.957  1.00  0.00     0.058 A 
ATOM     52  C   UNL     1      16.713   2.561 -14.819  1.00  0.00     0.135 A 
ATOM     53  C   UNL     1      16.654   0.162 -14.688  1.00  0.00     0.135 A 
ATOM     54  F   UNL     1      16.120   3.738 -15.066  1.00  0.00    -0.206 F 
ATOM     55  C   UNL     1      18.053   2.558 -14.446  1.00  0.00     0.059 A 
ATOM     56  C   UNL     1      17.985   0.135 -14.289  1.00  0.00     0.059 A 
ATOM     57  F   UNL     1      15.997  -1.005 -14.786  1.00  0.00    -0.206 F 
ATOM     58  C   UNL     1      18.681   1.338 -14.185  1.00  0.00     0.060 A 
BRANCH  58  59
ATOM     59  S   UNL     1      20.409   1.337 -13.661  1.00  0.00     0.124 S 
ATOM     60  O   UNL     1      21.099   1.496 -14.935  1.00  0.00    -0.237 OA
ATOM     61  O   UNL     1      20.462   2.482 -12.757  1.00  0.00    -0.237 OA
ATOM     62  O   UNL     1      20.558   0.035 -13.017  1.00  0.00    -0.744 OA
ENDBRANCH  58  59
ENDBRANCH  26  51
BRANCH  38  63
ATOM     63  C   UNL     1      12.665   2.756 -20.907  1.00  0.00     0.058 A 
ATOM     64  C   UNL     1      13.339   1.853 -21.745  1.00  0.00     0.135 A 
ATOM     65  C   UNL     1      12.470   4.066 -21.370  1.00  0.00     0.135 A 
ATOM     66  F   UNL     1      13.557   0.591 -21.342  1.00  0.00    -0.206 F 
ATOM     67  C   UNL     1      13.836   2.246 -22.983  1.00  0.00     0.059 A 
ATOM     68  C   UNL     1      12.938   4.473 -22.615  1.00  0.00     0.059 A 
ATOM     69  F   UNL     1      11.823   4.963 -20.610  1.00  0.00    -0.206 F 
ATOM     70  C   UNL     1      13.637   3.561 -23.406  1.00  0.00     0.060 A 
BRANCH  70  71
ATOM     71  S   UNL     1      14.288   4.065 -25.012  1.00  0.00     0.124 S 
ATOM     72  O   UNL     1      15.701   4.260 -24.706  1.00  0.00    -0.237 OA
ATOM     73  O   UNL     1      13.975   2.915 -25.855  1.00  0.00    -0.237 OA
ATOM     74  O   UNL     1      13.536   5.279 -25.315  1.00  0.00    -0.744 OA
ENDBRANCH  70  71
ENDBRANCH  38  63
ENDBRANCH  12  13
ENDBRANCH   5   7
ENDBRANCH   2   3
ENDBRANCH   1   2
BRANCH   1  75
ATOM     75  C   UNL     1       6.334   2.438  -5.492  1.00  0.00     0.023 C 
BRANCH  75  76
ATOM     76  C   UNL     1       7.332   3.401  -4.852  1.00  0.00     0.116 C 
BRANCH  76  77
ATOM     77  N   UNL     1       7.207   4.745  -5.386  1.00  0.00    -0.354 N 
ATOM     78  C   UNL     1       6.816   5.895  -4.758  1.00  0.00     0.243 C 
ATOM     79  H   UNL     1       7.437   4.843  -6.339  1.00  0.00     0.163 HD
ATOM     80  O   UNL     1       6.734   6.928  -5.426  1.00  0.00    -0.273 OA
BRANCH  78  81
ATOM     81  C   UNL     1       6.414   5.837  -3.271  1.00  0.00     0.185 C 
ATOM     82  C   UNL     1       4.988   5.298  -3.158  1.00  0.00     0.106 C 
ATOM     83  N   UNL     1       6.494   7.165  -2.664  1.00  0.00    -0.317 N 
ATOM     84  S   UNL     1       3.961   6.628  -2.475  1.00  0.00    -0.138 SA
ATOM     85  C   UNL     1       5.242   7.884  -2.657  1.00  0.00     0.190 C 
BRANCH  83  86
ATOM     86  C   UNL     1       7.740   7.680  -2.358  1.00  0.00     0.255 C 
ATOM     87  O   UNL     1       8.786   7.056  -2.506  1.00  0.00    -0.269 OA
BRANCH  86  88
ATOM     88  C   UNL     1       7.824   9.047  -1.816  1.00  0.00     0.041 A 
ATOM     89  C   UNL     1       7.384   9.305  -0.513  1.00  0.00     0.014 A 
ATOM     90  C   UNL     1       8.403  10.052  -2.593  1.00  0.00     0.034 A 
ATOM     91  C   UNL     1       7.488  10.595   0.005  1.00  0.00     0.002 A 
ATOM     92  C   UNL     1       8.507  11.335  -2.063  1.00  0.00     0.041 A 
ATOM     93  C   UNL     1       8.047  11.611  -0.773  1.00  0.00     0.020 A 
ATOM     94  Cl  UNL     1       9.208  12.596  -3.000  1.00  0.00    -0.084 Cl
ENDBRANCH  86  88
ENDBRANCH  83  86
ENDBRANCH  78  81
ENDBRANCH  76  77
ENDBRANCH  75  76
ENDBRANCH   1  75
TORSDOF 16
