REMARK SMILES O=C(NCCCCNC(=O)[C@H](c1ccccc1)N1C(=O)/C(=C\c2ccc(Br)cc2)SC1=S)c1ccc(-c2c3nc(c(-c4c(F)cc(S(=O)(=O)[O-])cc4F)c4ccc([nH]4)c(-c4c(F)cc(S(=O)(=O)[O-])cc4F)c4nc(c(-c5c(F)cc(S(=O)(=O)[O-])cc5F)c5ccc2[nH]5)C=C4)C=C3)cc1
REMARK SMILES IDX 5 1 4 2 3 3 1 4 2 5 33 7 34 8 98 9 35 10 97 11 36 12 37 13
REMARK SMILES IDX 38 14 91 15 39 16 96 17 90 18 92 19 40 20 95 21 89 22 88 23
REMARK SMILES IDX 41 25 75 26 54 27 74 28 55 29 58 30 73 31 93 32 56 33 57 34
REMARK SMILES IDX 72 36 94 37 59 38 42 39 43 40 52 41 44 42 45 43 51 44 53 45
REMARK SMILES IDX 46 46 47 47 48 48 49 49 50 50 76 51 77 52 86 53 78 54 79 55
REMARK SMILES IDX 85 56 87 57 80 58 81 59 82 60 83 61 84 62 60 63 61 64 70 65
REMARK SMILES IDX 62 66 63 67 69 68 71 69 64 70 65 71 66 72 67 73 68 74 6 75
REMARK SMILES IDX 7 76 8 77 9 78 10 80 11 81 18 82 19 83 31 84 20 85 21 86
REMARK SMILES IDX 30 87 32 88 22 89 23 90 24 91 29 92 25 93 28 94 26 95 27 96
REMARK SMILES IDX 12 97 13 98 17 99 14 100 16 101 15 102
REMARK H PARENT 3 6 92 24 58 35 8 79
REMARK Flexibility Score: inf
ROOT
ATOM      1  C   UNL     1       4.502  -7.148   8.373  1.00  0.00     0.023 C 
ENDROOT
BRANCH   1   2
ATOM      2  C   UNL     1       3.023  -7.502   8.256  1.00  0.00     0.116 C 
BRANCH   2   3
ATOM      3  N   UNL     1       2.797  -8.921   8.034  1.00  0.00    -0.352 N 
ATOM      4  O   UNL     1       2.074 -11.002   8.491  1.00  0.00    -0.269 OA
ATOM      5  C   UNL     1       2.027  -9.804   8.753  1.00  0.00     0.251 C 
ATOM      6  H   UNL     1       3.263  -9.305   7.256  1.00  0.00     0.163 HD
BRANCH   5   7
ATOM      7  C   UNL     1       1.174  -9.311   9.856  1.00  0.00     0.039 A 
ATOM      8  C   UNL     1       0.355  -8.190   9.685  1.00  0.00     0.014 A 
ATOM      9  C   UNL     1       1.199  -9.983  11.080  1.00  0.00     0.014 A 
ATOM     10  C   UNL     1      -0.335  -7.664  10.774  1.00  0.00     0.010 A 
ATOM     11  C   UNL     1       0.451  -9.493  12.153  1.00  0.00     0.010 A 
ATOM     12  C   UNL     1      -0.296  -8.312  12.018  1.00  0.00    -0.014 A 
BRANCH  12  13
ATOM     13  C   UNL     1      -1.065  -7.774  13.168  1.00  0.00     0.031 A 
ATOM     14  C   UNL     1      -0.359  -7.262  14.391  1.00  0.00     0.074 A 
ATOM     15  C   UNL     1      -2.411  -7.778  13.116  1.00  0.00     0.049 A 
ATOM     16  N   UNL     1      -0.866  -6.843  15.522  1.00  0.00    -0.248 NA
ATOM     17  C   UNL     1       1.111  -7.223  14.340  1.00  0.00     0.031 C 
ATOM     18  C   UNL     1      -3.207  -8.250  11.981  1.00  0.00     0.029 A 
ATOM     19  N   UNL     1      -3.346  -7.388  14.040  1.00  0.00    -0.354 N 
ATOM     20  C   UNL     1       0.218  -6.516  16.329  1.00  0.00     0.074 A 
ATOM     21  C   UNL     1       1.413  -6.803  15.561  1.00  0.00     0.031 C 
ATOM     22  C   UNL     1      -4.509  -8.118  12.273  1.00  0.00     0.029 A 
ATOM     23  C   UNL     1      -4.640  -7.608  13.635  1.00  0.00     0.049 A 
ATOM     24  H   UNL     1      -3.112  -6.988  14.909  1.00  0.00     0.167 HD
ATOM     25  C   UNL     1       0.215  -6.022  17.591  1.00  0.00     0.037 A 
ATOM     26  C   UNL     1      -5.804  -7.453  14.294  1.00  0.00     0.037 A 
ATOM     27  C   UNL     1      -0.981  -5.734  18.341  1.00  0.00     0.049 A 
ATOM     28  C   UNL     1      -5.786  -6.929  15.700  1.00  0.00     0.074 A 
ATOM     29  C   UNL     1      -1.091  -5.201  19.614  1.00  0.00     0.029 A 
ATOM     30  N   UNL     1      -2.274  -5.963  17.891  1.00  0.00    -0.354 N 
ATOM     31  N   UNL     1      -4.754  -6.601  16.440  1.00  0.00    -0.248 NA
ATOM     32  C   UNL     1      -7.085  -6.753  16.362  1.00  0.00     0.031 C 
ATOM     33  C   UNL     1      -2.449  -5.149  19.950  1.00  0.00     0.029 A 
ATOM     34  C   UNL     1      -3.188  -5.601  18.867  1.00  0.00     0.049 A 
ATOM     35  H   UNL     1      -2.507  -6.328  17.007  1.00  0.00     0.167 HD
ATOM     36  C   UNL     1      -5.279  -6.155  17.647  1.00  0.00     0.074 A 
ATOM     37  C   UNL     1      -6.720  -6.256  17.538  1.00  0.00     0.031 C 
ATOM     38  C   UNL     1      -4.622  -5.697  18.741  1.00  0.00     0.037 A 
BRANCH  25  39
ATOM     39  C   UNL     1       1.549  -5.797  18.251  1.00  0.00     0.058 A 
ATOM     40  C   UNL     1       2.411  -4.764  17.850  1.00  0.00     0.135 A 
ATOM     41  C   UNL     1       1.969  -6.627  19.304  1.00  0.00     0.135 A 
ATOM     42  F   UNL     1       2.066  -3.948  16.841  1.00  0.00    -0.206 F 
ATOM     43  C   UNL     1       3.662  -4.591  18.436  1.00  0.00     0.059 A 
ATOM     44  C   UNL     1       3.204  -6.455  19.923  1.00  0.00     0.059 A 
ATOM     45  F   UNL     1       1.183  -7.626  19.732  1.00  0.00    -0.206 F 
ATOM     46  C   UNL     1       4.054  -5.449  19.465  1.00  0.00     0.060 A 
BRANCH  46  47
ATOM     47  S   UNL     1       5.696  -5.244  20.186  1.00  0.00     0.124 S 
ATOM     48  O   UNL     1       6.543  -5.811  19.140  1.00  0.00    -0.237 OA
ATOM     49  O   UNL     1       5.786  -3.798  20.358  1.00  0.00    -0.237 OA
ATOM     50  O   UNL     1       5.624  -6.016  21.422  1.00  0.00    -0.744 OA
ENDBRANCH  46  47
ENDBRANCH  25  39
BRANCH  26  51
ATOM     51  C   UNL     1      -7.072  -7.812  13.609  1.00  0.00     0.058 A 
ATOM     52  C   UNL     1      -7.942  -6.821  13.137  1.00  0.00     0.135 A 
ATOM     53  C   UNL     1      -7.390  -9.152  13.334  1.00  0.00     0.135 A 
ATOM     54  F   UNL     1      -7.681  -5.527  13.379  1.00  0.00    -0.206 F 
ATOM     55  C   UNL     1      -9.081  -7.143  12.406  1.00  0.00     0.059 A 
ATOM     56  C   UNL     1      -8.510  -9.498  12.586  1.00  0.00     0.059 A 
ATOM     57  F   UNL     1      -6.576 -10.135  13.750  1.00  0.00    -0.206 F 
ATOM     58  C   UNL     1      -9.350  -8.485  12.126  1.00  0.00     0.060 A 
BRANCH  58  59
ATOM     59  S   UNL     1     -10.773  -8.885  11.089  1.00  0.00     0.124 S 
ATOM     60  O   UNL     1     -11.880  -8.656  12.009  1.00  0.00    -0.237 OA
ATOM     61  O   UNL     1     -10.639  -7.923   9.999  1.00  0.00    -0.237 OA
ATOM     62  O   UNL     1     -10.537 -10.277  10.717  1.00  0.00    -0.744 OA
ENDBRANCH  58  59
ENDBRANCH  26  51
BRANCH  38  63
ATOM     63  C   UNL     1      -5.450  -5.224  19.902  1.00  0.00     0.058 A 
ATOM     64  C   UNL     1      -6.080  -6.124  20.775  1.00  0.00     0.135 A 
ATOM     65  C   UNL     1      -5.538  -3.853  20.194  1.00  0.00     0.135 A 
ATOM     66  F   UNL     1      -6.034  -7.444  20.535  1.00  0.00    -0.206 F 
ATOM     67  C   UNL     1      -6.770  -5.680  21.898  1.00  0.00     0.059 A 
ATOM     68  C   UNL     1      -6.204  -3.389  21.323  1.00  0.00     0.059 A 
ATOM     69  F   UNL     1      -4.947  -2.953  19.392  1.00  0.00    -0.206 F 
ATOM     70  C   UNL     1      -6.820  -4.310  22.168  1.00  0.00     0.060 A 
BRANCH  70  71
ATOM     71  S   UNL     1      -7.657  -3.751  23.667  1.00  0.00     0.124 S 
ATOM     72  O   UNL     1      -9.059  -3.912  23.299  1.00  0.00    -0.237 OA
ATOM     73  O   UNL     1      -7.154  -4.682  24.673  1.00  0.00    -0.237 OA
ATOM     74  O   UNL     1      -7.201  -2.372  23.816  1.00  0.00    -0.744 OA
ENDBRANCH  70  71
ENDBRANCH  38  63
ENDBRANCH  12  13
ENDBRANCH   5   7
ENDBRANCH   2   3
ENDBRANCH   1   2
BRANCH   1  75
ATOM     75  C   UNL     1       5.354  -7.491   7.152  1.00  0.00     0.023 C 
BRANCH  75  76
ATOM     76  C   UNL     1       4.835  -6.950   5.823  1.00  0.00     0.116 C 
BRANCH  76  77
ATOM     77  N   UNL     1       4.805  -5.500   5.770  1.00  0.00    -0.354 N 
ATOM     78  C   UNL     1       5.412  -4.635   4.890  1.00  0.00     0.247 C 
ATOM     79  H   UNL     1       4.266  -5.069   6.472  1.00  0.00     0.163 HD
ATOM     80  O   UNL     1       5.316  -3.431   5.135  1.00  0.00    -0.272 OA
BRANCH  78  81
ATOM     81  C   UNL     1       6.252  -5.202   3.721  1.00  0.00     0.211 C 
BRANCH  81  82
ATOM     82  N   UNL     1       5.502  -6.082   2.798  1.00  0.00    -0.276 N 
ATOM     83  C   UNL     1       6.003  -7.357   2.582  1.00  0.00     0.267 C 
ATOM     84  C   UNL     1       4.385  -5.745   2.061  1.00  0.00     0.149 C 
ATOM     85  O   UNL     1       7.052  -7.797   3.028  1.00  0.00    -0.268 OA
ATOM     86  C   UNL     1       5.067  -8.141   1.732  1.00  0.00     0.081 C 
ATOM     87  S   UNL     1       3.967  -7.068   0.968  1.00  0.00    -0.054 SA
ATOM     88  S   UNL     1       3.417  -4.391   2.137  1.00  0.00    -0.052 S 
ATOM     89  C   UNL     1       4.973  -9.474   1.642  1.00  0.00     0.029 C 
BRANCH  89  90
ATOM     90  C   UNL     1       5.740 -10.414   2.462  1.00  0.00    -0.024 A 
ATOM     91  C   UNL     1       6.765 -11.176   1.895  1.00  0.00     0.009 A 
ATOM     92  C   UNL     1       5.438 -10.560   3.824  1.00  0.00     0.009 A 
ATOM     93  C   UNL     1       7.496 -12.064   2.689  1.00  0.00     0.016 A 
ATOM     94  C   UNL     1       6.170 -11.444   4.618  1.00  0.00     0.016 A 
ATOM     95  C   UNL     1       7.198 -12.190   4.046  1.00  0.00     0.018 A 
ATOM     96  Br  UNL     1       8.197 -13.385   5.117  1.00  0.00    -0.051 Br
ENDBRANCH  89  90
ENDBRANCH  81  82
BRANCH  81  97
ATOM     97  C   UNL     1       7.181  -4.237   2.987  1.00  0.00    -0.016 A 
ATOM     98  C   UNL     1       6.749  -3.029   2.426  1.00  0.00     0.006 A 
ATOM     99  C   UNL     1       8.536  -4.591   2.826  1.00  0.00     0.006 A 
ATOM    100  C   UNL     1       7.627  -2.219   1.701  1.00  0.00     0.000 A 
ATOM    101  C   UNL     1       9.419  -3.769   2.124  1.00  0.00     0.000 A 
ATOM    102  C   UNL     1       8.961  -2.588   1.550  1.00  0.00     0.000 A 
ENDBRANCH  81  97
ENDBRANCH  78  81
ENDBRANCH  76  77
ENDBRANCH  75  76
ENDBRANCH   1  75
TORSDOF 17
