REMARK SMILES CCOC(=O)C1=NN(c2ccc(C)cc2Cl)[C@@](C)(C(=O)NCCCCNC(=O)c2ccc(-c3c4nc(c(-c5c(F)cc(S(=O)(=O)[O-])cc5F)c5ccc([nH]5)c(-c5c(F)cc(S(=O)(=O)[O-])cc5F)c5nc(c(-c6c(F)cc(S(=O)(=O)[O-])cc6F)c6ccc3[nH]6)C=C5)C=C4)cc2)C1
REMARK SMILES IDX 23 1 22 2 21 3 19 4 20 5 17 7 6 8 7 9 95 10 8 11 18 12 4 13
REMARK SMILES IDX 5 14 3 15 2 16 1 17 9 18 10 19 15 20 11 21 14 22 16 23 12 24
REMARK SMILES IDX 13 25 24 26 25 27 26 28 27 29 28 31 29 32 30 33 94 34 31 35
REMARK SMILES IDX 93 36 32 37 33 38 34 39 87 40 35 41 92 42 86 43 88 44 36 45
REMARK SMILES IDX 91 46 85 47 84 48 37 50 71 51 50 52 70 53 51 54 54 55 69 56
REMARK SMILES IDX 89 57 52 58 53 59 68 61 90 62 55 63 38 64 39 65 48 66 40 67
REMARK SMILES IDX 41 68 47 69 49 70 42 71 43 72 44 73 45 74 46 75 72 76 73 77
REMARK SMILES IDX 82 78 74 79 75 80 81 81 83 82 76 83 77 84 78 85 79 86 80 87
REMARK SMILES IDX 56 88 57 89 66 90 58 91 59 92 65 93 67 94 60 95 61 96 62 97
REMARK SMILES IDX 63 98 64 99
REMARK H PARENT 21 6 26 30 88 49 54 60
REMARK Flexibility Score: inf
ROOT
ATOM      1  C   UNL     1       4.619  -5.610   8.040  1.00  0.00     0.023 C 
ENDROOT
BRANCH   1   2
ATOM      2  C   UNL     1       5.034  -4.263   7.451  1.00  0.00     0.116 C 
BRANCH   2   3
ATOM      3  N   UNL     1       5.124  -4.299   6.006  1.00  0.00    -0.354 N 
ATOM      4  C   UNL     1       4.730  -3.432   5.033  1.00  0.00     0.248 C 
ATOM      5  O   UNL     1       4.963  -3.815   3.877  1.00  0.00    -0.272 OA
ATOM      6  H   UNL     1       5.557  -5.112   5.658  1.00  0.00     0.163 HD
BRANCH   4   7
ATOM      7  C   UNL     1       4.043  -2.054   5.294  1.00  0.00     0.144 C 
ATOM      8  C   UNL     1       2.683  -1.531   3.482  1.00  0.00     0.149 C 
ATOM      9  N   UNL     1       1.851  -1.979   4.370  1.00  0.00    -0.169 NA
ATOM     10  C   UNL     1       4.069  -1.258   3.960  1.00  0.00     0.106 C 
ATOM     11  N   UNL     1       2.578  -2.176   5.513  1.00  0.00    -0.248 N 
ATOM     12  C   UNL     1       4.742  -1.192   6.347  1.00  0.00     0.048 C 
BRANCH   8  13
ATOM     13  C   UNL     1       2.313  -1.212   2.053  1.00  0.00     0.354 C 
ATOM     14  O   UNL     1       3.133  -0.761   1.271  1.00  0.00    -0.245 OA
BRANCH  13  15
ATOM     15  O   UNL     1       1.013  -1.469   1.819  1.00  0.00    -0.461 OA
BRANCH  15  16
ATOM     16  C   UNL     1       0.570  -1.272   0.471  1.00  0.00     0.230 C 
ATOM     17  C   UNL     1       0.270   0.192   0.207  1.00  0.00     0.049 C 
ENDBRANCH  15  16
ENDBRANCH  13  15
ENDBRANCH   8  13
BRANCH  11  18
ATOM     18  C   UNL     1       1.985  -2.901   6.544  1.00  0.00     0.079 A 
ATOM     19  C   UNL     1       1.868  -2.297   7.809  1.00  0.00     0.030 A 
ATOM     20  C   UNL     1       1.478  -4.207   6.401  1.00  0.00     0.066 A 
ATOM     21  C   UNL     1       1.312  -2.975   8.899  1.00  0.00     0.006 A 
ATOM     22  C   UNL     1       0.916  -4.886   7.493  1.00  0.00     0.026 A 
ATOM     23  Cl  UNL     1       1.585  -5.086   4.912  1.00  0.00    -0.082 Cl
ATOM     24  C   UNL     1       0.829  -4.276   8.749  1.00  0.00    -0.049 A 
ATOM     25  C   UNL     1       0.288  -5.036   9.924  1.00  0.00     0.044 C 
ENDBRANCH  11  18
ENDBRANCH   4   7
ENDBRANCH   2   3
ENDBRANCH   1   2
BRANCH   1  26
ATOM     26  C   UNL     1       5.652  -6.735   7.924  1.00  0.00     0.023 C 
BRANCH  26  27
ATOM     27  C   UNL     1       7.012  -6.460   8.563  1.00  0.00     0.116 C 
BRANCH  27  28
ATOM     28  N   UNL     1       6.910  -6.134   9.976  1.00  0.00    -0.352 N 
ATOM     29  C   UNL     1       7.609  -6.641  11.043  1.00  0.00     0.251 C 
ATOM     30  H   UNL     1       6.239  -5.449  10.201  1.00  0.00     0.163 HD
ATOM     31  O   UNL     1       7.272  -6.341  12.186  1.00  0.00    -0.269 OA
BRANCH  29  32
ATOM     32  C   UNL     1       8.747  -7.559  10.826  1.00  0.00     0.039 A 
ATOM     33  C   UNL     1       8.803  -8.743  11.569  1.00  0.00     0.014 A 
ATOM     34  C   UNL     1       9.771  -7.243   9.927  1.00  0.00     0.014 A 
ATOM     35  C   UNL     1       9.851  -9.643  11.366  1.00  0.00     0.010 A 
ATOM     36  C   UNL     1      10.807  -8.151   9.711  1.00  0.00     0.010 A 
ATOM     37  C   UNL     1      10.848  -9.361  10.421  1.00  0.00    -0.014 A 
BRANCH  37  38
ATOM     38  C   UNL     1      11.934 -10.329  10.145  1.00  0.00     0.031 A 
ATOM     39  C   UNL     1      13.319 -10.082  10.660  1.00  0.00     0.074 A 
ATOM     40  C   UNL     1      11.685 -11.401   9.371  1.00  0.00     0.049 A 
ATOM     41  N   UNL     1      14.426 -10.719  10.380  1.00  0.00    -0.248 NA
ATOM     42  C   UNL     1      13.481  -8.960  11.596  1.00  0.00     0.031 C 
ATOM     43  C   UNL     1      10.387 -11.740   8.787  1.00  0.00     0.029 A 
ATOM     44  N   UNL     1      12.522 -12.393   8.932  1.00  0.00    -0.354 N 
ATOM     45  C   UNL     1      15.430 -10.040  11.054  1.00  0.00     0.074 A 
ATOM     46  C   UNL     1      14.793  -8.969  11.794  1.00  0.00     0.031 C 
ATOM     47  C   UNL     1      10.515 -12.865   8.064  1.00  0.00     0.029 A 
ATOM     48  C   UNL     1      11.904 -13.314   8.123  1.00  0.00     0.049 A 
ATOM     49  H   UNL     1      13.475 -12.441   9.174  1.00  0.00     0.167 HD
ATOM     50  C   UNL     1      16.765 -10.270  11.034  1.00  0.00     0.037 A 
ATOM     51  C   UNL     1      12.402 -14.391   7.491  1.00  0.00     0.037 A 
ATOM     52  C   UNL     1      17.399 -11.355  10.334  1.00  0.00     0.049 A 
ATOM     53  C   UNL     1      13.859 -14.721   7.615  1.00  0.00     0.074 A 
ATOM     54  C   UNL     1      18.747 -11.645  10.220  1.00  0.00     0.029 A 
ATOM     55  N   UNL     1      16.717 -12.349   9.649  1.00  0.00    -0.354 N 
ATOM     56  N   UNL     1      14.805 -14.038   8.213  1.00  0.00    -0.248 NA
ATOM     57  C   UNL     1      14.314 -15.966   6.984  1.00  0.00     0.031 C 
ATOM     58  C   UNL     1      18.879 -12.831   9.481  1.00  0.00     0.029 A 
ATOM     59  C   UNL     1      17.612 -13.273   9.135  1.00  0.00     0.049 A 
ATOM     60  H   UNL     1      15.740 -12.392   9.543  1.00  0.00     0.167 HD
ATOM     61  C   UNL     1      15.974 -14.761   8.015  1.00  0.00     0.074 A 
ATOM     62  C   UNL     1      15.612 -15.946   7.261  1.00  0.00     0.031 C 
ATOM     63  C   UNL     1      17.235 -14.456   8.406  1.00  0.00     0.037 A 
BRANCH  50  64
ATOM     64  C   UNL     1      17.615  -9.285  11.774  1.00  0.00     0.058 A 
ATOM     65  C   UNL     1      17.917  -9.456  13.133  1.00  0.00     0.135 A 
ATOM     66  C   UNL     1      18.076  -8.126  11.132  1.00  0.00     0.135 A 
ATOM     67  F   UNL     1      17.478 -10.540  13.791  1.00  0.00    -0.206 F 
ATOM     68  C   UNL     1      18.627  -8.492  13.842  1.00  0.00     0.059 A 
ATOM     69  C   UNL     1      18.787  -7.151  11.821  1.00  0.00     0.059 A 
ATOM     70  F   UNL     1      17.796  -7.914   9.836  1.00  0.00    -0.206 F 
ATOM     71  C   UNL     1      19.040  -7.333  13.181  1.00  0.00     0.060 A 
BRANCH  71  72
ATOM     72  S   UNL     1      19.897  -6.028  14.087  1.00  0.00     0.124 S 
ATOM     73  O   UNL     1      18.814  -5.076  14.315  1.00  0.00    -0.237 OA
ATOM     74  O   UNL     1      20.391  -6.714  15.277  1.00  0.00    -0.237 OA
ATOM     75  O   UNL     1      20.924  -5.605  13.141  1.00  0.00    -0.744 OA
ENDBRANCH  71  72
ENDBRANCH  50  64
BRANCH  51  76
ATOM     76  C   UNL     1      11.495 -15.230   6.677  1.00  0.00     0.058 A 
ATOM     77  C   UNL     1      10.794 -16.296   7.257  1.00  0.00     0.135 A 
ATOM     78  C   UNL     1      11.255 -14.932   5.330  1.00  0.00     0.135 A 
ATOM     79  F   UNL     1      10.994 -16.609   8.547  1.00  0.00    -0.206 F 
ATOM     80  C   UNL     1       9.868 -17.035   6.530  1.00  0.00     0.059 A 
ATOM     81  C   UNL     1      10.332 -15.654   4.583  1.00  0.00     0.059 A 
ATOM     82  F   UNL     1      11.900 -13.912   4.743  1.00  0.00    -0.206 F 
ATOM     83  C   UNL     1       9.641 -16.703   5.193  1.00  0.00     0.060 A 
BRANCH  83  84
ATOM     84  S   UNL     1       8.367 -17.579   4.259  1.00  0.00     0.124 S 
ATOM     85  O   UNL     1       9.152 -18.604   3.583  1.00  0.00    -0.237 OA
ATOM     86  O   UNL     1       7.466 -18.055   5.305  1.00  0.00    -0.237 OA
ATOM     87  O   UNL     1       7.819 -16.528   3.406  1.00  0.00    -0.744 OA
ENDBRANCH  83  84
ENDBRANCH  51  76
BRANCH  63  88
ATOM     88  C   UNL     1      18.310 -15.426   8.024  1.00  0.00     0.058 A 
ATOM     89  C   UNL     1      19.008 -15.286   6.815  1.00  0.00     0.135 A 
ATOM     90  C   UNL     1      18.649 -16.495   8.866  1.00  0.00     0.135 A 
ATOM     91  F   UNL     1      18.713 -14.279   5.978  1.00  0.00    -0.206 F 
ATOM     92  C   UNL     1      20.005 -16.183   6.446  1.00  0.00     0.059 A 
ATOM     93  C   UNL     1      19.642 -17.405   8.516  1.00  0.00     0.059 A 
ATOM     94  F   UNL     1      18.001 -16.671  10.028  1.00  0.00    -0.206 F 
ATOM     95  C   UNL     1      20.307 -17.246   7.298  1.00  0.00     0.060 A 
BRANCH  95  96
ATOM     96  S   UNL     1      21.604 -18.415   6.838  1.00  0.00     0.124 S 
ATOM     97  O   UNL     1      20.837 -19.441   6.139  1.00  0.00    -0.237 OA
ATOM     98  O   UNL     1      22.491 -17.610   6.003  1.00  0.00    -0.237 OA
ATOM     99  O   UNL     1      22.160 -18.811   8.128  1.00  0.00    -0.744 OA
ENDBRANCH  95  96
ENDBRANCH  63  88
ENDBRANCH  37  38
ENDBRANCH  29  32
ENDBRANCH  27  28
ENDBRANCH  26  27
ENDBRANCH   1  26
TORSDOF 18
