REMARK SMILES Cc1cccc(-c2cc(OCC(=O)NCCCCNC(=O)c3ccc(-c4c5nc(c(-c6c(F)cc(S(=O)(=O)[O-])cc6F)c6ccc([nH]6)c(-c6c(F)cc(S(=O)(=O)[O-])cc6F)c6nc(c(-c7c(F)cc(S(=O)(=O)[O-])cc7F)c7ccc4[nH]7)C=C6)C=C5)cc3)ncn2)c1
REMARK SMILES IDX 16 1 15 2 14 3 12 4 13 5 11 7 10 8 9 9 7 10 8 11 90 12 89 13
REMARK SMILES IDX 88 14 6 15 1 16 2 17 3 18 91 19 4 20 5 21 17 22 18 23 19 24
REMARK SMILES IDX 20 25 21 27 22 28 23 29 87 30 24 31 86 32 25 33 26 34 27 35
REMARK SMILES IDX 80 36 28 37 85 38 79 39 81 40 29 41 84 42 78 43 77 44 30 46
REMARK SMILES IDX 64 47 43 48 63 49 44 50 47 51 62 52 82 53 45 54 46 55 61 57
REMARK SMILES IDX 83 58 48 59 31 60 32 61 41 62 33 63 34 64 40 65 42 66 35 67
REMARK SMILES IDX 36 68 37 69 38 70 39 71 65 72 66 73 75 74 67 75 68 76 74 77
REMARK SMILES IDX 76 78 69 79 70 80 71 81 72 82 73 83 49 84 50 85 59 86 51 87
REMARK SMILES IDX 52 88 58 89 60 90 53 91 54 92 55 93 56 94 57 95
REMARK H PARENT 14 6 19 26 81 45 47 56
REMARK Flexibility Score: inf
ROOT
ATOM      1  C   UNL     1      -0.476   7.565   0.023  1.00  0.00     0.023 C 
ENDROOT
BRANCH   1   2
ATOM      2  C   UNL     1      -0.062   7.573  -1.454  1.00  0.00     0.116 C 
BRANCH   2   3
ATOM      3  N   UNL     1       0.618   6.356  -1.871  1.00  0.00    -0.353 N 
ATOM      4  C   UNL     1       0.128   5.296  -2.572  1.00  0.00     0.258 C 
ATOM      5  O   UNL     1       0.875   4.346  -2.823  1.00  0.00    -0.271 OA
ATOM      6  H   UNL     1       1.564   6.289  -1.610  1.00  0.00     0.163 HD
BRANCH   4   7
ATOM      7  C   UNL     1      -1.329   5.296  -3.048  1.00  0.00     0.331 C 
BRANCH   7   8
ATOM      8  O   UNL     1      -2.337   5.394  -2.059  1.00  0.00    -0.467 OA
BRANCH   8   9
ATOM      9  C   UNL     1      -2.412   4.413  -1.115  1.00  0.00     0.217 A 
ATOM     10  C   UNL     1      -1.897   2.379  -0.060  1.00  0.00     0.077 A 
ATOM     11  C   UNL     1      -1.728   3.221  -1.144  1.00  0.00     0.097 A 
ATOM     12  N   UNL     1      -2.724   2.668   0.963  1.00  0.00    -0.236 NA
ATOM     13  C   UNL     1      -3.347   3.851   0.887  1.00  0.00     0.226 A 
ATOM     14  N   UNL     1      -3.240   4.737  -0.109  1.00  0.00    -0.202 NA
BRANCH  10  15
ATOM     15  C   UNL     1      -1.156   1.116   0.037  1.00  0.00     0.001 A 
ATOM     16  C   UNL     1       2.473  -0.087  -0.008  1.00  0.00     0.044 C 
ATOM     17  C   UNL     1       0.973  -0.094   0.042  1.00  0.00    -0.050 A 
ATOM     18  C   UNL     1       0.276  -1.303   0.121  1.00  0.00     0.003 A 
ATOM     19  C   UNL     1       0.251   1.106  -0.006  1.00  0.00     0.013 A 
ATOM     20  C   UNL     1      -1.118  -1.312   0.176  1.00  0.00     0.001 A 
ATOM     21  C   UNL     1      -1.828  -0.110   0.145  1.00  0.00     0.010 A 
ENDBRANCH  10  15
ENDBRANCH   8   9
ENDBRANCH   7   8
ENDBRANCH   4   7
ENDBRANCH   2   3
ENDBRANCH   1   2
BRANCH   1  22
ATOM     22  C   UNL     1       0.623   7.189   1.020  1.00  0.00     0.023 C 
BRANCH  22  23
ATOM     23  C   UNL     1       1.817   8.132   1.033  1.00  0.00     0.116 C 
BRANCH  23  24
ATOM     24  N   UNL     1       1.748   9.182   2.033  1.00  0.00    -0.352 N 
ATOM     25  C   UNL     1       2.860   9.875   2.507  1.00  0.00     0.251 C 
ATOM     26  H   UNL     1       0.865   9.418   2.397  1.00  0.00     0.163 HD
ATOM     27  O   UNL     1       3.035  10.164   3.671  1.00  0.00    -0.269 OA
BRANCH  25  28
ATOM     28  C   UNL     1       3.783  10.371   1.458  1.00  0.00     0.039 A 
ATOM     29  C   UNL     1       3.764  11.736   1.148  1.00  0.00     0.014 A 
ATOM     30  C   UNL     1       4.463   9.461   0.654  1.00  0.00     0.014 A 
ATOM     31  C   UNL     1       4.296  12.167  -0.066  1.00  0.00     0.010 A 
ATOM     32  C   UNL     1       4.909   9.874  -0.583  1.00  0.00     0.010 A 
ATOM     33  C   UNL     1       4.792  11.218  -0.959  1.00  0.00    -0.014 A 
BRANCH  33  34
ATOM     34  C   UNL     1       5.154  11.505  -2.341  1.00  0.00     0.031 A 
ATOM     35  C   UNL     1       6.577  11.559  -2.743  1.00  0.00     0.074 A 
ATOM     36  C   UNL     1       4.181  11.573  -3.276  1.00  0.00     0.049 A 
ATOM     37  N   UNL     1       7.005  12.114  -3.825  1.00  0.00    -0.248 NA
ATOM     38  C   UNL     1       7.648  11.004  -1.923  1.00  0.00     0.031 C 
ATOM     39  C   UNL     1       4.338  11.491  -4.724  1.00  0.00     0.029 A 
ATOM     40  N   UNL     1       2.844  11.925  -3.092  1.00  0.00    -0.354 N 
ATOM     41  C   UNL     1       8.329  11.765  -3.986  1.00  0.00     0.074 A 
ATOM     42  C   UNL     1       8.694  11.118  -2.748  1.00  0.00     0.031 C 
ATOM     43  C   UNL     1       3.249  12.011  -5.311  1.00  0.00     0.029 A 
ATOM     44  C   UNL     1       2.426  12.587  -4.261  1.00  0.00     0.049 A 
ATOM     45  H   UNL     1       2.295  11.744  -2.294  1.00  0.00     0.167 HD
ATOM     46  C   UNL     1       8.924  11.951  -5.200  1.00  0.00     0.037 A 
ATOM     47  C   UNL     1       2.031  13.894  -4.219  1.00  0.00     0.037 A 
ATOM     48  C   UNL     1       8.002  12.592  -6.138  1.00  0.00     0.049 A 
ATOM     49  C   UNL     1       2.905  14.822  -5.034  1.00  0.00     0.074 A 
ATOM     50  C   UNL     1       7.170  12.084  -7.123  1.00  0.00     0.029 A 
ATOM     51  N   UNL     1       7.603  13.906  -5.924  1.00  0.00    -0.354 N 
ATOM     52  N   UNL     1       4.107  14.522  -5.446  1.00  0.00    -0.248 NA
ATOM     53  C   UNL     1       2.494  16.156  -5.458  1.00  0.00     0.031 C 
ATOM     54  C   UNL     1       6.229  13.085  -7.463  1.00  0.00     0.029 A 
ATOM     55  C   UNL     1       6.501  14.208  -6.701  1.00  0.00     0.049 A 
ATOM     56  H   UNL     1       8.043  14.533  -5.305  1.00  0.00     0.167 HD
ATOM     57  C   UNL     1       4.636  15.576  -6.150  1.00  0.00     0.074 A 
ATOM     58  C   UNL     1       3.573  16.564  -6.150  1.00  0.00     0.031 C 
ATOM     59  C   UNL     1       5.902  15.537  -6.668  1.00  0.00     0.037 A 
BRANCH  46  60
ATOM     60  C   UNL     1      10.226  11.294  -5.621  1.00  0.00     0.058 A 
ATOM     61  C   UNL     1      10.452  10.933  -6.970  1.00  0.00     0.135 A 
ATOM     62  C   UNL     1      11.271  10.947  -4.743  1.00  0.00     0.135 A 
ATOM     63  F   UNL     1       9.600  11.280  -7.943  1.00  0.00    -0.206 F 
ATOM     64  C   UNL     1      11.557  10.187  -7.387  1.00  0.00     0.059 A 
ATOM     65  C   UNL     1      12.361  10.154  -5.124  1.00  0.00     0.059 A 
ATOM     66  F   UNL     1      11.303  11.407  -3.485  1.00  0.00    -0.206 F 
ATOM     67  C   UNL     1      12.489   9.767  -6.450  1.00  0.00     0.060 A 
BRANCH  67  68
ATOM     68  S   UNL     1      13.857   8.726  -6.994  1.00  0.00     0.124 S 
ATOM     69  O   UNL     1      13.163   7.622  -7.651  1.00  0.00    -0.237 OA
ATOM     70  O   UNL     1      14.594   9.626  -7.874  1.00  0.00    -0.237 OA
ATOM     71  O   UNL     1      14.534   8.376  -5.748  1.00  0.00    -0.744 OA
ENDBRANCH  67  68
ENDBRANCH  46  60
BRANCH  47  72
ATOM     72  C   UNL     1       1.311  14.237  -2.960  1.00  0.00     0.058 A 
ATOM     73  C   UNL     1       0.055  13.632  -2.749  1.00  0.00     0.135 A 
ATOM     74  C   UNL     1       1.996  14.709  -1.831  1.00  0.00     0.135 A 
ATOM     75  F   UNL     1      -0.654  13.181  -3.798  1.00  0.00    -0.206 F 
ATOM     76  C   UNL     1      -0.413  13.337  -1.473  1.00  0.00     0.059 A 
ATOM     77  C   UNL     1       1.538  14.433  -0.539  1.00  0.00     0.059 A 
ATOM     78  F   UNL     1       3.192  15.302  -1.966  1.00  0.00    -0.206 F 
ATOM     79  C   UNL     1       0.377  13.674  -0.377  1.00  0.00     0.060 A 
BRANCH  79  80
ATOM     80  S   UNL     1      -0.054  12.959   1.231  1.00  0.00     0.124 S 
ATOM     81  O   UNL     1      -1.428  13.414   1.406  1.00  0.00    -0.237 OA
ATOM     82  O   UNL     1       0.111  11.525   0.983  1.00  0.00    -0.237 OA
ATOM     83  O   UNL     1       0.927  13.550   2.132  1.00  0.00    -0.744 OA
ENDBRANCH  79  80
ENDBRANCH  47  72
BRANCH  59  84
ATOM     84  C   UNL     1       6.680  16.688  -7.281  1.00  0.00     0.058 A 
ATOM     85  C   UNL     1       6.450  18.045  -7.003  1.00  0.00     0.135 A 
ATOM     86  C   UNL     1       7.816  16.428  -8.095  1.00  0.00     0.135 A 
ATOM     87  F   UNL     1       5.486  18.434  -6.158  1.00  0.00    -0.206 F 
ATOM     88  C   UNL     1       7.239  19.068  -7.538  1.00  0.00     0.059 A 
ATOM     89  C   UNL     1       8.651  17.428  -8.588  1.00  0.00     0.059 A 
ATOM     90  F   UNL     1       8.171  15.179  -8.433  1.00  0.00    -0.206 F 
ATOM     91  C   UNL     1       8.341  18.751  -8.327  1.00  0.00     0.060 A 
BRANCH  91  92
ATOM     92  S   UNL     1       9.408  20.061  -8.952  1.00  0.00     0.124 S 
ATOM     93  O   UNL     1       8.769  20.373 -10.227  1.00  0.00    -0.237 OA
ATOM     94  O   UNL     1       9.295  21.090  -7.923  1.00  0.00    -0.237 OA
ATOM     95  O   UNL     1      10.713  19.415  -9.039  1.00  0.00    -0.744 OA
ENDBRANCH  91  92
ENDBRANCH  59  84
ENDBRANCH  33  34
ENDBRANCH  25  28
ENDBRANCH  23  24
ENDBRANCH  22  23
ENDBRANCH   1  22
TORSDOF 17
