REMARK SMILES O=C(/C=C/C(=O)Nc1ccccn1)NCCCCNC(=O)c1ccc(-c2c3nc(c(-c4c(F)cc(S(=O)(=O)[O-])cc4F)c4ccc([nH]4)c(-c4c(F)cc(S(=O)(=O)[O-])cc4F)c4nc(c(-c5c(F)cc(S(=O)(=O)[O-])cc5F)c5ccc2[nH]5)C=C4)C=C3)cc1
REMARK SMILES IDX 17 1 16 2 15 3 14 4 1 5 2 6 3 8 4 9 5 10 6 11 7 12 8 14 9 15
REMARK SMILES IDX 13 16 10 17 12 18 11 19 18 20 19 21 20 22 21 24 22 25 23 26
REMARK SMILES IDX 87 27 24 28 86 29 25 30 26 31 27 32 80 33 28 34 85 35 79 36
REMARK SMILES IDX 81 37 29 38 84 39 78 40 77 41 30 43 64 44 43 45 63 46 44 47
REMARK SMILES IDX 47 48 62 49 82 50 45 51 46 52 61 54 83 55 48 56 31 57 32 58
REMARK SMILES IDX 41 59 33 60 34 61 40 62 42 63 35 64 36 65 37 66 38 67 39 68
REMARK SMILES IDX 65 69 66 70 75 71 67 72 68 73 74 74 76 75 69 76 70 77 71 78
REMARK SMILES IDX 72 79 73 80 49 81 50 82 59 83 51 84 52 85 58 86 60 87 53 88
REMARK SMILES IDX 54 89 55 90 56 91 57 92
REMARK H PARENT 14 7 7 13 19 23 81 42 47 53
REMARK Flexibility Score: inf
ROOT
ATOM      1  C   UNL     1       3.962   0.844   3.991  1.00  0.00     0.023 C 
ENDROOT
BRANCH   1   2
ATOM      2  C   UNL     1       2.488   0.805   3.577  1.00  0.00     0.023 C 
BRANCH   2   3
ATOM      3  C   UNL     1       2.208   1.413   2.203  1.00  0.00     0.116 C 
BRANCH   3   4
ATOM      4  N   UNL     1       2.938   0.714   1.166  1.00  0.00    -0.353 N 
ATOM      5  O   UNL     1       1.152  -0.551   0.474  1.00  0.00    -0.270 OA
ATOM      6  C   UNL     1       2.342  -0.261   0.419  1.00  0.00     0.244 C 
ATOM      7  H   UNL     1       3.880   0.945   0.998  1.00  0.00     0.163 HD
BRANCH   6   8
ATOM      8  C   UNL     1       3.235  -1.032  -0.466  1.00  0.00     0.077 C 
ATOM      9  C   UNL     1       4.273  -0.524  -1.148  1.00  0.00     0.077 C 
BRANCH   9  10
ATOM     10  C   UNL     1       4.980  -1.357  -2.154  1.00  0.00     0.249 C 
ATOM     11  O   UNL     1       6.207  -1.406  -2.122  1.00  0.00    -0.270 OA
ATOM     12  N   UNL     1       4.262  -2.091  -3.055  1.00  0.00    -0.307 N 
ATOM     13  H   UNL     1       4.781  -2.766  -3.551  1.00  0.00     0.171 HD
BRANCH  12  14
ATOM     14  C   UNL     1       2.906  -2.032  -3.378  1.00  0.00     0.132 A 
ATOM     15  C   UNL     1       2.180  -0.846  -3.338  1.00  0.00     0.047 A 
ATOM     16  N   UNL     1       2.338  -3.223  -3.643  1.00  0.00    -0.239 NA
ATOM     17  C   UNL     1       0.793  -0.905  -3.423  1.00  0.00     0.005 A 
ATOM     18  C   UNL     1       0.989  -3.255  -3.711  1.00  0.00     0.113 A 
ATOM     19  C   UNL     1       0.180  -2.138  -3.583  1.00  0.00     0.020 A 
ENDBRANCH  12  14
ENDBRANCH   9  10
ENDBRANCH   6   8
ENDBRANCH   3   4
ENDBRANCH   2   3
ENDBRANCH   1   2
BRANCH   1  20
ATOM     20  C   UNL     1       4.598   2.229   3.979  1.00  0.00     0.116 C 
BRANCH  20  21
ATOM     21  N   UNL     1       3.971   3.139   4.923  1.00  0.00    -0.352 N 
ATOM     22  C   UNL     1       4.561   3.939   5.872  1.00  0.00     0.251 C 
ATOM     23  H   UNL     1       2.989   3.189   4.877  1.00  0.00     0.163 HD
ATOM     24  O   UNL     1       3.864   4.521   6.701  1.00  0.00    -0.269 OA
BRANCH  22  25
ATOM     25  C   UNL     1       6.033   4.074   5.911  1.00  0.00     0.039 A 
ATOM     26  C   UNL     1       6.688   3.974   7.141  1.00  0.00     0.014 A 
ATOM     27  C   UNL     1       6.768   4.284   4.740  1.00  0.00     0.014 A 
ATOM     28  C   UNL     1       8.084   4.021   7.187  1.00  0.00     0.010 A 
ATOM     29  C   UNL     1       8.159   4.252   4.779  1.00  0.00     0.010 A 
ATOM     30  C   UNL     1       8.834   4.121   6.003  1.00  0.00    -0.014 A 
BRANCH  30  31
ATOM     31  C   UNL     1      10.320   4.081   6.026  1.00  0.00     0.031 A 
ATOM     32  C   UNL     1      11.120   5.265   5.552  1.00  0.00     0.074 A 
ATOM     33  C   UNL     1      10.951   2.955   6.418  1.00  0.00     0.049 A 
ATOM     34  N   UNL     1      12.417   5.395   5.442  1.00  0.00    -0.248 NA
ATOM     35  C   UNL     1      10.361   6.450   5.120  1.00  0.00     0.031 C 
ATOM     36  C   UNL     1      10.289   1.724   6.857  1.00  0.00     0.029 A 
ATOM     37  N   UNL     1      12.289   2.657   6.502  1.00  0.00    -0.354 N 
ATOM     38  C   UNL     1      12.630   6.665   4.919  1.00  0.00     0.074 A 
ATOM     39  C   UNL     1      11.326   7.247   4.683  1.00  0.00     0.031 C 
ATOM     40  C   UNL     1      11.221   0.816   7.189  1.00  0.00     0.029 A 
ATOM     41  C   UNL     1      12.545   1.380   6.944  1.00  0.00     0.049 A 
ATOM     42  H   UNL     1      12.998   3.298   6.267  1.00  0.00     0.167 HD
ATOM     43  C   UNL     1      13.803   7.298   4.678  1.00  0.00     0.037 A 
ATOM     44  C   UNL     1      13.713   0.731   7.123  1.00  0.00     0.037 A 
ATOM     45  C   UNL     1      15.098   6.720   4.936  1.00  0.00     0.049 A 
ATOM     46  C   UNL     1      15.003   1.450   6.833  1.00  0.00     0.074 A 
ATOM     47  C   UNL     1      16.344   7.303   4.784  1.00  0.00     0.029 A 
ATOM     48  N   UNL     1      15.316   5.428   5.391  1.00  0.00    -0.354 N 
ATOM     49  N   UNL     1      15.185   2.677   6.405  1.00  0.00    -0.248 NA
ATOM     50  C   UNL     1      16.247   0.700   7.054  1.00  0.00     0.031 C 
ATOM     51  C   UNL     1      17.316   6.346   5.091  1.00  0.00     0.029 A 
ATOM     52  C   UNL     1      16.676   5.186   5.498  1.00  0.00     0.049 A 
ATOM     53  H   UNL     1      14.608   4.779   5.607  1.00  0.00     0.167 HD
ATOM     54  C   UNL     1      16.564   2.856   6.338  1.00  0.00     0.074 A 
ATOM     55  C   UNL     1      17.166   1.615   6.779  1.00  0.00     0.031 C 
ATOM     56  C   UNL     1      17.265   3.949   5.948  1.00  0.00     0.037 A 
BRANCH  43  57
ATOM     57  C   UNL     1      13.747   8.688   4.102  1.00  0.00     0.058 A 
ATOM     58  C   UNL     1      13.280   9.781   4.851  1.00  0.00     0.135 A 
ATOM     59  C   UNL     1      14.209   8.940   2.800  1.00  0.00     0.135 A 
ATOM     60  F   UNL     1      12.813   9.598   6.096  1.00  0.00    -0.206 F 
ATOM     61  C   UNL     1      13.247  11.067   4.320  1.00  0.00     0.059 A 
ATOM     62  C   UNL     1      14.214  10.223   2.260  1.00  0.00     0.059 A 
ATOM     63  F   UNL     1      14.666   7.934   2.038  1.00  0.00    -0.206 F 
ATOM     64  C   UNL     1      13.717  11.278   3.023  1.00  0.00     0.060 A 
BRANCH  64  65
ATOM     65  S   UNL     1      13.674  12.954   2.354  1.00  0.00     0.124 S 
ATOM     66  O   UNL     1      12.242  13.150   2.153  1.00  0.00    -0.237 OA
ATOM     67  O   UNL     1      14.275  13.734   3.431  1.00  0.00    -0.237 OA
ATOM     68  O   UNL     1      14.470  12.855   1.135  1.00  0.00    -0.744 OA
ENDBRANCH  64  65
ENDBRANCH  43  57
BRANCH  44  69
ATOM     69  C   UNL     1      13.719  -0.672   7.620  1.00  0.00     0.058 A 
ATOM     70  C   UNL     1      14.204  -0.983   8.900  1.00  0.00     0.135 A 
ATOM     71  C   UNL     1      13.239  -1.730   6.831  1.00  0.00     0.135 A 
ATOM     72  F   UNL     1      14.680  -0.009   9.691  1.00  0.00    -0.206 F 
ATOM     73  C   UNL     1      14.232  -2.291   9.372  1.00  0.00     0.059 A 
ATOM     74  C   UNL     1      13.230  -3.042   7.292  1.00  0.00     0.059 A 
ATOM     75  F   UNL     1      12.749  -1.486   5.605  1.00  0.00    -0.206 F 
ATOM     76  C   UNL     1      13.740  -3.315   8.561  1.00  0.00     0.060 A 
BRANCH  76  77
ATOM     77  S   UNL     1      13.744  -5.003   9.201  1.00  0.00     0.124 S 
ATOM     78  O   UNL     1      15.166  -5.324   9.174  1.00  0.00    -0.237 OA
ATOM     79  O   UNL     1      13.152  -4.829  10.524  1.00  0.00    -0.237 OA
ATOM     80  O   UNL     1      12.915  -5.728   8.242  1.00  0.00    -0.744 OA
ENDBRANCH  76  77
ENDBRANCH  44  69
BRANCH  56  81
ATOM     81  C   UNL     1      18.767   3.874   6.019  1.00  0.00     0.058 A 
ATOM     82  C   UNL     1      19.515   3.088   5.129  1.00  0.00     0.135 A 
ATOM     83  C   UNL     1      19.470   4.646   6.960  1.00  0.00     0.135 A 
ATOM     84  F   UNL     1      18.894   2.326   4.215  1.00  0.00    -0.206 F 
ATOM     85  C   UNL     1      20.904   3.048   5.185  1.00  0.00     0.059 A 
ATOM     86  C   UNL     1      20.860   4.647   7.013  1.00  0.00     0.059 A 
ATOM     87  F   UNL     1      18.806   5.425   7.828  1.00  0.00    -0.206 F 
ATOM     88  C   UNL     1      21.569   3.835   6.129  1.00  0.00     0.060 A 
BRANCH  88  89
ATOM     89  S   UNL     1      23.373   3.801   6.166  1.00  0.00     0.124 S 
ATOM     90  O   UNL     1      23.632   2.482   6.733  1.00  0.00    -0.237 OA
ATOM     91  O   UNL     1      23.717   3.965   4.757  1.00  0.00    -0.237 OA
ATOM     92  O   UNL     1      23.717   4.931   7.024  1.00  0.00    -0.744 OA
ENDBRANCH  88  89
ENDBRANCH  56  81
ENDBRANCH  30  31
ENDBRANCH  22  25
ENDBRANCH  20  21
ENDBRANCH   1  20
TORSDOF 16
