REMARK SMILES C#CC[N@@H+](CC(=O)NCCCCNC(=O)c1ccc(-c2c3nc(c(-c4c(F)cc(S(=O)(=O)[O-])cc4F)c4ccc([nH]4)c(-c4c(F)cc(S(=O)(=O)[O-])cc4F)c4nc(c(-c5c(F)cc(S(=O)(=O)[O-])cc5F)c5ccc2[nH]5)C=C4)C=C3)cc1)Cc1cn(CC)c2ccccc12
REMARK SMILES IDX 10 1 9 2 8 3 6 4 7 5 5 7 4 8 3 10 2 11 1 12 82 13 83 14
REMARK SMILES IDX 84 15 93 16 85 17 88 18 92 19 89 20 91 21 90 22 86 23 87 24
REMARK SMILES IDX 11 25 12 26 13 27 14 28 15 30 16 31 17 32 81 33 18 34 80 35
REMARK SMILES IDX 19 36 20 37 21 38 74 39 22 40 79 41 73 42 75 43 23 44 78 45
REMARK SMILES IDX 72 46 71 47 24 49 58 50 37 51 57 52 38 53 41 54 56 55 76 56
REMARK SMILES IDX 39 57 40 58 55 60 77 61 42 62 25 63 26 64 35 65 27 66 28 67
REMARK SMILES IDX 34 68 36 69 29 70 30 71 31 72 32 73 33 74 59 75 60 76 69 77
REMARK SMILES IDX 61 78 62 79 68 80 70 81 63 82 64 83 65 84 66 85 67 86 43 87
REMARK SMILES IDX 44 88 53 89 45 90 46 91 52 92 54 93 47 94 48 95 49 96 50 97
REMARK SMILES IDX 51 98
REMARK H PARENT 8 6 4 9 13 29 75 48 41 59
REMARK Flexibility Score: inf
ROOT
ATOM      1  C   UNL     1      -2.098   2.425  -1.801  1.00  0.00     0.023 C 
ENDROOT
BRANCH   1   2
ATOM      2  C   UNL     1      -3.484   2.228  -1.148  1.00  0.00     0.116 C 
BRANCH   2   3
ATOM      3  N   UNL     1      -4.202   1.067  -1.651  1.00  0.00    -0.351 N 
ATOM      4  C   UNL     1      -4.527  -0.141  -1.092  1.00  0.00     0.275 C 
ATOM      5  O   UNL     1      -5.254  -0.864  -1.781  1.00  0.00    -0.269 OA
ATOM      6  H   UNL     1      -4.518   1.170  -2.578  1.00  0.00     0.163 HD
BRANCH   4   7
ATOM      7  C   UNL     1      -4.068  -0.573   0.328  1.00  0.00     0.364 C 
BRANCH   7   8
ATOM      8  N   UNL     1      -2.654  -1.107   0.460  1.00  0.00    -0.313 N 
ATOM      9  H   UNL     1      -2.502  -1.462   1.404  1.00  0.00     0.349 HD
BRANCH   8  10
ATOM     10  C   UNL     1      -1.830   0.015   0.099  1.00  0.00     0.354 C 
BRANCH  10  11
ATOM     11  C   UNL     1      -0.310   0.015   0.099  1.00  0.00    -0.047 C 
ATOM     12  C   UNL     1       0.994   0.015   0.099  1.00  0.00     0.010 C 
ENDBRANCH  10  11
ENDBRANCH   8  10
BRANCH   8  13
ATOM     13  C   UNL     1      -2.339  -2.272  -0.407  1.00  0.00     0.302 C 
BRANCH  13  14
ATOM     14  C   UNL     1      -3.410  -3.297  -0.268  1.00  0.00     0.032 A 
ATOM     15  C   UNL     1      -4.303  -3.656  -1.258  1.00  0.00     0.096 A 
ATOM     16  C   UNL     1      -3.867  -3.892   0.942  1.00  0.00     0.008 A 
ATOM     17  N   UNL     1      -5.469  -3.998  -0.610  1.00  0.00    -0.347 N 
ATOM     18  C   UNL     1      -5.196  -4.273   0.720  1.00  0.00     0.048 A 
ATOM     19  C   UNL     1      -3.334  -3.949   2.245  1.00  0.00     0.011 A 
ATOM     20  C   UNL     1      -6.012  -4.699   1.778  1.00  0.00     0.027 A 
ATOM     21  C   UNL     1      -4.134  -4.395   3.296  1.00  0.00     0.001 A 
ATOM     22  C   UNL     1      -5.456  -4.758   3.063  1.00  0.00     0.002 A 
BRANCH  17  23
ATOM     23  C   UNL     1      -6.766  -3.634  -1.163  1.00  0.00     0.119 C 
ATOM     24  C   UNL     1      -7.754  -4.768  -1.318  1.00  0.00     0.027 C 
ENDBRANCH  17  23
ENDBRANCH  13  14
ENDBRANCH   8  13
ENDBRANCH   7   8
ENDBRANCH   4   7
ENDBRANCH   2   3
ENDBRANCH   1   2
BRANCH   1  25
ATOM     25  C   UNL     1      -2.128   2.847  -3.253  1.00  0.00     0.023 C 
BRANCH  25  26
ATOM     26  C   UNL     1      -2.791   4.183  -3.445  1.00  0.00     0.116 C 
BRANCH  26  27
ATOM     27  N   UNL     1      -2.257   5.208  -2.549  1.00  0.00    -0.352 N 
ATOM     28  C   UNL     1      -2.022   6.527  -2.852  1.00  0.00     0.251 C 
ATOM     29  H   UNL     1      -2.043   4.923  -1.632  1.00  0.00     0.163 HD
ATOM     30  O   UNL     1      -1.461   7.281  -2.076  1.00  0.00    -0.269 OA
BRANCH  28  31
ATOM     31  C   UNL     1      -2.466   6.957  -4.184  1.00  0.00     0.039 A 
ATOM     32  C   UNL     1      -1.511   7.359  -5.115  1.00  0.00     0.014 A 
ATOM     33  C   UNL     1      -3.788   6.684  -4.545  1.00  0.00     0.014 A 
ATOM     34  C   UNL     1      -1.883   7.445  -6.452  1.00  0.00     0.010 A 
ATOM     35  C   UNL     1      -4.113   6.642  -5.886  1.00  0.00     0.010 A 
ATOM     36  C   UNL     1      -3.174   7.053  -6.845  1.00  0.00    -0.014 A 
BRANCH  36  37
ATOM     37  C   UNL     1      -3.616   7.145  -8.251  1.00  0.00     0.031 A 
ATOM     38  C   UNL     1      -4.760   8.065  -8.573  1.00  0.00     0.074 A 
ATOM     39  C   UNL     1      -3.054   6.366  -9.193  1.00  0.00     0.049 A 
ATOM     40  N   UNL     1      -5.402   8.223  -9.698  1.00  0.00    -0.248 NA
ATOM     41  C   UNL     1      -5.291   8.875  -7.461  1.00  0.00     0.031 C 
ATOM     42  C   UNL     1      -1.980   5.394  -8.968  1.00  0.00     0.029 A 
ATOM     43  N   UNL     1      -3.314   6.268 -10.534  1.00  0.00    -0.354 N 
ATOM     44  C   UNL     1      -6.426   9.118  -9.417  1.00  0.00     0.074 A 
ATOM     45  C   UNL     1      -6.375   9.404  -8.003  1.00  0.00     0.031 C 
ATOM     46  C   UNL     1      -1.648   4.827 -10.141  1.00  0.00     0.029 A 
ATOM     47  C   UNL     1      -2.504   5.371 -11.189  1.00  0.00     0.049 A 
ATOM     48  H   UNL     1      -4.015   6.790 -10.986  1.00  0.00     0.167 HD
ATOM     49  C   UNL     1      -7.304   9.688 -10.272  1.00  0.00     0.037 A 
ATOM     50  C   UNL     1      -2.462   5.041 -12.494  1.00  0.00     0.037 A 
ATOM     51  C   UNL     1      -7.293   9.445 -11.686  1.00  0.00     0.049 A 
ATOM     52  C   UNL     1      -3.417   5.722 -13.437  1.00  0.00     0.074 A 
ATOM     53  C   UNL     1      -8.084  10.013 -12.666  1.00  0.00     0.029 A 
ATOM     54  N   UNL     1      -6.425   8.568 -12.322  1.00  0.00    -0.354 N 
ATOM     55  N   UNL     1      -4.348   6.608 -13.168  1.00  0.00    -0.248 NA
ATOM     56  C   UNL     1      -3.313   5.368 -14.858  1.00  0.00     0.031 C 
ATOM     57  C   UNL     1      -7.708   9.462 -13.896  1.00  0.00     0.029 A 
ATOM     58  C   UNL     1      -6.662   8.575 -13.684  1.00  0.00     0.049 A 
ATOM     59  H   UNL     1      -5.742   8.021 -11.871  1.00  0.00     0.167 HD
ATOM     60  C   UNL     1      -4.926   6.935 -14.389  1.00  0.00     0.074 A 
ATOM     61  C   UNL     1      -4.231   6.159 -15.398  1.00  0.00     0.031 C 
ATOM     62  C   UNL     1      -5.938   7.797 -14.657  1.00  0.00     0.037 A 
BRANCH  49  63
ATOM     63  C   UNL     1      -8.311  10.637  -9.690  1.00  0.00     0.058 A 
ATOM     64  C   UNL     1      -7.930  11.886  -9.170  1.00  0.00     0.135 A 
ATOM     65  C   UNL     1      -9.668  10.287  -9.621  1.00  0.00     0.135 A 
ATOM     66  F   UNL     1      -6.640  12.259  -9.185  1.00  0.00    -0.206 F 
ATOM     67  C   UNL     1      -8.849  12.734  -8.564  1.00  0.00     0.059 A 
ATOM     68  C   UNL     1     -10.611  11.134  -9.047  1.00  0.00     0.059 A 
ATOM     69  F   UNL     1     -10.086   9.102 -10.095  1.00  0.00    -0.206 F 
ATOM     70  C   UNL     1     -10.188  12.346  -8.502  1.00  0.00     0.060 A 
BRANCH  70  71
ATOM     71  S   UNL     1     -11.369  13.449  -7.699  1.00  0.00     0.124 S 
ATOM     72  O   UNL     1     -11.072  13.215  -6.290  1.00  0.00    -0.237 OA
ATOM     73  O   UNL     1     -10.982  14.757  -8.219  1.00  0.00    -0.237 OA
ATOM     74  O   UNL     1     -12.662  12.953  -8.160  1.00  0.00    -0.744 OA
ENDBRANCH  70  71
ENDBRANCH  49  63
BRANCH  50  75
ATOM     75  C   UNL     1      -1.453   4.067 -12.986  1.00  0.00     0.058 A 
ATOM     76  C   UNL     1      -0.352   4.498 -13.741  1.00  0.00     0.135 A 
ATOM     77  C   UNL     1      -1.551   2.697 -12.697  1.00  0.00     0.135 A 
ATOM     78  F   UNL     1      -0.215   5.798 -14.043  1.00  0.00    -0.206 F 
ATOM     79  C   UNL     1       0.610   3.606 -14.204  1.00  0.00     0.059 A 
ATOM     80  C   UNL     1      -0.591   1.788 -13.133  1.00  0.00     0.059 A 
ATOM     81  F   UNL     1      -2.575   2.237 -11.961  1.00  0.00    -0.206 F 
ATOM     82  C   UNL     1       0.481   2.251 -13.895  1.00  0.00     0.060 A 
BRANCH  82  83
ATOM     83  S   UNL     1       1.762   1.109 -14.459  1.00  0.00     0.124 S 
ATOM     84  O   UNL     1       1.453   1.000 -15.879  1.00  0.00    -0.237 OA
ATOM     85  O   UNL     1       2.986   1.830 -14.124  1.00  0.00    -0.237 OA
ATOM     86  O   UNL     1       1.514  -0.090 -13.663  1.00  0.00    -0.744 OA
ENDBRANCH  82  83
ENDBRANCH  50  75
BRANCH  62  87
ATOM     87  C   UNL     1      -6.333   7.965 -16.093  1.00  0.00     0.058 A 
ATOM     88  C   UNL     1      -7.093   6.994 -16.760  1.00  0.00     0.135 A 
ATOM     89  C   UNL     1      -6.011   9.145 -16.783  1.00  0.00     0.135 A 
ATOM     90  F   UNL     1      -7.420   5.848 -16.142  1.00  0.00    -0.206 F 
ATOM     91  C   UNL     1      -7.512   7.181 -18.072  1.00  0.00     0.059 A 
ATOM     92  C   UNL     1      -6.438   9.362 -18.087  1.00  0.00     0.059 A 
ATOM     93  F   UNL     1      -5.295  10.107 -16.179  1.00  0.00    -0.206 F 
ATOM     94  C   UNL     1      -7.182   8.370 -18.726  1.00  0.00     0.060 A 
BRANCH  94  95
ATOM     95  S   UNL     1      -7.774   8.624 -20.411  1.00  0.00     0.124 S 
ATOM     96  O   UNL     1      -6.863   7.776 -21.172  1.00  0.00    -0.237 OA
ATOM     97  O   UNL     1      -9.156   8.160 -20.331  1.00  0.00    -0.237 OA
ATOM     98  O   UNL     1      -7.614  10.061 -20.613  1.00  0.00    -0.744 OA
ENDBRANCH  94  95
ENDBRANCH  62  87
ENDBRANCH  36  37
ENDBRANCH  28  31
ENDBRANCH  26  27
ENDBRANCH  25  26
ENDBRANCH   1  25
TORSDOF 20
