REMARK SMILES Cc1cc(C(=O)NCCCCNC(=O)c2ccc(-c3c4nc(c(-c5c(F)cc(S(=O)(=O)[O-])cc5F)c5ccc([nH]5)c(-c5c(F)cc(S(=O)(=O)[O-])cc5F)c5nc(c(-c6c(F)cc(S(=O)(=O)[O-])cc6F)c6ccc3[nH]6)C=C5)C=C4)cc2)ccc1NC(=O)c1ccc(=O)n(CCOc2ccccc2)n1
REMARK SMILES IDX 8 1 7 2 5 3 6 4 4 6 1 7 2 8 3 9 83 10 82 11 81 12 84 13
REMARK SMILES IDX 85 14 86 16 87 17 88 18 102 19 89 20 92 21 90 22 91 23 93 24
REMARK SMILES IDX 94 25 95 26 96 27 97 28 101 29 98 30 100 31 99 32 9 33 10 34
REMARK SMILES IDX 11 35 12 36 13 37 14 39 15 40 16 41 80 42 17 43 79 44 18 45
REMARK SMILES IDX 19 46 20 47 73 48 21 49 78 50 72 51 74 52 22 53 77 54 71 55
REMARK SMILES IDX 70 56 23 58 57 59 36 60 56 61 37 62 40 63 55 64 75 65 38 66
REMARK SMILES IDX 39 67 54 69 76 70 41 71 24 72 25 73 34 74 26 75 27 76 33 77
REMARK SMILES IDX 35 78 28 79 29 80 30 81 31 82 32 83 58 84 59 85 68 86 60 87
REMARK SMILES IDX 61 88 67 89 69 90 62 91 63 92 64 93 65 94 66 95 42 96 43 97
REMARK SMILES IDX 52 98 44 99 45 100 51 101 53 102 46 103 47 104 48 105 49 106
REMARK SMILES IDX 50 107
REMARK H PARENT 7 5 84 15 12 38 74 57 40 68
REMARK Flexibility Score: inf
ROOT
ATOM      1  C   UNL     1      -3.920  -1.516  -0.018  1.00  0.00     0.116 C 
ENDROOT
BRANCH   1   2
ATOM      2  N   UNL     1      -2.969  -2.609  -0.230  1.00  0.00    -0.352 N 
ATOM      3  C   UNL     1      -1.591  -2.645  -0.239  1.00  0.00     0.251 C 
ATOM      4  O   UNL     1      -1.019  -3.735  -0.204  1.00  0.00    -0.269 OA
ATOM      5  H   UNL     1      -3.393  -3.482  -0.397  1.00  0.00     0.163 HD
BRANCH   3   6
ATOM      6  C   UNL     1      -0.763  -1.413  -0.287  1.00  0.00     0.040 A 
ATOM      7  C   UNL     1       2.732  -0.330   0.759  1.00  0.00     0.046 C 
ATOM      8  C   UNL     1       1.305  -0.209   0.298  1.00  0.00    -0.027 A 
ATOM      9  C   UNL     1       0.518  -1.390   0.287  1.00  0.00     0.019 A 
ATOM     10  C   UNL     1       0.749   0.975  -0.207  1.00  0.00     0.044 A 
ATOM     11  C   UNL     1      -0.396   0.854  -0.988  1.00  0.00     0.027 A 
ATOM     12  C   UNL     1      -1.154  -0.312  -1.021  1.00  0.00     0.016 A 
BRANCH  10  13
ATOM     13  N   UNL     1       1.325   2.238   0.065  1.00  0.00    -0.320 N 
ATOM     14  C   UNL     1       0.713   3.483   0.161  1.00  0.00     0.276 C 
ATOM     15  H   UNL     1       2.299   2.236   0.207  1.00  0.00     0.170 HD
ATOM     16  O   UNL     1       1.352   4.509   0.369  1.00  0.00    -0.267 OA
BRANCH  14  17
ATOM     17  C   UNL     1      -0.794   3.584   0.012  1.00  0.00     0.149 A 
ATOM     18  C   UNL     1      -1.264   4.034  -1.315  1.00  0.00     0.042 A 
ATOM     19  N   UNL     1      -1.570   3.224   0.992  1.00  0.00    -0.164 NA
ATOM     20  C   UNL     1      -2.474   3.590  -1.657  1.00  0.00     0.076 A 
ATOM     21  N   UNL     1      -2.903   3.013   0.644  1.00  0.00    -0.226 N 
ATOM     22  C   UNL     1      -3.268   2.808  -0.680  1.00  0.00     0.266 A 
ATOM     23  O   UNL     1      -4.181   2.099  -1.084  1.00  0.00    -0.268 OA
BRANCH  21  24
ATOM     24  C   UNL     1      -3.865   2.777   1.724  1.00  0.00     0.190 C 
BRANCH  24  25
ATOM     25  C   UNL     1      -4.518   4.090   2.196  1.00  0.00     0.253 C 
BRANCH  25  26
ATOM     26  O   UNL     1      -5.755   4.345   1.506  1.00  0.00    -0.492 OA
BRANCH  26  27
ATOM     27  C   UNL     1      -5.661   5.335   0.574  1.00  0.00     0.119 A 
ATOM     28  C   UNL     1      -5.790   6.674   0.923  1.00  0.00     0.046 A 
ATOM     29  C   UNL     1      -5.560   4.975  -0.763  1.00  0.00     0.046 A 
ATOM     30  C   UNL     1      -5.701   7.655  -0.070  1.00  0.00     0.004 A 
ATOM     31  C   UNL     1      -5.405   5.946  -1.748  1.00  0.00     0.004 A 
ATOM     32  C   UNL     1      -5.468   7.292  -1.399  1.00  0.00     0.000 A 
ENDBRANCH  26  27
ENDBRANCH  25  26
ENDBRANCH  24  25
ENDBRANCH  21  24
ENDBRANCH  14  17
ENDBRANCH  10  13
ENDBRANCH   3   6
ENDBRANCH   1   2
BRANCH   1  33
ATOM     33  C   UNL     1      -4.676  -1.086  -1.287  1.00  0.00     0.023 C 
BRANCH  33  34
ATOM     34  C   UNL     1      -5.529  -2.164  -1.954  1.00  0.00     0.023 C 
BRANCH  34  35
ATOM     35  C   UNL     1      -6.810  -2.476  -1.189  1.00  0.00     0.116 C 
BRANCH  35  36
ATOM     36  N   UNL     1      -8.028  -2.107  -1.899  1.00  0.00    -0.352 N 
ATOM     37  C   UNL     1      -9.346  -2.397  -1.565  1.00  0.00     0.251 C 
ATOM     38  H   UNL     1      -7.902  -1.585  -2.724  1.00  0.00     0.163 HD
ATOM     39  O   UNL     1     -10.258  -2.240  -2.350  1.00  0.00    -0.269 OA
BRANCH  37  40
ATOM     40  C   UNL     1      -9.613  -2.802  -0.164  1.00  0.00     0.039 A 
ATOM     41  C   UNL     1     -10.380  -1.934   0.622  1.00  0.00     0.014 A 
ATOM     42  C   UNL     1      -8.880  -3.831   0.413  1.00  0.00     0.014 A 
ATOM     43  C   UNL     1     -10.234  -1.957   2.006  1.00  0.00     0.010 A 
ATOM     44  C   UNL     1      -8.648  -3.779   1.771  1.00  0.00     0.010 A 
ATOM     45  C   UNL     1      -9.281  -2.806   2.560  1.00  0.00    -0.014 A 
BRANCH  45  46
ATOM     46  C   UNL     1      -8.784  -2.706   3.928  1.00  0.00     0.031 A 
ATOM     47  C   UNL     1      -9.051  -3.797   4.891  1.00  0.00     0.074 A 
ATOM     48  C   UNL     1      -7.919  -1.717   4.239  1.00  0.00     0.049 A 
ATOM     49  N   UNL     1      -8.798  -3.753   6.155  1.00  0.00    -0.248 NA
ATOM     50  C   UNL     1      -9.699  -5.039   4.487  1.00  0.00     0.031 C 
ATOM     51  C   UNL     1      -6.964  -1.694   5.342  1.00  0.00     0.029 A 
ATOM     52  N   UNL     1      -7.860  -0.430   3.715  1.00  0.00    -0.354 N 
ATOM     53  C   UNL     1      -8.960  -5.025   6.667  1.00  0.00     0.074 A 
ATOM     54  C   UNL     1      -9.608  -5.757   5.608  1.00  0.00     0.031 C 
ATOM     55  C   UNL     1      -6.573  -0.429   5.558  1.00  0.00     0.029 A 
ATOM     56  C   UNL     1      -7.404   0.427   4.728  1.00  0.00     0.049 A 
ATOM     57  H   UNL     1      -8.097  -0.167   2.796  1.00  0.00     0.167 HD
ATOM     58  C   UNL     1      -8.393  -5.326   7.874  1.00  0.00     0.037 A 
ATOM     59  C   UNL     1      -8.214   1.409   5.229  1.00  0.00     0.037 A 
ATOM     60  C   UNL     1      -7.900  -4.106   8.524  1.00  0.00     0.049 A 
ATOM     61  C   UNL     1      -8.563   1.245   6.689  1.00  0.00     0.074 A 
ATOM     62  C   UNL     1      -6.641  -3.537   8.632  1.00  0.00     0.029 A 
ATOM     63  N   UNL     1      -8.807  -3.124   8.917  1.00  0.00    -0.354 N 
ATOM     64  N   UNL     1      -8.434   0.126   7.348  1.00  0.00    -0.248 NA
ATOM     65  C   UNL     1      -9.085   2.324   7.522  1.00  0.00     0.031 C 
ATOM     66  C   UNL     1      -6.803  -2.177   9.003  1.00  0.00     0.029 A 
ATOM     67  C   UNL     1      -8.157  -1.926   9.152  1.00  0.00     0.049 A 
ATOM     68  H   UNL     1      -9.776  -3.263   9.015  1.00  0.00     0.167 HD
ATOM     69  C   UNL     1      -8.869   0.296   8.634  1.00  0.00     0.074 A 
ATOM     70  C   UNL     1      -9.239   1.698   8.703  1.00  0.00     0.031 C 
ATOM     71  C   UNL     1      -8.901  -0.732   9.533  1.00  0.00     0.037 A 
BRANCH  58  72
ATOM     72  C   UNL     1      -8.008  -6.734   8.329  1.00  0.00     0.058 A 
ATOM     73  C   UNL     1      -6.994  -6.922   9.299  1.00  0.00     0.135 A 
ATOM     74  C   UNL     1      -8.509  -7.939   7.795  1.00  0.00     0.135 A 
ATOM     75  F   UNL     1      -6.480  -5.891   9.984  1.00  0.00    -0.206 F 
ATOM     76  C   UNL     1      -6.449  -8.174   9.613  1.00  0.00     0.059 A 
ATOM     77  C   UNL     1      -7.957  -9.197   8.061  1.00  0.00     0.059 A 
ATOM     78  F   UNL     1      -9.602  -7.978   7.031  1.00  0.00    -0.206 F 
ATOM     79  C   UNL     1      -6.912  -9.306   8.960  1.00  0.00     0.060 A 
BRANCH  79  80
ATOM     80  S   UNL     1      -6.160 -10.905   9.311  1.00  0.00     0.124 S 
ATOM     81  O   UNL     1      -4.765 -10.673   8.954  1.00  0.00    -0.237 OA
ATOM     82  O   UNL     1      -6.436 -11.067  10.734  1.00  0.00    -0.237 OA
ATOM     83  O   UNL     1      -6.880 -11.822   8.430  1.00  0.00    -0.744 OA
ENDBRANCH  79  80
ENDBRANCH  58  72
BRANCH  59  84
ATOM     84  C   UNL     1      -9.074   2.048   4.196  1.00  0.00     0.058 A 
ATOM     85  C   UNL     1      -8.425   2.873   3.263  1.00  0.00     0.135 A 
ATOM     86  C   UNL     1     -10.308   1.494   3.828  1.00  0.00     0.135 A 
ATOM     87  F   UNL     1      -7.267   3.459   3.603  1.00  0.00    -0.206 F 
ATOM     88  C   UNL     1      -8.864   2.973   1.947  1.00  0.00     0.059 A 
ATOM     89  C   UNL     1     -10.779   1.597   2.518  1.00  0.00     0.059 A 
ATOM     90  F   UNL     1     -10.980   0.710   4.683  1.00  0.00    -0.206 F 
ATOM     91  C   UNL     1     -10.000   2.262   1.569  1.00  0.00     0.060 A 
BRANCH  91  92
ATOM     92  S   UNL     1     -10.313   2.039  -0.200  1.00  0.00     0.124 S 
ATOM     93  O   UNL     1     -10.344   3.413  -0.688  1.00  0.00    -0.237 OA
ATOM     94  O   UNL     1      -9.153   1.245  -0.599  1.00  0.00    -0.237 OA
ATOM     95  O   UNL     1     -11.592   1.337  -0.225  1.00  0.00    -0.744 OA
ENDBRANCH  91  92
ENDBRANCH  59  84
BRANCH  71  96
ATOM     96  C   UNL     1      -9.566  -0.682  10.886  1.00  0.00     0.058 A 
ATOM     97  C   UNL     1     -10.713   0.081  11.166  1.00  0.00     0.135 A 
ATOM     98  C   UNL     1      -9.133  -1.539  11.926  1.00  0.00     0.135 A 
ATOM     99  F   UNL     1     -11.287   0.847  10.227  1.00  0.00    -0.206 F 
ATOM    100  C   UNL     1     -11.346   0.051  12.410  1.00  0.00     0.059 A 
ATOM    101  C   UNL     1      -9.782  -1.626  13.155  1.00  0.00     0.059 A 
ATOM    102  F   UNL     1      -8.063  -2.335  11.774  1.00  0.00    -0.206 F 
ATOM    103  C   UNL     1     -10.874  -0.805  13.399  1.00  0.00     0.060 A 
BRANCH 103 104
ATOM    104  S   UNL     1     -11.723  -0.899  14.986  1.00  0.00     0.124 S 
ATOM    105  O   UNL     1     -10.988   0.090  15.767  1.00  0.00    -0.237 OA
ATOM    106  O   UNL     1     -13.096  -0.537  14.643  1.00  0.00    -0.237 OA
ATOM    107  O   UNL     1     -11.531  -2.290  15.382  1.00  0.00    -0.744 OA
ENDBRANCH 103 104
ENDBRANCH  71  96
ENDBRANCH  45  46
ENDBRANCH  37  40
ENDBRANCH  35  36
ENDBRANCH  34  35
ENDBRANCH  33  34
ENDBRANCH   1  33
TORSDOF 20
