REMARK SMILES CN(C)C(=O)C[NH+]1CC[NH+]([C@@H](C(=O)NCCCCNC(=O)c2ccc(-c3c4nc(c(-c5c(F)cc(S(=O)(=O)[O-])cc5F)c5ccc([nH]5)c(-c5c(F)cc(S(=O)(=O)[O-])cc5F)c5nc(c(-c6c(F)cc(S(=O)(=O)[O-])cc6F)c6ccc3[nH]6)C=C5)C=C4)cc2)c2c[nH]c3ccc(Cl)cc23)CC1
REMARK SMILES IDX 16 1 15 2 14 3 12 4 13 5 11 7 10 8 7 9 8 10 99 11 9 13 98 14
REMARK SMILES IDX 6 16 4 17 1 18 2 19 3 20 5 21 88 22 89 23 97 24 90 25 91 26
REMARK SMILES IDX 96 27 92 29 94 30 93 31 95 32 17 33 18 34 19 35 20 36 21 38
REMARK SMILES IDX 22 39 23 40 87 41 24 42 86 43 25 44 26 45 27 46 80 47 28 48
REMARK SMILES IDX 85 49 79 50 81 51 29 52 84 53 78 54 77 55 30 57 64 58 43 59
REMARK SMILES IDX 63 60 44 61 47 62 62 63 82 64 45 65 46 66 61 68 83 69 48 70
REMARK SMILES IDX 31 71 32 72 41 73 33 74 34 75 40 76 42 77 35 78 36 79 37 80
REMARK SMILES IDX 38 81 39 82 65 83 66 84 75 85 67 86 68 87 74 88 76 89 69 90
REMARK SMILES IDX 70 91 71 92 72 93 73 94 49 95 50 96 59 97 51 98 52 99 58 100
REMARK SMILES IDX 60 101 53 102 54 103 55 104 56 105 57 106
REMARK H PARENT 14 6 7 12 10 15 90 28 19 37 81 56 47 67
REMARK Flexibility Score: inf
ROOT
ATOM      1  C   UNL     1      -0.521  -2.475  -4.522  1.00  0.00     0.023 C 
ENDROOT
BRANCH   1   2
ATOM      2  C   UNL     1       0.943  -2.873  -4.899  1.00  0.00     0.116 C 
BRANCH   2   3
ATOM      3  N   UNL     1       1.785  -1.866  -5.583  1.00  0.00    -0.351 N 
ATOM      4  C   UNL     1       2.891  -1.067  -5.326  1.00  0.00     0.283 C 
ATOM      5  O   UNL     1       3.357  -0.530  -6.342  1.00  0.00    -0.268 OA
ATOM      6  H   UNL     1       1.462  -1.717  -6.501  1.00  0.00     0.163 HD
BRANCH   4   7
ATOM      7  C   UNL     1       3.581  -0.886  -3.929  1.00  0.00     0.308 C 
BRANCH   7   8
ATOM      8  N   UNL     1       2.811  -0.207  -2.826  1.00  0.00    -0.312 N 
ATOM      9  N   UNL     1       0.771   1.920  -3.566  1.00  0.00    -0.318 N 
ATOM     10  C   UNL     1       2.198   2.223  -3.393  1.00  0.00     0.325 C 
ATOM     11  C   UNL     1       0.573   0.487  -3.757  1.00  0.00     0.325 C 
ATOM     12  H   UNL     1       0.493   2.400  -4.422  1.00  0.00     0.348 HD
ATOM     13  C   UNL     1       2.934   1.218  -2.488  1.00  0.00     0.325 C 
ATOM     14  C   UNL     1       1.389  -0.461  -2.836  1.00  0.00     0.325 C 
ATOM     15  H   UNL     1       3.358  -0.689  -2.113  1.00  0.00     0.349 HD
BRANCH   9  16
ATOM     16  C   UNL     1      -0.155   2.531  -2.591  1.00  0.00     0.364 C 
BRANCH  16  17
ATOM     17  C   UNL     1       0.174   2.237  -1.122  1.00  0.00     0.277 C 
ATOM     18  C   UNL     1       0.322   0.635   0.695  1.00  0.00     0.146 C 
ATOM     19  N   UNL     1      -0.345   1.099  -0.511  1.00  0.00    -0.344 N 
ATOM     20  C   UNL     1      -1.494   0.324  -0.958  1.00  0.00     0.146 C 
ATOM     21  O   UNL     1       0.967   2.970  -0.517  1.00  0.00    -0.268 OA
ENDBRANCH  16  17
ENDBRANCH   9  16
ENDBRANCH   7   8
BRANCH   7  22
ATOM     22  C   UNL     1       5.060  -0.371  -3.933  1.00  0.00     0.044 A 
ATOM     23  C   UNL     1       5.977  -0.726  -2.943  1.00  0.00     0.094 A 
ATOM     24  C   UNL     1       5.583   0.920  -4.329  1.00  0.00     0.011 A 
ATOM     25  N   UNL     1       6.149   0.440  -2.234  1.00  0.00    -0.361 N 
ATOM     26  C   UNL     1       6.045   1.484  -3.128  1.00  0.00     0.046 A 
ATOM     27  C   UNL     1       5.606   1.737  -5.477  1.00  0.00     0.031 A 
ATOM     28  H   UNL     1       6.315   0.515  -1.266  1.00  0.00     0.166 HD
ATOM     29  C   UNL     1       6.211   2.859  -2.940  1.00  0.00     0.028 A 
ATOM     30  C   UNL     1       5.980   3.084  -5.335  1.00  0.00     0.041 A 
ATOM     31  C   UNL     1       6.173   3.657  -4.080  1.00  0.00     0.022 A 
ATOM     32  Cl  UNL     1       6.216   4.065  -6.732  1.00  0.00    -0.084 Cl
ENDBRANCH   7  22
ENDBRANCH   4   7
ENDBRANCH   2   3
ENDBRANCH   1   2
BRANCH   1  33
ATOM     33  C   UNL     1      -1.270  -1.550  -5.489  1.00  0.00     0.023 C 
BRANCH  33  34
ATOM     34  C   UNL     1      -2.371  -2.243  -6.265  1.00  0.00     0.116 C 
BRANCH  34  35
ATOM     35  N   UNL     1      -3.532  -2.554  -5.434  1.00  0.00    -0.352 N 
ATOM     36  C   UNL     1      -4.863  -2.494  -5.779  1.00  0.00     0.251 C 
ATOM     37  H   UNL     1      -3.338  -2.842  -4.512  1.00  0.00     0.163 HD
ATOM     38  O   UNL     1      -5.732  -2.642  -4.913  1.00  0.00    -0.269 OA
BRANCH  36  39
ATOM     39  C   UNL     1      -5.241  -2.213  -7.180  1.00  0.00     0.039 A 
ATOM     40  C   UNL     1      -6.279  -1.319  -7.456  1.00  0.00     0.014 A 
ATOM     41  C   UNL     1      -4.522  -2.796  -8.226  1.00  0.00     0.014 A 
ATOM     42  C   UNL     1      -6.540  -0.954  -8.780  1.00  0.00     0.010 A 
ATOM     43  C   UNL     1      -4.705  -2.345  -9.524  1.00  0.00     0.010 A 
ATOM     44  C   UNL     1      -5.726  -1.432  -9.819  1.00  0.00    -0.014 A 
BRANCH  44  45
ATOM     45  C   UNL     1      -5.926  -1.029 -11.232  1.00  0.00     0.031 A 
ATOM     46  C   UNL     1      -6.224  -2.086 -12.263  1.00  0.00     0.074 A 
ATOM     47  C   UNL     1      -5.732   0.254 -11.597  1.00  0.00     0.049 A 
ATOM     48  N   UNL     1      -6.295  -1.977 -13.563  1.00  0.00    -0.248 NA
ATOM     49  C   UNL     1      -6.426  -3.460 -11.768  1.00  0.00     0.031 C 
ATOM     50  C   UNL     1      -5.375   1.349 -10.690  1.00  0.00     0.029 A 
ATOM     51  N   UNL     1      -5.787   0.854 -12.829  1.00  0.00    -0.354 N 
ATOM     52  C   UNL     1      -6.513  -3.265 -14.038  1.00  0.00     0.074 A 
ATOM     53  C   UNL     1      -6.506  -4.149 -12.896  1.00  0.00     0.031 C 
ATOM     54  C   UNL     1      -5.264   2.487 -11.394  1.00  0.00     0.029 A 
ATOM     55  C   UNL     1      -5.495   2.198 -12.805  1.00  0.00     0.049 A 
ATOM     56  H   UNL     1      -6.014   0.367 -13.655  1.00  0.00     0.167 HD
ATOM     57  C   UNL     1      -6.726  -3.669 -15.312  1.00  0.00     0.037 A 
ATOM     58  C   UNL     1      -5.410   3.090 -13.811  1.00  0.00     0.037 A 
ATOM     59  C   UNL     1      -6.781  -2.767 -16.430  1.00  0.00     0.049 A 
ATOM     60  C   UNL     1      -5.674   2.619 -15.217  1.00  0.00     0.074 A 
ATOM     61  C   UNL     1      -7.085  -3.051 -17.749  1.00  0.00     0.029 A 
ATOM     62  N   UNL     1      -6.527  -1.405 -16.359  1.00  0.00    -0.354 N 
ATOM     63  N   UNL     1      -5.968   1.412 -15.639  1.00  0.00    -0.248 NA
ATOM     64  C   UNL     1      -5.597   3.627 -16.283  1.00  0.00     0.031 C 
ATOM     65  C   UNL     1      -6.963  -1.869 -18.486  1.00  0.00     0.029 A 
ATOM     66  C   UNL     1      -6.638  -0.839 -17.617  1.00  0.00     0.049 A 
ATOM     67  H   UNL     1      -6.301  -0.914 -15.536  1.00  0.00     0.167 HD
ATOM     68  C   UNL     1      -6.138   1.521 -17.015  1.00  0.00     0.074 A 
ATOM     69  C   UNL     1      -5.928   2.914 -17.351  1.00  0.00     0.031 C 
ATOM     70  C   UNL     1      -6.438   0.557 -17.920  1.00  0.00     0.037 A 
BRANCH  57  71
ATOM     71  C   UNL     1      -6.923  -5.139 -15.564  1.00  0.00     0.058 A 
ATOM     72  C   UNL     1      -8.070  -5.820 -15.125  1.00  0.00     0.135 A 
ATOM     73  C   UNL     1      -5.970  -5.870 -16.293  1.00  0.00     0.135 A 
ATOM     74  F   UNL     1      -9.006  -5.178 -14.408  1.00  0.00    -0.206 F 
ATOM     75  C   UNL     1      -8.254  -7.176 -15.377  1.00  0.00     0.059 A 
ATOM     76  C   UNL     1      -6.148  -7.220 -16.584  1.00  0.00     0.059 A 
ATOM     77  F   UNL     1      -4.851  -5.272 -16.733  1.00  0.00    -0.206 F 
ATOM     78  C   UNL     1      -7.288  -7.867 -16.111  1.00  0.00     0.060 A 
BRANCH  78  79
ATOM     79  S   UNL     1      -7.555  -9.620 -16.447  1.00  0.00     0.124 S 
ATOM     80  O   UNL     1      -7.341 -10.205 -15.127  1.00  0.00    -0.237 OA
ATOM     81  O   UNL     1      -8.932  -9.637 -16.931  1.00  0.00    -0.237 OA
ATOM     82  O   UNL     1      -6.538  -9.935 -17.445  1.00  0.00    -0.744 OA
ENDBRANCH  78  79
ENDBRANCH  57  71
BRANCH  58  83
ATOM     83  C   UNL     1      -5.077   4.513 -13.528  1.00  0.00     0.058 A 
ATOM     84  C   UNL     1      -6.032   5.526 -13.702  1.00  0.00     0.135 A 
ATOM     85  C   UNL     1      -3.802   4.892 -13.077  1.00  0.00     0.135 A 
ATOM     86  F   UNL     1      -7.264   5.218 -14.134  1.00  0.00    -0.206 F 
ATOM     87  C   UNL     1      -5.731   6.864 -13.466  1.00  0.00     0.059 A 
ATOM     88  C   UNL     1      -3.485   6.220 -12.806  1.00  0.00     0.059 A 
ATOM     89  F   UNL     1      -2.857   3.962 -12.874  1.00  0.00    -0.206 F 
ATOM     90  C   UNL     1      -4.452   7.201 -13.018  1.00  0.00     0.060 A 
BRANCH  90  91
ATOM     91  S   UNL     1      -4.082   8.938 -12.689  1.00  0.00     0.124 S 
ATOM     92  O   UNL     1      -4.015   9.485 -14.040  1.00  0.00    -0.237 OA
ATOM     93  O   UNL     1      -5.233   9.350 -11.890  1.00  0.00    -0.237 OA
ATOM     94  O   UNL     1      -2.815   8.881 -11.967  1.00  0.00    -0.744 OA
ENDBRANCH  90  91
ENDBRANCH  58  83
BRANCH  70  95
ATOM     95  C   UNL     1      -6.591   0.976 -19.355  1.00  0.00     0.058 A 
ATOM     96  C   UNL     1      -5.483   1.319 -20.143  1.00  0.00     0.135 A 
ATOM     97  C   UNL     1      -7.855   0.956 -19.967  1.00  0.00     0.135 A 
ATOM     98  F   UNL     1      -4.255   1.361 -19.602  1.00  0.00    -0.206 F 
ATOM     99  C   UNL     1      -5.624   1.642 -21.488  1.00  0.00     0.059 A 
ATOM    100  C   UNL     1      -8.015   1.245 -21.317  1.00  0.00     0.059 A 
ATOM    101  F   UNL     1      -8.945   0.623 -19.257  1.00  0.00    -0.206 F 
ATOM    102  C   UNL     1      -6.893   1.594 -22.068  1.00  0.00     0.060 A 
BRANCH 102 103
ATOM    103  S   UNL     1      -7.052   1.959 -23.828  1.00  0.00     0.124 S 
ATOM    104  O   UNL     1      -6.842   3.402 -23.850  1.00  0.00    -0.237 OA
ATOM    105  O   UNL     1      -5.984   1.153 -24.410  1.00  0.00    -0.237 OA
ATOM    106  O   UNL     1      -8.407   1.516 -24.146  1.00  0.00    -0.744 OA
ENDBRANCH 102 103
ENDBRANCH  70  95
ENDBRANCH  44  45
ENDBRANCH  36  39
ENDBRANCH  34  35
ENDBRANCH  33  34
ENDBRANCH   1  33
TORSDOF 18
