REMARK SMILES CC(=O)/C=C(/C)NCC(=O)NCCCCNC(=O)c1ccc(-c2c3nc(c(-c4c(F)cc(S(=O)(=O)[O-])cc4F)c4ccc([nH]4)c(-c4c(F)cc(S(=O)(=O)[O-])cc4F)c4nc(c(-c5c(F)cc(S(=O)(=O)[O-])cc5F)c5ccc2[nH]5)C=C4)C=C3)cc1
REMARK SMILES IDX 13 1 12 2 11 3 9 4 10 5 8 7 7 8 5 10 4 11 6 12 2 13 1 14
REMARK SMILES IDX 3 15 14 16 15 17 16 18 17 19 18 21 19 22 20 23 84 24 21 25
REMARK SMILES IDX 83 26 22 27 23 28 24 29 77 30 25 31 82 32 76 33 78 34 26 35
REMARK SMILES IDX 81 36 75 37 74 38 27 40 61 41 40 42 60 43 41 44 44 45 59 46
REMARK SMILES IDX 79 47 42 48 43 49 58 51 80 52 45 53 28 54 29 55 38 56 30 57
REMARK SMILES IDX 31 58 37 59 39 60 32 61 33 62 34 63 35 64 36 65 62 66 63 67
REMARK SMILES IDX 72 68 64 69 65 70 71 71 73 72 66 73 67 74 68 75 69 76 70 77
REMARK SMILES IDX 46 78 47 79 56 80 48 81 49 82 55 83 57 84 50 85 51 86 52 87
REMARK SMILES IDX 53 88 54 89
REMARK H PARENT 11 6 7 9 16 20 78 39 44 50
REMARK Flexibility Score: inf
ROOT
ATOM      1  C   UNL     1       4.643   1.759   1.341  1.00  0.00     0.023 C 
ENDROOT
BRANCH   1   2
ATOM      2  C   UNL     1       3.740   1.205   0.241  1.00  0.00     0.116 C 
BRANCH   2   3
ATOM      3  N   UNL     1       4.001  -0.194  -0.032  1.00  0.00    -0.355 N 
ATOM      4  C   UNL     1       3.389  -1.317   0.442  1.00  0.00     0.239 C 
ATOM      5  O   UNL     1       3.809  -2.403   0.026  1.00  0.00    -0.273 OA
ATOM      6  H   UNL     1       4.740  -0.361  -0.660  1.00  0.00     0.163 HD
BRANCH   4   7
ATOM      7  C   UNL     1       2.175  -1.281   1.384  1.00  0.00     0.213 C 
BRANCH   7   8
ATOM      8  N   UNL     1       2.213  -0.247   2.400  1.00  0.00    -0.380 N 
ATOM      9  H   UNL     1       3.018  -0.289   2.966  1.00  0.00     0.160 HD
BRANCH   8  10
ATOM     10  C   UNL     1       1.361   0.784   2.745  1.00  0.00     0.011 C 
ATOM     11  C   UNL     1       0.401   1.461   2.080  1.00  0.00     0.067 C 
ATOM     12  C   UNL     1       1.654   1.298   4.158  1.00  0.00     0.064 C 
BRANCH  11  13
ATOM     13  C   UNL     1      -0.232   1.513   0.729  1.00  0.00     0.154 C 
ATOM     14  C   UNL     1      -0.027   0.463  -0.317  1.00  0.00     0.093 C 
ATOM     15  O   UNL     1      -0.979   2.469   0.495  1.00  0.00    -0.295 OA
ENDBRANCH  11  13
ENDBRANCH   8  10
ENDBRANCH   7   8
ENDBRANCH   4   7
ENDBRANCH   2   3
ENDBRANCH   1   2
BRANCH   1  16
ATOM     16  C   UNL     1       6.104   1.934   0.921  1.00  0.00     0.023 C 
BRANCH  16  17
ATOM     17  C   UNL     1       6.334   2.898  -0.239  1.00  0.00     0.116 C 
BRANCH  17  18
ATOM     18  N   UNL     1       5.902   4.254   0.051  1.00  0.00    -0.352 N 
ATOM     19  C   UNL     1       6.515   5.441  -0.297  1.00  0.00     0.251 C 
ATOM     20  H   UNL     1       5.065   4.337   0.562  1.00  0.00     0.163 HD
ATOM     21  O   UNL     1       6.088   6.504   0.132  1.00  0.00    -0.269 OA
BRANCH  19  22
ATOM     22  C   UNL     1       7.715   5.405  -1.161  1.00  0.00     0.039 A 
ATOM     23  C   UNL     1       8.854   6.105  -0.760  1.00  0.00     0.014 A 
ATOM     24  C   UNL     1       7.726   4.654  -2.339  1.00  0.00     0.014 A 
ATOM     25  C   UNL     1      10.033   5.991  -1.502  1.00  0.00     0.010 A 
ATOM     26  C   UNL     1       8.917   4.490  -3.043  1.00  0.00     0.010 A 
ATOM     27  C   UNL     1      10.084   5.151  -2.627  1.00  0.00    -0.014 A 
BRANCH  27  28
ATOM     28  C   UNL     1      11.350   4.940  -3.376  1.00  0.00     0.031 A 
ATOM     29  C   UNL     1      11.464   5.392  -4.806  1.00  0.00     0.074 A 
ATOM     30  C   UNL     1      12.371   4.284  -2.788  1.00  0.00     0.049 A 
ATOM     31  N   UNL     1      12.446   5.213  -5.652  1.00  0.00    -0.248 NA
ATOM     32  C   UNL     1      10.314   6.120  -5.367  1.00  0.00     0.031 C 
ATOM     33  C   UNL     1      12.368   3.759  -1.421  1.00  0.00     0.029 A 
ATOM     34  N   UNL     1      13.609   3.937  -3.271  1.00  0.00    -0.354 N 
ATOM     35  C   UNL     1      12.032   5.799  -6.842  1.00  0.00     0.074 A 
ATOM     36  C   UNL     1      10.689   6.293  -6.626  1.00  0.00     0.031 C 
ATOM     37  C   UNL     1      13.550   3.171  -1.170  1.00  0.00     0.029 A 
ATOM     38  C   UNL     1      14.382   3.246  -2.367  1.00  0.00     0.049 A 
ATOM     39  H   UNL     1      13.914   4.161  -4.180  1.00  0.00     0.167 HD
ATOM     40  C   UNL     1      12.717   5.935  -8.002  1.00  0.00     0.037 A 
ATOM     41  C   UNL     1      15.617   2.723  -2.492  1.00  0.00     0.037 A 
ATOM     42  C   UNL     1      14.063   5.466  -8.206  1.00  0.00     0.049 A 
ATOM     43  C   UNL     1      16.354   2.884  -3.795  1.00  0.00     0.074 A 
ATOM     44  C   UNL     1      14.854   5.586  -9.336  1.00  0.00     0.029 A 
ATOM     45  N   UNL     1      14.822   4.799  -7.257  1.00  0.00    -0.354 N 
ATOM     46  N   UNL     1      15.960   3.476  -4.897  1.00  0.00    -0.248 NA
ATOM     47  C   UNL     1      17.706   2.310  -3.871  1.00  0.00     0.031 C 
ATOM     48  C   UNL     1      16.081   4.967  -9.080  1.00  0.00     0.029 A 
ATOM     49  C   UNL     1      16.069   4.496  -7.777  1.00  0.00     0.049 A 
ATOM     50  H   UNL     1      14.519   4.574  -6.348  1.00  0.00     0.167 HD
ATOM     51  C   UNL     1      17.026   3.373  -5.785  1.00  0.00     0.074 A 
ATOM     52  C   UNL     1      18.084   2.672  -5.089  1.00  0.00     0.031 C 
ATOM     53  C   UNL     1      17.119   3.817  -7.062  1.00  0.00     0.037 A 
BRANCH  40  54
ATOM     54  C   UNL     1      12.034   6.642  -9.139  1.00  0.00     0.058 A 
ATOM     55  C   UNL     1      11.835   8.032  -9.117  1.00  0.00     0.135 A 
ATOM     56  C   UNL     1      11.630   5.939 -10.284  1.00  0.00     0.135 A 
ATOM     57  F   UNL     1      12.187   8.748  -8.037  1.00  0.00    -0.206 F 
ATOM     58  C   UNL     1      11.245   8.698 -10.185  1.00  0.00     0.059 A 
ATOM     59  C   UNL     1      11.060   6.589 -11.375  1.00  0.00     0.059 A 
ATOM     60  F   UNL     1      11.796   4.609 -10.355  1.00  0.00    -0.206 F 
ATOM     61  C   UNL     1      10.863   7.968 -11.312  1.00  0.00     0.060 A 
BRANCH  61  62
ATOM     62  S   UNL     1      10.127   8.854 -12.701  1.00  0.00     0.124 S 
ATOM     63  O   UNL     1       8.796   9.156 -12.181  1.00  0.00    -0.237 OA
ATOM     64  O   UNL     1      11.021   9.997 -12.853  1.00  0.00    -0.237 OA
ATOM     65  O   UNL     1      10.170   7.880 -13.787  1.00  0.00    -0.744 OA
ENDBRANCH  61  62
ENDBRANCH  40  54
BRANCH  41  66
ATOM     66  C   UNL     1      16.251   2.005  -1.354  1.00  0.00     0.058 A 
ATOM     67  C   UNL     1      17.347   2.558  -0.674  1.00  0.00     0.135 A 
ATOM     68  C   UNL     1      15.795   0.743  -0.943  1.00  0.00     0.135 A 
ATOM     69  F   UNL     1      17.821   3.760  -1.034  1.00  0.00    -0.206 F 
ATOM     70  C   UNL     1      17.992   1.871   0.349  1.00  0.00     0.059 A 
ATOM     71  C   UNL     1      16.408   0.048   0.095  1.00  0.00     0.059 A 
ATOM     72  F   UNL     1      14.738   0.179  -1.548  1.00  0.00    -0.206 F 
ATOM     73  C   UNL     1      17.518   0.613   0.722  1.00  0.00     0.060 A 
BRANCH  73  74
ATOM     74  S   UNL     1      18.354  -0.270   2.058  1.00  0.00     0.124 S 
ATOM     75  O   UNL     1      19.548  -0.761   1.381  1.00  0.00    -0.237 OA
ATOM     76  O   UNL     1      18.566   0.786   3.043  1.00  0.00    -0.237 OA
ATOM     77  O   UNL     1      17.381  -1.288   2.444  1.00  0.00    -0.744 OA
ENDBRANCH  73  74
ENDBRANCH  41  66
BRANCH  53  78
ATOM     78  C   UNL     1      18.423   3.601  -7.776  1.00  0.00     0.058 A 
ATOM     79  C   UNL     1      18.803   2.337  -8.251  1.00  0.00     0.135 A 
ATOM     80  C   UNL     1      19.279   4.685  -8.032  1.00  0.00     0.135 A 
ATOM     81  F   UNL     1      18.023   1.268  -8.025  1.00  0.00    -0.206 F 
ATOM     82  C   UNL     1      19.998   2.150  -8.938  1.00  0.00     0.059 A 
ATOM     83  C   UNL     1      20.466   4.525  -8.738  1.00  0.00     0.059 A 
ATOM     84  F   UNL     1      18.956   5.917  -7.606  1.00  0.00    -0.206 F 
ATOM     85  C   UNL     1      20.823   3.251  -9.178  1.00  0.00     0.060 A 
BRANCH  85  86
ATOM     86  S   UNL     1      22.352   3.003 -10.104  1.00  0.00     0.124 S 
ATOM     87  O   UNL     1      23.207   2.381  -9.098  1.00  0.00    -0.237 OA
ATOM     88  O   UNL     1      21.922   2.134 -11.195  1.00  0.00    -0.237 OA
ATOM     89  O   UNL     1      22.731   4.356 -10.502  1.00  0.00    -0.744 OA
ENDBRANCH  85  86
ENDBRANCH  53  78
ENDBRANCH  27  28
ENDBRANCH  19  22
ENDBRANCH  17  18
ENDBRANCH  16  17
ENDBRANCH   1  16
TORSDOF 17
