REMARK SMILES C[C@@H]1[C@H](C(=O)NCCCCNC(=O)c2ccc(-c3c4nc(c(-c5c(F)cc(S(=O)(=O)[O-])cc5F)c5ccc([nH]5)c(-c5c(F)cc(S(=O)(=O)[O-])cc5F)c5nc(c(-c6c(F)cc(S(=O)(=O)[O-])cc6F)c6ccc3[nH]6)C=C5)C=C4)cc2)CC[N@@H+]1CCOc1c(Cl)cccc1Cl
REMARK SMILES IDX 8 1 7 2 6 3 4 4 5 5 3 7 1 8 2 9 82 10 80 11 81 12 83 14
REMARK SMILES IDX 84 15 85 16 86 17 87 18 92 19 88 20 89 21 91 22 93 23 90 24
REMARK SMILES IDX 9 25 10 26 11 27 12 28 13 30 14 31 15 32 79 33 16 34 78 35
REMARK SMILES IDX 17 36 18 37 19 38 72 39 20 40 77 41 71 42 73 43 21 44 76 45
REMARK SMILES IDX 70 46 69 47 22 49 56 50 35 51 55 52 36 53 39 54 54 55 74 56
REMARK SMILES IDX 37 57 38 58 53 60 75 61 40 62 23 63 24 64 33 65 25 66 26 67
REMARK SMILES IDX 32 68 34 69 27 70 28 71 29 72 30 73 31 74 57 75 58 76 67 77
REMARK SMILES IDX 59 78 60 79 66 80 68 81 61 82 62 83 63 84 64 85 65 86 41 87
REMARK SMILES IDX 42 88 51 89 43 90 44 91 50 92 52 93 45 94 46 95 47 96 48 97
REMARK SMILES IDX 49 98
REMARK H PARENT 6 6 82 13 11 29 73 48 39 59
REMARK Flexibility Score: inf
ROOT
ATOM      1  C   UNL     1       3.145   1.346   2.391  1.00  0.00     0.023 C 
ENDROOT
BRANCH   1   2
ATOM      2  C   UNL     1       1.783   1.780   1.856  1.00  0.00     0.116 C 
BRANCH   2   3
ATOM      3  N   UNL     1       1.895   2.585   0.669  1.00  0.00    -0.356 N 
ATOM      4  C   UNL     1       1.591   2.302  -0.620  1.00  0.00     0.229 C 
ATOM      5  O   UNL     1       1.846   3.189  -1.444  1.00  0.00    -0.275 OA
ATOM      6  H   UNL     1       2.252   3.491   0.818  1.00  0.00     0.163 HD
BRANCH   4   7
ATOM      7  C   UNL     1       0.883   1.034  -1.091  1.00  0.00     0.142 C 
ATOM      8  C   UNL     1       2.731  -0.650  -0.195  1.00  0.00     0.076 C 
ATOM      9  C   UNL     1       1.440  -0.402  -0.946  1.00  0.00     0.193 C 
ATOM     10  N   UNL     1       0.278  -1.271  -0.652  1.00  0.00    -0.329 N 
ATOM     11  C   UNL     1      -0.572   0.920  -0.661  1.00  0.00     0.081 C 
ATOM     12  C   UNL     1      -0.900  -0.513  -1.039  1.00  0.00     0.263 C 
ATOM     13  H   UNL     1       0.430  -2.114  -1.207  1.00  0.00     0.348 HD
BRANCH  10  14
ATOM     14  C   UNL     1       0.170  -2.085   0.570  1.00  0.00     0.304 C 
BRANCH  14  15
ATOM     15  C   UNL     1      -0.308  -1.494   1.925  1.00  0.00     0.291 C 
BRANCH  15  16
ATOM     16  O   UNL     1      -1.711  -1.677   2.206  1.00  0.00    -0.485 OA
BRANCH  16  17
ATOM     17  C   UNL     1      -2.494  -0.561   2.031  1.00  0.00     0.156 A 
ATOM     18  C   UNL     1      -2.279   0.672   2.665  1.00  0.00     0.084 A 
ATOM     19  C   UNL     1      -3.581  -0.673   1.149  1.00  0.00     0.084 A 
ATOM     20  Cl  UNL     1      -1.190   0.859   3.997  1.00  0.00    -0.080 Cl
ATOM     21  C   UNL     1      -2.988   1.809   2.255  1.00  0.00     0.024 A 
ATOM     22  C   UNL     1      -4.281   0.464   0.733  1.00  0.00     0.024 A 
ATOM     23  Cl  UNL     1      -4.053  -2.202   0.487  1.00  0.00    -0.080 Cl
ATOM     24  C   UNL     1      -3.957   1.712   1.257  1.00  0.00     0.003 A 
ENDBRANCH  16  17
ENDBRANCH  15  16
ENDBRANCH  14  15
ENDBRANCH  10  14
ENDBRANCH   4   7
ENDBRANCH   2   3
ENDBRANCH   1   2
BRANCH   1  25
ATOM     25  C   UNL     1       3.923   2.434   3.109  1.00  0.00     0.023 C 
BRANCH  25  26
ATOM     26  C   UNL     1       3.252   2.948   4.369  1.00  0.00     0.116 C 
BRANCH  26  27
ATOM     27  N   UNL     1       3.061   1.911   5.377  1.00  0.00    -0.352 N 
ATOM     28  C   UNL     1       3.518   1.883   6.675  1.00  0.00     0.251 C 
ATOM     29  H   UNL     1       2.536   1.129   5.091  1.00  0.00     0.163 HD
ATOM     30  O   UNL     1       3.406   0.869   7.357  1.00  0.00    -0.269 OA
BRANCH  28  31
ATOM     31  C   UNL     1       4.174   3.088   7.215  1.00  0.00     0.039 A 
ATOM     32  C   UNL     1       5.419   2.977   7.835  1.00  0.00     0.014 A 
ATOM     33  C   UNL     1       3.589   4.340   7.010  1.00  0.00     0.014 A 
ATOM     34  C   UNL     1       6.117   4.137   8.176  1.00  0.00     0.010 A 
ATOM     35  C   UNL     1       4.335   5.485   7.238  1.00  0.00     0.010 A 
ATOM     36  C   UNL     1       5.600   5.399   7.838  1.00  0.00    -0.014 A 
BRANCH  36  37
ATOM     37  C   UNL     1       6.333   6.654   8.139  1.00  0.00     0.031 A 
ATOM     38  C   UNL     1       5.692   7.682   9.034  1.00  0.00     0.074 A 
ATOM     39  C   UNL     1       7.518   6.907   7.548  1.00  0.00     0.049 A 
ATOM     40  N   UNL     1       6.097   8.889   9.331  1.00  0.00    -0.248 NA
ATOM     41  C   UNL     1       4.397   7.321   9.636  1.00  0.00     0.031 C 
ATOM     42  C   UNL     1       8.208   6.017   6.610  1.00  0.00     0.029 A 
ATOM     43  N   UNL     1       8.348   7.995   7.642  1.00  0.00    -0.354 N 
ATOM     44  C   UNL     1       5.096   9.437  10.124  1.00  0.00     0.074 A 
ATOM     45  C   UNL     1       4.033   8.461  10.202  1.00  0.00     0.031 C 
ATOM     46  C   UNL     1       9.371   6.581   6.243  1.00  0.00     0.029 A 
ATOM     47  C   UNL     1       9.493   7.885   6.888  1.00  0.00     0.049 A 
ATOM     48  H   UNL     1       8.144   8.781   8.197  1.00  0.00     0.167 HD
ATOM     49  C   UNL     1       5.076  10.631  10.761  1.00  0.00     0.037 A 
ATOM     50  C   UNL     1      10.524   8.739   6.738  1.00  0.00     0.037 A 
ATOM     51  C   UNL     1       6.163  11.571  10.723  1.00  0.00     0.049 A 
ATOM     52  C   UNL     1      10.503  10.043   7.492  1.00  0.00     0.074 A 
ATOM     53  C   UNL     1       6.279  12.781  11.383  1.00  0.00     0.029 A 
ATOM     54  N   UNL     1       7.330  11.398   9.993  1.00  0.00    -0.354 N 
ATOM     55  N   UNL     1       9.572  10.523   8.282  1.00  0.00    -0.248 NA
ATOM     56  C   UNL     1      11.675  10.915   7.343  1.00  0.00     0.031 C 
ATOM     57  C   UNL     1       7.505  13.353  11.029  1.00  0.00     0.029 A 
ATOM     58  C   UNL     1       8.171  12.480  10.182  1.00  0.00     0.049 A 
ATOM     59  H   UNL     1       7.530  10.619   9.425  1.00  0.00     0.167 HD
ATOM     60  C   UNL     1      10.061  11.737   8.751  1.00  0.00     0.074 A 
ATOM     61  C   UNL     1      11.372  11.915   8.160  1.00  0.00     0.031 C 
ATOM     62  C   UNL     1       9.480  12.624   9.596  1.00  0.00     0.037 A 
BRANCH  49  63
ATOM     63  C   UNL     1       3.849  10.967  11.562  1.00  0.00     0.058 A 
ATOM     64  C   UNL     1       3.528  10.277  12.743  1.00  0.00     0.135 A 
ATOM     65  C   UNL     1       2.981  11.988  11.146  1.00  0.00     0.135 A 
ATOM     66  F   UNL     1       4.313   9.277  13.177  1.00  0.00    -0.206 F 
ATOM     67  C   UNL     1       2.370  10.557  13.459  1.00  0.00     0.059 A 
ATOM     68  C   UNL     1       1.832  12.308  11.865  1.00  0.00     0.059 A 
ATOM     69  F   UNL     1       3.237  12.680  10.025  1.00  0.00    -0.206 F 
ATOM     70  C   UNL     1       1.525  11.572  13.009  1.00  0.00     0.060 A 
BRANCH  70  71
ATOM     71  S   UNL     1       0.019  11.917  13.942  1.00  0.00     0.124 S 
ATOM     72  O   UNL     1      -0.823  10.787  13.560  1.00  0.00    -0.237 OA
ATOM     73  O   UNL     1       0.496  11.913  15.321  1.00  0.00    -0.237 OA
ATOM     74  O   UNL     1      -0.406  13.217  13.433  1.00  0.00    -0.744 OA
ENDBRANCH  70  71
ENDBRANCH  49  63
BRANCH  50  75
ATOM     75  C   UNL     1      11.681   8.368   5.881  1.00  0.00     0.058 A 
ATOM     76  C   UNL     1      12.920   8.038   6.452  1.00  0.00     0.135 A 
ATOM     77  C   UNL     1      11.573   8.317   4.483  1.00  0.00     0.135 A 
ATOM     78  F   UNL     1      13.075   8.076   7.784  1.00  0.00    -0.206 F 
ATOM     79  C   UNL     1      14.014   7.685   5.669  1.00  0.00     0.059 A 
ATOM     80  C   UNL     1      12.647   7.945   3.679  1.00  0.00     0.059 A 
ATOM     81  F   UNL     1      10.405   8.606   3.888  1.00  0.00    -0.206 F 
ATOM     82  C   UNL     1      13.867   7.640   4.282  1.00  0.00     0.060 A 
BRANCH  82  83
ATOM     83  S   UNL     1      15.280   7.130   3.278  1.00  0.00     0.124 S 
ATOM     84  O   UNL     1      16.134   8.310   3.352  1.00  0.00    -0.237 OA
ATOM     85  O   UNL     1      15.756   5.951   3.994  1.00  0.00    -0.237 OA
ATOM     86  O   UNL     1      14.684   6.862   1.973  1.00  0.00    -0.744 OA
ENDBRANCH  82  83
ENDBRANCH  50  75
BRANCH  62  87
ATOM     87  C   UNL     1      10.274  13.843   9.972  1.00  0.00     0.058 A 
ATOM     88  C   UNL     1      10.467  14.904   9.075  1.00  0.00     0.135 A 
ATOM     89  C   UNL     1      10.797  13.973  11.269  1.00  0.00     0.135 A 
ATOM     90  F   UNL     1       9.991  14.826   7.822  1.00  0.00    -0.206 F 
ATOM     91  C   UNL     1      11.172  16.044   9.444  1.00  0.00     0.059 A 
ATOM     92  C   UNL     1      11.482  15.115  11.667  1.00  0.00     0.059 A 
ATOM     93  F   UNL     1      10.627  12.990  12.168  1.00  0.00    -0.206 F 
ATOM     94  C   UNL     1      11.675  16.141  10.743  1.00  0.00     0.060 A 
BRANCH  94  95
ATOM     95  S   UNL     1      12.557  17.641  11.222  1.00  0.00     0.124 S 
ATOM     96  O   UNL     1      13.842  17.450  10.557  1.00  0.00    -0.237 OA
ATOM     97  O   UNL     1      11.708  18.693  10.672  1.00  0.00    -0.237 OA
ATOM     98  O   UNL     1      12.587  17.566  12.680  1.00  0.00    -0.744 OA
ENDBRANCH  94  95
ENDBRANCH  62  87
ENDBRANCH  36  37
ENDBRANCH  28  31
ENDBRANCH  26  27
ENDBRANCH  25  26
ENDBRANCH   1  25
TORSDOF 18
