REMARK SMILES CCc1n[nH]c2cc(CCC(=O)NCCCCNC(=O)c3ccc(-c4c5nc(c(-c6c(F)cc(S(=O)(=O)[O-])cc6F)c6ccc([nH]6)c(-c6c(F)cc(S(=O)(=O)[O-])cc6F)c6nc(c(-c7c(F)cc(S(=O)(=O)[O-])cc7F)c7ccc4[nH]7)C=C6)C=C5)cc3)ccc12
REMARK SMILES IDX 15 1 14 2 13 3 11 4 12 5 10 7 9 8 8 9 3 10 4 11 89 12 5 13
REMARK SMILES IDX 6 14 88 15 7 17 87 18 2 19 1 20 16 21 17 22 18 23 19 24
REMARK SMILES IDX 20 26 21 27 22 28 86 29 23 30 85 31 24 32 25 33 26 34 79 35
REMARK SMILES IDX 27 36 84 37 78 38 80 39 28 40 83 41 77 42 76 43 29 45 63 46
REMARK SMILES IDX 42 47 62 48 43 49 46 50 61 51 81 52 44 53 45 54 60 56 82 57
REMARK SMILES IDX 47 58 30 59 31 60 40 61 32 62 33 63 39 64 41 65 34 66 35 67
REMARK SMILES IDX 36 68 37 69 38 70 64 71 65 72 74 73 66 74 67 75 73 76 75 77
REMARK SMILES IDX 68 78 69 79 70 80 71 81 72 82 48 83 49 84 58 85 50 86 51 87
REMARK SMILES IDX 57 88 59 89 52 90 53 91 54 92 55 93 56 94
REMARK H PARENT 13 6 5 16 18 25 80 44 46 55
REMARK Flexibility Score: inf
ROOT
ATOM      1  C   UNL     1       0.963   3.314  -4.418  1.00  0.00     0.023 C 
ENDROOT
BRANCH   1   2
ATOM      2  C   UNL     1       0.191   2.853  -5.646  1.00  0.00     0.116 C 
BRANCH   2   3
ATOM      3  N   UNL     1       0.949   3.155  -6.846  1.00  0.00    -0.356 N 
ATOM      4  C   UNL     1       1.978   2.455  -7.404  1.00  0.00     0.220 C 
ATOM      5  O   UNL     1       2.655   3.000  -8.278  1.00  0.00    -0.275 OA
ATOM      6  H   UNL     1       0.684   3.976  -7.322  1.00  0.00     0.163 HD
BRANCH   4   7
ATOM      7  C   UNL     1       2.258   1.020  -6.991  1.00  0.00     0.105 C 
BRANCH   7   8
ATOM      8  C   UNL     1       3.519   0.859  -6.127  1.00  0.00     0.045 C 
BRANCH   8   9
ATOM      9  C   UNL     1       3.235   0.785  -4.639  1.00  0.00    -0.045 A 
ATOM     10  C   UNL     1       2.023   1.317  -0.663  1.00  0.00     0.070 A 
ATOM     11  N   UNL     1       2.706   2.426  -0.347  1.00  0.00    -0.180 NA
ATOM     12  C   UNL     1       2.357   0.852  -1.968  1.00  0.00     0.023 A 
ATOM     13  N   UNL     1       3.432   2.689  -1.444  1.00  0.00    -0.278 N 
ATOM     14  C   UNL     1       3.262   1.786  -2.459  1.00  0.00     0.066 A 
ATOM     15  C   UNL     1       1.959  -0.205  -2.804  1.00  0.00     0.012 A 
ATOM     16  H   UNL     1       4.034   3.465  -1.513  1.00  0.00     0.190 HD
ATOM     17  C   UNL     1       3.755   1.762  -3.772  1.00  0.00     0.032 A 
ATOM     18  C   UNL     1       2.404  -0.225  -4.132  1.00  0.00     0.004 A 
BRANCH  10  19
ATOM     19  C   UNL     1       0.990   0.793   0.283  1.00  0.00     0.055 C 
ATOM     20  C   UNL     1       1.191  -0.662   0.671  1.00  0.00     0.011 C 
ENDBRANCH  10  19
ENDBRANCH   8   9
ENDBRANCH   7   8
ENDBRANCH   4   7
ENDBRANCH   2   3
ENDBRANCH   1   2
BRANCH   1  21
ATOM     21  C   UNL     1       0.599   4.680  -3.866  1.00  0.00     0.023 C 
BRANCH  21  22
ATOM     22  C   UNL     1      -0.749   4.737  -3.167  1.00  0.00     0.116 C 
BRANCH  22  23
ATOM     23  N   UNL     1      -0.895   3.800  -2.059  1.00  0.00    -0.352 N 
ATOM     24  C   UNL     1      -1.373   4.006  -0.781  1.00  0.00     0.251 C 
ATOM     25  H   UNL     1      -0.609   2.878  -2.252  1.00  0.00     0.163 HD
ATOM     26  O   UNL     1      -1.433   3.083   0.016  1.00  0.00    -0.269 OA
BRANCH  24  27
ATOM     27  C   UNL     1      -1.777   5.367  -0.372  1.00  0.00     0.039 A 
ATOM     28  C   UNL     1      -1.311   5.879   0.842  1.00  0.00     0.014 A 
ATOM     29  C   UNL     1      -2.556   6.155  -1.217  1.00  0.00     0.014 A 
ATOM     30  C   UNL     1      -1.549   7.219   1.160  1.00  0.00     0.010 A 
ATOM     31  C   UNL     1      -2.680   7.511  -0.960  1.00  0.00     0.010 A 
ATOM     32  C   UNL     1      -2.187   8.059   0.234  1.00  0.00    -0.014 A 
BRANCH  32  33
ATOM     33  C   UNL     1      -2.388   9.511   0.478  1.00  0.00     0.031 A 
ATOM     34  C   UNL     1      -3.784  10.074   0.429  1.00  0.00     0.074 A 
ATOM     35  C   UNL     1      -1.326  10.330   0.616  1.00  0.00     0.049 A 
ATOM     36  N   UNL     1      -4.175  11.320   0.389  1.00  0.00    -0.248 NA
ATOM     37  C   UNL     1      -4.886   9.098   0.353  1.00  0.00     0.031 C 
ATOM     38  C   UNL     1       0.079   9.912   0.620  1.00  0.00     0.029 A 
ATOM     39  N   UNL     1      -1.263  11.693   0.760  1.00  0.00    -0.354 N 
ATOM     40  C   UNL     1      -5.556  11.275   0.228  1.00  0.00     0.074 A 
ATOM     41  C   UNL     1      -5.927   9.882   0.121  1.00  0.00     0.031 C 
ATOM     42  C   UNL     1       0.861  10.992   0.784  1.00  0.00     0.029 A 
ATOM     43  C   UNL     1       0.020  12.182   0.850  1.00  0.00     0.049 A 
ATOM     44  H   UNL     1      -2.061  12.268   0.795  1.00  0.00     0.167 HD
ATOM     45  C   UNL     1      -6.438  12.302   0.202  1.00  0.00     0.037 A 
ATOM     46  C   UNL     1       0.465  13.448   0.960  1.00  0.00     0.037 A 
ATOM     47  C   UNL     1      -6.063  13.677   0.390  1.00  0.00     0.049 A 
ATOM     48  C   UNL     1      -0.538  14.569   0.999  1.00  0.00     0.074 A 
ATOM     49  C   UNL     1      -6.879  14.791   0.465  1.00  0.00     0.029 A 
ATOM     50  N   UNL     1      -4.759  14.122   0.555  1.00  0.00    -0.354 N 
ATOM     51  N   UNL     1      -1.844  14.508   0.884  1.00  0.00    -0.248 NA
ATOM     52  C   UNL     1      -0.012  15.928   1.185  1.00  0.00     0.031 C 
ATOM     53  C   UNL     1      -6.066  15.914   0.654  1.00  0.00     0.029 A 
ATOM     54  C   UNL     1      -4.747  15.494   0.732  1.00  0.00     0.049 A 
ATOM     55  H   UNL     1      -3.960  13.546   0.548  1.00  0.00     0.167 HD
ATOM     56  C   UNL     1      -2.298  15.816   1.010  1.00  0.00     0.074 A 
ATOM     57  C   UNL     1      -1.127  16.645   1.220  1.00  0.00     0.031 C 
ATOM     58  C   UNL     1      -3.567  16.291   0.955  1.00  0.00     0.037 A 
BRANCH  45  59
ATOM     59  C   UNL     1      -7.888  11.968  -0.018  1.00  0.00     0.058 A 
ATOM     60  C   UNL     1      -8.646  11.290   0.952  1.00  0.00     0.135 A 
ATOM     61  C   UNL     1      -8.534  12.338  -1.209  1.00  0.00     0.135 A 
ATOM     62  F   UNL     1      -8.075  10.897   2.102  1.00  0.00    -0.206 F 
ATOM     63  C   UNL     1      -9.977  10.954   0.733  1.00  0.00     0.059 A 
ATOM     64  C   UNL     1      -9.875  12.040  -1.437  1.00  0.00     0.059 A 
ATOM     65  F   UNL     1      -7.860  12.987  -2.171  1.00  0.00    -0.206 F 
ATOM     66  C   UNL     1     -10.583  11.330  -0.467  1.00  0.00     0.060 A 
BRANCH  66  67
ATOM     67  S   UNL     1     -12.311  10.884  -0.738  1.00  0.00     0.124 S 
ATOM     68  O   UNL     1     -12.199   9.459  -1.032  1.00  0.00    -0.237 OA
ATOM     69  O   UNL     1     -12.926  11.220   0.543  1.00  0.00    -0.237 OA
ATOM     70  O   UNL     1     -12.707  11.728  -1.860  1.00  0.00    -0.744 OA
ENDBRANCH  66  67
ENDBRANCH  45  59
BRANCH  46  71
ATOM     71  C   UNL     1       1.923  13.719   1.079  1.00  0.00     0.058 A 
ATOM     72  C   UNL     1       2.478  14.130   2.300  1.00  0.00     0.135 A 
ATOM     73  C   UNL     1       2.793  13.554  -0.010  1.00  0.00     0.135 A 
ATOM     74  F   UNL     1       1.686  14.308   3.369  1.00  0.00    -0.206 F 
ATOM     75  C   UNL     1       3.839  14.383   2.437  1.00  0.00     0.059 A 
ATOM     76  C   UNL     1       4.162  13.778   0.108  1.00  0.00     0.059 A 
ATOM     77  F   UNL     1       2.316  13.143  -1.195  1.00  0.00    -0.206 F 
ATOM     78  C   UNL     1       4.674  14.201   1.334  1.00  0.00     0.060 A 
BRANCH  78  79
ATOM     79  S   UNL     1       6.448  14.480   1.535  1.00  0.00     0.124 S 
ATOM     80  O   UNL     1       6.513  15.937   1.579  1.00  0.00    -0.237 OA
ATOM     81  O   UNL     1       6.728  13.790   2.791  1.00  0.00    -0.237 OA
ATOM     82  O   UNL     1       7.022  13.857   0.346  1.00  0.00    -0.744 OA
ENDBRANCH  78  79
ENDBRANCH  46  71
BRANCH  58  83
ATOM     83  C   UNL     1      -3.759  17.765   1.164  1.00  0.00     0.058 A 
ATOM     84  C   UNL     1      -3.438  18.697   0.167  1.00  0.00     0.135 A 
ATOM     85  C   UNL     1      -4.330  18.242   2.355  1.00  0.00     0.135 A 
ATOM     86  F   UNL     1      -2.885  18.289  -0.987  1.00  0.00    -0.206 F 
ATOM     87  C   UNL     1      -3.659  20.057   0.349  1.00  0.00     0.059 A 
ATOM     88  C   UNL     1      -4.582  19.596   2.550  1.00  0.00     0.059 A 
ATOM     89  F   UNL     1      -4.664  17.388   3.335  1.00  0.00    -0.206 F 
ATOM     90  C   UNL     1      -4.234  20.497   1.544  1.00  0.00     0.060 A 
BRANCH  90  91
ATOM     91  S   UNL     1      -4.554  22.261   1.753  1.00  0.00     0.124 S 
ATOM     92  O   UNL     1      -3.214  22.773   2.018  1.00  0.00    -0.237 OA
ATOM     93  O   UNL     1      -5.131  22.630   0.465  1.00  0.00    -0.237 OA
ATOM     94  O   UNL     1      -5.479  22.306   2.882  1.00  0.00    -0.744 OA
ENDBRANCH  90  91
ENDBRANCH  58  83
ENDBRANCH  32  33
ENDBRANCH  24  27
ENDBRANCH  22  23
ENDBRANCH  21  22
ENDBRANCH   1  21
TORSDOF 17
