REMARK SMILES O=C(NCCCCNC(=O)[C@@H](c1ccccc1)N1C(=O)/C(=C\c2ccc(-c3ccc(F)cc3)o2)SC1=S)c1ccc(-c2c3nc(c(-c4c(F)cc(S(=O)(=O)[O-])cc4F)c4ccc([nH]4)c(-c4c(F)cc(S(=O)(=O)[O-])cc4F)c4nc(c(-c5c(F)cc(S(=O)(=O)[O-])cc5F)c5ccc2[nH]5)C=C4)C=C3)cc1
REMARK SMILES IDX 5 1 4 2 3 3 1 4 2 5 38 7 39 8 103 9 40 10 102 11 41 12 42 13
REMARK SMILES IDX 43 14 96 15 44 16 101 17 95 18 97 19 45 20 100 21 94 22
REMARK SMILES IDX 93 23 46 25 80 26 59 27 79 28 60 29 63 30 78 31 98 32 61 33
REMARK SMILES IDX 62 34 77 36 99 37 64 38 47 39 48 40 57 41 49 42 50 43 56 44
REMARK SMILES IDX 58 45 51 46 52 47 53 48 54 49 55 50 81 51 82 52 91 53 83 54
REMARK SMILES IDX 84 55 90 56 92 57 85 58 86 59 87 60 88 61 89 62 65 63 66 64
REMARK SMILES IDX 75 65 67 66 68 67 74 68 76 69 69 70 70 71 71 72 72 73 73 74
REMARK SMILES IDX 6 75 7 76 8 77 9 78 10 80 11 81 12 82 13 83 17 84 14 85
REMARK SMILES IDX 16 86 15 87 18 88 19 89 36 90 20 91 21 92 35 93 37 94 22 95
REMARK SMILES IDX 23 96 24 97 34 98 25 99 26 100 27 101 28 102 33 103 29 104
REMARK SMILES IDX 32 105 30 106 31 107
REMARK H PARENT 3 6 97 24 63 35 8 79
REMARK Flexibility Score: inf
ROOT
ATOM      1  C   UNL     1       4.781  -2.416  -0.135  1.00  0.00     0.023 C 
ENDROOT
BRANCH   1   2
ATOM      2  C   UNL     1       4.424  -0.939  -0.203  1.00  0.00     0.116 C 
BRANCH   2   3
ATOM      3  N   UNL     1       3.013  -0.686  -0.474  1.00  0.00    -0.352 N 
ATOM      4  O   UNL     1       1.026   0.368  -0.210  1.00  0.00    -0.269 OA
ATOM      5  C   UNL     1       2.225   0.320   0.039  1.00  0.00     0.251 C 
ATOM      6  H   UNL     1       2.572  -1.308  -1.098  1.00  0.00     0.163 HD
BRANCH   5   7
ATOM      7  C   UNL     1       2.856   1.309   0.935  1.00  0.00     0.039 A 
ATOM      8  C   UNL     1       4.037   1.939   0.540  1.00  0.00     0.014 A 
ATOM      9  C   UNL     1       2.337   1.503   2.217  1.00  0.00     0.014 A 
ATOM     10  C   UNL     1       4.796   2.611   1.487  1.00  0.00     0.010 A 
ATOM     11  C   UNL     1       3.058   2.265   3.140  1.00  0.00     0.010 A 
ATOM     12  C   UNL     1       4.319   2.779   2.799  1.00  0.00    -0.014 A 
BRANCH  12  13
ATOM     13  C   UNL     1       5.162   3.509   3.780  1.00  0.00     0.031 A 
ATOM     14  C   UNL     1       5.708   2.824   5.005  1.00  0.00     0.074 A 
ATOM     15  C   UNL     1       5.487   4.790   3.517  1.00  0.00     0.049 A 
ATOM     16  N   UNL     1       6.491   3.308   5.936  1.00  0.00    -0.248 NA
ATOM     17  C   UNL     1       5.321   1.421   5.222  1.00  0.00     0.031 C 
ATOM     18  C   UNL     1       5.010   5.558   2.363  1.00  0.00     0.029 A 
ATOM     19  N   UNL     1       6.318   5.660   4.173  1.00  0.00    -0.354 N 
ATOM     20  C   UNL     1       6.657   2.288   6.867  1.00  0.00     0.074 A 
ATOM     21  C   UNL     1       5.888   1.158   6.393  1.00  0.00     0.031 C 
ATOM     22  C   UNL     1       5.611   6.756   2.353  1.00  0.00     0.029 A 
ATOM     23  C   UNL     1       6.461   6.867   3.532  1.00  0.00     0.049 A 
ATOM     24  H   UNL     1       6.769   5.441   5.020  1.00  0.00     0.167 HD
ATOM     25  C   UNL     1       7.386   2.296   8.010  1.00  0.00     0.037 A 
ATOM     26  C   UNL     1       7.191   7.949   3.858  1.00  0.00     0.037 A 
ATOM     27  C   UNL     1       8.184   3.413   8.452  1.00  0.00     0.049 A 
ATOM     28  C   UNL     1       8.017   7.919   5.109  1.00  0.00     0.074 A 
ATOM     29  C   UNL     1       8.983   3.510   9.579  1.00  0.00     0.029 A 
ATOM     30  N   UNL     1       8.291   4.624   7.784  1.00  0.00    -0.354 N 
ATOM     31  N   UNL     1       8.160   6.944   5.975  1.00  0.00    -0.248 NA
ATOM     32  C   UNL     1       8.773   9.134   5.432  1.00  0.00     0.031 C 
ATOM     33  C   UNL     1       9.551   4.789   9.606  1.00  0.00     0.029 A 
ATOM     34  C   UNL     1       9.135   5.476   8.478  1.00  0.00     0.049 A 
ATOM     35  H   UNL     1       7.834   4.846   6.940  1.00  0.00     0.167 HD
ATOM     36  C   UNL     1       9.033   7.425   6.942  1.00  0.00     0.074 A 
ATOM     37  C   UNL     1       9.398   8.770   6.543  1.00  0.00     0.031 C 
ATOM     38  C   UNL     1       9.486   6.811   8.063  1.00  0.00     0.037 A 
BRANCH  25  39
ATOM     39  C   UNL     1       7.339   1.070   8.881  1.00  0.00     0.058 A 
ATOM     40  C   UNL     1       8.009  -0.114   8.535  1.00  0.00     0.135 A 
ATOM     41  C   UNL     1       6.643   1.095  10.101  1.00  0.00     0.135 A 
ATOM     42  F   UNL     1       8.677  -0.198   7.373  1.00  0.00    -0.206 F 
ATOM     43  C   UNL     1       7.970  -1.238   9.355  1.00  0.00     0.059 A 
ATOM     44  C   UNL     1       6.609  -0.010  10.947  1.00  0.00     0.059 A 
ATOM     45  F   UNL     1       5.986   2.202  10.481  1.00  0.00    -0.206 F 
ATOM     46  C   UNL     1       7.263  -1.178  10.558  1.00  0.00     0.060 A 
BRANCH  46  47
ATOM     47  S   UNL     1       7.215  -2.644  11.612  1.00  0.00     0.124 S 
ATOM     48  O   UNL     1       6.250  -3.479  10.903  1.00  0.00    -0.237 OA
ATOM     49  O   UNL     1       8.599  -3.105  11.574  1.00  0.00    -0.237 OA
ATOM     50  O   UNL     1       6.768  -2.121  12.899  1.00  0.00    -0.744 OA
ENDBRANCH  46  47
ENDBRANCH  25  39
BRANCH  26  51
ATOM     51  C   UNL     1       7.171   9.140   2.972  1.00  0.00     0.058 A 
ATOM     52  C   UNL     1       8.284   9.475   2.188  1.00  0.00     0.135 A 
ATOM     53  C   UNL     1       6.022   9.937   2.855  1.00  0.00     0.135 A 
ATOM     54  F   UNL     1       9.405   8.742   2.268  1.00  0.00    -0.206 F 
ATOM     55  C   UNL     1       8.263  10.562   1.322  1.00  0.00     0.059 A 
ATOM     56  C   UNL     1       5.967  11.014   1.978  1.00  0.00     0.059 A 
ATOM     57  F   UNL     1       4.924   9.643   3.569  1.00  0.00    -0.206 F 
ATOM     58  C   UNL     1       7.097  11.324   1.221  1.00  0.00     0.060 A 
BRANCH  58  59
ATOM     59  S   UNL     1       7.048  12.692   0.044  1.00  0.00     0.124 S 
ATOM     60  O   UNL     1       7.779  13.726   0.768  1.00  0.00    -0.237 OA
ATOM     61  O   UNL     1       7.725  12.126  -1.119  1.00  0.00    -0.237 OA
ATOM     62  O   UNL     1       5.618  12.930  -0.130  1.00  0.00    -0.744 OA
ENDBRANCH  58  59
ENDBRANCH  26  51
BRANCH  38  63
ATOM     63  C   UNL     1      10.448   7.585   8.916  1.00  0.00     0.058 A 
ATOM     64  C   UNL     1      10.017   8.641   9.734  1.00  0.00     0.135 A 
ATOM     65  C   UNL     1      11.813   7.259   8.922  1.00  0.00     0.135 A 
ATOM     66  F   UNL     1       8.723   8.995   9.755  1.00  0.00    -0.206 F 
ATOM     67  C   UNL     1      10.914   9.370  10.508  1.00  0.00     0.059 A 
ATOM     68  C   UNL     1      12.724   7.960   9.705  1.00  0.00     0.059 A 
ATOM     69  F   UNL     1      12.271   6.252   8.163  1.00  0.00    -0.206 F 
ATOM     70  C   UNL     1      12.267   9.025  10.482  1.00  0.00     0.060 A 
BRANCH  70  71
ATOM     71  S   UNL     1      13.425   9.970  11.493  1.00  0.00     0.124 S 
ATOM     72  O   UNL     1      13.611  11.169  10.681  1.00  0.00    -0.237 OA
ATOM     73  O   UNL     1      12.683  10.155  12.736  1.00  0.00    -0.237 OA
ATOM     74  O   UNL     1      14.585   9.089  11.589  1.00  0.00    -0.744 OA
ENDBRANCH  70  71
ENDBRANCH  38  63
ENDBRANCH  12  13
ENDBRANCH   5   7
ENDBRANCH   2   3
ENDBRANCH   1   2
BRANCH   1  75
ATOM     75  C   UNL     1       4.447  -3.215  -1.391  1.00  0.00     0.023 C 
BRANCH  75  76
ATOM     76  C   UNL     1       5.176  -2.752  -2.651  1.00  0.00     0.116 C 
BRANCH  76  77
ATOM     77  N   UNL     1       6.541  -3.232  -2.674  1.00  0.00    -0.354 N 
ATOM     78  C   UNL     1       7.133  -4.216  -3.412  1.00  0.00     0.247 C 
ATOM     79  H   UNL     1       7.146  -2.771  -2.049  1.00  0.00     0.163 HD
ATOM     80  O   UNL     1       8.287  -4.530  -3.094  1.00  0.00    -0.272 OA
BRANCH  78  81
ATOM     81  C   UNL     1       6.384  -5.030  -4.516  1.00  0.00     0.211 C 
BRANCH  81  82
ATOM     82  C   UNL     1       5.635  -6.162  -3.780  1.00  0.00    -0.016 A 
ATOM     83  C   UNL     1       4.333  -6.013  -3.270  1.00  0.00     0.006 A 
ATOM     84  C   UNL     1       6.301  -7.376  -3.538  1.00  0.00     0.006 A 
ATOM     85  C   UNL     1       3.740  -7.016  -2.500  1.00  0.00     0.000 A 
ATOM     86  C   UNL     1       5.695  -8.390  -2.791  1.00  0.00     0.000 A 
ATOM     87  C   UNL     1       4.423  -8.203  -2.258  1.00  0.00     0.000 A 
ENDBRANCH  81  82
BRANCH  81  88
ATOM     88  N   UNL     1       5.574  -4.278  -5.510  1.00  0.00    -0.276 N 
ATOM     89  C   UNL     1       4.724  -5.004  -6.335  1.00  0.00     0.267 C 
ATOM     90  C   UNL     1       5.934  -3.068  -6.072  1.00  0.00     0.149 C 
ATOM     91  O   UNL     1       4.649  -6.223  -6.383  1.00  0.00    -0.268 OA
ATOM     92  C   UNL     1       4.019  -4.114  -7.301  1.00  0.00     0.084 C 
ATOM     93  S   UNL     1       4.672  -2.531  -7.182  1.00  0.00    -0.054 SA
ATOM     94  S   UNL     1       7.307  -2.145  -5.867  1.00  0.00    -0.052 S 
ATOM     95  C   UNL     1       3.088  -4.454  -8.202  1.00  0.00     0.068 C 
BRANCH  95  96
ATOM     96  C   UNL     1       2.629  -5.785  -8.349  1.00  0.00     0.128 A 
ATOM     97  C   UNL     1       1.780  -6.530  -7.540  1.00  0.00     0.051 A 
ATOM     98  O   UNL     1       3.024  -6.585  -9.393  1.00  0.00    -0.457 OA
ATOM     99  C   UNL     1       1.687  -7.828  -8.096  1.00  0.00     0.051 A 
ATOM    100  C   UNL     1       2.482  -7.822  -9.219  1.00  0.00     0.134 A 
BRANCH 100 101
ATOM    101  C   UNL     1       2.846  -8.821 -10.209  1.00  0.00     0.017 A 
ATOM    102  C   UNL     1       4.170  -8.925 -10.664  1.00  0.00     0.015 A 
ATOM    103  C   UNL     1       1.882  -9.710 -10.706  1.00  0.00     0.015 A 
ATOM    104  C   UNL     1       4.525  -9.903 -11.595  1.00  0.00     0.040 A 
ATOM    105  C   UNL     1       2.235 -10.681 -11.646  1.00  0.00     0.040 A 
ATOM    106  C   UNL     1       3.553 -10.770 -12.079  1.00  0.00     0.123 A 
ATOM    107  F   UNL     1       3.890 -11.706 -12.976  1.00  0.00    -0.207 F 
ENDBRANCH 100 101
ENDBRANCH  95  96
ENDBRANCH  81  88
ENDBRANCH  78  81
ENDBRANCH  76  77
ENDBRANCH  75  76
ENDBRANCH   1  75
TORSDOF 18
