REMARK SMILES CC1=C(C)C[C@@H](C(=O)NCCCCNC(=O)c2ccc(-c3c4nc(c(-c5c(F)cc(S(=O)(=O)[O-])cc5F)c5ccc([nH]5)c(-c5c(F)cc(S(=O)(=O)[O-])cc5F)c5nc(c(-c6c(F)cc(S(=O)(=O)[O-])cc6F)c6ccc3[nH]6)C=C5)C=C4)cc2)[C@@H](C(=O)NCC[NH+]2CCOCC2)C1
REMARK SMILES IDX 11 1 10 2 9 3 7 4 8 5 6 7 1 8 2 9 3 10 95 11 4 12 5 13 83 14
REMARK SMILES IDX 84 15 85 16 86 17 87 19 88 20 89 21 90 22 94 23 91 25 93 26
REMARK SMILES IDX 92 27 12 28 13 29 14 30 15 31 16 33 17 34 18 35 82 36 19 37
REMARK SMILES IDX 81 38 20 39 21 40 22 41 75 42 23 43 80 44 74 45 76 46 24 47
REMARK SMILES IDX 79 48 73 49 72 50 25 52 59 53 38 54 58 55 39 56 42 57 57 58
REMARK SMILES IDX 77 59 40 60 41 61 56 63 78 64 43 65 26 66 27 67 36 68 28 69
REMARK SMILES IDX 29 70 35 71 37 72 30 73 31 74 32 75 33 76 34 77 60 78 61 79
REMARK SMILES IDX 70 80 62 81 63 82 69 83 71 84 64 85 65 86 66 87 67 88 68 89
REMARK SMILES IDX 44 90 45 91 54 92 46 93 47 94 53 95 55 96 48 97 49 98 50 99
REMARK SMILES IDX 51 100 52 101
REMARK H PARENT 9 6 86 18 89 24 14 32 76 51 42 62
REMARK Flexibility Score: inf
ROOT
ATOM      1  C   UNL     1      -3.108  -1.478  -1.006  1.00  0.00     0.023 C 
ENDROOT
BRANCH   1   2
ATOM      2  C   UNL     1      -2.040  -2.530  -1.229  1.00  0.00     0.116 C 
BRANCH   2   3
ATOM      3  N   UNL     1      -2.141  -3.151  -2.527  1.00  0.00    -0.356 N 
ATOM      4  C   UNL     1      -1.236  -3.227  -3.538  1.00  0.00     0.224 C 
ATOM      5  O   UNL     1      -1.531  -3.939  -4.503  1.00  0.00    -0.275 OA
ATOM      6  H   UNL     1      -3.004  -3.588  -2.710  1.00  0.00     0.163 HD
BRANCH   4   7
ATOM      7  C   UNL     1       0.134  -2.538  -3.483  1.00  0.00     0.095 C 
ATOM      8  C   UNL     1       1.518   0.065  -0.193  1.00  0.00     0.039 C 
ATOM      9  C   UNL     1       1.299  -0.899  -1.324  1.00  0.00    -0.074 C 
ATOM     10  C   UNL     1       1.293  -2.242  -1.183  1.00  0.00    -0.074 C 
ATOM     11  C   UNL     1       1.168  -0.300  -2.702  1.00  0.00     0.045 C 
ATOM     12  C   UNL     1       1.553  -2.980   0.104  1.00  0.00     0.039 C 
ATOM     13  C   UNL     1       1.018  -3.139  -2.370  1.00  0.00     0.045 C 
ATOM     14  C   UNL     1       0.175  -0.993  -3.634  1.00  0.00     0.095 C 
BRANCH  14  15
ATOM     15  C   UNL     1      -1.171  -0.340  -3.971  1.00  0.00     0.224 C 
ATOM     16  O   UNL     1      -1.795  -0.760  -4.956  1.00  0.00    -0.275 OA
ATOM     17  N   UNL     1      -1.748   0.717  -3.367  1.00  0.00    -0.350 N 
ATOM     18  H   UNL     1      -2.501   1.065  -3.897  1.00  0.00     0.163 HD
BRANCH  17  19
ATOM     19  C   UNL     1      -1.562   1.482  -2.145  1.00  0.00     0.177 C 
BRANCH  19  20
ATOM     20  C   UNL     1      -2.426   2.768  -2.114  1.00  0.00     0.283 C 
BRANCH  20  21
ATOM     21  N   UNL     1      -3.819   2.677  -2.502  1.00  0.00    -0.330 N 
ATOM     22  C   UNL     1      -4.740   1.702  -1.942  1.00  0.00     0.291 C 
ATOM     23  C   UNL     1      -4.301   3.336  -3.708  1.00  0.00     0.291 C 
ATOM     24  H   UNL     1      -3.807   3.356  -1.741  1.00  0.00     0.348 HD
ATOM     25  C   UNL     1      -5.321   0.764  -3.021  1.00  0.00     0.221 C 
ATOM     26  C   UNL     1      -4.834   2.323  -4.730  1.00  0.00     0.221 C 
ATOM     27  O   UNL     1      -5.838   1.487  -4.145  1.00  0.00    -0.370 OA
ENDBRANCH  20  21
ENDBRANCH  19  20
ENDBRANCH  17  19
ENDBRANCH  14  15
ENDBRANCH   4   7
ENDBRANCH   2   3
ENDBRANCH   1   2
BRANCH   1  28
ATOM     28  C   UNL     1      -4.476  -2.015  -0.635  1.00  0.00     0.023 C 
BRANCH  28  29
ATOM     29  C   UNL     1      -4.506  -2.663   0.738  1.00  0.00     0.116 C 
BRANCH  29  30
ATOM     30  N   UNL     1      -4.229  -1.717   1.817  1.00  0.00    -0.352 N 
ATOM     31  C   UNL     1      -5.063  -1.157   2.762  1.00  0.00     0.251 C 
ATOM     32  H   UNL     1      -3.288  -1.432   1.881  1.00  0.00     0.163 HD
ATOM     33  O   UNL     1      -4.657  -0.242   3.464  1.00  0.00    -0.269 OA
BRANCH  31  34
ATOM     34  C   UNL     1      -6.452  -1.648   2.895  1.00  0.00     0.039 A 
ATOM     35  C   UNL     1      -7.493  -0.744   3.121  1.00  0.00     0.014 A 
ATOM     36  C   UNL     1      -6.729  -3.005   2.760  1.00  0.00     0.014 A 
ATOM     37  C   UNL     1      -8.816  -1.200   3.107  1.00  0.00     0.010 A 
ATOM     38  C   UNL     1      -8.036  -3.423   2.578  1.00  0.00     0.010 A 
ATOM     39  C   UNL     1      -9.100  -2.536   2.778  1.00  0.00    -0.014 A 
BRANCH  39  40
ATOM     40  C   UNL     1     -10.487  -3.062   2.676  1.00  0.00     0.031 A 
ATOM     41  C   UNL     1     -10.885  -4.265   3.498  1.00  0.00     0.074 A 
ATOM     42  C   UNL     1     -11.346  -2.542   1.778  1.00  0.00     0.049 A 
ATOM     43  N   UNL     1     -11.976  -4.983   3.444  1.00  0.00    -0.248 NA
ATOM     44  C   UNL     1      -9.892  -4.765   4.464  1.00  0.00     0.031 C 
ATOM     45  C   UNL     1     -11.062  -1.423   0.876  1.00  0.00     0.029 A 
ATOM     46  N   UNL     1     -12.636  -2.892   1.471  1.00  0.00    -0.354 N 
ATOM     47  C   UNL     1     -11.773  -6.043   4.321  1.00  0.00     0.074 A 
ATOM     48  C   UNL     1     -10.428  -5.917   4.833  1.00  0.00     0.031 C 
ATOM     49  C   UNL     1     -12.163  -1.143   0.160  1.00  0.00     0.029 A 
ATOM     50  C   UNL     1     -13.213  -2.092   0.514  1.00  0.00     0.049 A 
ATOM     51  H   UNL     1     -13.105  -3.646   1.897  1.00  0.00     0.167 HD
ATOM     52  C   UNL     1     -12.639  -7.013   4.700  1.00  0.00     0.037 A 
ATOM     53  C   UNL     1     -14.453  -2.117  -0.011  1.00  0.00     0.037 A 
ATOM     54  C   UNL     1     -14.001  -7.081   4.245  1.00  0.00     0.049 A 
ATOM     55  C   UNL     1     -15.420  -3.169   0.458  1.00  0.00     0.074 A 
ATOM     56  C   UNL     1     -14.998  -7.956   4.634  1.00  0.00     0.029 A 
ATOM     57  N   UNL     1     -14.559  -6.226   3.305  1.00  0.00    -0.354 N 
ATOM     58  N   UNL     1     -15.234  -4.128   1.334  1.00  0.00    -0.248 NA
ATOM     59  C   UNL     1     -16.765  -3.142  -0.131  1.00  0.00     0.031 C 
ATOM     60  C   UNL     1     -16.153  -7.649   3.905  1.00  0.00     0.029 A 
ATOM     61  C   UNL     1     -15.885  -6.559   3.091  1.00  0.00     0.049 A 
ATOM     62  H   UNL     1     -14.083  -5.490   2.857  1.00  0.00     0.167 HD
ATOM     63  C   UNL     1     -16.446  -4.803   1.422  1.00  0.00     0.074 A 
ATOM     64  C   UNL     1     -17.359  -4.136   0.514  1.00  0.00     0.031 C 
ATOM     65  C   UNL     1     -16.776  -5.874   2.186  1.00  0.00     0.037 A 
BRANCH  52  66
ATOM     66  C   UNL     1     -12.127  -8.059   5.656  1.00  0.00     0.058 A 
ATOM     67  C   UNL     1     -11.775  -7.745   6.980  1.00  0.00     0.135 A 
ATOM     68  C   UNL     1     -11.948  -9.385   5.232  1.00  0.00     0.135 A 
ATOM     69  F   UNL     1     -11.913  -6.489   7.437  1.00  0.00    -0.206 F 
ATOM     70  C   UNL     1     -11.199  -8.687   7.825  1.00  0.00     0.059 A 
ATOM     71  C   UNL     1     -11.406 -10.354   6.073  1.00  0.00     0.059 A 
ATOM     72  F   UNL     1     -12.273  -9.747   3.981  1.00  0.00    -0.206 F 
ATOM     73  C   UNL     1     -11.006  -9.987   7.357  1.00  0.00     0.060 A 
BRANCH  73  74
ATOM     74  S   UNL     1     -10.207 -11.187   8.443  1.00  0.00     0.124 S 
ATOM     75  O   UNL     1      -8.809 -10.778   8.345  1.00  0.00    -0.237 OA
ATOM     76  O   UNL     1     -10.852 -10.929   9.727  1.00  0.00    -0.237 OA
ATOM     77  O   UNL     1     -10.531 -12.470   7.828  1.00  0.00    -0.744 OA
ENDBRANCH  73  74
ENDBRANCH  52  66
BRANCH  53  78
ATOM     78  C   UNL     1     -14.866  -1.066  -0.978  1.00  0.00     0.058 A 
ATOM     79  C   UNL     1     -15.735  -0.041  -0.578  1.00  0.00     0.135 A 
ATOM     80  C   UNL     1     -14.368  -1.026  -2.289  1.00  0.00     0.135 A 
ATOM     81  F   UNL     1     -16.241  -0.038   0.665  1.00  0.00    -0.206 F 
ATOM     82  C   UNL     1     -16.098   0.987  -1.441  1.00  0.00     0.059 A 
ATOM     83  C   UNL     1     -14.700   0.004  -3.166  1.00  0.00     0.059 A 
ATOM     84  F   UNL     1     -13.520  -1.975  -2.715  1.00  0.00    -0.206 F 
ATOM     85  C   UNL     1     -15.569   1.005  -2.732  1.00  0.00     0.060 A 
BRANCH  85  86
ATOM     86  S   UNL     1     -15.988   2.390  -3.814  1.00  0.00     0.124 S 
ATOM     87  O   UNL     1     -17.381   2.102  -4.134  1.00  0.00    -0.237 OA
ATOM     88  O   UNL     1     -15.757   3.538  -2.944  1.00  0.00    -0.237 OA
ATOM     89  O   UNL     1     -15.044   2.250  -4.919  1.00  0.00    -0.744 OA
ENDBRANCH  85  86
ENDBRANCH  53  78
BRANCH  65  90
ATOM     90  C   UNL     1     -18.190  -6.372   2.099  1.00  0.00     0.058 A 
ATOM     91  C   UNL     1     -18.649  -7.093   0.987  1.00  0.00     0.135 A 
ATOM     92  C   UNL     1     -19.077  -6.175   3.170  1.00  0.00     0.135 A 
ATOM     93  F   UNL     1     -17.840  -7.301  -0.064  1.00  0.00    -0.206 F 
ATOM     94  C   UNL     1     -19.948  -7.586   0.929  1.00  0.00     0.059 A 
ATOM     95  C   UNL     1     -20.372  -6.681   3.144  1.00  0.00     0.059 A 
ATOM     96  F   UNL     1     -18.681  -5.501   4.261  1.00  0.00    -0.206 F 
ATOM     97  C   UNL     1     -20.802  -7.376   2.015  1.00  0.00     0.060 A 
BRANCH  97  98
ATOM     98  S   UNL     1     -22.472  -8.056   1.946  1.00  0.00     0.124 S 
ATOM     99  O   UNL     1     -23.128  -7.131   1.029  1.00  0.00    -0.237 OA
ATOM    100  O   UNL     1     -22.242  -9.403   1.432  1.00  0.00    -0.237 OA
ATOM    101  O   UNL     1     -22.922  -7.991   3.334  1.00  0.00    -0.744 OA
ENDBRANCH  97  98
ENDBRANCH  65  90
ENDBRANCH  39  40
ENDBRANCH  31  34
ENDBRANCH  29  30
ENDBRANCH  28  29
ENDBRANCH   1  28
TORSDOF 18
