REMARK SMILES O=C(NCCCCNC(=O)c1ccccc1Nc1nc(Cl)nc(Nc2ccc(N3CCOCC3=O)cc2)n1)c1ccc(-c2c3nc(c(-c4c(F)cc(S(=O)(=O)[O-])cc4F)c4ccc([nH]4)c(-c4c(F)cc(S(=O)(=O)[O-])cc4F)c4nc(c(-c5c(F)cc(S(=O)(=O)[O-])cc5F)c5ccc2[nH]5)C=C4)C=C3)cc1
REMARK SMILES IDX 6 1 5 2 4 3 3 4 1 5 2 6 39 8 40 9 104 10 41 11 103 12 42 13
REMARK SMILES IDX 43 14 44 15 97 16 45 17 102 18 96 19 98 20 46 21 101 22
REMARK SMILES IDX 95 23 94 24 47 26 81 27 60 28 80 29 61 30 64 31 79 32 99 33
REMARK SMILES IDX 62 34 63 35 78 37 100 38 65 39 48 40 49 41 58 42 50 43 51 44
REMARK SMILES IDX 57 45 59 46 52 47 53 48 54 49 55 50 56 51 82 52 83 53 92 54
REMARK SMILES IDX 84 55 85 56 91 57 93 58 86 59 87 60 88 61 89 62 90 63 66 64
REMARK SMILES IDX 67 65 76 66 68 67 69 68 75 69 77 70 70 71 71 72 72 73 73 74
REMARK SMILES IDX 74 75 7 76 8 77 9 78 10 80 11 81 12 82 16 83 13 84 15 85
REMARK SMILES IDX 14 86 17 87 18 89 19 90 38 91 20 92 23 93 21 94 22 95 24 96
REMARK SMILES IDX 25 98 26 99 37 100 27 101 36 102 28 103 29 104 30 105 34 106
REMARK SMILES IDX 31 107 33 108 35 109 32 110
REMARK H PARENT 3 7 98 25 64 36 8 79 17 88 24 97
REMARK Flexibility Score: inf
ROOT
ATOM      1  C   UNL     1       4.404   1.827  -3.621  1.00  0.00     0.023 C 
ENDROOT
BRANCH   1   2
ATOM      2  C   UNL     1       4.894   0.693  -2.725  1.00  0.00     0.023 C 
BRANCH   2   3
ATOM      3  C   UNL     1       4.575   0.839  -1.244  1.00  0.00     0.116 C 
BRANCH   3   4
ATOM      4  N   UNL     1       3.149   0.827  -0.953  1.00  0.00    -0.352 N 
ATOM      5  O   UNL     1       1.221   0.077  -0.050  1.00  0.00    -0.269 OA
ATOM      6  C   UNL     1       2.447   0.024  -0.082  1.00  0.00     0.251 C 
ATOM      7  H   UNL     1       2.611   1.484  -1.449  1.00  0.00     0.163 HD
BRANCH   6   8
ATOM      8  C   UNL     1       3.175  -0.928   0.789  1.00  0.00     0.039 A 
ATOM      9  C   UNL     1       4.323  -0.527   1.471  1.00  0.00     0.014 A 
ATOM     10  C   UNL     1       2.718  -2.246   0.902  1.00  0.00     0.014 A 
ATOM     11  C   UNL     1       5.108  -1.476   2.114  1.00  0.00     0.010 A 
ATOM     12  C   UNL     1       3.459  -3.180   1.637  1.00  0.00     0.010 A 
ATOM     13  C   UNL     1       4.683  -2.812   2.215  1.00  0.00    -0.014 A 
BRANCH  13  14
ATOM     14  C   UNL     1       5.522  -3.768   2.985  1.00  0.00     0.031 A 
ATOM     15  C   UNL     1       6.187  -4.947   2.326  1.00  0.00     0.074 A 
ATOM     16  C   UNL     1       5.744  -3.510   4.290  1.00  0.00     0.049 A 
ATOM     17  N   UNL     1       7.017  -5.817   2.846  1.00  0.00    -0.248 NA
ATOM     18  C   UNL     1       5.881  -5.190   0.908  1.00  0.00     0.031 C 
ATOM     19  C   UNL     1       5.128  -2.413   5.045  1.00  0.00     0.029 A 
ATOM     20  N   UNL     1       6.568  -4.115   5.202  1.00  0.00    -0.354 N 
ATOM     21  C   UNL     1       7.323  -6.714   1.829  1.00  0.00     0.074 A 
ATOM     22  C   UNL     1       6.568  -6.300   0.665  1.00  0.00     0.031 C 
ATOM     23  C   UNL     1       5.645  -2.383   6.281  1.00  0.00     0.029 A 
ATOM     24  C   UNL     1       6.583  -3.490   6.427  1.00  0.00     0.049 A 
ATOM     25  H   UNL     1       7.098  -4.920   5.000  1.00  0.00     0.167 HD
ATOM     26  C   UNL     1       8.162  -7.778   1.863  1.00  0.00     0.037 A 
ATOM     27  C   UNL     1       7.270  -3.775   7.548  1.00  0.00     0.037 A 
ATOM     28  C   UNL     1       8.922  -8.177   3.022  1.00  0.00     0.049 A 
ATOM     29  C   UNL     1       8.212  -4.942   7.547  1.00  0.00     0.074 A 
ATOM     30  C   UNL     1       9.803  -9.238   3.153  1.00  0.00     0.029 A 
ATOM     31  N   UNL     1       8.899  -7.528   4.248  1.00  0.00    -0.354 N 
ATOM     32  N   UNL     1       8.490  -5.772   6.571  1.00  0.00    -0.248 NA
ATOM     33  C   UNL     1       8.931  -5.213   8.798  1.00  0.00     0.031 C 
ATOM     34  C   UNL     1      10.292  -9.245   4.465  1.00  0.00     0.029 A 
ATOM     35  C   UNL     1       9.743  -8.168   5.141  1.00  0.00     0.049 A 
ATOM     36  H   UNL     1       8.361  -6.729   4.453  1.00  0.00     0.167 HD
ATOM     37  C   UNL     1       9.411  -6.671   7.092  1.00  0.00     0.074 A 
ATOM     38  C   UNL     1       9.672  -6.258   8.456  1.00  0.00     0.031 C 
ATOM     39  C   UNL     1       9.978  -7.751   6.500  1.00  0.00     0.037 A 
BRANCH  26  40
ATOM     40  C   UNL     1       8.311  -8.597   0.609  1.00  0.00     0.058 A 
ATOM     41  C   UNL     1       9.052  -8.131  -0.488  1.00  0.00     0.135 A 
ATOM     42  C   UNL     1       7.768  -9.890   0.529  1.00  0.00     0.135 A 
ATOM     43  F   UNL     1       9.580  -6.897  -0.471  1.00  0.00    -0.206 F 
ATOM     44  C   UNL     1       9.240  -8.912  -1.625  1.00  0.00     0.059 A 
ATOM     45  C   UNL     1       7.960 -10.697  -0.590  1.00  0.00     0.059 A 
ATOM     46  F   UNL     1       7.051 -10.386   1.550  1.00  0.00    -0.206 F 
ATOM     47  C   UNL     1       8.692 -10.196  -1.666  1.00  0.00     0.060 A 
BRANCH  47  48
ATOM     48  S   UNL     1       8.966 -11.207  -3.137  1.00  0.00     0.124 S 
ATOM     49  O   UNL     1       8.067 -10.575  -4.096  1.00  0.00    -0.237 OA
ATOM     50  O   UNL     1      10.392 -11.017  -3.386  1.00  0.00    -0.237 OA
ATOM     51  O   UNL     1       8.582 -12.547  -2.705  1.00  0.00    -0.744 OA
ENDBRANCH  47  48
ENDBRANCH  26  40
BRANCH  27  52
ATOM     52  C   UNL     1       7.073  -2.943   8.763  1.00  0.00     0.058 A 
ATOM     53  C   UNL     1       8.078  -2.083   9.227  1.00  0.00     0.135 A 
ATOM     54  C   UNL     1       5.861  -2.978   9.469  1.00  0.00     0.135 A 
ATOM     55  F   UNL     1       9.255  -2.017   8.585  1.00  0.00    -0.206 F 
ATOM     56  C   UNL     1       7.895  -1.297  10.360  1.00  0.00     0.059 A 
ATOM     57  C   UNL     1       5.644  -2.182  10.587  1.00  0.00     0.059 A 
ATOM     58  F   UNL     1       4.861  -3.771   9.051  1.00  0.00    -0.206 F 
ATOM     59  C   UNL     1       6.673  -1.354  11.033  1.00  0.00     0.060 A 
BRANCH  59  60
ATOM     60  S   UNL     1       6.417  -0.298  12.475  1.00  0.00     0.124 S 
ATOM     61  O   UNL     1       7.104  -1.055  13.515  1.00  0.00    -0.237 OA
ATOM     62  O   UNL     1       7.056   0.949  12.066  1.00  0.00    -0.237 OA
ATOM     63  O   UNL     1       4.963  -0.239  12.589  1.00  0.00    -0.744 OA
ENDBRANCH  59  60
ENDBRANCH  27  52
BRANCH  39  64
ATOM     64  C   UNL     1      10.931  -8.553   7.338  1.00  0.00     0.058 A 
ATOM     65  C   UNL     1      10.470  -9.392   8.365  1.00  0.00     0.135 A 
ATOM     66  C   UNL     1      12.315  -8.481   7.116  1.00  0.00     0.135 A 
ATOM     67  F   UNL     1       9.156  -9.488   8.620  1.00  0.00    -0.206 F 
ATOM     68  C   UNL     1      11.352 -10.103   9.171  1.00  0.00     0.059 A 
ATOM     69  C   UNL     1      13.214  -9.202   7.896  1.00  0.00     0.059 A 
ATOM     70  F   UNL     1      12.804  -7.701   6.140  1.00  0.00    -0.206 F 
ATOM     71  C   UNL     1      12.724  -9.995   8.934  1.00  0.00     0.060 A 
BRANCH  71  72
ATOM     72  S   UNL     1      13.863 -10.915   9.989  1.00  0.00     0.124 S 
ATOM     73  O   UNL     1      13.892 -10.080  11.186  1.00  0.00    -0.237 OA
ATOM     74  O   UNL     1      13.193 -12.204  10.131  1.00  0.00    -0.237 OA
ATOM     75  O   UNL     1      15.098 -10.940   9.210  1.00  0.00    -0.744 OA
ENDBRANCH  71  72
ENDBRANCH  39  64
ENDBRANCH  13  14
ENDBRANCH   6   8
ENDBRANCH   3   4
ENDBRANCH   2   3
ENDBRANCH   1   2
BRANCH   1  76
ATOM     76  C   UNL     1       4.771   3.236  -3.163  1.00  0.00     0.116 C 
BRANCH  76  77
ATOM     77  N   UNL     1       6.203   3.431  -2.986  1.00  0.00    -0.352 N 
ATOM     78  C   UNL     1       7.006   4.414  -3.509  1.00  0.00     0.253 C 
ATOM     79  H   UNL     1       6.656   2.769  -2.415  1.00  0.00     0.163 HD
ATOM     80  O   UNL     1       8.207   4.448  -3.257  1.00  0.00    -0.269 OA
BRANCH  78  81
ATOM     81  C   UNL     1       6.428   5.422  -4.416  1.00  0.00     0.063 A 
ATOM     82  C   UNL     1       6.875   5.400  -5.745  1.00  0.00     0.016 A 
ATOM     83  C   UNL     1       5.457   6.344  -3.983  1.00  0.00     0.054 A 
ATOM     84  C   UNL     1       6.309   6.261  -6.680  1.00  0.00     0.001 A 
ATOM     85  C   UNL     1       4.867   7.163  -4.959  1.00  0.00     0.027 A 
ATOM     86  C   UNL     1       5.293   7.129  -6.291  1.00  0.00     0.002 A 
BRANCH  83  87
ATOM     87  N   UNL     1       5.069   6.427  -2.636  1.00  0.00    -0.323 N 
ATOM     88  H   UNL     1       5.755   6.146  -1.988  1.00  0.00     0.170 HD
BRANCH  87  89
ATOM     89  C   UNL     1       3.867   6.844  -2.077  1.00  0.00     0.233 A 
ATOM     90  N   UNL     1       2.731   6.601  -2.710  1.00  0.00    -0.182 NA
ATOM     91  N   UNL     1       3.947   7.475  -0.910  1.00  0.00    -0.176 NA
ATOM     92  C   UNL     1       1.661   7.021  -2.059  1.00  0.00     0.228 A 
ATOM     93  C   UNL     1       2.807   7.926  -0.393  1.00  0.00     0.233 A 
ATOM     94  Cl  UNL     1       0.159   6.724  -2.817  1.00  0.00    -0.041 Cl
ATOM     95  N   UNL     1       1.617   7.694  -0.924  1.00  0.00    -0.182 NA
BRANCH  93  96
ATOM     96  N   UNL     1       2.938   8.794   0.688  1.00  0.00    -0.324 N 
ATOM     97  H   UNL     1       3.856   8.922   1.020  1.00  0.00     0.170 HD
BRANCH  96  98
ATOM     98  C   UNL     1       1.948   9.509   1.365  1.00  0.00     0.041 A 
ATOM     99  C   UNL     1       2.053  10.899   1.477  1.00  0.00     0.028 A 
ATOM    100  C   UNL     1       0.797   8.889   1.855  1.00  0.00     0.028 A 
ATOM    101  C   UNL     1       1.020  11.654   2.047  1.00  0.00     0.028 A 
ATOM    102  C   UNL     1      -0.209   9.633   2.479  1.00  0.00     0.028 A 
ATOM    103  C   UNL     1      -0.118  11.026   2.563  1.00  0.00     0.044 A 
BRANCH 103 104
ATOM    104  N   UNL     1      -1.187  11.795   3.113  1.00  0.00    -0.308 N 
ATOM    105  C   UNL     1      -1.724  12.877   2.279  1.00  0.00     0.154 C 
ATOM    106  C   UNL     1      -1.900  11.344   4.231  1.00  0.00     0.253 C 
ATOM    107  C   UNL     1      -2.643  13.825   3.038  1.00  0.00     0.183 C 
ATOM    108  C   UNL     1      -3.101  12.210   4.646  1.00  0.00     0.260 C 
ATOM    109  O   UNL     1      -1.569  10.388   4.935  1.00  0.00    -0.272 OA
ATOM    110  O   UNL     1      -3.671  13.076   3.678  1.00  0.00    -0.370 OA
ENDBRANCH 103 104
ENDBRANCH  96  98
ENDBRANCH  93  96
ENDBRANCH  87  89
ENDBRANCH  83  87
ENDBRANCH  78  81
ENDBRANCH  76  77
ENDBRANCH   1  76
TORSDOF 19
