REMARK SMILES COc1cccc(-c2c(C(=O)NCCCCNC(=O)c3ccc(-c4c5nc(c(-c6c(F)cc(S(=O)(=O)[O-])cc6F)c6ccc([nH]6)c(-c6c(F)cc(S(=O)(=O)[O-])cc6F)c6nc(c(-c7c(F)cc(S(=O)(=O)[O-])cc7F)c7ccc4[nH]7)C=C6)C=C5)cc3)nnn2Cc2ccc(OC(F)(F)F)cc2)c1
REMARK SMILES IDX 14 1 13 2 12 3 10 4 11 5 9 7 8 8 88 9 86 10 87 11 7 12 3 13
REMARK SMILES IDX 4 14 101 15 5 16 6 17 2 18 1 19 89 20 90 21 91 22 100 23
REMARK SMILES IDX 92 24 99 25 93 26 94 27 95 28 96 29 97 30 98 31 15 32 16 33
REMARK SMILES IDX 17 34 18 35 19 37 20 38 21 39 85 40 22 41 84 42 23 43 24 44
REMARK SMILES IDX 25 45 78 46 26 47 83 48 77 49 79 50 27 51 82 52 76 53 75 54
REMARK SMILES IDX 28 56 62 57 41 58 61 59 42 60 45 61 60 62 80 63 43 64 44 65
REMARK SMILES IDX 59 67 81 68 46 69 29 70 30 71 39 72 31 73 32 74 38 75 40 76
REMARK SMILES IDX 33 77 34 78 35 79 36 80 37 81 63 82 64 83 73 84 65 85 66 86
REMARK SMILES IDX 72 87 74 88 67 89 68 90 69 91 70 92 71 93 47 94 48 95 57 96
REMARK SMILES IDX 49 97 50 98 56 99 58 100 51 101 52 102 53 103 54 104 55 105
REMARK H PARENT 12 6 17 36 79 55 45 66
REMARK Flexibility Score: inf
ROOT
ATOM      1  C   UNL     1       1.138   0.251   4.964  1.00  0.00     0.023 C 
ENDROOT
BRANCH   1   2
ATOM      2  C   UNL     1       1.693   1.657   5.165  1.00  0.00     0.116 C 
BRANCH   2   3
ATOM      3  N   UNL     1       2.909   1.753   5.923  1.00  0.00    -0.351 N 
ATOM      4  C   UNL     1       4.190   2.135   5.591  1.00  0.00     0.274 C 
ATOM      5  O   UNL     1       4.974   2.109   6.546  1.00  0.00    -0.267 OA
ATOM      6  H   UNL     1       2.806   1.494   6.868  1.00  0.00     0.163 HD
BRANCH   4   7
ATOM      7  C   UNL     1       4.686   2.484   4.244  1.00  0.00     0.178 A 
ATOM      8  C   UNL     1       4.142   2.890   3.016  1.00  0.00     0.102 A 
ATOM      9  N   UNL     1       5.251   3.035   2.202  1.00  0.00    -0.239 N 
ATOM     10  N   UNL     1       6.062   2.384   4.072  1.00  0.00    -0.124 NA
ATOM     11  N   UNL     1       6.375   2.656   2.822  1.00  0.00    -0.066 NA
BRANCH   8  12
ATOM     12  C   UNL     1       2.796   3.089   2.492  1.00  0.00     0.006 A 
ATOM     13  C   UNL     1       0.941   2.182   1.194  1.00  0.00     0.119 A 
ATOM     14  C   UNL     1       0.139   3.231   1.648  1.00  0.00     0.046 A 
ATOM     15  C   UNL     1       2.264   2.112   1.625  1.00  0.00     0.056 A 
ATOM     16  C   UNL     1       0.658   4.212   2.500  1.00  0.00     0.005 A 
ATOM     17  C   UNL     1       1.992   4.155   2.910  1.00  0.00     0.011 A 
BRANCH  13  18
ATOM     18  O   UNL     1       0.327   1.301   0.349  1.00  0.00    -0.497 OA
ATOM     19  C   UNL     1       1.022   0.100   0.036  1.00  0.00     0.278 C 
ENDBRANCH  13  18
ENDBRANCH   8  12
BRANCH   9  20
ATOM     20  C   UNL     1       5.317   3.370   0.786  1.00  0.00     0.182 C 
BRANCH  20  21
ATOM     21  C   UNL     1       5.899   4.737   0.532  1.00  0.00    -0.026 A 
ATOM     22  C   UNL     1       5.109   5.771   0.017  1.00  0.00     0.009 A 
ATOM     23  C   UNL     1       7.254   4.988   0.787  1.00  0.00     0.009 A 
ATOM     24  C   UNL     1       5.673   7.024  -0.240  1.00  0.00     0.047 A 
ATOM     25  C   UNL     1       7.811   6.245   0.541  1.00  0.00     0.047 A 
ATOM     26  C   UNL     1       7.024   7.271   0.021  1.00  0.00     0.129 A 
BRANCH  26  27
ATOM     27  O   UNL     1       7.443   8.536  -0.277  1.00  0.00    -0.406 OA
BRANCH  27  28
ATOM     28  C   UNL     1       8.784   8.869   0.038  1.00  0.00     0.573 C 
ATOM     29  F   UNL     1       9.028   8.747   1.358  1.00  0.00    -0.132 F 
ATOM     30  F   UNL     1       9.652   8.098  -0.656  1.00  0.00    -0.132 F 
ATOM     31  F   UNL     1       9.005  10.155  -0.316  1.00  0.00    -0.132 F 
ENDBRANCH  27  28
ENDBRANCH  26  27
ENDBRANCH  20  21
ENDBRANCH   9  20
ENDBRANCH   4   7
ENDBRANCH   2   3
ENDBRANCH   1   2
BRANCH   1  32
ATOM     32  C   UNL     1       0.126  -0.237   6.000  1.00  0.00     0.023 C 
BRANCH  32  33
ATOM     33  C   UNL     1      -1.094   0.659   6.186  1.00  0.00     0.116 C 
BRANCH  33  34
ATOM     34  N   UNL     1      -1.907   0.850   4.978  1.00  0.00    -0.352 N 
ATOM     35  C   UNL     1      -3.023   1.667   4.848  1.00  0.00     0.251 C 
ATOM     36  H   UNL     1      -1.632   0.348   4.177  1.00  0.00     0.163 HD
ATOM     37  O   UNL     1      -3.840   1.512   3.946  1.00  0.00    -0.269 OA
BRANCH  35  38
ATOM     38  C   UNL     1      -3.172   2.761   5.821  1.00  0.00     0.039 A 
ATOM     39  C   UNL     1      -4.348   3.005   6.540  1.00  0.00     0.014 A 
ATOM     40  C   UNL     1      -2.009   3.470   6.082  1.00  0.00     0.014 A 
ATOM     41  C   UNL     1      -4.308   3.916   7.599  1.00  0.00     0.010 A 
ATOM     42  C   UNL     1      -1.921   4.169   7.248  1.00  0.00     0.010 A 
ATOM     43  C   UNL     1      -3.079   4.484   7.957  1.00  0.00    -0.014 A 
BRANCH  43  44
ATOM     44  C   UNL     1      -2.911   5.386   9.094  1.00  0.00     0.031 A 
ATOM     45  C   UNL     1      -3.231   4.825  10.441  1.00  0.00     0.074 A 
ATOM     46  C   UNL     1      -2.169   6.509   8.939  1.00  0.00     0.049 A 
ATOM     47  N   UNL     1      -4.074   5.266  11.318  1.00  0.00    -0.248 NA
ATOM     48  C   UNL     1      -2.591   3.555  10.830  1.00  0.00     0.031 C 
ATOM     49  C   UNL     1      -1.498   6.995   7.719  1.00  0.00     0.029 A 
ATOM     50  N   UNL     1      -1.703   7.368   9.880  1.00  0.00    -0.354 N 
ATOM     51  C   UNL     1      -3.908   4.466  12.450  1.00  0.00     0.074 A 
ATOM     52  C   UNL     1      -3.133   3.329  12.029  1.00  0.00     0.031 C 
ATOM     53  C   UNL     1      -0.517   7.859   8.052  1.00  0.00     0.029 A 
ATOM     54  C   UNL     1      -0.626   8.145   9.467  1.00  0.00     0.049 A 
ATOM     55  H   UNL     1      -2.096   7.436  10.780  1.00  0.00     0.167 HD
ATOM     56  C   UNL     1      -4.209   4.913  13.704  1.00  0.00     0.037 A 
ATOM     57  C   UNL     1       0.147   8.940  10.246  1.00  0.00     0.037 A 
ATOM     58  C   UNL     1      -5.012   6.107  13.662  1.00  0.00     0.049 A 
ATOM     59  C   UNL     1      -0.634   9.206  11.483  1.00  0.00     0.074 A 
ATOM     60  C   UNL     1      -6.244   6.431  13.126  1.00  0.00     0.029 A 
ATOM     61  N   UNL     1      -4.388   7.310  13.897  1.00  0.00    -0.354 N 
ATOM     62  N   UNL     1      -1.768   9.857  11.497  1.00  0.00    -0.248 NA
ATOM     63  C   UNL     1      -0.404   8.336  12.625  1.00  0.00     0.031 C 
ATOM     64  C   UNL     1      -6.078   7.746  12.596  1.00  0.00     0.029 A 
ATOM     65  C   UNL     1      -4.784   8.169  12.902  1.00  0.00     0.049 A 
ATOM     66  H   UNL     1      -3.775   7.515  14.639  1.00  0.00     0.167 HD
ATOM     67  C   UNL     1      -2.562   9.180  12.413  1.00  0.00     0.074 A 
ATOM     68  C   UNL     1      -1.638   8.304  13.135  1.00  0.00     0.031 C 
ATOM     69  C   UNL     1      -3.926   9.174  12.309  1.00  0.00     0.037 A 
BRANCH  56  70
ATOM     70  C   UNL     1      -3.492   4.476  14.962  1.00  0.00     0.058 A 
ATOM     71  C   UNL     1      -4.036   4.791  16.224  1.00  0.00     0.135 A 
ATOM     72  C   UNL     1      -2.160   4.005  14.974  1.00  0.00     0.135 A 
ATOM     73  F   UNL     1      -5.288   5.263  16.330  1.00  0.00    -0.206 F 
ATOM     74  C   UNL     1      -3.291   4.702  17.403  1.00  0.00     0.059 A 
ATOM     75  C   UNL     1      -1.419   3.854  16.141  1.00  0.00     0.059 A 
ATOM     76  F   UNL     1      -1.480   3.765  13.846  1.00  0.00    -0.206 F 
ATOM     77  C   UNL     1      -1.976   4.247  17.347  1.00  0.00     0.060 A 
BRANCH  77  78
ATOM     78  S   UNL     1      -0.973   4.244  18.844  1.00  0.00     0.124 S 
ATOM     79  O   UNL     1      -0.784   5.673  19.067  1.00  0.00    -0.237 OA
ATOM     80  O   UNL     1      -1.843   3.557  19.792  1.00  0.00    -0.237 OA
ATOM     81  O   UNL     1       0.220   3.502  18.446  1.00  0.00    -0.744 OA
ENDBRANCH  77  78
ENDBRANCH  56  70
BRANCH  57  82
ATOM     82  C   UNL     1       1.615   9.149  10.134  1.00  0.00     0.058 A 
ATOM     83  C   UNL     1       2.255  10.206  10.802  1.00  0.00     0.135 A 
ATOM     84  C   UNL     1       2.459   8.162   9.580  1.00  0.00     0.135 A 
ATOM     85  F   UNL     1       1.528  11.176  11.377  1.00  0.00    -0.206 F 
ATOM     86  C   UNL     1       3.646  10.261  10.949  1.00  0.00     0.059 A 
ATOM     87  C   UNL     1       3.848   8.200   9.705  1.00  0.00     0.059 A 
ATOM     88  F   UNL     1       1.951   7.079   8.972  1.00  0.00    -0.206 F 
ATOM     89  C   UNL     1       4.434   9.242  10.413  1.00  0.00     0.060 A 
BRANCH  89  90
ATOM     90  S   UNL     1       6.212   9.224  10.748  1.00  0.00     0.124 S 
ATOM     91  O   UNL     1       6.677  10.363   9.964  1.00  0.00    -0.237 OA
ATOM     92  O   UNL     1       6.253   9.388  12.197  1.00  0.00    -0.237 OA
ATOM     93  O   UNL     1       6.635   7.914  10.260  1.00  0.00    -0.744 OA
ENDBRANCH  89  90
ENDBRANCH  57  82
BRANCH  69  94
ATOM     94  C   UNL     1      -4.575  10.115  11.319  1.00  0.00     0.058 A 
ATOM     95  C   UNL     1      -4.429  10.018   9.922  1.00  0.00     0.135 A 
ATOM     96  C   UNL     1      -5.519  11.039  11.789  1.00  0.00     0.135 A 
ATOM     97  F   UNL     1      -3.637   9.090   9.377  1.00  0.00    -0.206 F 
ATOM     98  C   UNL     1      -5.150  10.822   9.039  1.00  0.00     0.059 A 
ATOM     99  C   UNL     1      -6.273  11.833  10.925  1.00  0.00     0.059 A 
ATOM    100  F   UNL     1      -5.761  11.138  13.106  1.00  0.00    -0.206 F 
ATOM    101  C   UNL     1      -6.075  11.727   9.550  1.00  0.00     0.060 A 
BRANCH 101 102
ATOM    102  S   UNL     1      -7.067  12.706   8.402  1.00  0.00     0.124 S 
ATOM    103  O   UNL     1      -6.083  13.639   7.863  1.00  0.00    -0.237 OA
ATOM    104  O   UNL     1      -7.560  11.697   7.467  1.00  0.00    -0.237 OA
ATOM    105  O   UNL     1      -8.091  13.302   9.257  1.00  0.00    -0.744 OA
ENDBRANCH 101 102
ENDBRANCH  69  94
ENDBRANCH  43  44
ENDBRANCH  35  38
ENDBRANCH  33  34
ENDBRANCH  32  33
ENDBRANCH   1  32
TORSDOF 20
