REMARK SMILES CC[C@@H]1CC[C@](C[C@@H]2CCCc3ccccc32)(C(=O)NCCCCNC(=O)c2ccc(-c3c4nc(c(-c5c(F)cc(S(=O)(=O)[O-])cc5F)c5ccc([nH]5)c(-c5c(F)cc(S(=O)(=O)[O-])cc5F)c5nc(c(-c6c(F)cc(S(=O)(=O)[O-])cc6F)c6ccc3[nH]6)C=C5)C=C4)cc2)C1
REMARK SMILES IDX 23 1 22 2 21 3 20 4 18 5 19 6 6 8 3 9 4 10 94 11 5 12 2 13
REMARK SMILES IDX 1 14 7 15 8 16 9 17 17 18 10 19 12 20 16 21 11 22 13 23
REMARK SMILES IDX 15 24 14 25 24 26 25 27 26 28 27 30 28 31 29 32 93 33 30 34
REMARK SMILES IDX 92 35 31 36 32 37 33 38 86 39 34 40 91 41 85 42 87 43 35 44
REMARK SMILES IDX 90 45 84 46 83 47 36 49 70 50 49 51 69 52 50 53 53 54 68 55
REMARK SMILES IDX 88 56 51 57 52 58 67 60 89 61 54 62 37 63 38 64 47 65 39 66
REMARK SMILES IDX 40 67 46 68 48 69 41 70 42 71 43 72 44 73 45 74 71 75 72 76
REMARK SMILES IDX 81 77 73 78 74 79 80 80 82 81 75 82 76 83 77 84 78 85 79 86
REMARK SMILES IDX 55 87 56 88 65 89 57 90 58 91 64 92 66 93 59 94 60 95 61 96
REMARK SMILES IDX 62 97 63 98
REMARK H PARENT 20 7 25 29 87 48 53 59
REMARK Flexibility Score: inf
ROOT
ATOM      1  C   UNL     1       6.741   4.893   4.642  1.00  0.00     0.023 C 
ENDROOT
BRANCH   1   2
ATOM      2  C   UNL     1       5.253   4.559   4.643  1.00  0.00     0.023 C 
BRANCH   2   3
ATOM      3  C   UNL     1       4.438   5.209   3.514  1.00  0.00     0.116 C 
BRANCH   3   4
ATOM      4  N   UNL     1       4.586   4.471   2.274  1.00  0.00    -0.356 N 
ATOM      5  C   UNL     1       3.962   3.372   1.760  1.00  0.00     0.226 C 
ATOM      6  O   UNL     1       4.428   2.979   0.684  1.00  0.00    -0.274 OA
ATOM      7  H   UNL     1       5.280   4.839   1.681  1.00  0.00     0.163 HD
BRANCH   5   8
ATOM      8  C   UNL     1       2.675   2.720   2.383  1.00  0.00     0.050 C 
ATOM      9  C   UNL     1       0.931   1.436   1.237  1.00  0.00    -0.010 C 
ATOM     10  C   UNL     1       0.783   2.880   0.798  1.00  0.00     0.005 C 
ATOM     11  C   UNL     1       2.394   1.367   1.667  1.00  0.00     0.020 C 
ATOM     12  C   UNL     1       1.504   3.636   1.923  1.00  0.00     0.017 C 
BRANCH   9  13
ATOM     13  C   UNL     1       0.477   0.336   0.280  1.00  0.00     0.000 C 
ATOM     14  C   UNL     1       1.176   0.276  -1.067  1.00  0.00     0.004 C 
ENDBRANCH   9  13
BRANCH   8  15
ATOM     15  C   UNL     1       2.853   2.465   3.914  1.00  0.00     0.025 C 
BRANCH  15  16
ATOM     16  C   UNL     1       1.818   1.981   4.971  1.00  0.00     0.020 C 
ATOM     17  C   UNL     1       1.628   0.470   5.143  1.00  0.00     0.009 C 
ATOM     18  C   UNL     1       0.533   2.764   5.003  1.00  0.00    -0.042 A 
ATOM     19  C   UNL     1       0.475  -0.125   4.360  1.00  0.00     0.005 C 
ATOM     20  C   UNL     1      -0.684   2.172   4.643  1.00  0.00    -0.045 A 
ATOM     21  C   UNL     1       0.563   4.126   5.365  1.00  0.00     0.004 A 
ATOM     22  C   UNL     1      -0.822   0.683   4.444  1.00  0.00     0.036 C 
ATOM     23  C   UNL     1      -1.826   2.983   4.540  1.00  0.00     0.004 A 
ATOM     24  C   UNL     1      -0.583   4.913   5.283  1.00  0.00     0.000 A 
ATOM     25  C   UNL     1      -1.772   4.346   4.841  1.00  0.00     0.000 A 
ENDBRANCH  15  16
ENDBRANCH   8  15
ENDBRANCH   5   8
ENDBRANCH   3   4
ENDBRANCH   2   3
ENDBRANCH   1   2
BRANCH   1  26
ATOM     26  C   UNL     1       7.056   6.343   4.961  1.00  0.00     0.116 C 
BRANCH  26  27
ATOM     27  N   UNL     1       6.559   6.771   6.261  1.00  0.00    -0.352 N 
ATOM     28  C   UNL     1       7.087   7.734   7.091  1.00  0.00     0.251 C 
ATOM     29  H   UNL     1       5.748   6.317   6.586  1.00  0.00     0.163 HD
ATOM     30  O   UNL     1       6.616   7.926   8.203  1.00  0.00    -0.269 OA
BRANCH  28  31
ATOM     31  C   UNL     1       8.269   8.489   6.626  1.00  0.00     0.039 A 
ATOM     32  C   UNL     1       9.400   8.538   7.442  1.00  0.00     0.014 A 
ATOM     33  C   UNL     1       8.281   9.069   5.355  1.00  0.00     0.014 A 
ATOM     34  C   UNL     1      10.573   9.111   6.950  1.00  0.00     0.010 A 
ATOM     35  C   UNL     1       9.471   9.564   4.839  1.00  0.00     0.010 A 
ATOM     36  C   UNL     1      10.628   9.592   5.631  1.00  0.00    -0.014 A 
BRANCH  36  37
ATOM     37  C   UNL     1      11.885  10.134   5.061  1.00  0.00     0.031 A 
ATOM     38  C   UNL     1      11.954  11.577   4.643  1.00  0.00     0.074 A 
ATOM     39  C   UNL     1      12.932   9.312   4.853  1.00  0.00     0.049 A 
ATOM     40  N   UNL     1      12.931  12.221   4.060  1.00  0.00    -0.248 NA
ATOM     41  C   UNL     1      10.755  12.396   4.884  1.00  0.00     0.031 C 
ATOM     42  C   UNL     1      12.961   7.880   5.162  1.00  0.00     0.029 A 
ATOM     43  N   UNL     1      14.173   9.559   4.322  1.00  0.00    -0.354 N 
ATOM     44  C   UNL     1      12.460  13.511   3.850  1.00  0.00     0.074 A 
ATOM     45  C   UNL     1      11.091  13.544   4.316  1.00  0.00     0.031 C 
ATOM     46  C   UNL     1      14.165   7.383   4.837  1.00  0.00     0.029 A 
ATOM     47  C   UNL     1      14.982   8.449   4.266  1.00  0.00     0.049 A 
ATOM     48  H   UNL     1      14.457  10.449   4.010  1.00  0.00     0.167 HD
ATOM     49  C   UNL     1      13.118  14.579   3.340  1.00  0.00     0.037 A 
ATOM     50  C   UNL     1      16.239   8.308   3.802  1.00  0.00     0.037 A 
ATOM     51  C   UNL     1      14.491  14.545   2.909  1.00  0.00     0.049 A 
ATOM     52  C   UNL     1      16.956   9.513   3.256  1.00  0.00     0.074 A 
ATOM     53  C   UNL     1      15.270  15.586   2.438  1.00  0.00     0.029 A 
ATOM     54  N   UNL     1      15.289  13.410   2.900  1.00  0.00    -0.354 N 
ATOM     55  N   UNL     1      16.518  10.743   3.129  1.00  0.00    -0.248 NA
ATOM     56  C   UNL     1      18.338   9.315   2.800  1.00  0.00     0.031 C 
ATOM     57  C   UNL     1      16.529  15.073   2.108  1.00  0.00     0.029 A 
ATOM     58  C   UNL     1      16.548  13.722   2.416  1.00  0.00     0.049 A 
ATOM     59  H   UNL     1      15.002  12.515   3.194  1.00  0.00     0.167 HD
ATOM     60  C   UNL     1      17.580  11.471   2.602  1.00  0.00     0.074 A 
ATOM     61  C   UNL     1      18.683  10.545   2.445  1.00  0.00     0.031 C 
ATOM     62  C   UNL     1      17.636  12.786   2.277  1.00  0.00     0.037 A 
BRANCH  49  63
ATOM     63  C   UNL     1      12.362  15.873   3.232  1.00  0.00     0.058 A 
ATOM     64  C   UNL     1      12.004  16.613   4.370  1.00  0.00     0.135 A 
ATOM     65  C   UNL     1      12.012  16.395   1.976  1.00  0.00     0.135 A 
ATOM     66  F   UNL     1      12.298  16.153   5.596  1.00  0.00    -0.206 F 
ATOM     67  C   UNL     1      11.298  17.808   4.270  1.00  0.00     0.059 A 
ATOM     68  C   UNL     1      11.330  17.602   1.850  1.00  0.00     0.059 A 
ATOM     69  F   UNL     1      12.327  15.727   0.855  1.00  0.00    -0.206 F 
ATOM     70  C   UNL     1      10.964  18.293   3.005  1.00  0.00     0.060 A 
BRANCH  70  71
ATOM     71  S   UNL     1      10.050  19.845   2.891  1.00  0.00     0.124 S 
ATOM     72  O   UNL     1       8.716  19.428   3.311  1.00  0.00    -0.237 OA
ATOM     73  O   UNL     1      10.770  20.701   3.829  1.00  0.00    -0.237 OA
ATOM     74  O   UNL     1      10.179  20.213   1.485  1.00  0.00    -0.744 OA
ENDBRANCH  70  71
ENDBRANCH  49  63
BRANCH  50  75
ATOM     75  C   UNL     1      16.909   6.982   3.863  1.00  0.00     0.058 A 
ATOM     76  C   UNL     1      17.954   6.744   4.767  1.00  0.00     0.135 A 
ATOM     77  C   UNL     1      16.511   5.923   3.031  1.00  0.00     0.135 A 
ATOM     78  F   UNL     1      18.374   7.726   5.580  1.00  0.00    -0.206 F 
ATOM     79  C   UNL     1      18.594   5.510   4.835  1.00  0.00     0.059 A 
ATOM     80  C   UNL     1      17.118   4.673   3.098  1.00  0.00     0.059 A 
ATOM     81  F   UNL     1      15.503   6.094   2.162  1.00  0.00    -0.206 F 
ATOM     82  C   UNL     1      18.167   4.480   3.997  1.00  0.00     0.060 A 
BRANCH  82  83
ATOM     83  S   UNL     1      18.971   2.868   4.127  1.00  0.00     0.124 S 
ATOM     84  O   UNL     1      20.252   3.125   3.480  1.00  0.00    -0.237 OA
ATOM     85  O   UNL     1      19.014   2.662   5.571  1.00  0.00    -0.237 OA
ATOM     86  O   UNL     1      18.063   1.982   3.403  1.00  0.00    -0.744 OA
ENDBRANCH  82  83
ENDBRANCH  50  75
BRANCH  62  87
ATOM     87  C   UNL     1      18.942  13.313   1.752  1.00  0.00     0.058 A 
ATOM     88  C   UNL     1      19.386  13.020   0.453  1.00  0.00     0.135 A 
ATOM     89  C   UNL     1      19.731  14.166   2.540  1.00  0.00     0.135 A 
ATOM     90  F   UNL     1      18.671  12.204  -0.338  1.00  0.00    -0.206 F 
ATOM     91  C   UNL     1      20.578  13.540  -0.040  1.00  0.00     0.059 A 
ATOM     92  C   UNL     1      20.913  14.718   2.058  1.00  0.00     0.059 A 
ATOM     93  F   UNL     1      19.345  14.486   3.785  1.00  0.00    -0.206 F 
ATOM     94  C   UNL     1      21.334  14.390   0.770  1.00  0.00     0.060 A 
BRANCH  94  95
ATOM     95  S   UNL     1      22.860  15.089   0.105  1.00  0.00     0.124 S 
ATOM     96  O   UNL     1      23.759  13.941   0.165  1.00  0.00    -0.237 OA
ATOM     97  O   UNL     1      22.456  15.509  -1.233  1.00  0.00    -0.237 OA
ATOM     98  O   UNL     1      23.167  16.176   1.030  1.00  0.00    -0.744 OA
ENDBRANCH  94  95
ENDBRANCH  62  87
ENDBRANCH  36  37
ENDBRANCH  28  31
ENDBRANCH  26  27
ENDBRANCH   1  26
TORSDOF 17
