REMARK SMILES O=C(NCCCCNC(=O)c1cccc2c1ccn2Cc1ccncc1)c1ccc(-c2c3nc(c(-c4c(F)cc(S(=O)(=O)[O-])cc4F)c4ccc([nH]4)c(-c4c(F)cc(S(=O)(=O)[O-])cc4F)c4nc(c(-c5c(F)cc(S(=O)(=O)[O-])cc5F)c5ccc2[nH]5)C=C4)C=C3)cc1
REMARK SMILES IDX 5 1 4 2 3 3 1 4 2 5 27 7 28 8 92 9 29 10 91 11 30 12 31 13
REMARK SMILES IDX 32 14 85 15 33 16 90 17 84 18 86 19 34 20 89 21 83 22 82 23
REMARK SMILES IDX 35 25 69 26 48 27 68 28 49 29 52 30 67 31 87 32 50 33 51 34
REMARK SMILES IDX 66 36 88 37 53 38 36 39 37 40 46 41 38 42 39 43 45 44 47 45
REMARK SMILES IDX 40 46 41 47 42 48 43 49 44 50 70 51 71 52 80 53 72 54 73 55
REMARK SMILES IDX 79 56 81 57 74 58 75 59 76 60 77 61 78 62 54 63 55 64 64 65
REMARK SMILES IDX 56 66 57 67 63 68 65 69 58 70 59 71 60 72 61 73 62 74 6 75
REMARK SMILES IDX 7 76 8 77 9 78 10 80 11 81 12 82 16 83 13 84 15 85 17 86
REMARK SMILES IDX 14 87 19 88 18 89 20 90 21 91 22 92 26 93 23 94 25 95 24 96
REMARK H PARENT 3 6 86 24 52 35 8 79
REMARK Flexibility Score: inf
ROOT
ATOM      1  C   UNL     1       4.874  -2.866   1.337  1.00  0.00     0.023 C 
ENDROOT
BRANCH   1   2
ATOM      2  C   UNL     1       4.443  -1.585   0.646  1.00  0.00     0.116 C 
BRANCH   2   3
ATOM      3  N   UNL     1       2.988  -1.364   0.609  1.00  0.00    -0.352 N 
ATOM      4  O   UNL     1       1.170   0.005   0.408  1.00  0.00    -0.269 OA
ATOM      5  C   UNL     1       2.307  -0.266   0.071  1.00  0.00     0.251 C 
ATOM      6  H   UNL     1       2.430  -2.070   1.008  1.00  0.00     0.163 HD
BRANCH   5   7
ATOM      7  C   UNL     1       3.018   0.540  -0.943  1.00  0.00     0.039 A 
ATOM      8  C   UNL     1       2.978   1.931  -1.034  1.00  0.00     0.014 A 
ATOM      9  C   UNL     1       3.852  -0.187  -1.771  1.00  0.00     0.014 A 
ATOM     10  C   UNL     1       3.843   2.547  -1.943  1.00  0.00     0.010 A 
ATOM     11  C   UNL     1       4.945   0.430  -2.284  1.00  0.00     0.010 A 
ATOM     12  C   UNL     1       4.837   1.770  -2.565  1.00  0.00    -0.014 A 
BRANCH  12  13
ATOM     13  C   UNL     1       5.820   2.288  -3.505  1.00  0.00     0.031 A 
ATOM     14  C   UNL     1       6.497   3.512  -3.035  1.00  0.00     0.074 A 
ATOM     15  C   UNL     1       6.201   1.627  -4.626  1.00  0.00     0.049 A 
ATOM     16  N   UNL     1       6.251   4.719  -3.414  1.00  0.00    -0.248 NA
ATOM     17  C   UNL     1       7.389   3.419  -1.870  1.00  0.00     0.031 C 
ATOM     18  C   UNL     1       5.843   0.276  -5.096  1.00  0.00     0.029 A 
ATOM     19  N   UNL     1       7.074   2.031  -5.587  1.00  0.00    -0.354 N 
ATOM     20  C   UNL     1       7.146   5.520  -2.720  1.00  0.00     0.074 A 
ATOM     21  C   UNL     1       7.654   4.708  -1.644  1.00  0.00     0.031 C 
ATOM     22  C   UNL     1       6.657  -0.099  -6.108  1.00  0.00     0.029 A 
ATOM     23  C   UNL     1       7.461   1.043  -6.492  1.00  0.00     0.049 A 
ATOM     24  H   UNL     1       7.409   2.955  -5.639  1.00  0.00     0.167 HD
ATOM     25  C   UNL     1       7.573   6.698  -3.252  1.00  0.00     0.037 A 
ATOM     26  C   UNL     1       8.361   1.172  -7.502  1.00  0.00     0.037 A 
ATOM     27  C   UNL     1       6.739   7.091  -4.365  1.00  0.00     0.049 A 
ATOM     28  C   UNL     1       8.440   2.629  -7.797  1.00  0.00     0.074 A 
ATOM     29  C   UNL     1       5.396   7.385  -4.506  1.00  0.00     0.029 A 
ATOM     30  N   UNL     1       7.193   6.804  -5.632  1.00  0.00    -0.354 N 
ATOM     31  N   UNL     1       7.441   3.320  -8.281  1.00  0.00    -0.248 NA
ATOM     32  C   UNL     1       9.442   3.400  -7.078  1.00  0.00     0.031 C 
ATOM     33  C   UNL     1       5.014   6.789  -5.745  1.00  0.00     0.029 A 
ATOM     34  C   UNL     1       6.155   6.240  -6.334  1.00  0.00     0.049 A 
ATOM     35  H   UNL     1       8.100   6.972  -5.974  1.00  0.00     0.167 HD
ATOM     36  C   UNL     1       7.460   4.517  -7.577  1.00  0.00     0.074 A 
ATOM     37  C   UNL     1       8.753   4.529  -6.891  1.00  0.00     0.031 C 
ATOM     38  C   UNL     1       6.322   5.248  -7.378  1.00  0.00     0.037 A 
BRANCH  25  39
ATOM     39  C   UNL     1       8.936   7.295  -3.015  1.00  0.00     0.058 A 
ATOM     40  C   UNL     1       9.200   8.600  -3.476  1.00  0.00     0.135 A 
ATOM     41  C   UNL     1      10.064   6.551  -2.603  1.00  0.00     0.135 A 
ATOM     42  F   UNL     1       8.202   9.393  -3.896  1.00  0.00    -0.206 F 
ATOM     43  C   UNL     1      10.496   9.102  -3.587  1.00  0.00     0.059 A 
ATOM     44  C   UNL     1      11.359   7.052  -2.655  1.00  0.00     0.059 A 
ATOM     45  F   UNL     1       9.982   5.272  -2.221  1.00  0.00    -0.206 F 
ATOM     46  C   UNL     1      11.570   8.313  -3.186  1.00  0.00     0.060 A 
BRANCH  46  47
ATOM     47  S   UNL     1      13.247   8.923  -3.421  1.00  0.00     0.124 S 
ATOM     48  O   UNL     1      13.339   8.970  -4.876  1.00  0.00    -0.237 OA
ATOM     49  O   UNL     1      13.193  10.213  -2.741  1.00  0.00    -0.237 OA
ATOM     50  O   UNL     1      14.069   7.909  -2.767  1.00  0.00    -0.744 OA
ENDBRANCH  46  47
ENDBRANCH  25  39
BRANCH  26  51
ATOM     51  C   UNL     1       9.434   0.212  -7.896  1.00  0.00     0.058 A 
ATOM     52  C   UNL     1      10.215   0.429  -9.047  1.00  0.00     0.135 A 
ATOM     53  C   UNL     1       9.917  -0.762  -6.999  1.00  0.00     0.135 A 
ATOM     54  F   UNL     1       9.839   1.344  -9.954  1.00  0.00    -0.206 F 
ATOM     55  C   UNL     1      11.434  -0.228  -9.262  1.00  0.00     0.059 A 
ATOM     56  C   UNL     1      11.127  -1.433  -7.194  1.00  0.00     0.059 A 
ATOM     57  F   UNL     1       9.270  -1.026  -5.854  1.00  0.00    -0.206 F 
ATOM     58  C   UNL     1      11.896  -1.139  -8.313  1.00  0.00     0.060 A 
BRANCH  58  59
ATOM     59  S   UNL     1      13.554  -1.846  -8.492  1.00  0.00     0.124 S 
ATOM     60  O   UNL     1      13.403  -2.677  -9.681  1.00  0.00    -0.237 OA
ATOM     61  O   UNL     1      14.381  -0.654  -8.651  1.00  0.00    -0.237 OA
ATOM     62  O   UNL     1      13.750  -2.575  -7.242  1.00  0.00    -0.744 OA
ENDBRANCH  58  59
ENDBRANCH  26  51
BRANCH  38  63
ATOM     63  C   UNL     1       5.081   4.876  -8.160  1.00  0.00     0.058 A 
ATOM     64  C   UNL     1       4.370   3.669  -8.017  1.00  0.00     0.135 A 
ATOM     65  C   UNL     1       4.493   5.864  -8.964  1.00  0.00     0.135 A 
ATOM     66  F   UNL     1       4.808   2.704  -7.197  1.00  0.00    -0.206 F 
ATOM     67  C   UNL     1       3.151   3.446  -8.666  1.00  0.00     0.059 A 
ATOM     68  C   UNL     1       3.266   5.676  -9.597  1.00  0.00     0.059 A 
ATOM     69  F   UNL     1       5.089   7.060  -9.099  1.00  0.00    -0.206 F 
ATOM     70  C   UNL     1       2.603   4.460  -9.451  1.00  0.00     0.060 A 
BRANCH  70  71
ATOM     71  S   UNL     1       0.996   4.203 -10.236  1.00  0.00     0.124 S 
ATOM     72  O   UNL     1       1.294   3.164 -11.217  1.00  0.00    -0.237 OA
ATOM     73  O   UNL     1       0.157   3.792  -9.114  1.00  0.00    -0.237 OA
ATOM     74  O   UNL     1       0.674   5.513 -10.797  1.00  0.00    -0.744 OA
ENDBRANCH  70  71
ENDBRANCH  38  63
ENDBRANCH  12  13
ENDBRANCH   5   7
ENDBRANCH   2   3
ENDBRANCH   1   2
BRANCH   1  75
ATOM     75  C   UNL     1       4.422  -4.155   0.639  1.00  0.00     0.023 C 
BRANCH  75  76
ATOM     76  C   UNL     1       4.798  -4.320  -0.838  1.00  0.00     0.116 C 
BRANCH  76  77
ATOM     77  N   UNL     1       6.232  -4.347  -1.070  1.00  0.00    -0.352 N 
ATOM     78  C   UNL     1       7.027  -5.392  -1.484  1.00  0.00     0.251 C 
ATOM     79  H   UNL     1       6.703  -3.498  -0.909  1.00  0.00     0.163 HD
ATOM     80  O   UNL     1       8.248  -5.272  -1.486  1.00  0.00    -0.269 OA
BRANCH  78  81
ATOM     81  C   UNL     1       6.404  -6.669  -1.882  1.00  0.00     0.049 A 
ATOM     82  C   UNL     1       5.451  -6.712  -2.909  1.00  0.00     0.014 A 
ATOM     83  C   UNL     1       6.761  -7.853  -1.202  1.00  0.00     0.012 A 
ATOM     84  C   UNL     1       4.783  -7.898  -3.193  1.00  0.00     0.003 A 
ATOM     85  C   UNL     1       6.097  -9.046  -1.526  1.00  0.00     0.049 A 
ATOM     86  C   UNL     1       7.678  -8.152  -0.158  1.00  0.00     0.029 A 
ATOM     87  C   UNL     1       5.085  -9.079  -2.504  1.00  0.00     0.027 A 
ATOM     88  N   UNL     1       6.639 -10.035  -0.724  1.00  0.00    -0.343 N 
ATOM     89  C   UNL     1       7.530  -9.478   0.162  1.00  0.00     0.087 A 
BRANCH  88  90
ATOM     90  C   UNL     1       6.281 -11.452  -0.734  1.00  0.00     0.157 C 
BRANCH  90  91
ATOM     91  C   UNL     1       7.345 -12.322  -1.363  1.00  0.00    -0.025 A 
ATOM     92  C   UNL     1       8.594 -12.502  -0.757  1.00  0.00     0.025 A 
ATOM     93  C   UNL     1       7.103 -12.994  -2.566  1.00  0.00     0.025 A 
ATOM     94  C   UNL     1       9.536 -13.313  -1.373  1.00  0.00     0.111 A 
ATOM     95  C   UNL     1       8.103 -13.799  -3.096  1.00  0.00     0.111 A 
ATOM     96  N   UNL     1       9.311 -13.979  -2.522  1.00  0.00    -0.265 NA
ENDBRANCH  90  91
ENDBRANCH  88  90
ENDBRANCH  78  81
ENDBRANCH  76  77
ENDBRANCH  75  76
ENDBRANCH   1  75
TORSDOF 16
