REMARK SMILES Cn1cc(S(=O)(=O)N2CCCc3cc(C(=O)NCCCCNC(=O)c4ccc(-c5c6nc(c(-c7c(F)cc(S(=O)(=O)[O-])cc7F)c7ccc([nH]7)c(-c7c(F)cc(S(=O)(=O)[O-])cc7F)c7nc(c(-c8c(F)cc(S(=O)(=O)[O-])cc8F)c8ccc5[nH]8)C=C7)C=C6)cc4)ccc32)cc1C(N)=O
REMARK SMILES IDX 19 1 18 2 17 3 15 4 16 5 14 7 8 8 9 9 93 10 10 11 12 12
REMARK SMILES IDX 92 13 11 14 13 15 91 16 5 17 6 18 7 19 4 20 1 21 2 22 3 23
REMARK SMILES IDX 95 24 94 25 96 26 97 27 98 28 20 31 21 32 22 33 23 34 24 36
REMARK SMILES IDX 25 37 26 38 90 39 27 40 89 41 28 42 29 43 30 44 83 45 31 46
REMARK SMILES IDX 88 47 82 48 84 49 32 50 87 51 81 52 80 53 33 55 67 56 46 57
REMARK SMILES IDX 66 58 47 59 50 60 65 61 85 62 48 63 49 64 64 66 86 67 51 68
REMARK SMILES IDX 34 69 35 70 44 71 36 72 37 73 43 74 45 75 38 76 39 77 40 78
REMARK SMILES IDX 41 79 42 80 68 81 69 82 78 83 70 84 71 85 77 86 79 87 72 88
REMARK SMILES IDX 73 89 74 90 75 91 76 92 52 93 53 94 62 95 54 96 55 97 61 98
REMARK SMILES IDX 63 99 56 100 57 101 58 102 59 103 60 104
REMARK H PARENT 17 6 97 29 97 30 22 35 84 54 50 65
REMARK Flexibility Score: inf
ROOT
ATOM      1  C   UNL     1      -6.021   1.134  -6.747  1.00  0.00     0.023 C 
ENDROOT
BRANCH   1   2
ATOM      2  C   UNL     1      -6.847   2.032  -5.822  1.00  0.00     0.116 C 
BRANCH   2   3
ATOM      3  N   UNL     1      -7.946   1.290  -5.237  1.00  0.00    -0.352 N 
ATOM      4  C   UNL     1      -8.079   0.635  -4.040  1.00  0.00     0.251 C 
ATOM      5  O   UNL     1      -9.163   0.103  -3.798  1.00  0.00    -0.269 OA
ATOM      6  H   UNL     1      -8.748   1.247  -5.806  1.00  0.00     0.163 HD
BRANCH   4   7
ATOM      7  C   UNL     1      -7.005   0.571  -3.004  1.00  0.00     0.040 A 
ATOM      8  N   UNL     1      -4.192   0.420   0.196  1.00  0.00    -0.266 N 
ATOM      9  C   UNL     1      -4.590  -0.297   1.420  1.00  0.00     0.136 C 
ATOM     10  C   UNL     1      -5.125   0.463  -0.891  1.00  0.00     0.055 A 
ATOM     11  C   UNL     1      -5.965   0.186   1.849  1.00  0.00     0.028 C 
ATOM     12  C   UNL     1      -6.490   0.281  -0.625  1.00  0.00    -0.023 A 
ATOM     13  C   UNL     1      -4.706   0.602  -2.213  1.00  0.00     0.028 A 
ATOM     14  C   UNL     1      -6.986  -0.088   0.751  1.00  0.00     0.039 C 
ATOM     15  C   UNL     1      -7.417   0.353  -1.680  1.00  0.00     0.019 A 
ATOM     16  C   UNL     1      -5.636   0.640  -3.259  1.00  0.00     0.016 A 
BRANCH   8  17
ATOM     17  S   UNL     1      -2.893   1.509   0.292  1.00  0.00     0.265 S 
ATOM     18  O   UNL     1      -2.805   2.020   1.647  1.00  0.00    -0.201 OA
ATOM     19  O   UNL     1      -2.830   2.381  -0.857  1.00  0.00    -0.201 OA
BRANCH  17  20
ATOM     20  C   UNL     1      -1.449   0.559   0.145  1.00  0.00     0.106 A 
ATOM     21  C   UNL     1       2.126   0.115  -0.029  1.00  0.00     0.150 C 
ATOM     22  N   UNL     1       0.689  -0.050   0.026  1.00  0.00    -0.345 N 
ATOM     23  C   UNL     1      -0.158   1.031   0.124  1.00  0.00     0.108 A 
ATOM     24  C   UNL     1      -0.041  -1.231  -0.014  1.00  0.00     0.107 A 
ATOM     25  C   UNL     1      -1.380  -0.848   0.031  1.00  0.00     0.056 A 
BRANCH  24  26
ATOM     26  C   UNL     1       0.512  -2.573  -0.081  1.00  0.00     0.265 C 
ATOM     27  N   UNL     1      -0.395  -3.593  -0.123  1.00  0.00    -0.364 N 
ATOM     28  O   UNL     1       1.706  -2.853  -0.092  1.00  0.00    -0.268 OA
ATOM     29  H   UNL     1      -1.359  -3.395  -0.115  1.00  0.00     0.160 HD
ATOM     30  H   UNL     1      -0.085  -4.527  -0.161  1.00  0.00     0.160 HD
ENDBRANCH  24  26
ENDBRANCH  17  20
ENDBRANCH   8  17
ENDBRANCH   4   7
ENDBRANCH   2   3
ENDBRANCH   1   2
BRANCH   1  31
ATOM     31  C   UNL     1      -6.644   0.905  -8.126  1.00  0.00     0.023 C 
BRANCH  31  32
ATOM     32  C   UNL     1      -6.784   2.157  -8.984  1.00  0.00     0.116 C 
BRANCH  32  33
ATOM     33  N   UNL     1      -5.521   2.844  -9.208  1.00  0.00    -0.352 N 
ATOM     34  C   UNL     1      -5.139   3.587 -10.299  1.00  0.00     0.251 C 
ATOM     35  H   UNL     1      -4.856   2.767  -8.486  1.00  0.00     0.163 HD
ATOM     36  O   UNL     1      -3.994   4.018 -10.384  1.00  0.00    -0.269 OA
BRANCH  34  37
ATOM     37  C   UNL     1      -6.111   3.819 -11.387  1.00  0.00     0.039 A 
ATOM     38  C   UNL     1      -5.731   3.532 -12.700  1.00  0.00     0.014 A 
ATOM     39  C   UNL     1      -7.402   4.272 -11.104  1.00  0.00     0.014 A 
ATOM     40  C   UNL     1      -6.673   3.633 -13.725  1.00  0.00     0.010 A 
ATOM     41  C   UNL     1      -8.355   4.309 -12.116  1.00  0.00     0.010 A 
ATOM     42  C   UNL     1      -8.001   3.986 -13.435  1.00  0.00    -0.014 A 
BRANCH  42  43
ATOM     43  C   UNL     1      -9.038   4.015 -14.496  1.00  0.00     0.031 A 
ATOM     44  C   UNL     1      -9.697   5.313 -14.869  1.00  0.00     0.074 A 
ATOM     45  C   UNL     1      -9.434   2.861 -15.069  1.00  0.00     0.049 A 
ATOM     46  N   UNL     1     -10.671   5.531 -15.713  1.00  0.00    -0.248 NA
ATOM     47  C   UNL     1      -9.217   6.522 -14.180  1.00  0.00     0.031 C 
ATOM     48  C   UNL     1      -8.906   1.532 -14.750  1.00  0.00     0.029 A 
ATOM     49  N   UNL     1     -10.381   2.618 -16.031  1.00  0.00    -0.354 N 
ATOM     50  C   UNL     1     -10.933   6.894 -15.647  1.00  0.00     0.074 A 
ATOM     51  C   UNL     1     -10.048   7.445 -14.643  1.00  0.00     0.031 C 
ATOM     52  C   UNL     1      -9.523   0.618 -15.516  1.00  0.00     0.029 A 
ATOM     53  C   UNL     1     -10.510   1.288 -16.356  1.00  0.00     0.049 A 
ATOM     54  H   UNL     1     -10.918   3.329 -16.449  1.00  0.00     0.167 HD
ATOM     55  C   UNL     1     -11.813   7.623 -16.372  1.00  0.00     0.037 A 
ATOM     56  C   UNL     1     -11.335   0.678 -17.230  1.00  0.00     0.037 A 
ATOM     57  C   UNL     1     -12.668   7.072 -17.391  1.00  0.00     0.049 A 
ATOM     58  C   UNL     1     -12.293   1.512 -18.036  1.00  0.00     0.074 A 
ATOM     59  C   UNL     1     -13.550   7.736 -18.226  1.00  0.00     0.029 A 
ATOM     60  N   UNL     1     -12.748   5.725 -17.714  1.00  0.00    -0.354 N 
ATOM     61  N   UNL     1     -12.482   2.810 -18.006  1.00  0.00    -0.248 NA
ATOM     62  C   UNL     1     -13.146   0.801 -18.998  1.00  0.00     0.031 C 
ATOM     63  C   UNL     1     -14.188   6.785 -19.031  1.00  0.00     0.029 A 
ATOM     64  C   UNL     1     -13.674   5.535 -18.726  1.00  0.00     0.049 A 
ATOM     65  H   UNL     1     -12.223   5.010 -17.287  1.00  0.00     0.167 HD
ATOM     66  C   UNL     1     -13.455   3.074 -18.962  1.00  0.00     0.074 A 
ATOM     67  C   UNL     1     -13.809   1.802 -19.560  1.00  0.00     0.031 C 
ATOM     68  C   UNL     1     -14.006   4.262 -19.315  1.00  0.00     0.037 A 
BRANCH  55  69
ATOM     69  C   UNL     1     -11.889   9.098 -16.094  1.00  0.00     0.058 A 
ATOM     70  C   UNL     1     -10.851   9.970 -16.462  1.00  0.00     0.135 A 
ATOM     71  C   UNL     1     -13.019   9.653 -15.473  1.00  0.00     0.135 A 
ATOM     72  F   UNL     1      -9.740   9.490 -17.045  1.00  0.00    -0.206 F 
ATOM     73  C   UNL     1     -10.917  11.333 -16.197  1.00  0.00     0.059 A 
ATOM     74  C   UNL     1     -13.118  11.018 -15.221  1.00  0.00     0.059 A 
ATOM     75  F   UNL     1     -14.040   8.865 -15.099  1.00  0.00    -0.206 F 
ATOM     76  C   UNL     1     -12.054  11.848 -15.573  1.00  0.00     0.060 A 
BRANCH  76  77
ATOM     77  S   UNL     1     -12.125  13.620 -15.233  1.00  0.00     0.124 S 
ATOM     78  O   UNL     1     -11.217  13.733 -14.096  1.00  0.00    -0.237 OA
ATOM     79  O   UNL     1     -11.646  14.198 -16.485  1.00  0.00    -0.237 OA
ATOM     80  O   UNL     1     -13.535  13.853 -14.937  1.00  0.00    -0.744 OA
ENDBRANCH  76  77
ENDBRANCH  55  69
BRANCH  56  81
ATOM     81  C   UNL     1     -11.268  -0.796 -17.409  1.00  0.00     0.058 A 
ATOM     82  C   UNL     1     -10.726  -1.354 -18.575  1.00  0.00     0.135 A 
ATOM     83  C   UNL     1     -11.727  -1.674 -16.415  1.00  0.00     0.135 A 
ATOM     84  F   UNL     1     -10.278  -0.554 -19.555  1.00  0.00    -0.206 F 
ATOM     85  C   UNL     1     -10.654  -2.731 -18.760  1.00  0.00     0.059 A 
ATOM     86  C   UNL     1     -11.646  -3.055 -16.567  1.00  0.00     0.059 A 
ATOM     87  F   UNL     1     -12.238  -1.189 -15.273  1.00  0.00    -0.206 F 
ATOM     88  C   UNL     1     -11.117  -3.574 -17.748  1.00  0.00     0.060 A 
BRANCH  88  89
ATOM     89  S   UNL     1     -10.974  -5.360 -17.975  1.00  0.00     0.124 S 
ATOM     90  O   UNL     1     -12.047  -5.621 -18.927  1.00  0.00    -0.237 OA
ATOM     91  O   UNL     1      -9.615  -5.497 -18.491  1.00  0.00    -0.237 OA
ATOM     92  O   UNL     1     -11.180  -5.885 -16.628  1.00  0.00    -0.744 OA
ENDBRANCH  88  89
ENDBRANCH  56  81
BRANCH  68  93
ATOM     93  C   UNL     1     -15.025   4.250 -20.419  1.00  0.00     0.058 A 
ATOM     94  C   UNL     1     -16.328   3.770 -20.212  1.00  0.00     0.135 A 
ATOM     95  C   UNL     1     -14.709   4.774 -21.682  1.00  0.00     0.135 A 
ATOM     96  F   UNL     1     -16.677   3.253 -19.024  1.00  0.00    -0.206 F 
ATOM     97  C   UNL     1     -17.278   3.793 -21.228  1.00  0.00     0.059 A 
ATOM     98  C   UNL     1     -15.651   4.829 -22.705  1.00  0.00     0.059 A 
ATOM     99  F   UNL     1     -13.480   5.253 -21.927  1.00  0.00    -0.206 F 
ATOM    100  C   UNL     1     -16.930   4.326 -22.471  1.00  0.00     0.060 A 
BRANCH 100 101
ATOM    101  S   UNL     1     -18.182   4.386 -23.770  1.00  0.00     0.124 S 
ATOM    102  O   UNL     1     -18.227   2.992 -24.199  1.00  0.00    -0.237 OA
ATOM    103  O   UNL     1     -19.359   4.866 -23.051  1.00  0.00    -0.237 OA
ATOM    104  O   UNL     1     -17.622   5.324 -24.738  1.00  0.00    -0.744 OA
ENDBRANCH 100 101
ENDBRANCH  68  93
ENDBRANCH  42  43
ENDBRANCH  34  37
ENDBRANCH  32  33
ENDBRANCH  31  32
ENDBRANCH   1  31
TORSDOF 17
