REMARK SMILES Cc1cc(-c2cc(C(=O)NCCCCNC(=O)c3ccc(-c4c5nc(c(-c6c(F)cc(S(=O)(=O)[O-])cc6F)c6ccc([nH]6)c(-c6c(F)cc(S(=O)(=O)[O-])cc6F)c6nc(c(-c7c(F)cc(S(=O)(=O)[O-])cc7F)c7ccc4[nH]7)C=C6)C=C5)cc3)c[nH]c2=O)ccc1Cl
REMARK SMILES IDX 13 1 12 2 11 3 10 4 8 5 9 6 7 8 5 9 6 10 86 11 85 12 87 13
REMARK SMILES IDX 84 14 4 16 1 17 2 18 3 19 90 20 89 21 91 22 88 23 14 24
REMARK SMILES IDX 15 25 16 26 17 28 18 29 19 30 83 31 20 32 82 33 21 34 22 35
REMARK SMILES IDX 23 36 76 37 24 38 81 39 75 40 77 41 25 42 80 43 74 44 73 45
REMARK SMILES IDX 26 47 60 48 39 49 59 50 40 51 43 52 58 53 78 54 41 55 42 56
REMARK SMILES IDX 57 58 79 59 44 60 27 61 28 62 37 63 29 64 30 65 36 66 38 67
REMARK SMILES IDX 31 68 32 69 33 70 34 71 35 72 61 73 62 74 71 75 63 76 64 77
REMARK SMILES IDX 70 78 72 79 65 80 66 81 67 82 68 83 69 84 45 85 46 86 55 87
REMARK SMILES IDX 47 88 48 89 54 90 56 91 49 92 50 93 51 94 52 95 53 96
REMARK H PARENT 10 7 85 15 15 27 77 46 43 57
REMARK Flexibility Score: inf
ROOT
ATOM      1  C   UNL     1      -4.769  -1.476   5.726  1.00  0.00     0.023 C 
ENDROOT
BRANCH   1   2
ATOM      2  C   UNL     1      -4.358  -1.210   4.273  1.00  0.00     0.023 C 
BRANCH   2   3
ATOM      3  C   UNL     1      -5.088  -2.087   3.251  1.00  0.00     0.116 C 
BRANCH   3   4
ATOM      4  N   UNL     1      -6.404  -1.549   2.966  1.00  0.00    -0.352 N 
ATOM      5  C   UNL     1      -6.878  -0.691   2.023  1.00  0.00     0.252 C 
ATOM      6  O   UNL     1      -8.079  -0.411   2.083  1.00  0.00    -0.269 OA
ATOM      7  H   UNL     1      -7.100  -1.872   3.584  1.00  0.00     0.163 HD
BRANCH   5   8
ATOM      8  C   UNL     1      -6.033  -0.141   0.910  1.00  0.00     0.056 A 
ATOM      9  C   UNL     1      -3.906   0.275  -0.231  1.00  0.00     0.048 A 
ATOM     10  C   UNL     1      -4.588  -0.067   0.878  1.00  0.00     0.029 A 
ATOM     11  C   UNL     1      -4.671   0.768  -1.420  1.00  0.00     0.255 A 
ATOM     12  N   UNL     1      -6.040   0.776  -1.277  1.00  0.00    -0.328 N 
ATOM     13  O   UNL     1      -4.127   1.157  -2.448  1.00  0.00    -0.269 OA
ATOM     14  C   UNL     1      -6.705   0.319  -0.162  1.00  0.00     0.099 A 
ATOM     15  H   UNL     1      -6.579   1.132  -2.020  1.00  0.00     0.169 HD
BRANCH   9  16
ATOM     16  C   UNL     1      -2.443   0.146  -0.226  1.00  0.00    -0.012 A 
ATOM     17  C   UNL     1       0.644   2.364  -0.038  1.00  0.00     0.046 C 
ATOM     18  C   UNL     1      -0.215   1.134  -0.100  1.00  0.00    -0.032 A 
ATOM     19  C   UNL     1      -1.613   1.272  -0.190  1.00  0.00     0.014 A 
ATOM     20  C   UNL     1       0.338  -0.156  -0.062  1.00  0.00     0.044 A 
ATOM     21  C   UNL     1      -0.483  -1.283  -0.112  1.00  0.00     0.021 A 
ATOM     22  Cl  UNL     1       2.044  -0.407   0.052  1.00  0.00    -0.084 Cl
ATOM     23  C   UNL     1      -1.867  -1.133  -0.192  1.00  0.00     0.010 A 
ENDBRANCH   9  16
ENDBRANCH   5   8
ENDBRANCH   3   4
ENDBRANCH   2   3
ENDBRANCH   1   2
BRANCH   1  24
ATOM     24  C   UNL     1      -4.463  -2.883   6.229  1.00  0.00     0.116 C 
BRANCH  24  25
ATOM     25  N   UNL     1      -3.058  -3.239   6.122  1.00  0.00    -0.352 N 
ATOM     26  C   UNL     1      -2.325  -4.081   6.926  1.00  0.00     0.251 C 
ATOM     27  H   UNL     1      -2.567  -2.823   5.376  1.00  0.00     0.163 HD
ATOM     28  O   UNL     1      -1.119  -4.183   6.768  1.00  0.00    -0.269 OA
BRANCH  26  29
ATOM     29  C   UNL     1      -3.011  -4.825   8.005  1.00  0.00     0.039 A 
ATOM     30  C   UNL     1      -2.453  -4.820   9.284  1.00  0.00     0.014 A 
ATOM     31  C   UNL     1      -4.207  -5.505   7.759  1.00  0.00     0.014 A 
ATOM     32  C   UNL     1      -3.122  -5.459  10.329  1.00  0.00     0.010 A 
ATOM     33  C   UNL     1      -4.911  -6.071   8.817  1.00  0.00     0.010 A 
ATOM     34  C   UNL     1      -4.370  -6.067  10.110  1.00  0.00    -0.014 A 
BRANCH  34  35
ATOM     35  C   UNL     1      -5.102  -6.730  11.219  1.00  0.00     0.031 A 
ATOM     36  C   UNL     1      -5.364  -8.212  11.165  1.00  0.00     0.074 A 
ATOM     37  C   UNL     1      -5.565  -5.996  12.250  1.00  0.00     0.049 A 
ATOM     38  N   UNL     1      -6.019  -8.967  12.008  1.00  0.00    -0.248 NA
ATOM     39  C   UNL     1      -4.845  -8.937   9.992  1.00  0.00     0.031 C 
ATOM     40  C   UNL     1      -5.427  -4.544  12.385  1.00  0.00     0.029 A 
ATOM     41  N   UNL     1      -6.251  -6.369  13.378  1.00  0.00    -0.354 N 
ATOM     42  C   UNL     1      -5.990 -10.249  11.472  1.00  0.00     0.074 A 
ATOM     43  C   UNL     1      -5.320 -10.157  10.194  1.00  0.00     0.031 C 
ATOM     44  C   UNL     1      -5.992  -4.154  13.539  1.00  0.00     0.029 A 
ATOM     45  C   UNL     1      -6.558  -5.319  14.211  1.00  0.00     0.049 A 
ATOM     46  H   UNL     1      -6.500  -7.301  13.573  1.00  0.00     0.167 HD
ATOM     47  C   UNL     1      -6.445 -11.405  12.010  1.00  0.00     0.037 A 
ATOM     48  C   UNL     1      -7.222  -5.299  15.383  1.00  0.00     0.037 A 
ATOM     49  C   UNL     1      -7.097 -11.494  13.291  1.00  0.00     0.049 A 
ATOM     50  C   UNL     1      -7.709  -6.599  15.968  1.00  0.00     0.074 A 
ATOM     51  C   UNL     1      -7.580 -12.618  13.937  1.00  0.00     0.029 A 
ATOM     52  N   UNL     1      -7.348 -10.415  14.126  1.00  0.00    -0.354 N 
ATOM     53  N   UNL     1      -7.632  -7.810  15.466  1.00  0.00    -0.248 NA
ATOM     54  C   UNL     1      -8.354  -6.534  17.286  1.00  0.00     0.031 C 
ATOM     55  C   UNL     1      -8.152 -12.215  15.148  1.00  0.00     0.029 A 
ATOM     56  C   UNL     1      -7.979 -10.846  15.281  1.00  0.00     0.049 A 
ATOM     57  H   UNL     1      -7.113  -9.479  13.927  1.00  0.00     0.167 HD
ATOM     58  C   UNL     1      -8.185  -8.653  16.424  1.00  0.00     0.074 A 
ATOM     59  C   UNL     1      -8.580  -7.816  17.538  1.00  0.00     0.031 C 
ATOM     60  C   UNL     1      -8.351  -9.999  16.387  1.00  0.00     0.037 A 
BRANCH  47  61
ATOM     61  C   UNL     1      -6.231 -12.670  11.222  1.00  0.00     0.058 A 
ATOM     62  C   UNL     1      -4.947 -13.209  11.039  1.00  0.00     0.135 A 
ATOM     63  C   UNL     1      -7.317 -13.368  10.671  1.00  0.00     0.135 A 
ATOM     64  F   UNL     1      -3.870 -12.573  11.527  1.00  0.00    -0.206 F 
ATOM     65  C   UNL     1      -4.743 -14.377  10.313  1.00  0.00     0.059 A 
ATOM     66  C   UNL     1      -7.139 -14.557   9.967  1.00  0.00     0.059 A 
ATOM     67  F   UNL     1      -8.566 -12.899  10.812  1.00  0.00    -0.206 F 
ATOM     68  C   UNL     1      -5.847 -15.045   9.781  1.00  0.00     0.060 A 
BRANCH  68  69
ATOM     69  S   UNL     1      -5.564 -16.567   8.852  1.00  0.00     0.124 S 
ATOM     70  O   UNL     1      -4.971 -16.050   7.622  1.00  0.00    -0.237 OA
ATOM     71  O   UNL     1      -4.661 -17.305   9.730  1.00  0.00    -0.237 OA
ATOM     72  O   UNL     1      -6.902 -17.134   8.713  1.00  0.00    -0.744 OA
ENDBRANCH  68  69
ENDBRANCH  47  61
BRANCH  48  73
ATOM     73  C   UNL     1      -7.446  -4.011  16.094  1.00  0.00     0.058 A 
ATOM     74  C   UNL     1      -6.796  -3.723  17.303  1.00  0.00     0.135 A 
ATOM     75  C   UNL     1      -8.323  -3.043  15.579  1.00  0.00     0.135 A 
ATOM     76  F   UNL     1      -5.949  -4.616  17.838  1.00  0.00    -0.206 F 
ATOM     77  C   UNL     1      -7.030  -2.538  17.994  1.00  0.00     0.059 A 
ATOM     78  C   UNL     1      -8.552  -1.838  16.237  1.00  0.00     0.059 A 
ATOM     79  F   UNL     1      -8.954  -3.258  14.414  1.00  0.00    -0.206 F 
ATOM     80  C   UNL     1      -7.912  -1.602  17.453  1.00  0.00     0.060 A 
BRANCH  80  81
ATOM     81  S   UNL     1      -8.191  -0.056  18.343  1.00  0.00     0.124 S 
ATOM     82  O   UNL     1      -9.017  -0.505  19.458  1.00  0.00    -0.237 OA
ATOM     83  O   UNL     1      -6.831   0.354  18.680  1.00  0.00    -0.237 OA
ATOM     84  O   UNL     1      -8.864   0.782  17.355  1.00  0.00    -0.744 OA
ENDBRANCH  80  81
ENDBRANCH  48  73
BRANCH  60  85
ATOM     85  C   UNL     1      -8.932 -10.656  17.609  1.00  0.00     0.058 A 
ATOM     86  C   UNL     1     -10.278 -10.498  17.971  1.00  0.00     0.135 A 
ATOM     87  C   UNL     1      -8.127 -11.476  18.418  1.00  0.00     0.135 A 
ATOM     88  F   UNL     1     -11.090  -9.724  17.234  1.00  0.00    -0.206 F 
ATOM     89  C   UNL     1     -10.797 -11.094  19.117  1.00  0.00     0.059 A 
ATOM     90  C   UNL     1      -8.633 -12.108  19.550  1.00  0.00     0.059 A 
ATOM     91  F   UNL     1      -6.836 -11.675  18.109  1.00  0.00    -0.206 F 
ATOM     92  C   UNL     1      -9.964 -11.894  19.902  1.00  0.00     0.060 A 
BRANCH  92  93
ATOM     93  S   UNL     1     -10.648 -12.662  21.386  1.00  0.00     0.124 S 
ATOM     94  O   UNL     1     -10.733 -11.522  22.292  1.00  0.00    -0.237 OA
ATOM     95  O   UNL     1     -11.922 -13.188  20.907  1.00  0.00    -0.237 OA
ATOM     96  O   UNL     1      -9.652 -13.670  21.736  1.00  0.00    -0.744 OA
ENDBRANCH  92  93
ENDBRANCH  60  85
ENDBRANCH  34  35
ENDBRANCH  26  29
ENDBRANCH  24  25
ENDBRANCH   1  24
TORSDOF 15
