REMARK SMILES CCN1C(=O)[C@H](CC(=O)Nc2ccc(C(=O)NCCCCNC(=O)c3ccc(-c4c5nc(c(-c6c(F)cc(S(=O)(=O)[O-])cc6F)c6ccc([nH]6)c(-c6c(F)cc(S(=O)(=O)[O-])cc6F)c6nc(c(-c7c(F)cc(S(=O)(=O)[O-])cc7F)c7ccc4[nH]7)C=C6)C=C5)cc3)cc2)S/C1=[NH+]\c1ccc(Cl)cc1
REMARK SMILES IDX 19 1 18 2 17 3 15 4 16 5 14 7 11 8 12 9 92 10 13 11 91 12
REMARK SMILES IDX 10 13 8 14 9 15 7 17 6 18 3 19 4 20 94 21 5 22 93 23 95 24
REMARK SMILES IDX 2 26 1 27 96 28 97 29 102 30 98 31 101 32 99 33 100 34 20 35
REMARK SMILES IDX 21 36 22 37 23 38 24 40 25 41 26 42 90 43 27 44 89 45 28 46
REMARK SMILES IDX 29 47 30 48 83 49 31 50 88 51 82 52 84 53 32 54 87 55 81 56
REMARK SMILES IDX 80 57 33 59 67 60 46 61 66 62 47 63 50 64 65 65 85 66 48 67
REMARK SMILES IDX 49 68 64 70 86 71 51 72 34 73 35 74 44 75 36 76 37 77 43 78
REMARK SMILES IDX 45 79 38 80 39 81 40 82 41 83 42 84 68 85 69 86 78 87 70 88
REMARK SMILES IDX 71 89 77 90 79 91 72 92 73 93 74 94 75 95 76 96 52 97 53 98
REMARK SMILES IDX 62 99 54 100 55 101 61 102 63 103 56 104 57 105 58 106
REMARK SMILES IDX 59 107 60 108
REMARK H PARENT 17 6 10 16 95 25 22 39 84 58 50 69
REMARK Flexibility Score: inf
ROOT
ATOM      1  C   UNL     1       2.195   1.339  -2.197  1.00  0.00     0.023 C 
ENDROOT
BRANCH   1   2
ATOM      2  C   UNL     1       0.962   0.721  -1.540  1.00  0.00     0.116 C 
BRANCH   2   3
ATOM      3  N   UNL     1      -0.335   1.198  -1.991  1.00  0.00    -0.352 N 
ATOM      4  C   UNL     1      -1.566   0.560  -1.969  1.00  0.00     0.251 C 
ATOM      5  O   UNL     1      -2.586   1.234  -2.108  1.00  0.00    -0.269 OA
ATOM      6  H   UNL     1      -0.340   2.108  -2.368  1.00  0.00     0.163 HD
BRANCH   4   7
ATOM      7  C   UNL     1      -1.726  -0.910  -1.736  1.00  0.00     0.039 A 
ATOM      8  C   UNL     1      -2.004  -3.664  -1.093  1.00  0.00     0.041 A 
ATOM      9  C   UNL     1      -2.912  -2.731  -0.591  1.00  0.00     0.027 A 
ATOM     10  C   UNL     1      -1.087  -3.238  -2.057  1.00  0.00     0.027 A 
ATOM     11  C   UNL     1      -2.766  -1.362  -0.902  1.00  0.00     0.016 A 
ATOM     12  C   UNL     1      -0.939  -1.872  -2.373  1.00  0.00     0.016 A 
BRANCH   8  13
ATOM     13  N   UNL     1      -2.126  -5.030  -0.749  1.00  0.00    -0.326 N 
ATOM     14  C   UNL     1      -1.111  -5.869  -0.324  1.00  0.00     0.226 C 
ATOM     15  O   UNL     1      -0.985  -6.981  -0.839  1.00  0.00    -0.275 OA
ATOM     16  H   UNL     1      -3.025  -5.425  -0.820  1.00  0.00     0.169 HD
BRANCH  14  17
ATOM     17  C   UNL     1      -0.307  -5.499   0.928  1.00  0.00     0.128 C 
BRANCH  17  18
ATOM     18  C   UNL     1       1.201  -5.357   0.663  1.00  0.00     0.183 C 
ATOM     19  N   UNL     1       1.265  -3.058   0.959  1.00  0.00    -0.190 N 
ATOM     20  C   UNL     1       1.344  -4.029  -0.008  1.00  0.00     0.324 C 
ATOM     21  C   UNL     1       2.111  -3.309   1.980  1.00  0.00     0.319 C 
ATOM     22  O   UNL     1       1.511  -3.865  -1.205  1.00  0.00    -0.245 OA
ATOM     23  S   UNL     1       2.246  -5.035   2.187  1.00  0.00    -0.022 SA
ATOM     24  N   UNL     1       2.654  -2.309   2.563  1.00  0.00    -0.235 N 
ATOM     25  H   UNL     1       2.307  -1.430   2.290  1.00  0.00     0.313 HD
BRANCH  19  26
ATOM     26  C   UNL     1       0.622  -1.804   0.682  1.00  0.00     0.243 C 
ATOM     27  C   UNL     1       0.492  -0.755   1.770  1.00  0.00     0.054 C 
ENDBRANCH  19  26
BRANCH  24  28
ATOM     28  C   UNL     1       3.652  -2.273   3.516  1.00  0.00     0.125 A 
ATOM     29  C   UNL     1       3.457  -1.386   4.582  1.00  0.00     0.053 A 
ATOM     30  C   UNL     1       4.925  -2.800   3.292  1.00  0.00     0.053 A 
ATOM     31  C   UNL     1       4.509  -1.036   5.426  1.00  0.00     0.025 A 
ATOM     32  C   UNL     1       5.983  -2.457   4.140  1.00  0.00     0.025 A 
ATOM     33  C   UNL     1       5.771  -1.575   5.200  1.00  0.00     0.041 A 
ATOM     34  Cl  UNL     1       7.084  -1.117   6.210  1.00  0.00    -0.084 Cl
ENDBRANCH  24  28
ENDBRANCH  17  18
ENDBRANCH  14  17
ENDBRANCH   8  13
ENDBRANCH   4   7
ENDBRANCH   2   3
ENDBRANCH   1   2
BRANCH   1  35
ATOM     35  C   UNL     1       2.749   2.624  -1.576  1.00  0.00     0.023 C 
BRANCH  35  36
ATOM     36  C   UNL     1       3.229   2.558  -0.121  1.00  0.00     0.116 C 
BRANCH  36  37
ATOM     37  N   UNL     1       4.367   1.675   0.112  1.00  0.00    -0.352 N 
ATOM     38  C   UNL     1       5.609   1.943   0.652  1.00  0.00     0.251 C 
ATOM     39  H   UNL     1       4.227   0.739  -0.160  1.00  0.00     0.163 HD
ATOM     40  O   UNL     1       6.450   1.049   0.714  1.00  0.00    -0.269 OA
BRANCH  38  41
ATOM     41  C   UNL     1       5.960   3.309   1.109  1.00  0.00     0.039 A 
ATOM     42  C   UNL     1       7.170   3.873   0.692  1.00  0.00     0.014 A 
ATOM     43  C   UNL     1       5.098   4.048   1.922  1.00  0.00     0.014 A 
ATOM     44  C   UNL     1       7.457   5.211   0.986  1.00  0.00     0.010 A 
ATOM     45  C   UNL     1       5.349   5.402   2.151  1.00  0.00     0.010 A 
ATOM     46  C   UNL     1       6.519   6.007   1.665  1.00  0.00    -0.014 A 
BRANCH  46  47
ATOM     47  C   UNL     1       6.722   7.474   1.834  1.00  0.00     0.031 A 
ATOM     48  C   UNL     1       6.819   8.085   3.207  1.00  0.00     0.074 A 
ATOM     49  C   UNL     1       6.732   8.275   0.747  1.00  0.00     0.049 A 
ATOM     50  N   UNL     1       6.913   9.345   3.546  1.00  0.00    -0.248 NA
ATOM     51  C   UNL     1       6.773   7.159   4.348  1.00  0.00     0.031 C 
ATOM     52  C   UNL     1       6.585   7.824  -0.639  1.00  0.00     0.029 A 
ATOM     53  N   UNL     1       6.860   9.639   0.636  1.00  0.00    -0.354 N 
ATOM     54  C   UNL     1       6.918   9.367   4.936  1.00  0.00     0.074 A 
ATOM     55  C   UNL     1       6.766   7.996   5.376  1.00  0.00     0.031 C 
ATOM     56  C   UNL     1       6.655   8.886  -1.460  1.00  0.00     0.029 A 
ATOM     57  C   UNL     1       6.817  10.097  -0.661  1.00  0.00     0.049 A 
ATOM     58  H   UNL     1       6.972  10.233   1.412  1.00  0.00     0.167 HD
ATOM     59  C   UNL     1       7.057  10.426   5.771  1.00  0.00     0.037 A 
ATOM     60  C   UNL     1       6.896  11.348  -1.156  1.00  0.00     0.037 A 
ATOM     61  C   UNL     1       7.242  11.785   5.333  1.00  0.00     0.049 A 
ATOM     62  C   UNL     1       7.074  12.506  -0.211  1.00  0.00     0.074 A 
ATOM     63  C   UNL     1       7.463  12.915   6.103  1.00  0.00     0.029 A 
ATOM     64  N   UNL     1       7.231  12.201   4.010  1.00  0.00    -0.354 N 
ATOM     65  N   UNL     1       7.146  12.496   1.098  1.00  0.00    -0.248 NA
ATOM     66  C   UNL     1       7.190  13.843  -0.810  1.00  0.00     0.031 C 
ATOM     67  C   UNL     1       7.550  14.019   5.247  1.00  0.00     0.029 A 
ATOM     68  C   UNL     1       7.425  13.572   3.942  1.00  0.00     0.049 A 
ATOM     69  H   UNL     1       7.103  11.610   3.233  1.00  0.00     0.167 HD
ATOM     70  C   UNL     1       7.345  13.820   1.477  1.00  0.00     0.074 A 
ATOM     71  C   UNL     1       7.390  14.601   0.259  1.00  0.00     0.031 C 
ATOM     72  C   UNL     1       7.479  14.339   2.723  1.00  0.00     0.037 A 
BRANCH  59  73
ATOM     73  C   UNL     1       7.022  10.152   7.250  1.00  0.00     0.058 A 
ATOM     74  C   UNL     1       8.072   9.481   7.899  1.00  0.00     0.135 A 
ATOM     75  C   UNL     1       5.940  10.584   8.033  1.00  0.00     0.135 A 
ATOM     76  F   UNL     1       9.126   9.036   7.196  1.00  0.00    -0.206 F 
ATOM     77  C   UNL     1       8.031   9.213   9.263  1.00  0.00     0.059 A 
ATOM     78  C   UNL     1       5.891  10.352   9.405  1.00  0.00     0.059 A 
ATOM     79  F   UNL     1       4.911  11.234   7.465  1.00  0.00    -0.206 F 
ATOM     80  C   UNL     1       6.934   9.649  10.007  1.00  0.00     0.060 A 
BRANCH  80  81
ATOM     81  S   UNL     1       6.889   9.284  11.774  1.00  0.00     0.124 S 
ATOM     82  O   UNL     1       6.559   7.862  11.768  1.00  0.00    -0.237 OA
ATOM     83  O   UNL     1       8.245   9.617  12.198  1.00  0.00    -0.237 OA
ATOM     84  O   UNL     1       5.843  10.168  12.278  1.00  0.00    -0.744 OA
ENDBRANCH  80  81
ENDBRANCH  59  73
BRANCH  60  85
ATOM     85  C   UNL     1       6.842  11.572  -2.626  1.00  0.00     0.058 A 
ATOM     86  C   UNL     1       7.990  11.953  -3.336  1.00  0.00     0.135 A 
ATOM     87  C   UNL     1       5.651  11.405  -3.349  1.00  0.00     0.135 A 
ATOM     88  F   UNL     1       9.151  12.133  -2.687  1.00  0.00    -0.206 F 
ATOM     89  C   UNL     1       7.959  12.175  -4.709  1.00  0.00     0.059 A 
ATOM     90  C   UNL     1       5.600  11.598  -4.727  1.00  0.00     0.059 A 
ATOM     91  F   UNL     1       4.529  11.027  -2.719  1.00  0.00    -0.206 F 
ATOM     92  C   UNL     1       6.758  11.993  -5.396  1.00  0.00     0.060 A 
BRANCH  92  93
ATOM     93  S   UNL     1       6.739  12.235  -7.186  1.00  0.00     0.124 S 
ATOM     94  O   UNL     1       6.793  13.689  -7.287  1.00  0.00    -0.237 OA
ATOM     95  O   UNL     1       7.940  11.520  -7.606  1.00  0.00    -0.237 OA
ATOM     96  O   UNL     1       5.479  11.619  -7.593  1.00  0.00    -0.744 OA
ENDBRANCH  92  93
ENDBRANCH  60  85
BRANCH  72  97
ATOM     97  C   UNL     1       7.724  15.818   2.834  1.00  0.00     0.058 A 
ATOM     98  C   UNL     1       6.706  16.756   2.603  1.00  0.00     0.135 A 
ATOM     99  C   UNL     1       8.984  16.301   3.226  1.00  0.00     0.135 A 
ATOM    100  F   UNL     1       5.486  16.347   2.220  1.00  0.00    -0.206 F 
ATOM    101  C   UNL     1       6.933  18.122   2.735  1.00  0.00     0.059 A 
ATOM    102  C   UNL     1       9.226  17.661   3.388  1.00  0.00     0.059 A 
ATOM    103  F   UNL     1       9.990  15.446   3.468  1.00  0.00    -0.206 F 
ATOM    104  C   UNL     1       8.197  18.566   3.129  1.00  0.00     0.060 A 
BRANCH 104 105
ATOM    105  S   UNL     1       8.471  20.339   3.330  1.00  0.00     0.124 S 
ATOM    106  O   UNL     1       8.567  20.781   1.943  1.00  0.00    -0.237 OA
ATOM    107  O   UNL     1       7.274  20.762   4.049  1.00  0.00    -0.237 OA
ATOM    108  O   UNL     1       9.711  20.405   4.098  1.00  0.00    -0.744 OA
ENDBRANCH 104 105
ENDBRANCH  72  97
ENDBRANCH  46  47
ENDBRANCH  38  41
ENDBRANCH  36  37
ENDBRANCH  35  36
ENDBRANCH   1  35
TORSDOF 19
