REMARK SMILES C[C@@H]1[C@@H](C(=O)NCCCCNC(=O)c2ccc(-c3c4nc(c(-c5c(F)cc(S(=O)(=O)[O-])cc5F)c5ccc([nH]5)c(-c5c(F)cc(S(=O)(=O)[O-])cc5F)c5nc(c(-c6c(F)cc(S(=O)(=O)[O-])cc6F)c6ccc3[nH]6)C=C5)C=C4)cc2)CCN1C(=O)CN1C(=O)CNC1=O
REMARK SMILES IDX 8 1 7 2 6 3 4 4 5 5 3 7 1 8 2 9 82 10 80 11 81 12 83 13
REMARK SMILES IDX 84 14 85 15 86 16 87 17 91 18 88 19 89 20 90 21 92 22 9 24
REMARK SMILES IDX 10 25 11 26 12 27 13 29 14 30 15 31 79 32 16 33 78 34 17 35
REMARK SMILES IDX 18 36 19 37 72 38 20 39 77 40 71 41 73 42 21 43 76 44 70 45
REMARK SMILES IDX 69 46 22 48 56 49 35 50 55 51 36 52 39 53 54 54 74 55 37 56
REMARK SMILES IDX 38 57 53 59 75 60 40 61 23 62 24 63 33 64 25 65 26 66 32 67
REMARK SMILES IDX 34 68 27 69 28 70 29 71 30 72 31 73 57 74 58 75 67 76 59 77
REMARK SMILES IDX 60 78 66 79 68 80 61 81 62 82 63 83 64 84 65 85 41 86 42 87
REMARK SMILES IDX 51 88 43 89 44 90 50 91 52 92 45 93 46 94 47 95 48 96 49 97
REMARK H PARENT 6 6 90 23 11 28 73 47 39 58
REMARK Flexibility Score: inf
ROOT
ATOM      1  C   UNL     1      -2.865   4.399  -1.078  1.00  0.00     0.023 C 
ENDROOT
BRANCH   1   2
ATOM      2  C   UNL     1      -2.458   2.985  -0.674  1.00  0.00     0.116 C 
BRANCH   2   3
ATOM      3  N   UNL     1      -1.539   2.386  -1.617  1.00  0.00    -0.356 N 
ATOM      4  C   UNL     1      -0.426   1.636  -1.396  1.00  0.00     0.225 C 
ATOM      5  O   UNL     1       0.376   1.555  -2.331  1.00  0.00    -0.275 OA
ATOM      6  H   UNL     1      -1.751   2.547  -2.565  1.00  0.00     0.163 HD
BRANCH   4   7
ATOM      7  C   UNL     1      -0.089   1.091  -0.006  1.00  0.00     0.102 C 
ATOM      8  C   UNL     1       1.940  -0.057   0.996  1.00  0.00     0.032 C 
ATOM      9  C   UNL     1       0.897  -0.102  -0.123  1.00  0.00     0.094 C 
ATOM     10  N   UNL     1       0.047  -1.302  -0.010  1.00  0.00    -0.338 N 
ATOM     11  C   UNL     1      -1.213   0.490   0.845  1.00  0.00     0.037 C 
ATOM     12  C   UNL     1      -1.289  -0.962   0.421  1.00  0.00     0.121 C 
BRANCH  10  13
ATOM     13  C   UNL     1       0.267  -2.572  -0.524  1.00  0.00     0.243 C 
ATOM     14  O   UNL     1      -0.583  -3.463  -0.446  1.00  0.00    -0.273 OA
BRANCH  13  15
ATOM     15  C   UNL     1       1.574  -2.816  -1.265  1.00  0.00     0.230 C 
BRANCH  15  16
ATOM     16  N   UNL     1       1.535  -2.600  -2.697  1.00  0.00    -0.253 N 
ATOM     17  C   UNL     1       2.524  -3.050  -3.527  1.00  0.00     0.250 C 
ATOM     18  C   UNL     1       0.746  -1.705  -3.357  1.00  0.00     0.325 C 
ATOM     19  O   UNL     1       3.416  -3.837  -3.235  1.00  0.00    -0.272 OA
ATOM     20  C   UNL     1       2.381  -2.368  -4.877  1.00  0.00     0.218 C 
ATOM     21  N   UNL     1       1.245  -1.536  -4.627  1.00  0.00    -0.329 N 
ATOM     22  O   UNL     1      -0.248  -1.135  -2.952  1.00  0.00    -0.248 OA
ATOM     23  H   UNL     1       0.864  -0.915  -5.288  1.00  0.00     0.165 HD
ENDBRANCH  15  16
ENDBRANCH  13  15
ENDBRANCH  10  13
ENDBRANCH   4   7
ENDBRANCH   2   3
ENDBRANCH   1   2
BRANCH   1  24
ATOM     24  C   UNL     1      -3.680   4.506  -2.367  1.00  0.00     0.023 C 
BRANCH  24  25
ATOM     25  C   UNL     1      -4.949   3.660  -2.417  1.00  0.00     0.116 C 
BRANCH  25  26
ATOM     26  N   UNL     1      -5.875   3.962  -1.336  1.00  0.00    -0.352 N 
ATOM     27  C   UNL     1      -7.167   4.429  -1.382  1.00  0.00     0.251 C 
ATOM     28  H   UNL     1      -5.521   3.809  -0.430  1.00  0.00     0.163 HD
ATOM     29  O   UNL     1      -7.726   4.768  -0.342  1.00  0.00    -0.269 OA
BRANCH  27  30
ATOM     30  C   UNL     1      -7.873   4.551  -2.676  1.00  0.00     0.039 A 
ATOM     31  C   UNL     1      -8.615   5.706  -2.938  1.00  0.00     0.014 A 
ATOM     32  C   UNL     1      -7.809   3.533  -3.630  1.00  0.00     0.014 A 
ATOM     33  C   UNL     1      -9.227   5.872  -4.183  1.00  0.00     0.010 A 
ATOM     34  C   UNL     1      -8.347   3.735  -4.898  1.00  0.00     0.010 A 
ATOM     35  C   UNL     1      -9.065   4.905  -5.189  1.00  0.00    -0.014 A 
BRANCH  35  36
ATOM     36  C   UNL     1      -9.644   5.089  -6.546  1.00  0.00     0.031 A 
ATOM     37  C   UNL     1     -10.676   4.121  -7.063  1.00  0.00     0.074 A 
ATOM     38  C   UNL     1      -9.193   6.081  -7.340  1.00  0.00     0.049 A 
ATOM     39  N   UNL     1     -11.232   4.058  -8.245  1.00  0.00    -0.248 NA
ATOM     40  C   UNL     1     -11.116   3.066  -6.136  1.00  0.00     0.031 C 
ATOM     41  C   UNL     1      -8.162   7.056  -6.976  1.00  0.00     0.029 A 
ATOM     42  N   UNL     1      -9.534   6.426  -8.624  1.00  0.00    -0.354 N 
ATOM     43  C   UNL     1     -12.070   2.950  -8.211  1.00  0.00     0.074 A 
ATOM     44  C   UNL     1     -11.906   2.337  -6.911  1.00  0.00     0.031 C 
ATOM     45  C   UNL     1      -7.972   7.901  -8.002  1.00  0.00     0.029 A 
ATOM     46  C   UNL     1      -8.836   7.508  -9.111  1.00  0.00     0.049 A 
ATOM     47  H   UNL     1     -10.214   5.945  -9.149  1.00  0.00     0.167 HD
ATOM     48  C   UNL     1     -12.918   2.496  -9.165  1.00  0.00     0.037 A 
ATOM     49  C   UNL     1      -8.883   8.111 -10.315  1.00  0.00     0.037 A 
ATOM     50  C   UNL     1     -13.099   3.126 -10.447  1.00  0.00     0.049 A 
ATOM     51  C   UNL     1      -9.838   7.595 -11.357  1.00  0.00     0.074 A 
ATOM     52  C   UNL     1     -13.971   2.776 -11.464  1.00  0.00     0.029 A 
ATOM     53  N   UNL     1     -12.397   4.239 -10.889  1.00  0.00    -0.354 N 
ATOM     54  N   UNL     1     -10.663   6.578 -11.289  1.00  0.00    -0.248 NA
ATOM     55  C   UNL     1      -9.876   8.315 -12.638  1.00  0.00     0.031 C 
ATOM     56  C   UNL     1     -13.768   3.653 -12.535  1.00  0.00     0.029 A 
ATOM     57  C   UNL     1     -12.806   4.580 -12.167  1.00  0.00     0.049 A 
ATOM     58  H   UNL     1     -11.709   4.715 -10.370  1.00  0.00     0.167 HD
ATOM     59  C   UNL     1     -11.343   6.556 -12.502  1.00  0.00     0.074 A 
ATOM     60  C   UNL     1     -10.836   7.665 -13.283  1.00  0.00     0.031 C 
ATOM     61  C   UNL     1     -12.302   5.697 -12.928  1.00  0.00     0.037 A 
BRANCH  48  62
ATOM     62  C   UNL     1     -13.719   1.261  -8.853  1.00  0.00     0.058 A 
ATOM     63  C   UNL     1     -14.746   1.271  -7.894  1.00  0.00     0.135 A 
ATOM     64  C   UNL     1     -13.471   0.057  -9.531  1.00  0.00     0.135 A 
ATOM     65  F   UNL     1     -15.017   2.391  -7.205  1.00  0.00    -0.206 F 
ATOM     66  C   UNL     1     -15.472   0.124  -7.592  1.00  0.00     0.059 A 
ATOM     67  C   UNL     1     -14.206  -1.096  -9.266  1.00  0.00     0.059 A 
ATOM     68  F   UNL     1     -12.503  -0.011 -10.458  1.00  0.00    -0.206 F 
ATOM     69  C   UNL     1     -15.192  -1.057  -8.281  1.00  0.00     0.060 A 
BRANCH  69  70
ATOM     70  S   UNL     1     -16.138  -2.539  -7.872  1.00  0.00     0.124 S 
ATOM     71  O   UNL     1     -15.564  -2.901  -6.580  1.00  0.00    -0.237 OA
ATOM     72  O   UNL     1     -17.508  -2.036  -7.838  1.00  0.00    -0.237 OA
ATOM     73  O   UNL     1     -15.835  -3.450  -8.971  1.00  0.00    -0.744 OA
ENDBRANCH  69  70
ENDBRANCH  48  62
BRANCH  49  74
ATOM     74  C   UNL     1      -8.021   9.293 -10.587  1.00  0.00     0.058 A 
ATOM     75  C   UNL     1      -8.575  10.577 -10.698  1.00  0.00     0.135 A 
ATOM     76  C   UNL     1      -6.630   9.168 -10.725  1.00  0.00     0.135 A 
ATOM     77  F   UNL     1      -9.901  10.747 -10.580  1.00  0.00    -0.206 F 
ATOM     78  C   UNL     1      -7.785  11.693 -10.950  1.00  0.00     0.059 A 
ATOM     79  C   UNL     1      -5.815  10.273 -10.953  1.00  0.00     0.059 A 
ATOM     80  F   UNL     1      -6.048   7.964 -10.611  1.00  0.00    -0.206 F 
ATOM     81  C   UNL     1      -6.404  11.531 -11.073  1.00  0.00     0.060 A 
BRANCH  81  82
ATOM     82  S   UNL     1      -5.382  12.995 -11.347  1.00  0.00     0.124 S 
ATOM     83  O   UNL     1      -5.687  13.310 -12.738  1.00  0.00    -0.237 OA
ATOM     84  O   UNL     1      -5.905  13.925 -10.351  1.00  0.00    -0.237 OA
ATOM     85  O   UNL     1      -4.028  12.511 -11.091  1.00  0.00    -0.744 OA
ENDBRANCH  81  82
ENDBRANCH  49  74
BRANCH  61  86
ATOM     86  C   UNL     1     -12.907   5.950 -14.281  1.00  0.00     0.058 A 
ATOM     87  C   UNL     1     -12.203   5.697 -15.468  1.00  0.00     0.135 A 
ATOM     88  C   UNL     1     -14.232   6.404 -14.389  1.00  0.00     0.135 A 
ATOM     89  F   UNL     1     -10.932   5.267 -15.421  1.00  0.00    -0.206 F 
ATOM     90  C   UNL     1     -12.782   5.908 -16.715  1.00  0.00     0.059 A 
ATOM     91  C   UNL     1     -14.841   6.595 -15.625  1.00  0.00     0.059 A 
ATOM     92  F   UNL     1     -14.955   6.651 -13.285  1.00  0.00    -0.206 F 
ATOM     93  C   UNL     1     -14.103   6.357 -16.784  1.00  0.00     0.060 A 
BRANCH  93  94
ATOM     94  S   UNL     1     -14.854   6.598 -18.407  1.00  0.00     0.124 S 
ATOM     95  O   UNL     1     -14.209   7.830 -18.849  1.00  0.00    -0.237 OA
ATOM     96  O   UNL     1     -14.458   5.385 -19.118  1.00  0.00    -0.237 OA
ATOM     97  O   UNL     1     -16.279   6.705 -18.110  1.00  0.00    -0.744 OA
ENDBRANCH  93  94
ENDBRANCH  61  86
ENDBRANCH  35  36
ENDBRANCH  27  30
ENDBRANCH  25  26
ENDBRANCH  24  25
ENDBRANCH   1  24
TORSDOF 17
