REMARK SMILES CC(C)(C[C@@H](O)C(F)(F)F)C(=O)NCCCCNC(=O)c1ccc(-c2c3nc(c(-c4c(F)cc(S(=O)(=O)[O-])cc4F)c4ccc([nH]4)c(-c4c(F)cc(S(=O)(=O)[O-])cc4F)c4nc(c(-c5c(F)cc(S(=O)(=O)[O-])cc5F)c5ccc2[nH]5)C=C4)C=C3)cc1
REMARK SMILES IDX 15 1 14 2 13 3 11 4 12 5 2 7 1 8 3 9 4 10 5 11 6 12 7 14
REMARK SMILES IDX 8 15 9 16 10 17 16 18 17 19 18 20 19 21 20 23 21 24 22 25
REMARK SMILES IDX 86 26 23 27 85 28 24 29 25 30 26 31 79 32 27 33 84 34 78 35
REMARK SMILES IDX 80 36 28 37 83 38 77 39 76 40 29 42 63 43 42 44 62 45 43 46
REMARK SMILES IDX 46 47 61 48 81 49 44 50 45 51 60 53 82 54 47 55 30 56 31 57
REMARK SMILES IDX 40 58 32 59 33 60 39 61 41 62 34 63 35 64 36 65 37 66 38 67
REMARK SMILES IDX 64 68 65 69 74 70 66 71 67 72 73 73 75 74 68 75 69 76 70 77
REMARK SMILES IDX 71 78 72 79 48 80 49 81 58 82 50 83 51 84 57 85 59 86 52 87
REMARK SMILES IDX 53 88 54 89 55 90 56 91
REMARK H PARENT 13 6 6 13 18 22 80 41 46 52
REMARK Flexibility Score: inf
ROOT
ATOM      1  C   UNL     1      -1.414   4.803   0.849  1.00  0.00     0.023 C 
ENDROOT
BRANCH   1   2
ATOM      2  C   UNL     1      -0.143   4.461   0.075  1.00  0.00     0.116 C 
BRANCH   2   3
ATOM      3  N   UNL     1       0.789   3.677   0.865  1.00  0.00    -0.356 N 
ATOM      4  C   UNL     1       1.110   2.358   0.854  1.00  0.00     0.225 C 
ATOM      5  O   UNL     1       1.819   1.954   1.782  1.00  0.00    -0.275 OA
ATOM      6  H   UNL     1       1.282   4.202   1.536  1.00  0.00     0.163 HD
BRANCH   4   7
ATOM      7  C   UNL     1       0.579   1.371  -0.204  1.00  0.00     0.046 C 
ATOM      8  C   UNL     1       1.215  -0.020   0.043  1.00  0.00     0.021 C 
ATOM      9  C   UNL     1       1.060   1.798  -1.607  1.00  0.00     0.021 C 
BRANCH   7  10
ATOM     10  C   UNL     1      -0.965   1.227  -0.147  1.00  0.00     0.057 C 
BRANCH  10  11
ATOM     11  C   UNL     1      -1.570   0.705   1.179  1.00  0.00     0.220 C 
BRANCH  11  12
ATOM     12  O   UNL     1      -1.137   1.495   2.293  1.00  0.00    -0.384 OA
ATOM     13  H   UNL     1      -1.437   2.410   2.177  1.00  0.00     0.211 HD
ENDBRANCH  11  12
BRANCH  11  14
ATOM     14  C   UNL     1      -3.110   0.690   1.081  1.00  0.00     0.414 C 
ATOM     15  F   UNL     1      -3.512  -0.092   0.049  1.00  0.00    -0.168 F 
ATOM     16  F   UNL     1      -3.674   0.188   2.202  1.00  0.00    -0.168 F 
ATOM     17  F   UNL     1      -3.619   1.924   0.871  1.00  0.00    -0.168 F 
ENDBRANCH  11  14
ENDBRANCH  10  11
ENDBRANCH   7  10
ENDBRANCH   4   7
ENDBRANCH   2   3
ENDBRANCH   1   2
BRANCH   1  18
ATOM     18  C   UNL     1      -1.218   5.775   2.011  1.00  0.00     0.023 C 
BRANCH  18  19
ATOM     19  C   UNL     1      -0.514   7.075   1.649  1.00  0.00     0.116 C 
BRANCH  19  20
ATOM     20  N   UNL     1      -1.168   7.795   0.567  1.00  0.00    -0.352 N 
ATOM     21  C   UNL     1      -1.399   9.142   0.442  1.00  0.00     0.251 C 
ATOM     22  H   UNL     1      -1.490   7.238  -0.179  1.00  0.00     0.163 HD
ATOM     23  O   UNL     1      -2.089   9.558  -0.485  1.00  0.00    -0.269 OA
BRANCH  21  24
ATOM     24  C   UNL     1      -0.838  10.081   1.437  1.00  0.00     0.039 A 
ATOM     25  C   UNL     1      -1.641  11.121   1.908  1.00  0.00     0.014 A 
ATOM     26  C   UNL     1       0.473   9.940   1.901  1.00  0.00     0.014 A 
ATOM     27  C   UNL     1      -1.139  11.999   2.870  1.00  0.00     0.010 A 
ATOM     28  C   UNL     1       0.937  10.756   2.927  1.00  0.00     0.010 A 
ATOM     29  C   UNL     1       0.148  11.813   3.402  1.00  0.00    -0.014 A 
BRANCH  29  30
ATOM     30  C   UNL     1       0.699  12.751   4.414  1.00  0.00     0.031 A 
ATOM     31  C   UNL     1       1.918  13.575   4.088  1.00  0.00     0.074 A 
ATOM     32  C   UNL     1       0.123  12.841   5.629  1.00  0.00     0.049 A 
ATOM     33  N   UNL     1       2.553  14.442   4.835  1.00  0.00    -0.248 NA
ATOM     34  C   UNL     1       2.521  13.380   2.759  1.00  0.00     0.031 C 
ATOM     35  C   UNL     1      -1.026  12.053   6.083  1.00  0.00     0.029 A 
ATOM     36  N   UNL     1       0.423  13.637   6.706  1.00  0.00    -0.354 N 
ATOM     37  C   UNL     1       3.629  14.883   4.072  1.00  0.00     0.074 A 
ATOM     38  C   UNL     1       3.603  14.140   2.834  1.00  0.00     0.031 C 
ATOM     39  C   UNL     1      -1.353  12.430   7.330  1.00  0.00     0.029 A 
ATOM     40  C   UNL     1      -0.419  13.459   7.778  1.00  0.00     0.049 A 
ATOM     41  H   UNL     1       1.172  14.276   6.710  1.00  0.00     0.167 HD
ATOM     42  C   UNL     1       4.538  15.844   4.363  1.00  0.00     0.037 A 
ATOM     43  C   UNL     1      -0.439  14.061   8.983  1.00  0.00     0.037 A 
ATOM     44  C   UNL     1       4.540  16.601   5.588  1.00  0.00     0.049 A 
ATOM     45  C   UNL     1       0.572  15.138   9.276  1.00  0.00     0.074 A 
ATOM     46  C   UNL     1       5.385  17.631   5.962  1.00  0.00     0.029 A 
ATOM     47  N   UNL     1       3.653  16.411   6.638  1.00  0.00    -0.354 N 
ATOM     48  N   UNL     1       1.544  15.588   8.517  1.00  0.00    -0.248 NA
ATOM     49  C   UNL     1       0.470  15.805  10.580  1.00  0.00     0.031 C 
ATOM     50  C   UNL     1       5.040  18.031   7.257  1.00  0.00     0.029 A 
ATOM     51  C   UNL     1       3.939  17.295   7.665  1.00  0.00     0.049 A 
ATOM     52  H   UNL     1       2.927  15.746   6.651  1.00  0.00     0.167 HD
ATOM     53  C   UNL     1       2.143  16.618   9.237  1.00  0.00     0.074 A 
ATOM     54  C   UNL     1       1.414  16.730  10.484  1.00  0.00     0.031 C 
ATOM     55  C   UNL     1       3.195  17.403   8.896  1.00  0.00     0.037 A 
BRANCH  42  56
ATOM     56  C   UNL     1       5.601  16.137   3.337  1.00  0.00     0.058 A 
ATOM     57  C   UNL     1       5.295  16.743   2.107  1.00  0.00     0.135 A 
ATOM     58  C   UNL     1       6.949  15.845   3.602  1.00  0.00     0.135 A 
ATOM     59  F   UNL     1       4.021  17.027   1.790  1.00  0.00    -0.206 F 
ATOM     60  C   UNL     1       6.281  17.023   1.167  1.00  0.00     0.059 A 
ATOM     61  C   UNL     1       7.956  16.147   2.689  1.00  0.00     0.059 A 
ATOM     62  F   UNL     1       7.300  15.264   4.760  1.00  0.00    -0.206 F 
ATOM     63  C   UNL     1       7.610  16.724   1.469  1.00  0.00     0.060 A 
BRANCH  63  64
ATOM     64  S   UNL     1       8.879  17.111   0.245  1.00  0.00     0.124 S 
ATOM     65  O   UNL     1       8.611  16.107  -0.780  1.00  0.00    -0.237 OA
ATOM     66  O   UNL     1       8.553  18.487  -0.116  1.00  0.00    -0.237 OA
ATOM     67  O   UNL     1      10.127  16.938   0.981  1.00  0.00    -0.744 OA
ENDBRANCH  63  64
ENDBRANCH  42  56
BRANCH  43  68
ATOM     68  C   UNL     1      -1.469  13.685   9.990  1.00  0.00     0.058 A 
ATOM     69  C   UNL     1      -2.487  14.580  10.356  1.00  0.00     0.135 A 
ATOM     70  C   UNL     1      -1.453  12.427  10.612  1.00  0.00     0.135 A 
ATOM     71  F   UNL     1      -2.545  15.796   9.793  1.00  0.00    -0.206 F 
ATOM     72  C   UNL     1      -3.433  14.254  11.323  1.00  0.00     0.059 A 
ATOM     73  C   UNL     1      -2.406  12.067  11.559  1.00  0.00     0.059 A 
ATOM     74  F   UNL     1      -0.514  11.527  10.285  1.00  0.00    -0.206 F 
ATOM     75  C   UNL     1      -3.384  12.993  11.920  1.00  0.00     0.060 A 
BRANCH  75  76
ATOM     76  S   UNL     1      -4.633  12.569  13.152  1.00  0.00     0.124 S 
ATOM     77  O   UNL     1      -4.220  13.390  14.285  1.00  0.00    -0.237 OA
ATOM     78  O   UNL     1      -5.868  12.973  12.488  1.00  0.00    -0.237 OA
ATOM     79  O   UNL     1      -4.463  11.129  13.321  1.00  0.00    -0.744 OA
ENDBRANCH  75  76
ENDBRANCH  43  68
BRANCH  55  80
ATOM     80  C   UNL     1       3.581  18.495   9.857  1.00  0.00     0.058 A 
ATOM     81  C   UNL     1       4.160  18.223  11.106  1.00  0.00     0.135 A 
ATOM     82  C   UNL     1       3.381  19.842   9.508  1.00  0.00     0.135 A 
ATOM     83  F   UNL     1       4.375  16.955  11.490  1.00  0.00    -0.206 F 
ATOM     84  C   UNL     1       4.479  19.244  11.997  1.00  0.00     0.059 A 
ATOM     85  C   UNL     1       3.725  20.879  10.368  1.00  0.00     0.059 A 
ATOM     86  F   UNL     1       2.848  20.162   8.318  1.00  0.00    -0.206 F 
ATOM     87  C   UNL     1       4.252  20.569  11.620  1.00  0.00     0.060 A 
BRANCH  87  88
ATOM     88  S   UNL     1       4.659  21.884  12.787  1.00  0.00     0.124 S 
ATOM     89  O   UNL     1       3.581  21.754  13.762  1.00  0.00    -0.237 OA
ATOM     90  O   UNL     1       5.985  21.490  13.253  1.00  0.00    -0.237 OA
ATOM     91  O   UNL     1       4.622  23.091  11.967  1.00  0.00    -0.744 OA
ENDBRANCH  87  88
ENDBRANCH  55  80
ENDBRANCH  29  30
ENDBRANCH  21  24
ENDBRANCH  19  20
ENDBRANCH  18  19
ENDBRANCH   1  18
TORSDOF 18
