REMARK SMILES CC(C)[C@H](CO)NS(=O)(=O)c1ccc(C(=O)NCCCCNC(=O)c2ccc(-c3c4nc(c(-c5c(F)cc(S(=O)(=O)[O-])cc5F)c5ccc([nH]5)c(-c5c(F)cc(S(=O)(=O)[O-])cc5F)c5nc(c(-c6c(F)cc(S(=O)(=O)[O-])cc6F)c6ccc3[nH]6)C=C5)C=C4)cc2)cn1
REMARK SMILES IDX 18 1 17 2 15 3 16 4 14 6 11 7 12 8 92 9 13 10 91 11 8 12
REMARK SMILES IDX 9 13 10 14 7 15 4 17 2 18 1 19 3 20 5 21 6 22 19 24 20 25
REMARK SMILES IDX 21 26 22 27 23 28 24 30 25 31 26 32 90 33 27 34 89 35 28 36
REMARK SMILES IDX 29 37 30 38 83 39 31 40 88 41 82 42 84 43 32 44 87 45 81 46
REMARK SMILES IDX 80 47 33 49 67 50 46 51 66 52 47 53 50 54 65 55 85 56 48 57
REMARK SMILES IDX 49 58 64 60 86 61 51 62 34 63 35 64 44 65 36 66 37 67 43 68
REMARK SMILES IDX 45 69 38 70 39 71 40 72 41 73 42 74 68 75 69 76 78 77 70 78
REMARK SMILES IDX 71 79 77 80 79 81 72 82 73 83 74 84 75 85 76 86 52 87 53 88
REMARK SMILES IDX 62 89 54 90 55 91 61 92 63 93 56 94 57 95 58 96 59 97 60 98
REMARK H PARENT 17 5 7 16 6 23 22 29 84 48 50 59
REMARK Flexibility Score: inf
ROOT
ATOM      1  C   UNL     1      -6.214   4.158  -1.456  1.00  0.00     0.116 C 
ENDROOT
BRANCH   1   2
ATOM      2  N   UNL     1      -5.604   5.050  -0.488  1.00  0.00    -0.352 N 
ATOM      3  C   UNL     1      -4.865   4.813   0.642  1.00  0.00     0.252 C 
ATOM      4  O   UNL     1      -4.375   5.778   1.229  1.00  0.00    -0.269 OA
ATOM      5  H   UNL     1      -5.747   6.005  -0.679  1.00  0.00     0.163 HD
BRANCH   3   6
ATOM      6  C   UNL     1      -4.588   3.456   1.172  1.00  0.00     0.058 A 
ATOM      7  C   UNL     1      -3.877   1.068   2.308  1.00  0.00     0.170 A 
ATOM      8  C   UNL     1      -5.061   1.123   1.589  1.00  0.00     0.043 A 
ATOM      9  N   UNL     1      -3.021   2.111   2.481  1.00  0.00    -0.243 NA
ATOM     10  C   UNL     1      -5.424   2.347   1.031  1.00  0.00     0.018 A 
ATOM     11  C   UNL     1      -3.423   3.287   1.927  1.00  0.00     0.126 A 
BRANCH   7  12
ATOM     12  S   UNL     1      -3.372  -0.477   3.057  1.00  0.00     0.258 S 
ATOM     13  O   UNL     1      -4.008  -1.542   2.304  1.00  0.00    -0.205 OA
ATOM     14  O   UNL     1      -3.566  -0.358   4.483  1.00  0.00    -0.205 OA
BRANCH  12  15
ATOM     15  N   UNL     1      -1.714  -0.580   2.800  1.00  0.00    -0.204 NA
ATOM     16  H   UNL     1      -1.294   0.170   3.349  1.00  0.00     0.141 HD
BRANCH  15  17
ATOM     17  C   UNL     1      -1.111  -0.487   1.448  1.00  0.00     0.098 C 
BRANCH  17  18
ATOM     18  C   UNL     1      -1.432  -1.712   0.558  1.00  0.00     0.003 C 
ATOM     19  C   UNL     1      -0.603  -1.722  -0.732  1.00  0.00     0.009 C 
ATOM     20  C   UNL     1      -1.266  -3.061   1.266  1.00  0.00     0.009 C 
ENDBRANCH  17  18
BRANCH  17  21
ATOM     21  C   UNL     1       0.403  -0.247   1.661  1.00  0.00     0.176 C 
BRANCH  21  22
ATOM     22  O   UNL     1       0.607   0.834   2.580  1.00  0.00    -0.395 OA
ATOM     23  H   UNL     1       0.208   1.642   2.222  1.00  0.00     0.210 HD
ENDBRANCH  21  22
ENDBRANCH  17  21
ENDBRANCH  15  17
ENDBRANCH  12  15
ENDBRANCH   7  12
ENDBRANCH   3   6
ENDBRANCH   1   2
BRANCH   1  24
ATOM     24  C   UNL     1      -7.717   4.017  -1.208  1.00  0.00     0.023 C 
BRANCH  24  25
ATOM     25  C   UNL     1      -8.558   5.191  -1.719  1.00  0.00     0.023 C 
BRANCH  25  26
ATOM     26  C   UNL     1      -8.508   5.426  -3.226  1.00  0.00     0.116 C 
BRANCH  26  27
ATOM     27  N   UNL     1      -8.885   4.256  -4.007  1.00  0.00    -0.352 N 
ATOM     28  C   UNL     1      -9.563   4.208  -5.203  1.00  0.00     0.251 C 
ATOM     29  H   UNL     1      -8.621   3.386  -3.630  1.00  0.00     0.163 HD
ATOM     30  O   UNL     1      -9.886   3.128  -5.686  1.00  0.00    -0.269 OA
BRANCH  28  31
ATOM     31  C   UNL     1      -9.935   5.471  -5.872  1.00  0.00     0.039 A 
ATOM     32  C   UNL     1     -11.269   5.674  -6.231  1.00  0.00     0.014 A 
ATOM     33  C   UNL     1      -8.982   6.472  -6.081  1.00  0.00     0.014 A 
ATOM     34  C   UNL     1     -11.667   6.920  -6.719  1.00  0.00     0.010 A 
ATOM     35  C   UNL     1      -9.392   7.731  -6.512  1.00  0.00     0.010 A 
ATOM     36  C   UNL     1     -10.741   7.972  -6.814  1.00  0.00    -0.014 A 
BRANCH  36  37
ATOM     37  C   UNL     1     -11.174   9.348  -7.167  1.00  0.00     0.031 A 
ATOM     38  C   UNL     1     -10.690   9.999  -8.431  1.00  0.00     0.074 A 
ATOM     39  C   UNL     1     -11.938  10.038  -6.297  1.00  0.00     0.049 A 
ATOM     40  N   UNL     1     -10.894  11.217  -8.860  1.00  0.00    -0.248 NA
ATOM     41  C   UNL     1      -9.845   9.182  -9.316  1.00  0.00     0.031 C 
ATOM     42  C   UNL     1     -12.426   9.531  -5.012  1.00  0.00     0.029 A 
ATOM     43  N   UNL     1     -12.426  11.319  -6.352  1.00  0.00    -0.354 N 
ATOM     44  C   UNL     1     -10.199  11.319 -10.059  1.00  0.00     0.074 A 
ATOM     45  C   UNL     1      -9.528  10.053 -10.265  1.00  0.00     0.031 C 
ATOM     46  C   UNL     1     -13.154  10.484  -4.409  1.00  0.00     0.029 A 
ATOM     47  C   UNL     1     -13.155  11.681  -5.243  1.00  0.00     0.049 A 
ATOM     48  H   UNL     1     -12.270  11.923  -7.114  1.00  0.00     0.167 HD
ATOM     49  C   UNL     1     -10.142  12.365 -10.917  1.00  0.00     0.037 A 
ATOM     50  C   UNL     1     -13.746  12.849  -4.926  1.00  0.00     0.037 A 
ATOM     51  C   UNL     1     -10.827  13.615 -10.713  1.00  0.00     0.049 A 
ATOM     52  C   UNL     1     -13.661  13.999  -5.891  1.00  0.00     0.074 A 
ATOM     53  C   UNL     1     -10.886  14.712 -11.555  1.00  0.00     0.029 A 
ATOM     54  N   UNL     1     -11.566  13.940  -9.584  1.00  0.00    -0.354 N 
ATOM     55  N   UNL     1     -13.057  14.054  -7.054  1.00  0.00    -0.248 NA
ATOM     56  C   UNL     1     -14.336  15.245  -5.503  1.00  0.00     0.031 C 
ATOM     57  C   UNL     1     -11.624  15.715 -10.918  1.00  0.00     0.029 A 
ATOM     58  C   UNL     1     -12.063  15.229  -9.697  1.00  0.00     0.049 A 
ATOM     59  H   UNL     1     -11.716  13.342  -8.816  1.00  0.00     0.167 HD
ATOM     60  C   UNL     1     -13.293  15.333  -7.545  1.00  0.00     0.074 A 
ATOM     61  C   UNL     1     -14.110  16.013  -6.560  1.00  0.00     0.031 C 
ATOM     62  C   UNL     1     -12.871  15.894  -8.705  1.00  0.00     0.037 A 
BRANCH  49  63
ATOM     63  C   UNL     1      -9.313  12.201 -12.161  1.00  0.00     0.058 A 
ATOM     64  C   UNL     1      -9.719  11.358 -13.208  1.00  0.00     0.135 A 
ATOM     65  C   UNL     1      -8.120  12.922 -12.325  1.00  0.00     0.135 A 
ATOM     66  F   UNL     1     -10.844  10.635 -13.097  1.00  0.00    -0.206 F 
ATOM     67  C   UNL     1      -8.956  11.214 -14.363  1.00  0.00     0.059 A 
ATOM     68  C   UNL     1      -7.354  12.813 -13.483  1.00  0.00     0.059 A 
ATOM     69  F   UNL     1      -7.685  13.741 -11.355  1.00  0.00    -0.206 F 
ATOM     70  C   UNL     1      -7.774  11.945 -14.490  1.00  0.00     0.060 A 
BRANCH  70  71
ATOM     71  S   UNL     1      -6.798  11.749 -15.996  1.00  0.00     0.124 S 
ATOM     72  O   UNL     1      -6.216  10.425 -15.793  1.00  0.00    -0.237 OA
ATOM     73  O   UNL     1      -7.812  11.841 -17.041  1.00  0.00    -0.237 OA
ATOM     74  O   UNL     1      -5.857  12.863 -15.939  1.00  0.00    -0.744 OA
ENDBRANCH  70  71
ENDBRANCH  49  63
BRANCH  50  75
ATOM     75  C   UNL     1     -14.482  12.984  -3.641  1.00  0.00     0.058 A 
ATOM     76  C   UNL     1     -15.881  13.071  -3.618  1.00  0.00     0.135 A 
ATOM     77  C   UNL     1     -13.804  13.011  -2.412  1.00  0.00     0.135 A 
ATOM     78  F   UNL     1     -16.573  13.056  -4.768  1.00  0.00    -0.206 F 
ATOM     79  C   UNL     1     -16.584  13.193  -2.424  1.00  0.00     0.059 A 
ATOM     80  C   UNL     1     -14.486  13.108  -1.203  1.00  0.00     0.059 A 
ATOM     81  F   UNL     1     -12.466  12.913  -2.379  1.00  0.00    -0.206 F 
ATOM     82  C   UNL     1     -15.877  13.208  -1.221  1.00  0.00     0.060 A 
BRANCH  82  83
ATOM     83  S   UNL     1     -16.802  13.311   0.327  1.00  0.00     0.124 S 
ATOM     84  O   UNL     1     -17.212  14.710   0.331  1.00  0.00    -0.237 OA
ATOM     85  O   UNL     1     -17.865  12.334   0.115  1.00  0.00    -0.237 OA
ATOM     86  O   UNL     1     -15.812  12.939   1.333  1.00  0.00    -0.744 OA
ENDBRANCH  82  83
ENDBRANCH  50  75
BRANCH  62  87
ATOM     87  C   UNL     1     -13.295  17.310  -8.979  1.00  0.00     0.058 A 
ATOM     88  C   UNL     1     -12.728  18.392  -8.289  1.00  0.00     0.135 A 
ATOM     89  C   UNL     1     -14.245  17.590  -9.974  1.00  0.00     0.135 A 
ATOM     90  F   UNL     1     -11.822  18.177  -7.322  1.00  0.00    -0.206 F 
ATOM     91  C   UNL     1     -13.103  19.703  -8.561  1.00  0.00     0.059 A 
ATOM     92  C   UNL     1     -14.616  18.895 -10.281  1.00  0.00     0.059 A 
ATOM     93  F   UNL     1     -14.810  16.591 -10.670  1.00  0.00    -0.206 F 
ATOM     94  C   UNL     1     -14.048  19.945  -9.561  1.00  0.00     0.060 A 
BRANCH  94  95
ATOM     95  S   UNL     1     -14.502  21.653  -9.928  1.00  0.00     0.124 S 
ATOM     96  O   UNL     1     -15.349  21.983  -8.787  1.00  0.00    -0.237 OA
ATOM     97  O   UNL     1     -13.204  22.321  -9.968  1.00  0.00    -0.237 OA
ATOM     98  O   UNL     1     -15.188  21.554 -11.212  1.00  0.00    -0.744 OA
ENDBRANCH  94  95
ENDBRANCH  62  87
ENDBRANCH  36  37
ENDBRANCH  28  31
ENDBRANCH  26  27
ENDBRANCH  25  26
ENDBRANCH  24  25
ENDBRANCH   1  24
TORSDOF 20
