REMARK SMILES O=C(NCCCCNC(=O)[C@]1(NC(=O)C2CCN(C(=O)C3CC3)CC2)CCCc2ccccc21)c1ccc(-c2c3nc(c(-c4c(F)cc(S(=O)(=O)[O-])cc4F)c4ccc([nH]4)c(-c4c(F)cc(S(=O)(=O)[O-])cc4F)c4nc(c(-c5c(F)cc(S(=O)(=O)[O-])cc5F)c5ccc2[nH]5)C=C4)C=C3)cc1
REMARK SMILES IDX 5 1 4 2 3 3 1 4 2 5 35 7 36 8 100 9 37 10 99 11 38 12 39 13
REMARK SMILES IDX 40 14 93 15 41 16 98 17 92 18 94 19 42 20 97 21 91 22 90 23
REMARK SMILES IDX 43 25 77 26 56 27 76 28 57 29 60 30 75 31 95 32 58 33 59 34
REMARK SMILES IDX 74 36 96 37 61 38 44 39 45 40 54 41 46 42 47 43 53 44 55 45
REMARK SMILES IDX 48 46 49 47 50 48 51 49 52 50 78 51 79 52 88 53 80 54 81 55
REMARK SMILES IDX 87 56 89 57 82 58 83 59 84 60 85 61 86 62 62 63 63 64 72 65
REMARK SMILES IDX 64 66 65 67 71 68 73 69 66 70 67 71 68 72 69 73 70 74 6 75
REMARK SMILES IDX 7 76 8 77 9 78 10 80 11 81 26 82 34 83 27 84 29 85 33 86
REMARK SMILES IDX 28 87 30 88 32 89 31 90 12 91 13 92 14 94 15 95 16 96 25 97
REMARK SMILES IDX 17 98 24 99 18 100 19 101 20 102 21 103 22 104 23 105
REMARK H PARENT 3 6 94 24 60 35 8 79 12 93
REMARK Flexibility Score: inf
ROOT
ATOM      1  C   UNL     1       5.084  -1.247  -2.356  1.00  0.00     0.023 C 
ENDROOT
BRANCH   1   2
ATOM      2  C   UNL     1       4.613  -0.607  -1.060  1.00  0.00     0.116 C 
BRANCH   2   3
ATOM      3  N   UNL     1       3.193  -0.287  -1.027  1.00  0.00    -0.352 N 
ATOM      4  O   UNL     1       1.191   0.045  -0.015  1.00  0.00    -0.269 OA
ATOM      5  C   UNL     1       2.394  -0.168   0.089  1.00  0.00     0.251 C 
ATOM      6  H   UNL     1       2.756  -0.140  -1.897  1.00  0.00     0.163 HD
BRANCH   5   7
ATOM      7  C   UNL     1       3.021  -0.357   1.412  1.00  0.00     0.039 A 
ATOM      8  C   UNL     1       4.164   0.371   1.746  1.00  0.00     0.014 A 
ATOM      9  C   UNL     1       2.529  -1.345   2.267  1.00  0.00     0.014 A 
ATOM     10  C   UNL     1       4.905   0.003   2.859  1.00  0.00     0.010 A 
ATOM     11  C   UNL     1       3.232  -1.656   3.433  1.00  0.00     0.010 A 
ATOM     12  C   UNL     1       4.446  -1.012   3.717  1.00  0.00    -0.014 A 
BRANCH  12  13
ATOM     13  C   UNL     1       5.240  -1.342   4.925  1.00  0.00     0.031 A 
ATOM     14  C   UNL     1       5.909  -2.680   5.080  1.00  0.00     0.074 A 
ATOM     15  C   UNL     1       5.397  -0.387   5.862  1.00  0.00     0.049 A 
ATOM     16  N   UNL     1       6.652  -3.117   6.065  1.00  0.00    -0.248 NA
ATOM     17  C   UNL     1       5.718  -3.657   3.996  1.00  0.00     0.031 C 
ATOM     18  C   UNL     1       4.786   0.945   5.814  1.00  0.00     0.029 A 
ATOM     19  N   UNL     1       6.131  -0.373   7.018  1.00  0.00    -0.354 N 
ATOM     20  C   UNL     1       7.003  -4.420   5.732  1.00  0.00     0.074 A 
ATOM     21  C   UNL     1       6.377  -4.712   4.460  1.00  0.00     0.031 C 
ATOM     22  C   UNL     1       5.212   1.663   6.863  1.00  0.00     0.029 A 
ATOM     23  C   UNL     1       6.074   0.826   7.687  1.00  0.00     0.049 A 
ATOM     24  H   UNL     1       6.650  -1.146   7.337  1.00  0.00     0.167 HD
ATOM     25  C   UNL     1       7.782  -5.287   6.424  1.00  0.00     0.037 A 
ATOM     26  C   UNL     1       6.641   1.206   8.847  1.00  0.00     0.037 A 
ATOM     27  C   UNL     1       8.411  -4.980   7.684  1.00  0.00     0.049 A 
ATOM     28  C   UNL     1       7.501   0.228   9.588  1.00  0.00     0.074 A 
ATOM     29  C   UNL     1       9.212  -5.791   8.470  1.00  0.00     0.029 A 
ATOM     30  N   UNL     1       8.318  -3.760   8.339  1.00  0.00    -0.354 N 
ATOM     31  N   UNL     1       7.809  -1.006   9.263  1.00  0.00    -0.248 NA
ATOM     32  C   UNL     1       8.085   0.686  10.854  1.00  0.00     0.031 C 
ATOM     33  C   UNL     1       9.583  -5.069   9.611  1.00  0.00     0.029 A 
ATOM     34  C   UNL     1       9.041  -3.798   9.520  1.00  0.00     0.049 A 
ATOM     35  H   UNL     1       7.811  -2.981   8.012  1.00  0.00     0.167 HD
ATOM     36  C   UNL     1       8.622  -1.473  10.287  1.00  0.00     0.074 A 
ATOM     37  C   UNL     1       8.782  -0.380  11.225  1.00  0.00     0.031 C 
ATOM     38  C   UNL     1       9.179  -2.699  10.441  1.00  0.00     0.037 A 
BRANCH  25  39
ATOM     39  C   UNL     1       7.990  -6.658   5.843  1.00  0.00     0.058 A 
ATOM     40  C   UNL     1       8.843  -6.871   4.748  1.00  0.00     0.135 A 
ATOM     41  C   UNL     1       7.368  -7.780   6.415  1.00  0.00     0.135 A 
ATOM     42  F   UNL     1       9.450  -5.832   4.153  1.00  0.00    -0.206 F 
ATOM     43  C   UNL     1       9.058  -8.144   4.230  1.00  0.00     0.059 A 
ATOM     44  C   UNL     1       7.584  -9.066   5.925  1.00  0.00     0.059 A 
ATOM     45  F   UNL     1       6.543  -7.633   7.463  1.00  0.00    -0.206 F 
ATOM     46  C   UNL     1       8.422  -9.236   4.824  1.00  0.00     0.060 A 
BRANCH  46  47
ATOM     47  S   UNL     1       8.713 -10.884   4.143  1.00  0.00     0.124 S 
ATOM     48  O   UNL     1       7.897 -10.844   2.933  1.00  0.00    -0.237 OA
ATOM     49  O   UNL     1      10.157 -10.888   3.933  1.00  0.00    -0.237 OA
ATOM     50  O   UNL     1       8.233 -11.775   5.194  1.00  0.00    -0.744 OA
ENDBRANCH  46  47
ENDBRANCH  25  39
BRANCH  26  51
ATOM     51  C   UNL     1       6.391   2.572   9.371  1.00  0.00     0.058 A 
ATOM     52  C   UNL     1       7.398   3.547   9.363  1.00  0.00     0.135 A 
ATOM     53  C   UNL     1       5.125   2.938   9.853  1.00  0.00     0.135 A 
ATOM     54  F   UNL     1       8.624   3.241   8.911  1.00  0.00    -0.206 F 
ATOM     55  C   UNL     1       7.163   4.837   9.825  1.00  0.00     0.059 A 
ATOM     56  C   UNL     1       4.858   4.228  10.296  1.00  0.00     0.059 A 
ATOM     57  F   UNL     1       4.123   2.045   9.859  1.00  0.00    -0.206 F 
ATOM     58  C   UNL     1       5.888   5.168  10.288  1.00  0.00     0.060 A 
BRANCH  58  59
ATOM     59  S   UNL     1       5.565   6.860  10.831  1.00  0.00     0.124 S 
ATOM     60  O   UNL     1       6.111   6.840  12.183  1.00  0.00    -0.237 OA
ATOM     61  O   UNL     1       6.308   7.649   9.854  1.00  0.00    -0.237 OA
ATOM     62  O   UNL     1       4.112   6.967  10.735  1.00  0.00    -0.744 OA
ENDBRANCH  58  59
ENDBRANCH  26  51
BRANCH  38  63
ATOM     63  C   UNL     1      10.015  -2.908  11.670  1.00  0.00     0.058 A 
ATOM     64  C   UNL     1       9.426  -3.083  12.931  1.00  0.00     0.135 A 
ATOM     65  C   UNL     1      11.415  -2.944  11.583  1.00  0.00     0.135 A 
ATOM     66  F   UNL     1       8.090  -3.047  13.064  1.00  0.00    -0.206 F 
ATOM     67  C   UNL     1      10.199  -3.259  14.073  1.00  0.00     0.059 A 
ATOM     68  C   UNL     1      12.207  -3.139  12.709  1.00  0.00     0.059 A 
ATOM     69  F   UNL     1      12.023  -2.788  10.397  1.00  0.00    -0.206 F 
ATOM     70  C   UNL     1      11.590  -3.280  13.952  1.00  0.00     0.060 A 
BRANCH  70  71
ATOM     71  S   UNL     1      12.587  -3.519  15.438  1.00  0.00     0.124 S 
ATOM     72  O   UNL     1      12.556  -2.185  16.028  1.00  0.00    -0.237 OA
ATOM     73  O   UNL     1      11.843  -4.548  16.157  1.00  0.00    -0.237 OA
ATOM     74  O   UNL     1      13.880  -3.944  14.910  1.00  0.00    -0.744 OA
ENDBRANCH  70  71
ENDBRANCH  38  63
ENDBRANCH  12  13
ENDBRANCH   5   7
ENDBRANCH   2   3
ENDBRANCH   1   2
BRANCH   1  75
ATOM     75  C   UNL     1       4.710  -0.498  -3.633  1.00  0.00     0.023 C 
BRANCH  75  76
ATOM     76  C   UNL     1       5.099   0.976  -3.670  1.00  0.00     0.116 C 
BRANCH  76  77
ATOM     77  N   UNL     1       6.478   1.195  -4.051  1.00  0.00    -0.354 N 
ATOM     78  C   UNL     1       7.057   1.617  -5.207  1.00  0.00     0.250 C 
ATOM     79  H   UNL     1       7.123   1.000  -3.333  1.00  0.00     0.163 HD
ATOM     80  O   UNL     1       8.213   2.040  -5.051  1.00  0.00    -0.272 OA
BRANCH  78  81
ATOM     81  C   UNL     1       6.404   1.619  -6.645  1.00  0.00     0.145 C 
ATOM     82  C   UNL     1       6.393   3.131  -7.049  1.00  0.00     0.044 C 
ATOM     83  C   UNL     1       4.970   1.074  -6.769  1.00  0.00    -0.010 A 
ATOM     84  C   UNL     1       5.357   3.923  -6.266  1.00  0.00     0.008 C 
ATOM     85  C   UNL     1       3.842   1.931  -6.710  1.00  0.00    -0.042 A 
ATOM     86  C   UNL     1       4.738  -0.307  -6.928  1.00  0.00     0.007 A 
ATOM     87  C   UNL     1       3.959   3.434  -6.610  1.00  0.00     0.036 C 
ATOM     88  C   UNL     1       2.544   1.390  -6.756  1.00  0.00     0.004 A 
ATOM     89  C   UNL     1       3.442  -0.829  -6.972  1.00  0.00     0.000 A 
ATOM     90  C   UNL     1       2.346   0.018  -6.871  1.00  0.00     0.000 A 
BRANCH  81  91
ATOM     91  N   UNL     1       7.262   0.984  -7.705  1.00  0.00    -0.338 N 
ATOM     92  C   UNL     1       8.008  -0.153  -7.756  1.00  0.00     0.224 C 
ATOM     93  H   UNL     1       7.290   1.503  -8.541  1.00  0.00     0.164 HD
ATOM     94  O   UNL     1       8.067  -0.733  -8.843  1.00  0.00    -0.275 OA
BRANCH  92  95
ATOM     95  C   UNL     1       8.842  -0.610  -6.566  1.00  0.00     0.082 C 
ATOM     96  C   UNL     1      10.081   0.295  -6.434  1.00  0.00     0.035 C 
ATOM     97  C   UNL     1       9.254  -2.093  -6.666  1.00  0.00     0.035 C 
ATOM     98  C   UNL     1      11.176  -0.054  -7.435  1.00  0.00     0.120 C 
ATOM     99  C   UNL     1      10.425  -2.352  -7.621  1.00  0.00     0.120 C 
ATOM    100  N   UNL     1      11.540  -1.461  -7.319  1.00  0.00    -0.342 N 
ATOM    101  C   UNL     1      12.836  -1.756  -6.892  1.00  0.00     0.225 C 
ATOM    102  O   UNL     1      13.615  -0.853  -6.586  1.00  0.00    -0.275 OA
BRANCH 101 103
ATOM    103  C   UNL     1      13.415  -3.131  -6.805  1.00  0.00     0.079 C 
ATOM    104  C   UNL     1      12.725  -4.397  -6.394  1.00  0.00     0.014 C 
ATOM    105  C   UNL     1      13.170  -4.209  -7.824  1.00  0.00     0.014 C 
ENDBRANCH 101 103
ENDBRANCH  92  95
ENDBRANCH  81  91
ENDBRANCH  78  81
ENDBRANCH  76  77
ENDBRANCH  75  76
ENDBRANCH   1  75
TORSDOF 17
