REMARK SMILES O=C(NCCCCNC(=O)c1csc(CNc2ccc(-n3cccn3)nc2)c1)c1ccc(-c2c3nc(c(-c4c(F)cc(S(=O)(=O)[O-])cc4F)c4ccc([nH]4)c(-c4c(F)cc(S(=O)(=O)[O-])cc4F)c4nc(c(-c5c(F)cc(S(=O)(=O)[O-])cc5F)c5ccc2[nH]5)C=C4)C=C3)cc1
REMARK SMILES IDX 6 1 5 2 4 3 3 4 1 5 2 6 29 8 30 9 94 10 31 11 93 12 32 13
REMARK SMILES IDX 33 14 34 15 87 16 35 17 92 18 86 19 88 20 36 21 91 22 85 23
REMARK SMILES IDX 84 24 37 26 71 27 50 28 70 29 51 30 54 31 69 32 89 33 52 34
REMARK SMILES IDX 53 35 68 37 90 38 55 39 38 40 39 41 48 42 40 43 41 44 47 45
REMARK SMILES IDX 49 46 42 47 43 48 44 49 45 50 46 51 72 52 73 53 82 54 74 55
REMARK SMILES IDX 75 56 81 57 83 58 76 59 77 60 78 61 79 62 80 63 56 64 57 65
REMARK SMILES IDX 66 66 58 67 59 68 65 69 67 70 60 71 61 72 62 73 63 74 64 75
REMARK SMILES IDX 7 76 8 77 9 78 10 80 11 81 12 82 28 83 13 84 14 85 15 86
REMARK SMILES IDX 16 87 17 89 18 90 27 91 19 92 26 93 20 94 21 95 22 96 25 97
REMARK SMILES IDX 23 98 24 99
REMARK H PARENT 3 7 88 25 54 36 8 79 16 88
REMARK Flexibility Score: inf
ROOT
ATOM      1  C   UNL     1       4.498   2.344  -2.592  1.00  0.00     0.023 C 
ENDROOT
BRANCH   1   2
ATOM      2  C   UNL     1       4.998   1.084  -1.876  1.00  0.00     0.023 C 
BRANCH   2   3
ATOM      3  C   UNL     1       4.711   1.022  -0.376  1.00  0.00     0.116 C 
BRANCH   3   4
ATOM      4  N   UNL     1       3.312   1.152  -0.028  1.00  0.00    -0.352 N 
ATOM      5  O   UNL     1       1.247   0.743   0.618  1.00  0.00    -0.269 OA
ATOM      6  C   UNL     1       2.271   0.275   0.111  1.00  0.00     0.251 C 
ATOM      7  H   UNL     1       3.050   2.084   0.150  1.00  0.00     0.163 HD
BRANCH   6   8
ATOM      8  C   UNL     1       2.267  -1.143  -0.346  1.00  0.00     0.039 A 
ATOM      9  C   UNL     1       3.361  -1.843  -0.855  1.00  0.00     0.014 A 
ATOM     10  C   UNL     1       1.020  -1.797  -0.296  1.00  0.00     0.014 A 
ATOM     11  C   UNL     1       3.201  -3.123  -1.381  1.00  0.00     0.010 A 
ATOM     12  C   UNL     1       0.856  -3.080  -0.806  1.00  0.00     0.010 A 
ATOM     13  C   UNL     1       1.943  -3.727  -1.386  1.00  0.00    -0.014 A 
BRANCH  13  14
ATOM     14  C   UNL     1       1.835  -5.088  -1.908  1.00  0.00     0.031 A 
ATOM     15  C   UNL     1       2.553  -6.132  -1.115  1.00  0.00     0.074 A 
ATOM     16  C   UNL     1       1.023  -5.418  -2.933  1.00  0.00     0.049 A 
ATOM     17  N   UNL     1       3.482  -6.949  -1.496  1.00  0.00    -0.248 NA
ATOM     18  C   UNL     1       2.255  -6.204   0.326  1.00  0.00     0.031 C 
ATOM     19  C   UNL     1       0.028  -4.575  -3.600  1.00  0.00     0.029 A 
ATOM     20  N   UNL     1       0.839  -6.633  -3.524  1.00  0.00    -0.354 N 
ATOM     21  C   UNL     1       3.751  -7.770  -0.398  1.00  0.00     0.074 A 
ATOM     22  C   UNL     1       3.076  -7.175   0.725  1.00  0.00     0.031 C 
ATOM     23  C   UNL     1      -0.800  -5.356  -4.330  1.00  0.00     0.029 A 
ATOM     24  C   UNL     1      -0.318  -6.726  -4.287  1.00  0.00     0.049 A 
ATOM     25  H   UNL     1       1.472  -7.379  -3.419  1.00  0.00     0.167 HD
ATOM     26  C   UNL     1       4.348  -8.989  -0.527  1.00  0.00     0.037 A 
ATOM     27  C   UNL     1      -0.881  -7.862  -4.774  1.00  0.00     0.037 A 
ATOM     28  C   UNL     1       5.046  -9.103  -1.780  1.00  0.00     0.049 A 
ATOM     29  C   UNL     1       0.171  -8.911  -4.782  1.00  0.00     0.074 A 
ATOM     30  C   UNL     1       6.091  -8.425  -2.376  1.00  0.00     0.029 A 
ATOM     31  N   UNL     1       4.465  -9.839  -2.783  1.00  0.00    -0.354 N 
ATOM     32  N   UNL     1       1.231  -8.883  -5.544  1.00  0.00    -0.248 NA
ATOM     33  C   UNL     1       0.260  -9.786  -3.623  1.00  0.00     0.031 C 
ATOM     34  C   UNL     1       5.767  -8.395  -3.763  1.00  0.00     0.029 A 
ATOM     35  C   UNL     1       4.572  -9.097  -3.931  1.00  0.00     0.049 A 
ATOM     36  H   UNL     1       4.051 -10.728  -2.695  1.00  0.00     0.167 HD
ATOM     37  C   UNL     1       2.250  -9.397  -4.756  1.00  0.00     0.074 A 
ATOM     38  C   UNL     1       1.575 -10.015  -3.617  1.00  0.00     0.031 C 
ATOM     39  C   UNL     1       3.554  -9.042  -4.955  1.00  0.00     0.037 A 
BRANCH  26  40
ATOM     40  C   UNL     1       4.021 -10.199   0.324  1.00  0.00     0.058 A 
ATOM     41  C   UNL     1       4.778 -11.381   0.170  1.00  0.00     0.135 A 
ATOM     42  C   UNL     1       2.821 -10.342   1.056  1.00  0.00     0.135 A 
ATOM     43  F   UNL     1       5.943 -11.367  -0.498  1.00  0.00    -0.206 F 
ATOM     44  C   UNL     1       4.327 -12.625   0.616  1.00  0.00     0.059 A 
ATOM     45  C   UNL     1       2.379 -11.563   1.556  1.00  0.00     0.059 A 
ATOM     46  F   UNL     1       1.968  -9.328   1.238  1.00  0.00    -0.206 F 
ATOM     47  C   UNL     1       3.110 -12.707   1.285  1.00  0.00     0.060 A 
BRANCH  47  48
ATOM     48  S   UNL     1       2.449 -14.323   1.728  1.00  0.00     0.124 S 
ATOM     49  O   UNL     1       2.124 -14.871   0.417  1.00  0.00    -0.237 OA
ATOM     50  O   UNL     1       3.581 -14.936   2.415  1.00  0.00    -0.237 OA
ATOM     51  O   UNL     1       1.309 -13.997   2.579  1.00  0.00    -0.744 OA
ENDBRANCH  47  48
ENDBRANCH  26  40
BRANCH  27  52
ATOM     52  C   UNL     1      -2.332  -8.181  -4.872  1.00  0.00     0.058 A 
ATOM     53  C   UNL     1      -2.797  -9.270  -5.632  1.00  0.00     0.135 A 
ATOM     54  C   UNL     1      -3.271  -7.590  -4.001  1.00  0.00     0.135 A 
ATOM     55  F   UNL     1      -1.966  -9.915  -6.465  1.00  0.00    -0.206 F 
ATOM     56  C   UNL     1      -4.103  -9.764  -5.509  1.00  0.00     0.059 A 
ATOM     57  C   UNL     1      -4.578  -8.055  -3.871  1.00  0.00     0.059 A 
ATOM     58  F   UNL     1      -2.917  -6.593  -3.176  1.00  0.00    -0.206 F 
ATOM     59  C   UNL     1      -4.982  -9.158  -4.612  1.00  0.00     0.060 A 
BRANCH  59  60
ATOM     60  S   UNL     1      -6.615  -9.884  -4.329  1.00  0.00     0.124 S 
ATOM     61  O   UNL     1      -7.293  -9.602  -5.589  1.00  0.00    -0.237 OA
ATOM     62  O   UNL     1      -6.291 -11.284  -4.078  1.00  0.00    -0.237 OA
ATOM     63  O   UNL     1      -7.118  -9.148  -3.172  1.00  0.00    -0.744 OA
ENDBRANCH  59  60
ENDBRANCH  27  52
BRANCH  39  64
ATOM     64  C   UNL     1       3.918  -8.309  -6.219  1.00  0.00     0.058 A 
ATOM     65  C   UNL     1       3.474  -7.012  -6.534  1.00  0.00     0.135 A 
ATOM     66  C   UNL     1       4.907  -8.866  -7.045  1.00  0.00     0.135 A 
ATOM     67  F   UNL     1       2.607  -6.368  -5.740  1.00  0.00    -0.206 F 
ATOM     68  C   UNL     1       3.974  -6.312  -7.633  1.00  0.00     0.059 A 
ATOM     69  C   UNL     1       5.441  -8.173  -8.128  1.00  0.00     0.059 A 
ATOM     70  F   UNL     1       5.417 -10.076  -6.760  1.00  0.00    -0.206 F 
ATOM     71  C   UNL     1       4.966  -6.897  -8.420  1.00  0.00     0.060 A 
BRANCH  71  72
ATOM     72  S   UNL     1       5.697  -5.941  -9.767  1.00  0.00     0.124 S 
ATOM     73  O   UNL     1       4.622  -5.929 -10.754  1.00  0.00    -0.237 OA
ATOM     74  O   UNL     1       5.985  -4.660  -9.127  1.00  0.00    -0.237 OA
ATOM     75  O   UNL     1       6.876  -6.720 -10.137  1.00  0.00    -0.744 OA
ENDBRANCH  71  72
ENDBRANCH  39  64
ENDBRANCH  13  14
ENDBRANCH   6   8
ENDBRANCH   3   4
ENDBRANCH   2   3
ENDBRANCH   1   2
BRANCH   1  76
ATOM     76  C   UNL     1       4.914   3.676  -1.971  1.00  0.00     0.116 C 
BRANCH  76  77
ATOM     77  N   UNL     1       6.358   3.854  -1.950  1.00  0.00    -0.352 N 
ATOM     78  C   UNL     1       7.113   4.865  -2.467  1.00  0.00     0.252 C 
ATOM     79  H   UNL     1       6.864   3.140  -1.497  1.00  0.00     0.163 HD
ATOM     80  O   UNL     1       8.351   4.731  -2.504  1.00  0.00    -0.269 OA
BRANCH  78  81
ATOM     81  C   UNL     1       6.479   6.067  -2.980  1.00  0.00     0.050 A 
ATOM     82  C   UNL     1       5.532   6.809  -2.295  1.00  0.00     0.079 A 
ATOM     83  C   UNL     1       6.801   6.696  -4.230  1.00  0.00     0.031 A 
ATOM     84  S   UNL     1       5.000   8.176  -3.169  1.00  0.00    -0.146 S 
ATOM     85  C   UNL     1       6.048   7.826  -4.479  1.00  0.00     0.024 A 
BRANCH  85  86
ATOM     86  C   UNL     1       6.051   8.709  -5.697  1.00  0.00     0.159 C 
BRANCH  86  87
ATOM     87  N   UNL     1       4.803   8.639  -6.444  1.00  0.00    -0.379 N 
ATOM     88  H   UNL     1       4.491   7.770  -6.785  1.00  0.00     0.160 HD
BRANCH  87  89
ATOM     89  C   UNL     1       4.048   9.774  -6.681  1.00  0.00     0.053 A 
ATOM     90  C   UNL     1       4.597  10.949  -7.187  1.00  0.00     0.031 A 
ATOM     91  C   UNL     1       2.691   9.820  -6.357  1.00  0.00     0.139 A 
ATOM     92  C   UNL     1       3.791  12.069  -7.410  1.00  0.00     0.051 A 
ATOM     93  N   UNL     1       1.891  10.904  -6.498  1.00  0.00    -0.235 NA
ATOM     94  C   UNL     1       2.444  12.009  -7.054  1.00  0.00     0.153 A 
BRANCH  94  95
ATOM     95  N   UNL     1       1.614  13.148  -7.287  1.00  0.00    -0.223 N 
ATOM     96  C   UNL     1       1.771  14.105  -8.274  1.00  0.00     0.117 A 
ATOM     97  N   UNL     1       0.527  13.420  -6.514  1.00  0.00    -0.175 NA
ATOM     98  C   UNL     1       0.771  15.032  -8.102  1.00  0.00     0.042 A 
ATOM     99  C   UNL     1       0.060  14.576  -6.983  1.00  0.00     0.135 A 
ENDBRANCH  94  95
ENDBRANCH  87  89
ENDBRANCH  86  87
ENDBRANCH  85  86
ENDBRANCH  78  81
ENDBRANCH  76  77
ENDBRANCH   1  76
TORSDOF 18
