REMARK SMILES COc1ccc(-c2c(C(=O)NCCCCNC(=O)c3ccc(-c4c5nc(c(-c6c(F)cc(S(=O)(=O)[O-])cc6F)c6ccc([nH]6)c(-c6c(F)cc(S(=O)(=O)[O-])cc6F)c6nc(c(-c7c(F)cc(S(=O)(=O)[O-])cc7F)c7ccc4[nH]7)C=C6)C=C5)cc3)sc3c2N=C(O)C[C@H]3c2ccc(OC)c(OC)c2)cc1
REMARK SMILES IDX 14 1 13 2 12 3 11 4 9 5 10 6 8 8 7 9 87 10 85 11 86 12 88 13
REMARK SMILES IDX 92 14 89 15 91 16 6 17 3 18 4 19 104 20 5 21 103 22 2 23
REMARK SMILES IDX 1 24 93 25 94 26 102 27 95 28 99 29 96 30 100 31 101 32
REMARK SMILES IDX 97 33 98 34 90 35 15 37 16 38 17 39 18 41 19 42 20 43 84 44
REMARK SMILES IDX 21 45 83 46 22 47 23 48 24 49 77 50 25 51 82 52 76 53 78 54
REMARK SMILES IDX 26 55 81 56 75 57 74 58 27 60 61 61 40 62 60 63 41 64 44 65
REMARK SMILES IDX 59 66 79 67 42 68 43 69 58 71 80 72 45 73 28 74 29 75 38 76
REMARK SMILES IDX 30 77 31 78 37 79 39 80 32 81 33 82 34 83 35 84 36 85 62 86
REMARK SMILES IDX 63 87 72 88 64 89 65 90 71 91 73 92 66 93 67 94 68 95 69 96
REMARK SMILES IDX 70 97 46 98 47 99 56 100 48 101 49 102 55 103 57 104 50 105
REMARK SMILES IDX 51 106 52 107 53 108 54 109
REMARK H PARENT 11 7 90 36 16 40 78 59 44 70
REMARK Flexibility Score: inf
ROOT
ATOM      1  C   UNL     1      -0.360   3.863   1.224  1.00  0.00     0.023 C 
ENDROOT
BRANCH   1   2
ATOM      2  C   UNL     1       0.829   4.018   0.276  1.00  0.00     0.023 C 
BRANCH   2   3
ATOM      3  C   UNL     1       0.541   4.269  -1.203  1.00  0.00     0.116 C 
BRANCH   3   4
ATOM      4  N   UNL     1       0.512   5.637  -1.637  1.00  0.00    -0.351 N 
ATOM      5  C   UNL     1       1.105   6.287  -2.704  1.00  0.00     0.262 C 
ATOM      6  O   UNL     1       0.815   7.493  -2.710  1.00  0.00    -0.268 OA
ATOM      7  H   UNL     1      -0.033   6.225  -1.067  1.00  0.00     0.163 HD
BRANCH   5   8
ATOM      8  C   UNL     1       2.023   5.707  -3.717  1.00  0.00     0.102 A 
ATOM      9  C   UNL     1       2.418   4.456  -4.219  1.00  0.00     0.031 A 
ATOM     10  C   UNL     1       3.422   4.569  -5.239  1.00  0.00     0.090 A 
ATOM     11  S   UNL     1       2.935   6.955  -4.580  1.00  0.00    -0.131 S 
ATOM     12  C   UNL     1       3.825   5.843  -5.487  1.00  0.00     0.040 A 
ATOM     13  N   UNL     1       3.986   3.445  -5.861  1.00  0.00    -0.216 NA
ATOM     14  C   UNL     1       4.954   6.216  -6.385  1.00  0.00     0.071 C 
ATOM     15  C   UNL     1       5.034   3.671  -6.574  1.00  0.00     0.186 C 
ATOM     16  C   UNL     1       5.768   4.971  -6.775  1.00  0.00     0.111 C 
BRANCH   9  17
ATOM     17  C   UNL     1       2.066   3.149  -3.691  1.00  0.00    -0.014 A 
ATOM     18  C   UNL     1       1.452   0.750  -2.393  1.00  0.00     0.118 A 
ATOM     19  C   UNL     1       0.543   1.327  -3.291  1.00  0.00     0.047 A 
ATOM     20  C   UNL     1       2.712   1.319  -2.226  1.00  0.00     0.047 A 
ATOM     21  C   UNL     1       0.841   2.531  -3.942  1.00  0.00     0.012 A 
ATOM     22  C   UNL     1       3.022   2.505  -2.883  1.00  0.00     0.012 A 
BRANCH  18  23
ATOM     23  O   UNL     1       1.014  -0.363  -1.730  1.00  0.00    -0.497 OA
ATOM     24  C   UNL     1       1.707  -0.676  -0.524  1.00  0.00     0.278 C 
ENDBRANCH  18  23
ENDBRANCH   9  17
BRANCH  14  25
ATOM     25  C   UNL     1       4.550   7.005  -7.618  1.00  0.00    -0.035 A 
ATOM     26  C   UNL     1       3.582   6.546  -8.513  1.00  0.00     0.008 A 
ATOM     27  C   UNL     1       5.216   8.213  -7.901  1.00  0.00     0.054 A 
ATOM     28  C   UNL     1       3.304   7.277  -9.668  1.00  0.00     0.051 A 
ATOM     29  C   UNL     1       4.948   8.954  -9.062  1.00  0.00     0.161 A 
ATOM     30  C   UNL     1       3.978   8.474  -9.957  1.00  0.00     0.160 A 
BRANCH  29  31
ATOM     31  O   UNL     1       5.628  10.101  -9.380  1.00  0.00    -0.493 OA
ATOM     32  C   UNL     1       6.517  10.643  -8.412  1.00  0.00     0.278 C 
ENDBRANCH  29  31
BRANCH  30  33
ATOM     33  O   UNL     1       3.592   9.011 -11.158  1.00  0.00    -0.493 OA
ATOM     34  C   UNL     1       3.898  10.373 -11.414  1.00  0.00     0.278 C 
ENDBRANCH  30  33
ENDBRANCH  14  25
BRANCH  15  35
ATOM     35  O   UNL     1       5.630   2.615  -7.169  1.00  0.00    -0.496 OA
ATOM     36  H   UNL     1       5.248   1.762  -7.101  1.00  0.00     0.294 HD
ENDBRANCH  15  35
ENDBRANCH   5   8
ENDBRANCH   3   4
ENDBRANCH   2   3
ENDBRANCH   1   2
BRANCH   1  37
ATOM     37  C   UNL     1      -1.391   2.813   0.827  1.00  0.00     0.116 C 
BRANCH  37  38
ATOM     38  N   UNL     1      -0.880   1.442   0.769  1.00  0.00    -0.352 N 
ATOM     39  C   UNL     1      -1.613   0.290   0.480  1.00  0.00     0.251 C 
ATOM     40  H   UNL     1       0.079   1.319   0.953  1.00  0.00     0.163 HD
ATOM     41  O   UNL     1      -1.235  -0.813   0.809  1.00  0.00    -0.269 OA
BRANCH  39  42
ATOM     42  C   UNL     1      -2.893   0.480  -0.232  1.00  0.00     0.039 A 
ATOM     43  C   UNL     1      -4.093  -0.061   0.240  1.00  0.00     0.014 A 
ATOM     44  C   UNL     1      -2.873   1.372  -1.293  1.00  0.00     0.014 A 
ATOM     45  C   UNL     1      -5.297   0.416  -0.284  1.00  0.00     0.010 A 
ATOM     46  C   UNL     1      -4.048   1.964  -1.669  1.00  0.00     0.010 A 
ATOM     47  C   UNL     1      -5.270   1.462  -1.213  1.00  0.00    -0.014 A 
BRANCH  47  48
ATOM     48  C   UNL     1      -6.487   2.120  -1.690  1.00  0.00     0.031 A 
ATOM     49  C   UNL     1      -7.366   2.790  -0.676  1.00  0.00     0.074 A 
ATOM     50  C   UNL     1      -6.617   2.412  -3.003  1.00  0.00     0.049 A 
ATOM     51  N   UNL     1      -8.638   2.634  -0.483  1.00  0.00    -0.248 NA
ATOM     52  C   UNL     1      -6.747   3.727   0.277  1.00  0.00     0.031 C 
ATOM     53  C   UNL     1      -5.676   2.132  -4.100  1.00  0.00     0.029 A 
ATOM     54  N   UNL     1      -7.546   3.195  -3.607  1.00  0.00    -0.354 N 
ATOM     55  C   UNL     1      -9.017   3.547   0.506  1.00  0.00     0.074 A 
ATOM     56  C   UNL     1      -7.791   4.108   1.016  1.00  0.00     0.031 C 
ATOM     57  C   UNL     1      -5.930   2.962  -5.131  1.00  0.00     0.029 A 
ATOM     58  C   UNL     1      -7.161   3.673  -4.849  1.00  0.00     0.049 A 
ATOM     59  H   UNL     1      -8.416   3.405  -3.198  1.00  0.00     0.167 HD
ATOM     60  C   UNL     1     -10.320   3.886   0.738  1.00  0.00     0.037 A 
ATOM     61  C   UNL     1      -7.788   4.623  -5.580  1.00  0.00     0.037 A 
ATOM     62  C   UNL     1     -11.222   3.012   0.036  1.00  0.00     0.049 A 
ATOM     63  C   UNL     1      -9.188   4.691  -5.082  1.00  0.00     0.074 A 
ATOM     64  C   UNL     1     -11.507   1.663   0.095  1.00  0.00     0.029 A 
ATOM     65  N   UNL     1     -11.748   3.454  -1.155  1.00  0.00    -0.354 N 
ATOM     66  N   UNL     1     -10.040   3.704  -5.177  1.00  0.00    -0.248 NA
ATOM     67  C   UNL     1      -9.508   5.687  -4.070  1.00  0.00     0.031 C 
ATOM     68  C   UNL     1     -11.732   1.278  -1.258  1.00  0.00     0.029 A 
ATOM     69  C   UNL     1     -11.620   2.423  -2.051  1.00  0.00     0.049 A 
ATOM     70  H   UNL     1     -12.142   4.340  -1.331  1.00  0.00     0.167 HD
ATOM     71  C   UNL     1     -10.761   3.730  -3.990  1.00  0.00     0.074 A 
ATOM     72  C   UNL     1     -10.463   5.034  -3.400  1.00  0.00     0.031 C 
ATOM     73  C   UNL     1     -11.305   2.594  -3.455  1.00  0.00     0.037 A 
BRANCH  60  74
ATOM     74  C   UNL     1     -10.820   5.159   1.384  1.00  0.00     0.058 A 
ATOM     75  C   UNL     1     -12.162   5.249   1.817  1.00  0.00     0.135 A 
ATOM     76  C   UNL     1     -10.111   6.377   1.351  1.00  0.00     0.135 A 
ATOM     77  F   UNL     1     -12.933   4.152   1.891  1.00  0.00    -0.206 F 
ATOM     78  C   UNL     1     -12.775   6.468   2.120  1.00  0.00     0.059 A 
ATOM     79  C   UNL     1     -10.688   7.598   1.699  1.00  0.00     0.059 A 
ATOM     80  F   UNL     1      -8.858   6.449   0.884  1.00  0.00    -0.206 F 
ATOM     81  C   UNL     1     -12.033   7.641   2.035  1.00  0.00     0.060 A 
BRANCH  81  82
ATOM     82  S   UNL     1     -12.853   9.228   2.285  1.00  0.00     0.124 S 
ATOM     83  O   UNL     1     -13.649   9.338   1.067  1.00  0.00    -0.237 OA
ATOM     84  O   UNL     1     -13.600   9.000   3.518  1.00  0.00    -0.237 OA
ATOM     85  O   UNL     1     -11.740  10.165   2.399  1.00  0.00    -0.744 OA
ENDBRANCH  81  82
ENDBRANCH  60  74
BRANCH  61  86
ATOM     86  C   UNL     1      -7.144   5.638  -6.449  1.00  0.00     0.058 A 
ATOM     87  C   UNL     1      -7.871   6.340  -7.420  1.00  0.00     0.135 A 
ATOM     88  C   UNL     1      -5.835   6.106  -6.191  1.00  0.00     0.135 A 
ATOM     89  F   UNL     1      -9.132   5.982  -7.705  1.00  0.00    -0.206 F 
ATOM     90  C   UNL     1      -7.345   7.456  -8.081  1.00  0.00     0.059 A 
ATOM     91  C   UNL     1      -5.283   7.205  -6.846  1.00  0.00     0.059 A 
ATOM     92  F   UNL     1      -5.079   5.554  -5.228  1.00  0.00    -0.206 F 
ATOM     93  C   UNL     1      -6.054   7.890  -7.776  1.00  0.00     0.060 A 
BRANCH  93  94
ATOM     94  S   UNL     1      -5.438   9.424  -8.508  1.00  0.00     0.124 S 
ATOM     95  O   UNL     1      -5.267   9.043  -9.906  1.00  0.00    -0.237 OA
ATOM     96  O   UNL     1      -6.528  10.354  -8.230  1.00  0.00    -0.237 OA
ATOM     97  O   UNL     1      -4.203   9.680  -7.773  1.00  0.00    -0.744 OA
ENDBRANCH  93  94
ENDBRANCH  61  86
BRANCH  73  98
ATOM     98  C   UNL     1     -11.319   1.333  -4.288  1.00  0.00     0.058 A 
ATOM     99  C   UNL     1     -10.156   0.633  -4.655  1.00  0.00     0.135 A 
ATOM    100  C   UNL     1     -12.543   0.691  -4.524  1.00  0.00     0.135 A 
ATOM    101  F   UNL     1      -8.944   1.114  -4.368  1.00  0.00    -0.206 F 
ATOM    102  C   UNL     1     -10.201  -0.628  -5.248  1.00  0.00     0.059 A 
ATOM    103  C   UNL     1     -12.613  -0.583  -5.086  1.00  0.00     0.059 A 
ATOM    104  F   UNL     1     -13.690   1.271  -4.133  1.00  0.00    -0.206 F 
ATOM    105  C   UNL     1     -11.437  -1.236  -5.451  1.00  0.00     0.060 A 
BRANCH 105 106
ATOM    106  S   UNL     1     -11.483  -2.924  -6.091  1.00  0.00     0.124 S 
ATOM    107  O   UNL     1     -11.184  -2.723  -7.505  1.00  0.00    -0.237 OA
ATOM    108  O   UNL     1     -10.443  -3.591  -5.312  1.00  0.00    -0.237 OA
ATOM    109  O   UNL     1     -12.845  -3.362  -5.795  1.00  0.00    -0.744 OA
ENDBRANCH 105 106
ENDBRANCH  73  98
ENDBRANCH  47  48
ENDBRANCH  39  42
ENDBRANCH  37  38
ENDBRANCH   1  37
TORSDOF 20
