REMARK SMILES O=C(NCCCCNC(=O)[C@H]1C[C@@H]1C(=O)Nc1ccc(Cl)c(Br)c1)c1ccc(-c2c3nc(c(-c4c(F)cc(S(=O)(=O)[O-])cc4F)c4ccc([nH]4)c(-c4c(F)cc(S(=O)(=O)[O-])cc4F)c4nc(c(-c5c(F)cc(S(=O)(=O)[O-])cc5F)c5ccc2[nH]5)C=C4)C=C3)cc1
REMARK SMILES IDX 5 1 4 2 3 3 1 4 2 5 25 7 26 8 90 9 27 10 89 11 28 12 29 13
REMARK SMILES IDX 30 14 83 15 31 16 88 17 82 18 84 19 32 20 87 21 81 22 80 23
REMARK SMILES IDX 33 25 67 26 46 27 66 28 47 29 50 30 65 31 85 32 48 33 49 34
REMARK SMILES IDX 64 36 86 37 51 38 34 39 35 40 44 41 36 42 37 43 43 44 45 45
REMARK SMILES IDX 38 46 39 47 40 48 41 49 42 50 68 51 69 52 78 53 70 54 71 55
REMARK SMILES IDX 77 56 79 57 72 58 73 59 74 60 75 61 76 62 52 63 53 64 62 65
REMARK SMILES IDX 54 66 55 67 61 68 63 69 56 70 57 71 58 72 59 73 60 74 6 75
REMARK SMILES IDX 7 76 8 77 9 78 10 80 11 81 12 82 13 83 14 84 15 85 16 86
REMARK SMILES IDX 17 88 18 89 24 90 19 91 22 92 20 93 23 94 21 95
REMARK H PARENT 3 6 84 24 50 35 8 79 16 87
REMARK Flexibility Score: inf
ROOT
ATOM      1  C   UNL     1       9.643  -0.065   5.305  1.00  0.00     0.023 C 
ENDROOT
BRANCH   1   2
ATOM      2  C   UNL     1      11.147  -0.296   5.433  1.00  0.00     0.116 C 
BRANCH   2   3
ATOM      3  N   UNL     1      11.803  -0.406   4.141  1.00  0.00    -0.352 N 
ATOM      4  O   UNL     1      13.287   0.084   2.528  1.00  0.00    -0.269 OA
ATOM      5  C   UNL     1      12.982   0.148   3.715  1.00  0.00     0.251 C 
ATOM      6  H   UNL     1      11.332  -0.959   3.475  1.00  0.00     0.163 HD
BRANCH   5   7
ATOM      7  C   UNL     1      13.878   0.824   4.677  1.00  0.00     0.039 A 
ATOM      8  C   UNL     1      14.500   2.015   4.292  1.00  0.00     0.014 A 
ATOM      9  C   UNL     1      14.158   0.255   5.923  1.00  0.00     0.014 A 
ATOM     10  C   UNL     1      15.395   2.643   5.160  1.00  0.00     0.010 A 
ATOM     11  C   UNL     1      15.003   0.913   6.811  1.00  0.00     0.010 A 
ATOM     12  C   UNL     1      15.653   2.094   6.425  1.00  0.00    -0.014 A 
BRANCH  12  13
ATOM     13  C   UNL     1      16.685   2.673   7.319  1.00  0.00     0.031 A 
ATOM     14  C   UNL     1      17.945   1.895   7.582  1.00  0.00     0.074 A 
ATOM     15  C   UNL     1      16.490   3.867   7.907  1.00  0.00     0.049 A 
ATOM     16  N   UNL     1      18.924   2.154   8.409  1.00  0.00    -0.248 NA
ATOM     17  C   UNL     1      18.114   0.645   6.822  1.00  0.00     0.031 C 
ATOM     18  C   UNL     1      15.321   4.725   7.713  1.00  0.00     0.029 A 
ATOM     19  N   UNL     1      17.277   4.565   8.785  1.00  0.00    -0.354 N 
ATOM     20  C   UNL     1      19.819   1.099   8.275  1.00  0.00     0.074 A 
ATOM     21  C   UNL     1      19.236   0.166   7.335  1.00  0.00     0.031 C 
ATOM     22  C   UNL     1      15.483   5.851   8.428  1.00  0.00     0.029 A 
ATOM     23  C   UNL     1      16.743   5.773   9.163  1.00  0.00     0.049 A 
ATOM     24  H   UNL     1      18.144   4.233   9.114  1.00  0.00     0.167 HD
ATOM     25  C   UNL     1      21.030   0.933   8.860  1.00  0.00     0.037 A 
ATOM     26  C   UNL     1      17.216   6.707  10.011  1.00  0.00     0.037 A 
ATOM     27  C   UNL     1      21.609   1.868   9.788  1.00  0.00     0.049 A 
ATOM     28  C   UNL     1      18.530   6.472  10.705  1.00  0.00     0.074 A 
ATOM     29  C   UNL     1      22.823   1.791  10.447  1.00  0.00     0.029 A 
ATOM     30  N   UNL     1      21.014   3.058  10.184  1.00  0.00    -0.354 N 
ATOM     31  N   UNL     1      19.352   5.455  10.594  1.00  0.00    -0.248 NA
ATOM     32  C   UNL     1      18.975   7.508  11.646  1.00  0.00     0.031 C 
ATOM     33  C   UNL     1      22.948   2.921  11.265  1.00  0.00     0.029 A 
ATOM     34  C   UNL     1      21.831   3.721  11.085  1.00  0.00     0.049 A 
ATOM     35  H   UNL     1      20.140   3.383   9.869  1.00  0.00     0.167 HD
ATOM     36  C   UNL     1      20.422   5.737  11.437  1.00  0.00     0.074 A 
ATOM     37  C   UNL     1      20.146   7.026  12.041  1.00  0.00     0.031 C 
ATOM     38  C   UNL     1      21.532   4.997  11.688  1.00  0.00     0.037 A 
BRANCH  25  39
ATOM     39  C   UNL     1      21.793  -0.314   8.504  1.00  0.00     0.058 A 
ATOM     40  C   UNL     1      22.339  -0.497   7.223  1.00  0.00     0.135 A 
ATOM     41  C   UNL     1      21.957  -1.348   9.439  1.00  0.00     0.135 A 
ATOM     42  F   UNL     1      22.193   0.451   6.284  1.00  0.00    -0.206 F 
ATOM     43  C   UNL     1      22.978  -1.680   6.866  1.00  0.00     0.059 A 
ATOM     44  C   UNL     1      22.620  -2.528   9.113  1.00  0.00     0.059 A 
ATOM     45  F   UNL     1      21.455  -1.227  10.678  1.00  0.00    -0.206 F 
ATOM     46  C   UNL     1      23.105  -2.694   7.816  1.00  0.00     0.060 A 
BRANCH  46  47
ATOM     47  S   UNL     1      23.901  -4.238   7.326  1.00  0.00     0.124 S 
ATOM     48  O   UNL     1      22.872  -4.840   6.482  1.00  0.00    -0.237 OA
ATOM     49  O   UNL     1      25.095  -3.768   6.630  1.00  0.00    -0.237 OA
ATOM     50  O   UNL     1      24.144  -4.914   8.596  1.00  0.00    -0.744 OA
ENDBRANCH  46  47
ENDBRANCH  25  39
BRANCH  26  51
ATOM     51  C   UNL     1      16.455   7.967  10.212  1.00  0.00     0.058 A 
ATOM     52  C   UNL     1      16.913   9.169   9.654  1.00  0.00     0.135 A 
ATOM     53  C   UNL     1      15.238   7.989  10.909  1.00  0.00     0.135 A 
ATOM     54  F   UNL     1      18.078   9.199   8.989  1.00  0.00    -0.206 F 
ATOM     55  C   UNL     1      16.186  10.348   9.769  1.00  0.00     0.059 A 
ATOM     56  C   UNL     1      14.482   9.152  11.020  1.00  0.00     0.059 A 
ATOM     57  F   UNL     1      14.754   6.861  11.453  1.00  0.00    -0.206 F 
ATOM     58  C   UNL     1      14.964  10.327  10.444  1.00  0.00     0.060 A 
BRANCH  58  59
ATOM     59  S   UNL     1      13.986  11.844  10.501  1.00  0.00     0.124 S 
ATOM     60  O   UNL     1      14.785  12.678  11.391  1.00  0.00    -0.237 OA
ATOM     61  O   UNL     1      13.966  12.244   9.097  1.00  0.00    -0.237 OA
ATOM     62  O   UNL     1      12.703  11.397  11.036  1.00  0.00    -0.744 OA
ENDBRANCH  58  59
ENDBRANCH  26  51
BRANCH  38  63
ATOM     63  C   UNL     1      22.535   5.570  12.650  1.00  0.00     0.058 A 
ATOM     64  C   UNL     1      22.288   5.611  14.031  1.00  0.00     0.135 A 
ATOM     65  C   UNL     1      23.773   6.048  12.190  1.00  0.00     0.135 A 
ATOM     66  F   UNL     1      21.118   5.171  14.521  1.00  0.00    -0.206 F 
ATOM     67  C   UNL     1      23.222   6.133  14.920  1.00  0.00     0.059 A 
ATOM     68  C   UNL     1      24.732   6.550  13.065  1.00  0.00     0.059 A 
ATOM     69  F   UNL     1      24.065   6.020  10.880  1.00  0.00    -0.206 F 
ATOM     70  C   UNL     1      24.442   6.601  14.427  1.00  0.00     0.060 A 
BRANCH  70  71
ATOM     71  S   UNL     1      25.650   7.260  15.595  1.00  0.00     0.124 S 
ATOM     72  O   UNL     1      25.046   8.540  15.951  1.00  0.00    -0.237 OA
ATOM     73  O   UNL     1      25.653   6.247  16.646  1.00  0.00    -0.237 OA
ATOM     74  O   UNL     1      26.876   7.342  14.807  1.00  0.00    -0.744 OA
ENDBRANCH  70  71
ENDBRANCH  38  63
ENDBRANCH  12  13
ENDBRANCH   5   7
ENDBRANCH   2   3
ENDBRANCH   1   2
BRANCH   1  75
ATOM     75  C   UNL     1       8.894  -1.104   4.461  1.00  0.00     0.023 C 
BRANCH  75  76
ATOM     76  C   UNL     1       9.082  -2.544   4.934  1.00  0.00     0.116 C 
BRANCH  76  77
ATOM     77  N   UNL     1       8.363  -2.785   6.169  1.00  0.00    -0.356 N 
ATOM     78  C   UNL     1       7.139  -3.364   6.346  1.00  0.00     0.223 C 
ATOM     79  H   UNL     1       8.819  -2.493   6.991  1.00  0.00     0.163 HD
ATOM     80  O   UNL     1       6.655  -3.446   7.471  1.00  0.00    -0.275 OA
BRANCH  78  81
ATOM     81  C   UNL     1       6.415  -3.916   5.171  1.00  0.00     0.091 C 
ATOM     82  C   UNL     1       5.778  -5.279   5.273  1.00  0.00     0.028 C 
ATOM     83  C   UNL     1       4.903  -4.045   5.235  1.00  0.00     0.092 C 
BRANCH  83  84
ATOM     84  C   UNL     1       4.091  -3.777   4.021  1.00  0.00     0.228 C 
ATOM     85  O   UNL     1       4.585  -3.179   3.068  1.00  0.00    -0.274 OA
ATOM     86  N   UNL     1       2.853  -4.360   3.895  1.00  0.00    -0.326 N 
ATOM     87  H   UNL     1       2.498  -4.379   2.977  1.00  0.00     0.169 HD
BRANCH  86  88
ATOM     88  C   UNL     1       2.014  -4.930   4.862  1.00  0.00     0.042 A 
ATOM     89  C   UNL     1       1.952  -4.486   6.182  1.00  0.00     0.028 A 
ATOM     90  C   UNL     1       1.153  -5.952   4.449  1.00  0.00     0.043 A 
ATOM     91  C   UNL     1       1.101  -5.105   7.101  1.00  0.00     0.024 A 
ATOM     92  C   UNL     1       0.306  -6.583   5.370  1.00  0.00     0.038 A 
ATOM     93  C   UNL     1       0.287  -6.165   6.704  1.00  0.00     0.055 A 
ATOM     94  Br  UNL     1      -0.776  -8.007   4.727  1.00  0.00    -0.049 Br
ATOM     95  Cl  UNL     1      -0.720  -6.894   7.901  1.00  0.00    -0.083 Cl
ENDBRANCH  86  88
ENDBRANCH  83  84
ENDBRANCH  78  81
ENDBRANCH  76  77
ENDBRANCH  75  76
ENDBRANCH   1  75
TORSDOF 16
