REMARK SMILES C=CCCC[C@@]1(C(=O)NCCCCNC(=O)c2ccc(-c3c4nc(c(-c5c(F)cc(S(=O)(=O)[O-])cc5F)c5ccc([nH]5)c(-c5c(F)cc(S(=O)(=O)[O-])cc5F)c5nc(c(-c6c(F)cc(S(=O)(=O)[O-])cc6F)c6ccc3[nH]6)C=C5)C=C4)cc2)CCCN(C(=O)OC(C)(C)C)C1
REMARK SMILES IDX 11 1 10 2 9 3 7 4 8 5 6 7 83 8 94 9 84 10 86 11 85 12 5 13
REMARK SMILES IDX 4 14 3 15 2 16 1 17 87 18 88 19 89 20 90 21 91 22 92 23
REMARK SMILES IDX 93 24 12 25 13 26 14 27 15 28 16 30 17 31 18 32 82 33 19 34
REMARK SMILES IDX 81 35 20 36 21 37 22 38 75 39 23 40 80 41 74 42 76 43 24 44
REMARK SMILES IDX 79 45 73 46 72 47 25 49 59 50 38 51 58 52 39 53 42 54 57 55
REMARK SMILES IDX 77 56 40 57 41 58 56 60 78 61 43 62 26 63 27 64 36 65 28 66
REMARK SMILES IDX 29 67 35 68 37 69 30 70 31 71 32 72 33 73 34 74 60 75 61 76
REMARK SMILES IDX 70 77 62 78 63 79 69 80 71 81 64 82 65 83 66 84 67 85 68 86
REMARK SMILES IDX 44 87 45 88 54 89 46 90 47 91 53 92 55 93 48 94 49 95 50 96
REMARK SMILES IDX 51 97 52 98
REMARK H PARENT 9 6 14 29 76 48 42 59
REMARK Flexibility Score: inf
ROOT
ATOM      1  C   UNL     1      -1.964   1.580   6.329  1.00  0.00     0.023 C 
ENDROOT
BRANCH   1   2
ATOM      2  C   UNL     1      -0.749   2.138   5.608  1.00  0.00     0.116 C 
BRANCH   2   3
ATOM      3  N   UNL     1      -0.581   1.581   4.282  1.00  0.00    -0.356 N 
ATOM      4  C   UNL     1      -1.017   1.883   3.041  1.00  0.00     0.228 C 
ATOM      5  O   UNL     1      -0.523   1.166   2.155  1.00  0.00    -0.274 OA
ATOM      6  H   UNL     1      -0.005   0.782   4.287  1.00  0.00     0.163 HD
BRANCH   4   7
ATOM      7  C   UNL     1      -2.065   2.958   2.624  1.00  0.00     0.067 C 
ATOM      8  C   UNL     1      -2.523   4.045   3.625  1.00  0.00     0.020 C 
ATOM      9  C   UNL     1      -3.301   2.146   2.200  1.00  0.00     0.140 C 
ATOM     10  C   UNL     1      -3.669   3.727   4.598  1.00  0.00     0.023 C 
ATOM     11  N   UNL     1      -3.981   1.581   3.354  1.00  0.00    -0.307 N 
ATOM     12  C   UNL     1      -4.593   2.551   4.247  1.00  0.00     0.123 C 
BRANCH   7  13
ATOM     13  C   UNL     1      -1.375   3.731   1.417  1.00  0.00     0.019 C 
BRANCH  13  14
ATOM     14  C   UNL     1      -1.981   3.667   0.001  1.00  0.00     0.005 C 
BRANCH  14  15
ATOM     15  C   UNL     1      -3.306   4.393  -0.284  1.00  0.00     0.027 C 
BRANCH  15  16
ATOM     16  C   UNL     1      -3.419   5.801   0.223  1.00  0.00    -0.035 C 
ATOM     17  C   UNL     1      -4.184   6.733  -0.360  1.00  0.00     0.004 C 
ENDBRANCH  15  16
ENDBRANCH  14  15
ENDBRANCH  13  14
ENDBRANCH   7  13
BRANCH  11  18
ATOM     18  C   UNL     1      -4.117   0.198   3.424  1.00  0.00     0.410 C 
ATOM     19  O   UNL     1      -3.799  -0.536   2.501  1.00  0.00    -0.224 OA
BRANCH  18  20
ATOM     20  O   UNL     1      -4.614  -0.253   4.613  1.00  0.00    -0.444 OA
BRANCH  20  21
ATOM     21  C   UNL     1      -4.784  -1.691   4.812  1.00  0.00     0.106 C 
ATOM     22  C   UNL     1      -5.855  -2.243   3.862  1.00  0.00     0.056 C 
ATOM     23  C   UNL     1      -3.470  -2.485   4.679  1.00  0.00     0.056 C 
ATOM     24  C   UNL     1      -5.302  -1.863   6.252  1.00  0.00     0.056 C 
ENDBRANCH  20  21
ENDBRANCH  18  20
ENDBRANCH  11  18
ENDBRANCH   4   7
ENDBRANCH   2   3
ENDBRANCH   1   2
BRANCH   1  25
ATOM     25  C   UNL     1      -1.838   0.142   6.782  1.00  0.00     0.023 C 
BRANCH  25  26
ATOM     26  C   UNL     1      -1.570   0.019   8.263  1.00  0.00     0.116 C 
BRANCH  26  27
ATOM     27  N   UNL     1      -2.727   0.373   9.087  1.00  0.00    -0.352 N 
ATOM     28  C   UNL     1      -3.197  -0.269  10.215  1.00  0.00     0.251 C 
ATOM     29  H   UNL     1      -3.233   1.168   8.801  1.00  0.00     0.163 HD
ATOM     30  O   UNL     1      -4.248   0.077  10.744  1.00  0.00    -0.269 OA
BRANCH  28  31
ATOM     31  C   UNL     1      -2.429  -1.421  10.734  1.00  0.00     0.039 A 
ATOM     32  C   UNL     1      -3.084  -2.617  11.035  1.00  0.00     0.014 A 
ATOM     33  C   UNL     1      -1.039  -1.347  10.779  1.00  0.00     0.014 A 
ATOM     34  C   UNL     1      -2.328  -3.768  11.279  1.00  0.00     0.010 A 
ATOM     35  C   UNL     1      -0.303  -2.515  10.860  1.00  0.00     0.010 A 
ATOM     36  C   UNL     1      -0.932  -3.739  11.134  1.00  0.00    -0.014 A 
BRANCH  36  37
ATOM     37  C   UNL     1      -0.067  -4.935  11.311  1.00  0.00     0.031 A 
ATOM     38  C   UNL     1       1.082  -4.852  12.286  1.00  0.00     0.074 A 
ATOM     39  C   UNL     1      -0.217  -6.021  10.527  1.00  0.00     0.049 A 
ATOM     40  N   UNL     1       2.118  -5.636  12.417  1.00  0.00    -0.248 NA
ATOM     41  C   UNL     1       1.105  -3.679  13.180  1.00  0.00     0.031 C 
ATOM     42  C   UNL     1      -1.248  -6.203   9.502  1.00  0.00     0.029 A 
ATOM     43  N   UNL     1       0.521  -7.177  10.456  1.00  0.00    -0.354 N 
ATOM     44  C   UNL     1       2.941  -5.014  13.350  1.00  0.00     0.074 A 
ATOM     45  C   UNL     1       2.319  -3.759  13.699  1.00  0.00     0.031 C 
ATOM     46  C   UNL     1      -1.095  -7.409   8.929  1.00  0.00     0.029 A 
ATOM     47  C   UNL     1       0.073  -8.065   9.505  1.00  0.00     0.049 A 
ATOM     48  H   UNL     1       1.300  -7.353  11.032  1.00  0.00     0.167 HD
ATOM     49  C   UNL     1       4.094  -5.466  13.896  1.00  0.00     0.037 A 
ATOM     50  C   UNL     1       0.560  -9.266   9.136  1.00  0.00     0.037 A 
ATOM     51  C   UNL     1       4.641  -6.766  13.623  1.00  0.00     0.049 A 
ATOM     52  C   UNL     1       1.796  -9.790   9.820  1.00  0.00     0.074 A 
ATOM     53  C   UNL     1       5.745  -7.372  14.193  1.00  0.00     0.029 A 
ATOM     54  N   UNL     1       4.101  -7.673  12.722  1.00  0.00    -0.354 N 
ATOM     55  N   UNL     1       2.542  -9.209  10.730  1.00  0.00    -0.248 NA
ATOM     56  C   UNL     1       2.257 -11.130   9.432  1.00  0.00     0.031 C 
ATOM     57  C   UNL     1       5.885  -8.641  13.622  1.00  0.00     0.029 A 
ATOM     58  C   UNL     1       4.847  -8.837  12.723  1.00  0.00     0.049 A 
ATOM     59  H   UNL     1       3.305  -7.511  12.166  1.00  0.00     0.167 HD
ATOM     60  C   UNL     1       3.540 -10.123  11.046  1.00  0.00     0.074 A 
ATOM     61  C   UNL     1       3.301 -11.299  10.233  1.00  0.00     0.031 C 
ATOM     62  C   UNL     1       4.563 -10.004  11.927  1.00  0.00     0.037 A 
BRANCH  49  63
ATOM     63  C   UNL     1       4.810  -4.566  14.865  1.00  0.00     0.058 A 
ATOM     64  C   UNL     1       4.273  -4.261  16.127  1.00  0.00     0.135 A 
ATOM     65  C   UNL     1       6.055  -4.007  14.533  1.00  0.00     0.135 A 
ATOM     66  F   UNL     1       3.078  -4.753  16.489  1.00  0.00    -0.206 F 
ATOM     67  C   UNL     1       4.922  -3.403  17.006  1.00  0.00     0.059 A 
ATOM     68  C   UNL     1       6.739  -3.172  15.412  1.00  0.00     0.059 A 
ATOM     69  F   UNL     1       6.615  -4.263  13.340  1.00  0.00    -0.206 F 
ATOM     70  C   UNL     1       6.155  -2.861  16.639  1.00  0.00     0.060 A 
BRANCH  70  71
ATOM     71  S   UNL     1       6.985  -1.750  17.794  1.00  0.00     0.124 S 
ATOM     72  O   UNL     1       6.196  -0.532  17.642  1.00  0.00    -0.237 OA
ATOM     73  O   UNL     1       6.831  -2.449  19.066  1.00  0.00    -0.237 OA
ATOM     74  O   UNL     1       8.349  -1.683  17.279  1.00  0.00    -0.744 OA
ENDBRANCH  70  71
ENDBRANCH  49  63
BRANCH  50  75
ATOM     75  C   UNL     1      -0.139 -10.072   8.099  1.00  0.00     0.058 A 
ATOM     76  C   UNL     1      -0.847 -11.231   8.451  1.00  0.00     0.135 A 
ATOM     77  C   UNL     1      -0.127  -9.702   6.745  1.00  0.00     0.135 A 
ATOM     78  F   UNL     1      -0.885 -11.630   9.732  1.00  0.00    -0.206 F 
ATOM     79  C   UNL     1      -1.502 -12.006   7.498  1.00  0.00     0.059 A 
ATOM     80  C   UNL     1      -0.794 -10.448   5.776  1.00  0.00     0.059 A 
ATOM     81  F   UNL     1       0.520  -8.592   6.357  1.00  0.00    -0.206 F 
ATOM     82  C   UNL     1      -1.470 -11.605   6.162  1.00  0.00     0.060 A 
BRANCH  82  83
ATOM     83  S   UNL     1      -2.359 -12.596   4.941  1.00  0.00     0.124 S 
ATOM     84  O   UNL     1      -1.492 -13.762   4.821  1.00  0.00    -0.237 OA
ATOM     85  O   UNL     1      -3.641 -12.820   5.602  1.00  0.00    -0.237 OA
ATOM     86  O   UNL     1      -2.410 -11.722   3.773  1.00  0.00    -0.744 OA
ENDBRANCH  82  83
ENDBRANCH  50  75
BRANCH  62  87
ATOM     87  C   UNL     1       5.471 -11.185  12.106  1.00  0.00     0.058 A 
ATOM     88  C   UNL     1       6.456 -11.504  11.160  1.00  0.00     0.135 A 
ATOM     89  C   UNL     1       5.418 -11.941  13.288  1.00  0.00     0.135 A 
ATOM     90  F   UNL     1       6.541 -10.812  10.013  1.00  0.00    -0.206 F 
ATOM     91  C   UNL     1       7.359 -12.538  11.379  1.00  0.00     0.059 A 
ATOM     92  C   UNL     1       6.326 -12.964  13.537  1.00  0.00     0.059 A 
ATOM     93  F   UNL     1       4.499 -11.665  14.227  1.00  0.00    -0.206 F 
ATOM     94  C   UNL     1       7.291 -13.257  12.574  1.00  0.00     0.060 A 
BRANCH  94  95
ATOM     95  S   UNL     1       8.515 -14.548  12.878  1.00  0.00     0.124 S 
ATOM     96  O   UNL     1       8.042 -15.613  11.999  1.00  0.00    -0.237 OA
ATOM     97  O   UNL     1       9.759 -13.900  12.476  1.00  0.00    -0.237 OA
ATOM     98  O   UNL     1       8.385 -14.809  14.308  1.00  0.00    -0.744 OA
ENDBRANCH  94  95
ENDBRANCH  62  87
ENDBRANCH  36  37
ENDBRANCH  28  31
ENDBRANCH  26  27
ENDBRANCH  25  26
ENDBRANCH   1  25
TORSDOF 21
