REMARK SMILES C[C@H](CCC(=O)NCCCCNC(=O)c1ccc(-c2c3nc(c(-c4c(F)cc(S(=O)(=O)[O-])cc4F)c4ccc([nH]4)c(-c4c(F)cc(S(=O)(=O)[O-])cc4F)c4nc(c(-c5c(F)cc(S(=O)(=O)[O-])cc5F)c5ccc2[nH]5)C=C4)C=C3)cc1)NC(=O)c1ccc(C[NH3+])o1
REMARK SMILES IDX 8 1 7 2 5 3 6 4 4 6 3 7 2 8 1 9 81 10 82 11 83 13 84 14
REMARK SMILES IDX 85 15 90 16 86 17 87 18 88 19 89 20 9 24 10 25 11 26 12 27
REMARK SMILES IDX 13 28 14 30 15 31 16 32 80 33 17 34 79 35 18 36 19 37 20 38
REMARK SMILES IDX 73 39 21 40 78 41 72 42 74 43 22 44 77 45 71 46 70 47 23 49
REMARK SMILES IDX 57 50 36 51 56 52 37 53 40 54 55 55 75 56 38 57 39 58 54 60
REMARK SMILES IDX 76 61 41 62 24 63 25 64 34 65 26 66 27 67 33 68 35 69 28 70
REMARK SMILES IDX 29 71 30 72 31 73 32 74 58 75 59 76 68 77 60 78 61 79 67 80
REMARK SMILES IDX 69 81 62 82 63 83 64 84 65 85 66 86 42 87 43 88 52 89 44 90
REMARK SMILES IDX 45 91 51 92 53 93 46 94 47 95 48 96 49 97 50 98
REMARK H PARENT 7 5 81 12 89 21 89 22 89 23 12 29 74 48 40 59
REMARK Flexibility Score: inf
ROOT
ATOM      1  C   UNL     1      -1.097   2.808   0.700  1.00  0.00     0.116 C 
ENDROOT
BRANCH   1   2
ATOM      2  N   UNL     1       0.006   2.996  -0.232  1.00  0.00    -0.356 N 
ATOM      3  C   UNL     1       0.612   2.150  -1.110  1.00  0.00     0.220 C 
ATOM      4  O   UNL     1       1.603   2.553  -1.721  1.00  0.00    -0.275 OA
ATOM      5  H   UNL     1       0.384   3.905  -0.227  1.00  0.00     0.163 HD
BRANCH   3   6
ATOM      6  C   UNL     1       0.086   0.751  -1.355  1.00  0.00     0.102 C 
BRANCH   6   7
ATOM      7  C   UNL     1       0.962  -0.387  -0.790  1.00  0.00     0.034 C 
BRANCH   7   8
ATOM      8  C   UNL     1       1.011  -0.563   0.749  1.00  0.00     0.079 C 
ATOM      9  C   UNL     1       2.067   0.373   1.346  1.00  0.00     0.031 C 
BRANCH   8  10
ATOM     10  N   UNL     1      -0.340  -0.441   1.294  1.00  0.00    -0.347 N 
ATOM     11  C   UNL     1      -0.975  -0.865   2.426  1.00  0.00     0.287 C 
ATOM     12  H   UNL     1      -0.936   0.071   0.701  1.00  0.00     0.164 HD
ATOM     13  O   UNL     1      -2.198  -0.705   2.428  1.00  0.00    -0.266 OA
BRANCH  11  14
ATOM     14  C   UNL     1      -0.270  -1.460   3.525  1.00  0.00     0.191 A 
ATOM     15  C   UNL     1       0.710  -1.005   4.387  1.00  0.00     0.057 A 
ATOM     16  O   UNL     1      -0.736  -2.667   3.970  1.00  0.00    -0.450 OA
ATOM     17  C   UNL     1       0.850  -1.987   5.401  1.00  0.00     0.052 A 
ATOM     18  C   UNL     1      -0.065  -2.975   5.111  1.00  0.00     0.159 A 
BRANCH  18  19
ATOM     19  C   UNL     1      -0.464  -4.237   5.778  1.00  0.00     0.335 C 
BRANCH  19  20
ATOM     20  N   UNL     1       0.558  -5.261   5.584  1.00  0.00    -0.351 N 
ATOM     21  H   UNL     1       0.673  -5.442   4.587  1.00  0.00     0.344 HD
ATOM     22  H   UNL     1       0.273  -6.120   6.055  1.00  0.00     0.344 HD
ATOM     23  H   UNL     1       1.443  -4.937   5.975  1.00  0.00     0.344 HD
ENDBRANCH  19  20
ENDBRANCH  18  19
ENDBRANCH  11  14
ENDBRANCH   8  10
ENDBRANCH   7   8
ENDBRANCH   6   7
ENDBRANCH   3   6
ENDBRANCH   1   2
BRANCH   1  24
ATOM     24  C   UNL     1      -0.610   2.569   2.131  1.00  0.00     0.023 C 
BRANCH  24  25
ATOM     25  C   UNL     1       0.064   3.764   2.799  1.00  0.00     0.023 C 
BRANCH  25  26
ATOM     26  C   UNL     1      -0.932   4.665   3.501  1.00  0.00     0.116 C 
BRANCH  26  27
ATOM     27  N   UNL     1      -1.535   4.031   4.668  1.00  0.00    -0.352 N 
ATOM     28  C   UNL     1      -1.994   4.634   5.817  1.00  0.00     0.251 C 
ATOM     29  H   UNL     1      -1.624   3.052   4.628  1.00  0.00     0.163 HD
ATOM     30  O   UNL     1      -2.365   3.966   6.769  1.00  0.00    -0.269 OA
BRANCH  28  31
ATOM     31  C   UNL     1      -1.975   6.111   5.891  1.00  0.00     0.039 A 
ATOM     32  C   UNL     1      -1.415   6.726   7.012  1.00  0.00     0.014 A 
ATOM     33  C   UNL     1      -2.444   6.875   4.820  1.00  0.00     0.014 A 
ATOM     34  C   UNL     1      -1.264   8.113   7.027  1.00  0.00     0.010 A 
ATOM     35  C   UNL     1      -2.205   8.241   4.796  1.00  0.00     0.010 A 
ATOM     36  C   UNL     1      -1.624   8.874   5.903  1.00  0.00    -0.014 A 
BRANCH  36  37
ATOM     37  C   UNL     1      -1.438  10.344   5.872  1.00  0.00     0.031 A 
ATOM     38  C   UNL     1      -2.641  11.238   5.746  1.00  0.00     0.074 A 
ATOM     39  C   UNL     1      -0.193  10.861   5.876  1.00  0.00     0.049 A 
ATOM     40  N   UNL     1      -2.695  12.536   5.605  1.00  0.00    -0.248 NA
ATOM     41  C   UNL     1      -3.959  10.579   5.736  1.00  0.00     0.031 C 
ATOM     42  C   UNL     1       1.048  10.084   5.928  1.00  0.00     0.029 A 
ATOM     43  N   UNL     1       0.234  12.162   5.826  1.00  0.00    -0.354 N 
ATOM     44  C   UNL     1      -4.043  12.843   5.463  1.00  0.00     0.074 A 
ATOM     45  C   UNL     1      -4.769  11.594   5.475  1.00  0.00     0.031 C 
ATOM     46  C   UNL     1       2.095  10.925   5.935  1.00  0.00     0.029 A 
ATOM     47  C   UNL     1       1.603  12.297   5.856  1.00  0.00     0.049 A 
ATOM     48  H   UNL     1      -0.381  12.929   5.774  1.00  0.00     0.167 HD
ATOM     49  C   UNL     1      -4.625  14.061   5.362  1.00  0.00     0.037 A 
ATOM     50  C   UNL     1       2.369  13.404   5.825  1.00  0.00     0.037 A 
ATOM     51  C   UNL     1      -3.895  15.299   5.406  1.00  0.00     0.049 A 
ATOM     52  C   UNL     1       1.696  14.748   5.761  1.00  0.00     0.074 A 
ATOM     53  C   UNL     1      -4.387  16.591   5.386  1.00  0.00     0.029 A 
ATOM     54  N   UNL     1      -2.513  15.396   5.490  1.00  0.00    -0.354 N 
ATOM     55  N   UNL     1       0.415  15.025   5.691  1.00  0.00    -0.248 NA
ATOM     56  C   UNL     1       2.568  15.930   5.782  1.00  0.00     0.031 C 
ATOM     57  C   UNL     1      -3.300  17.471   5.430  1.00  0.00     0.029 A 
ATOM     58  C   UNL     1      -2.134  16.726   5.516  1.00  0.00     0.049 A 
ATOM     59  H   UNL     1      -1.895  14.631   5.527  1.00  0.00     0.167 HD
ATOM     60  C   UNL     1       0.326  16.412   5.685  1.00  0.00     0.074 A 
ATOM     61  C   UNL     1       1.682  16.917   5.770  1.00  0.00     0.031 C 
ATOM     62  C   UNL     1      -0.776  17.199   5.614  1.00  0.00     0.037 A 
BRANCH  49  63
ATOM     63  C   UNL     1      -6.121  14.107   5.216  1.00  0.00     0.058 A 
ATOM     64  C   UNL     1      -6.975  13.763   6.276  1.00  0.00     0.135 A 
ATOM     65  C   UNL     1      -6.709  14.515   4.009  1.00  0.00     0.135 A 
ATOM     66  F   UNL     1      -6.466  13.346   7.447  1.00  0.00    -0.206 F 
ATOM     67  C   UNL     1      -8.358  13.790   6.136  1.00  0.00     0.059 A 
ATOM     68  C   UNL     1      -8.092  14.578   3.854  1.00  0.00     0.059 A 
ATOM     69  F   UNL     1      -5.941  14.852   2.961  1.00  0.00    -0.206 F 
ATOM     70  C   UNL     1      -8.908  14.198   4.919  1.00  0.00     0.060 A 
BRANCH  70  71
ATOM     71  S   UNL     1     -10.705  14.233   4.753  1.00  0.00     0.124 S 
ATOM     72  O   UNL     1     -11.012  12.811   4.631  1.00  0.00    -0.237 OA
ATOM     73  O   UNL     1     -11.123  14.866   6.000  1.00  0.00    -0.237 OA
ATOM     74  O   UNL     1     -10.919  15.028   3.548  1.00  0.00    -0.744 OA
ENDBRANCH  70  71
ENDBRANCH  49  63
BRANCH  50  75
ATOM     75  C   UNL     1       3.850  13.289   5.894  1.00  0.00     0.058 A 
ATOM     76  C   UNL     1       4.546  13.665   7.052  1.00  0.00     0.135 A 
ATOM     77  C   UNL     1       4.597  12.788   4.817  1.00  0.00     0.135 A 
ATOM     78  F   UNL     1       3.877  14.152   8.108  1.00  0.00    -0.206 F 
ATOM     79  C   UNL     1       5.932  13.568   7.135  1.00  0.00     0.059 A 
ATOM     80  C   UNL     1       5.981  12.660   4.884  1.00  0.00     0.059 A 
ATOM     81  F   UNL     1       3.976  12.395   3.693  1.00  0.00    -0.206 F 
ATOM     82  C   UNL     1       6.641  13.063   6.044  1.00  0.00     0.060 A 
BRANCH  82  83
ATOM     83  S   UNL     1       8.435  12.897   6.178  1.00  0.00     0.124 S 
ATOM     84  O   UNL     1       8.868  14.283   6.043  1.00  0.00    -0.237 OA
ATOM     85  O   UNL     1       8.592  12.305   7.503  1.00  0.00    -0.237 OA
ATOM     86  O   UNL     1       8.773  12.018   5.063  1.00  0.00    -0.744 OA
ENDBRANCH  82  83
ENDBRANCH  50  75
BRANCH  62  87
ATOM     87  C   UNL     1      -0.564  18.684   5.659  1.00  0.00     0.058 A 
ATOM     88  C   UNL     1      -0.066  19.388   4.552  1.00  0.00     0.135 A 
ATOM     89  C   UNL     1      -0.920  19.417   6.802  1.00  0.00     0.135 A 
ATOM     90  F   UNL     1       0.293  18.730   3.438  1.00  0.00    -0.206 F 
ATOM     91  C   UNL     1       0.090  20.769   4.584  1.00  0.00     0.059 A 
ATOM     92  C   UNL     1      -0.795  20.801   6.847  1.00  0.00     0.059 A 
ATOM     93  F   UNL     1      -1.411  18.789   7.882  1.00  0.00    -0.206 F 
ATOM     94  C   UNL     1      -0.279  21.467   5.736  1.00  0.00     0.060 A 
BRANCH  94  95
ATOM     95  S   UNL     1      -0.109  23.264   5.752  1.00  0.00     0.124 S 
ATOM     96  O   UNL     1       1.331  23.420   5.928  1.00  0.00    -0.237 OA
ATOM     97  O   UNL     1      -0.632  23.640   4.442  1.00  0.00    -0.237 OA
ATOM     98  O   UNL     1      -0.930  23.672   6.888  1.00  0.00    -0.744 OA
ENDBRANCH  94  95
ENDBRANCH  62  87
ENDBRANCH  36  37
ENDBRANCH  28  31
ENDBRANCH  26  27
ENDBRANCH  25  26
ENDBRANCH  24  25
ENDBRANCH   1  24
TORSDOF 20
