REMARK SMILES Cc1ccc(NC(=O)C[C@@H](C(=O)NCCCCNC(=O)c2ccc(-c3c4nc(c(-c5c(F)cc(S(=O)(=O)[O-])cc5F)c5ccc([nH]5)c(-c5c(F)cc(S(=O)(=O)[O-])cc5F)c5nc(c(-c6c(F)cc(S(=O)(=O)[O-])cc6F)c6ccc3[nH]6)C=C5)C=C4)cc2)[NH+](C)C)cc1Cl
REMARK SMILES IDX 15 1 14 2 13 3 11 4 12 5 10 7 9 8 7 9 6 10 8 12 5 13 1 14
REMARK SMILES IDX 2 15 3 16 91 17 4 18 90 19 92 20 87 21 88 22 89 23 16 25
REMARK SMILES IDX 17 26 18 27 19 28 20 30 21 31 22 32 86 33 23 34 85 35 24 36
REMARK SMILES IDX 25 37 26 38 79 39 27 40 84 41 78 42 80 43 28 44 83 45 77 46
REMARK SMILES IDX 76 47 29 49 63 50 42 51 62 52 43 53 46 54 61 55 81 56 44 57
REMARK SMILES IDX 45 58 60 60 82 61 47 62 30 63 31 64 40 65 32 66 33 67 39 68
REMARK SMILES IDX 41 69 34 70 35 71 36 72 37 73 38 74 64 75 65 76 74 77 66 78
REMARK SMILES IDX 67 79 73 80 75 81 68 82 69 83 70 84 71 85 72 86 48 87 49 88
REMARK SMILES IDX 58 89 50 90 51 91 57 92 59 93 52 94 53 95 54 96 55 97 56 98
REMARK H PARENT 13 6 6 11 87 24 18 29 80 48 46 59
REMARK Flexibility Score: inf
ROOT
ATOM      1  C   UNL     1      -4.125  -2.861  -0.722  1.00  0.00     0.023 C 
ENDROOT
BRANCH   1   2
ATOM      2  C   UNL     1      -2.999  -3.065  -1.744  1.00  0.00     0.116 C 
BRANCH   2   3
ATOM      3  N   UNL     1      -1.940  -2.071  -1.667  1.00  0.00    -0.351 N 
ATOM      4  C   UNL     1      -0.592  -2.183  -1.460  1.00  0.00     0.278 C 
ATOM      5  O   UNL     1       0.067  -1.153  -1.630  1.00  0.00    -0.268 OA
ATOM      6  H   UNL     1      -2.250  -1.144  -1.788  1.00  0.00     0.163 HD
BRANCH   4   7
ATOM      7  C   UNL     1       0.051  -3.539  -1.070  1.00  0.00     0.283 C 
BRANCH   7   8
ATOM      8  C   UNL     1      -0.103  -3.964   0.406  1.00  0.00     0.175 C 
BRANCH   8   9
ATOM      9  C   UNL     1      -1.354  -3.614   1.170  1.00  0.00     0.230 C 
ATOM     10  N   UNL     1      -1.653  -2.358   1.615  1.00  0.00    -0.326 N 
ATOM     11  H   UNL     1      -2.486  -2.314   2.137  1.00  0.00     0.169 HD
ATOM     12  O   UNL     1      -2.174  -4.511   1.407  1.00  0.00    -0.274 OA
BRANCH  10  13
ATOM     13  C   UNL     1      -1.010  -1.117   1.479  1.00  0.00     0.042 A 
ATOM     14  C   UNL     1       0.583   2.691   0.217  1.00  0.00     0.046 C 
ATOM     15  C   UNL     1       0.056   1.397   0.766  1.00  0.00    -0.032 A 
ATOM     16  C   UNL     1      -1.319   1.240   0.971  1.00  0.00     0.007 A 
ATOM     17  C   UNL     1       0.896   0.312   1.049  1.00  0.00     0.046 A 
ATOM     18  C   UNL     1      -1.841   0.003   1.360  1.00  0.00     0.026 A 
ATOM     19  C   UNL     1       0.366  -0.937   1.402  1.00  0.00     0.047 A 
ATOM     20  Cl  UNL     1       2.617   0.462   0.951  1.00  0.00    -0.084 Cl
ENDBRANCH  10  13
ENDBRANCH   8   9
ENDBRANCH   7   8
BRANCH   7  21
ATOM     21  N   UNL     1       1.479  -3.710  -1.543  1.00  0.00    -0.329 N 
ATOM     22  C   UNL     1       1.701  -3.259  -2.921  1.00  0.00     0.333 C 
ATOM     23  C   UNL     1       2.501  -3.109  -0.685  1.00  0.00     0.333 C 
ATOM     24  H   UNL     1       1.593  -4.722  -1.494  1.00  0.00     0.348 HD
ENDBRANCH   7  21
ENDBRANCH   4   7
ENDBRANCH   2   3
ENDBRANCH   1   2
BRANCH   1  25
ATOM     25  C   UNL     1      -4.713  -1.455  -0.643  1.00  0.00     0.023 C 
BRANCH  25  26
ATOM     26  C   UNL     1      -5.561  -1.069  -1.841  1.00  0.00     0.116 C 
BRANCH  26  27
ATOM     27  N   UNL     1      -6.776  -1.868  -1.922  1.00  0.00    -0.352 N 
ATOM     28  C   UNL     1      -8.086  -1.498  -1.756  1.00  0.00     0.251 C 
ATOM     29  H   UNL     1      -6.635  -2.821  -2.128  1.00  0.00     0.163 HD
ATOM     30  O   UNL     1      -8.949  -2.372  -1.625  1.00  0.00    -0.269 OA
BRANCH  28  31
ATOM     31  C   UNL     1      -8.467  -0.071  -1.722  1.00  0.00     0.039 A 
ATOM     32  C   UNL     1      -9.474   0.352  -0.850  1.00  0.00     0.014 A 
ATOM     33  C   UNL     1      -7.849   0.851  -2.569  1.00  0.00     0.014 A 
ATOM     34  C   UNL     1      -9.818   1.706  -0.792  1.00  0.00     0.010 A 
ATOM     35  C   UNL     1      -8.111   2.208  -2.429  1.00  0.00     0.010 A 
ATOM     36  C   UNL     1      -9.118   2.650  -1.560  1.00  0.00    -0.014 A 
BRANCH  36  37
ATOM     37  C   UNL     1      -9.449   4.097  -1.520  1.00  0.00     0.031 A 
ATOM     38  C   UNL     1      -9.889   4.793  -2.783  1.00  0.00     0.074 A 
ATOM     39  C   UNL     1      -9.284   4.795  -0.379  1.00  0.00     0.049 A 
ATOM     40  N   UNL     1     -10.114   6.064  -2.992  1.00  0.00    -0.248 NA
ATOM     41  C   UNL     1     -10.054   3.954  -3.983  1.00  0.00     0.031 C 
ATOM     42  C   UNL     1      -8.809   4.243   0.892  1.00  0.00     0.029 A 
ATOM     43  N   UNL     1      -9.485   6.125  -0.106  1.00  0.00    -0.354 N 
ATOM     44  C   UNL     1     -10.416   6.177  -4.345  1.00  0.00     0.074 A 
ATOM     45  C   UNL     1     -10.280   4.859  -4.922  1.00  0.00     0.031 C 
ATOM     46  C   UNL     1      -8.784   5.219   1.815  1.00  0.00     0.029 A 
ATOM     47  C   UNL     1      -9.200   6.472   1.194  1.00  0.00     0.049 A 
ATOM     48  H   UNL     1      -9.803   6.770  -0.778  1.00  0.00     0.167 HD
ATOM     49  C   UNL     1     -10.804   7.274  -5.038  1.00  0.00     0.037 A 
ATOM     50  C   UNL     1      -9.265   7.667   1.812  1.00  0.00     0.037 A 
ATOM     51  C   UNL     1     -10.989   8.569  -4.442  1.00  0.00     0.049 A 
ATOM     52  C   UNL     1      -9.730   8.866   1.030  1.00  0.00     0.074 A 
ATOM     53  C   UNL     1     -11.445   9.733  -5.035  1.00  0.00     0.029 A 
ATOM     54  N   UNL     1     -10.735   8.869  -3.111  1.00  0.00    -0.354 N 
ATOM     55  N   UNL     1     -10.068   8.943  -0.236  1.00  0.00    -0.248 NA
ATOM     56  C   UNL     1      -9.832  10.138   1.758  1.00  0.00     0.031 C 
ATOM     57  C   UNL     1     -11.432  10.746  -4.071  1.00  0.00     0.029 A 
ATOM     58  C   UNL     1     -11.014  10.202  -2.866  1.00  0.00     0.049 A 
ATOM     59  H   UNL     1     -10.406   8.228  -2.441  1.00  0.00     0.167 HD
ATOM     60  C   UNL     1     -10.453  10.262  -0.447  1.00  0.00     0.074 A 
ATOM     61  C   UNL     1     -10.313  10.945   0.823  1.00  0.00     0.031 C 
ATOM     62  C   UNL     1     -10.883  10.856  -1.588  1.00  0.00     0.037 A 
BRANCH  49  63
ATOM     63  C   UNL     1     -11.070   7.113  -6.511  1.00  0.00     0.058 A 
ATOM     64  C   UNL     1     -12.167   6.376  -6.988  1.00  0.00     0.135 A 
ATOM     65  C   UNL     1     -10.233   7.724  -7.460  1.00  0.00     0.135 A 
ATOM     66  F   UNL     1     -12.990   5.756  -6.127  1.00  0.00    -0.206 F 
ATOM     67  C   UNL     1     -12.405   6.221  -8.349  1.00  0.00     0.059 A 
ATOM     68  C   UNL     1     -10.471   7.609  -8.827  1.00  0.00     0.059 A 
ATOM     69  F   UNL     1      -9.169   8.439  -7.062  1.00  0.00    -0.206 F 
ATOM     70  C   UNL     1     -11.551   6.841  -9.262  1.00  0.00     0.060 A 
BRANCH  70  71
ATOM     71  S   UNL     1     -11.878   6.635 -11.025  1.00  0.00     0.124 S 
ATOM     72  O   UNL     1     -11.467   5.250 -11.236  1.00  0.00    -0.237 OA
ATOM     73  O   UNL     1     -13.313   6.889 -11.108  1.00  0.00    -0.237 OA
ATOM     74  O   UNL     1     -11.028   7.644 -11.649  1.00  0.00    -0.744 OA
ENDBRANCH  70  71
ENDBRANCH  49  63
BRANCH  50  75
ATOM     75  C   UNL     1      -8.915   7.780   3.254  1.00  0.00     0.058 A 
ATOM     76  C   UNL     1      -9.904   8.017   4.220  1.00  0.00     0.135 A 
ATOM     77  C   UNL     1      -7.591   7.636   3.698  1.00  0.00     0.135 A 
ATOM     78  F   UNL     1     -11.184   8.165   3.845  1.00  0.00    -0.206 F 
ATOM     79  C   UNL     1      -9.595   8.125   5.571  1.00  0.00     0.059 A 
ATOM     80  C   UNL     1      -7.260   7.714   5.048  1.00  0.00     0.059 A 
ATOM     81  F   UNL     1      -6.609   7.388   2.818  1.00  0.00    -0.206 F 
ATOM     82  C   UNL     1      -8.268   7.970   5.976  1.00  0.00     0.060 A 
BRANCH  82  83
ATOM     83  S   UNL     1      -7.883   8.066   7.739  1.00  0.00     0.124 S 
ATOM     84  O   UNL     1      -8.021   9.495   7.992  1.00  0.00    -0.237 OA
ATOM     85  O   UNL     1      -8.912   7.210   8.323  1.00  0.00    -0.237 OA
ATOM     86  O   UNL     1      -6.524   7.538   7.813  1.00  0.00    -0.744 OA
ENDBRANCH  82  83
ENDBRANCH  50  75
BRANCH  62  87
ATOM     87  C   UNL     1     -11.278  12.303  -1.510  1.00  0.00     0.058 A 
ATOM     88  C   UNL     1     -10.323  13.324  -1.393  1.00  0.00     0.135 A 
ATOM     89  C   UNL     1     -12.628  12.675  -1.622  1.00  0.00     0.135 A 
ATOM     90  F   UNL     1      -9.020  13.021  -1.277  1.00  0.00    -0.206 F 
ATOM     91  C   UNL     1     -10.694  14.664  -1.370  1.00  0.00     0.059 A 
ATOM     92  C   UNL     1     -13.019  14.009  -1.629  1.00  0.00     0.059 A 
ATOM     93  F   UNL     1     -13.579  11.736  -1.747  1.00  0.00    -0.206 F 
ATOM     94  C   UNL     1     -12.044  14.996  -1.493  1.00  0.00     0.060 A 
BRANCH  94  95
ATOM     95  S   UNL     1     -12.508  16.741  -1.506  1.00  0.00     0.124 S 
ATOM     96  O   UNL     1     -12.340  17.099  -0.102  1.00  0.00    -0.237 OA
ATOM     97  O   UNL     1     -11.534  17.316  -2.429  1.00  0.00    -0.237 OA
ATOM     98  O   UNL     1     -13.886  16.723  -1.989  1.00  0.00    -0.744 OA
ENDBRANCH  94  95
ENDBRANCH  62  87
ENDBRANCH  36  37
ENDBRANCH  28  31
ENDBRANCH  26  27
ENDBRANCH  25  26
ENDBRANCH   1  25
TORSDOF 18
