REMARK SMILES C[C@H]1[C@H](C(=O)NCCCCNC(=O)c2ccc(-c3c4nc(c(-c5c(F)cc(S(=O)(=O)[O-])cc5F)c5ccc([nH]5)c(-c5c(F)cc(S(=O)(=O)[O-])cc5F)c5nc(c(-c6c(F)cc(S(=O)(=O)[O-])cc6F)c6ccc3[nH]6)C=C5)C=C4)cc2)CCN1C(=O)NCc1cnn(C)c1
REMARK SMILES IDX 8 1 7 2 6 3 4 4 5 5 3 7 1 8 2 9 82 10 80 11 81 12 83 13
REMARK SMILES IDX 84 14 85 15 86 17 87 18 88 19 92 20 89 21 90 22 91 23 9 24
REMARK SMILES IDX 10 25 11 26 12 27 13 29 14 30 15 31 79 32 16 33 78 34 17 35
REMARK SMILES IDX 18 36 19 37 72 38 20 39 77 40 71 41 73 42 21 43 76 44 70 45
REMARK SMILES IDX 69 46 22 48 56 49 35 50 55 51 36 52 39 53 54 54 74 55 37 56
REMARK SMILES IDX 38 57 53 59 75 60 40 61 23 62 24 63 33 64 25 65 26 66 32 67
REMARK SMILES IDX 34 68 27 69 28 70 29 71 30 72 31 73 57 74 58 75 67 76 59 77
REMARK SMILES IDX 60 78 66 79 68 80 61 81 62 82 63 83 64 84 65 85 41 86 42 87
REMARK SMILES IDX 51 88 43 89 44 90 50 91 52 92 45 93 46 94 47 95 48 96 49 97
REMARK H PARENT 6 6 85 16 11 28 73 47 39 58
REMARK Flexibility Score: inf
ROOT
ATOM      1  C   UNL     1      -0.153  -0.048   3.783  1.00  0.00     0.023 C 
ENDROOT
BRANCH   1   2
ATOM      2  C   UNL     1      -1.168   0.587   2.842  1.00  0.00     0.116 C 
BRANCH   2   3
ATOM      3  N   UNL     1      -0.720   1.875   2.344  1.00  0.00    -0.356 N 
ATOM      4  C   UNL     1      -0.265   2.262   1.124  1.00  0.00     0.225 C 
ATOM      5  O   UNL     1       0.092   3.438   1.000  1.00  0.00    -0.275 OA
ATOM      6  H   UNL     1      -0.750   2.598   3.011  1.00  0.00     0.163 HD
BRANCH   4   7
ATOM      7  C   UNL     1      -0.157   1.322  -0.067  1.00  0.00     0.102 C 
ATOM      8  C   UNL     1       1.926   0.265  -0.996  1.00  0.00     0.032 C 
ATOM      9  C   UNL     1       0.897   0.221   0.141  1.00  0.00     0.096 C 
ATOM     10  N   UNL     1       0.155  -1.035   0.112  1.00  0.00    -0.321 N 
ATOM     11  C   UNL     1      -1.456   0.627  -0.465  1.00  0.00     0.037 C 
ATOM     12  C   UNL     1      -1.105  -0.847  -0.593  1.00  0.00     0.122 C 
BRANCH  10  13
ATOM     13  C   UNL     1       0.431  -2.257   0.636  1.00  0.00     0.317 C 
ATOM     14  O   UNL     1      -0.377  -3.188   0.538  1.00  0.00    -0.249 OA
ATOM     15  N   UNL     1       1.556  -2.553   1.301  1.00  0.00    -0.334 N 
ATOM     16  H   UNL     1       1.491  -3.434   1.736  1.00  0.00     0.165 HD
BRANCH  15  17
ATOM     17  C   UNL     1       2.840  -1.937   1.556  1.00  0.00     0.157 C 
BRANCH  17  18
ATOM     18  C   UNL     1       3.089  -1.888   3.019  1.00  0.00     0.009 A 
ATOM     19  C   UNL     1       3.440  -0.748   3.781  1.00  0.00     0.140 A 
ATOM     20  C   UNL     1       3.071  -2.910   3.951  1.00  0.00     0.113 A 
ATOM     21  N   UNL     1       3.603  -1.022   5.075  1.00  0.00    -0.181 NA
ATOM     22  N   UNL     1       3.370  -2.341   5.156  1.00  0.00    -0.275 N 
ATOM     23  C   UNL     1       3.461  -3.001   6.436  1.00  0.00     0.173 C 
ENDBRANCH  17  18
ENDBRANCH  15  17
ENDBRANCH  10  13
ENDBRANCH   4   7
ENDBRANCH   2   3
ENDBRANCH   1   2
BRANCH   1  24
ATOM     24  C   UNL     1       0.014   0.655   5.130  1.00  0.00     0.023 C 
BRANCH  24  25
ATOM     25  C   UNL     1      -1.262   0.804   5.949  1.00  0.00     0.116 C 
BRANCH  25  26
ATOM     26  N   UNL     1      -1.919  -0.464   6.229  1.00  0.00    -0.352 N 
ATOM     27  C   UNL     1      -2.533  -0.878   7.387  1.00  0.00     0.251 C 
ATOM     28  H   UNL     1      -1.924  -1.113   5.488  1.00  0.00     0.163 HD
ATOM     29  O   UNL     1      -2.933  -2.033   7.493  1.00  0.00    -0.269 OA
BRANCH  27  30
ATOM     30  C   UNL     1      -2.669   0.065   8.518  1.00  0.00     0.039 A 
ATOM     31  C   UNL     1      -2.306  -0.361   9.798  1.00  0.00     0.014 A 
ATOM     32  C   UNL     1      -3.122   1.371   8.314  1.00  0.00     0.014 A 
ATOM     33  C   UNL     1      -2.326   0.545  10.860  1.00  0.00     0.010 A 
ATOM     34  C   UNL     1      -3.074   2.291   9.358  1.00  0.00     0.010 A 
ATOM     35  C   UNL     1      -2.672   1.888  10.641  1.00  0.00    -0.014 A 
BRANCH  35  36
ATOM     36  C   UNL     1      -2.610   2.889  11.736  1.00  0.00     0.031 A 
ATOM     37  C   UNL     1      -3.864   3.575  12.205  1.00  0.00     0.074 A 
ATOM     38  C   UNL     1      -1.415   3.231  12.259  1.00  0.00     0.049 A 
ATOM     39  N   UNL     1      -4.003   4.526  13.092  1.00  0.00    -0.248 NA
ATOM     40  C   UNL     1      -5.125   3.156  11.572  1.00  0.00     0.031 C 
ATOM     41  C   UNL     1      -0.122   2.678  11.849  1.00  0.00     0.029 A 
ATOM     42  N   UNL     1      -1.091   4.136  13.239  1.00  0.00    -0.354 N 
ATOM     43  C   UNL     1      -5.358   4.831  13.112  1.00  0.00     0.074 A 
ATOM     44  C   UNL     1      -5.993   3.999  12.112  1.00  0.00     0.031 C 
ATOM     45  C   UNL     1       0.851   3.239  12.585  1.00  0.00     0.029 A 
ATOM     46  C   UNL     1       0.258   4.215  13.494  1.00  0.00     0.049 A 
ATOM     47  H   UNL     1      -1.762   4.677  13.715  1.00  0.00     0.167 HD
ATOM     48  C   UNL     1      -6.018   5.708  13.906  1.00  0.00     0.037 A 
ATOM     49  C   UNL     1       0.941   4.992  14.358  1.00  0.00     0.037 A 
ATOM     50  C   UNL     1      -5.385   6.510  14.921  1.00  0.00     0.049 A 
ATOM     51  C   UNL     1       0.185   5.947  15.241  1.00  0.00     0.074 A 
ATOM     52  C   UNL     1      -5.974   7.381  15.821  1.00  0.00     0.029 A 
ATOM     53  N   UNL     1      -4.020   6.540  15.170  1.00  0.00    -0.354 N 
ATOM     54  N   UNL     1      -1.106   6.175  15.291  1.00  0.00    -0.248 NA
ATOM     55  C   UNL     1       0.975   6.744  16.188  1.00  0.00     0.031 C 
ATOM     56  C   UNL     1      -4.962   7.964  16.591  1.00  0.00     0.029 A 
ATOM     57  C   UNL     1      -3.746   7.425  16.199  1.00  0.00     0.049 A 
ATOM     58  H   UNL     1      -3.346   6.009  14.687  1.00  0.00     0.167 HD
ATOM     59  C   UNL     1      -1.285   7.125  16.291  1.00  0.00     0.074 A 
ATOM     60  C   UNL     1       0.029   7.418  16.827  1.00  0.00     0.031 C 
ATOM     61  C   UNL     1      -2.433   7.700  16.726  1.00  0.00     0.037 A 
BRANCH  48  62
ATOM     62  C   UNL     1      -7.504   5.837  13.715  1.00  0.00     0.058 A 
ATOM     63  C   UNL     1      -8.386   4.813  14.095  1.00  0.00     0.135 A 
ATOM     64  C   UNL     1      -8.056   7.008  13.172  1.00  0.00     0.135 A 
ATOM     65  F   UNL     1      -7.910   3.666  14.605  1.00  0.00    -0.206 F 
ATOM     66  C   UNL     1      -9.760   4.931  13.914  1.00  0.00     0.059 A 
ATOM     67  C   UNL     1      -9.430   7.159  13.007  1.00  0.00     0.059 A 
ATOM     68  F   UNL     1      -7.259   8.019  12.792  1.00  0.00    -0.206 F 
ATOM     69  C   UNL     1     -10.273   6.108  13.367  1.00  0.00     0.060 A 
BRANCH  69  70
ATOM     70  S   UNL     1     -12.058   6.246  13.138  1.00  0.00     0.124 S 
ATOM     71  O   UNL     1     -12.270   5.380  11.983  1.00  0.00    -0.237 OA
ATOM     72  O   UNL     1     -12.576   5.746  14.408  1.00  0.00    -0.237 OA
ATOM     73  O   UNL     1     -12.261   7.672  12.900  1.00  0.00    -0.744 OA
ENDBRANCH  69  70
ENDBRANCH  48  62
BRANCH  49  74
ATOM     74  C   UNL     1       2.421   4.877  14.449  1.00  0.00     0.058 A 
ATOM     75  C   UNL     1       3.029   4.285  15.566  1.00  0.00     0.135 A 
ATOM     76  C   UNL     1       3.254   5.341  13.419  1.00  0.00     0.135 A 
ATOM     77  F   UNL     1       2.274   3.832  16.578  1.00  0.00    -0.206 F 
ATOM     78  C   UNL     1       4.411   4.170  15.668  1.00  0.00     0.059 A 
ATOM     79  C   UNL     1       4.638   5.216  13.487  1.00  0.00     0.059 A 
ATOM     80  F   UNL     1       2.720   5.900  12.322  1.00  0.00    -0.206 F 
ATOM     81  C   UNL     1       5.208   4.637  14.621  1.00  0.00     0.060 A 
BRANCH  81  82
ATOM     82  S   UNL     1       6.999   4.438  14.741  1.00  0.00     0.124 S 
ATOM     83  O   UNL     1       7.345   5.467  15.714  1.00  0.00    -0.237 OA
ATOM     84  O   UNL     1       7.125   3.057  15.200  1.00  0.00    -0.237 OA
ATOM     85  O   UNL     1       7.455   4.679  13.376  1.00  0.00    -0.744 OA
ENDBRANCH  81  82
ENDBRANCH  49  74
BRANCH  61  86
ATOM     86  C   UNL     1      -2.326   8.684  17.858  1.00  0.00     0.058 A 
ATOM     87  C   UNL     1      -1.809   9.974  17.666  1.00  0.00     0.135 A 
ATOM     88  C   UNL     1      -2.797   8.348  19.137  1.00  0.00     0.135 A 
ATOM     89  F   UNL     1      -1.340  10.342  16.463  1.00  0.00    -0.206 F 
ATOM     90  C   UNL     1      -1.742  10.891  18.709  1.00  0.00     0.059 A 
ATOM     91  C   UNL     1      -2.763   9.258  20.189  1.00  0.00     0.059 A 
ATOM     92  F   UNL     1      -3.311   7.130  19.371  1.00  0.00    -0.206 F 
ATOM     93  C   UNL     1      -2.223  10.524  19.968  1.00  0.00     0.060 A 
BRANCH  93  94
ATOM     94  S   UNL     1      -2.164  11.735  21.306  1.00  0.00     0.124 S 
ATOM     95  O   UNL     1      -0.748  11.718  21.655  1.00  0.00    -0.237 OA
ATOM     96  O   UNL     1      -2.642  12.949  20.652  1.00  0.00    -0.237 OA
ATOM     97  O   UNL     1      -3.065  11.175  22.309  1.00  0.00    -0.744 OA
ENDBRANCH  93  94
ENDBRANCH  61  86
ENDBRANCH  35  36
ENDBRANCH  27  30
ENDBRANCH  25  26
ENDBRANCH  24  25
ENDBRANCH   1  24
TORSDOF 17
