REMARK SMILES O=C(NCCCCNC(=O)c1cc(S(=O)(=O)NCCNc2ccccn2)ccc1F)c1ccc(-c2c3nc(c(-c4c(F)cc(S(=O)(=O)[O-])cc4F)c4ccc([nH]4)c(-c4c(F)cc(S(=O)(=O)[O-])cc4F)c4nc(c(-c5c(F)cc(S(=O)(=O)[O-])cc5F)c5ccc2[nH]5)C=C4)C=C3)cc1
REMARK SMILES IDX 7 1 6 2 5 3 4 4 3 5 1 6 2 7 31 9 32 10 96 11 33 12 95 13
REMARK SMILES IDX 34 14 35 15 36 16 89 17 37 18 94 19 88 20 90 21 38 22 93 23
REMARK SMILES IDX 87 24 86 25 39 27 73 28 52 29 72 30 53 31 56 32 71 33 91 34
REMARK SMILES IDX 54 35 55 36 70 38 92 39 57 40 40 41 41 42 50 43 42 44 43 45
REMARK SMILES IDX 49 46 51 47 44 48 45 49 46 50 47 51 48 52 74 53 75 54 84 55
REMARK SMILES IDX 76 56 77 57 83 58 85 59 78 60 79 61 80 62 81 63 82 64 58 65
REMARK SMILES IDX 59 66 68 67 60 68 61 69 67 70 69 71 62 72 63 73 64 74 65 75
REMARK SMILES IDX 66 76 8 77 9 78 10 80 11 81 12 82 29 83 13 84 28 85 30 86
REMARK SMILES IDX 27 87 14 88 15 89 16 90 17 91 18 93 19 94 20 95 21 97 22 98
REMARK SMILES IDX 26 99 23 100 25 101 24 102
REMARK H PARENT 3 8 90 26 56 37 8 79 17 92 20 96
REMARK Flexibility Score: inf
ROOT
ATOM      1  C   UNL     1       4.853   2.425  -3.658  1.00  0.00     0.116 C 
ENDROOT
BRANCH   1   2
ATOM      2  C   UNL     1       4.471   0.969  -3.890  1.00  0.00     0.023 C 
BRANCH   2   3
ATOM      3  C   UNL     1       4.957  -0.009  -2.829  1.00  0.00     0.023 C 
BRANCH   3   4
ATOM      4  C   UNL     1       4.639   0.379  -1.392  1.00  0.00     0.116 C 
BRANCH   4   5
ATOM      5  N   UNL     1       3.211   0.458  -1.117  1.00  0.00    -0.352 N 
ATOM      6  O   UNL     1       1.264  -0.066  -0.099  1.00  0.00    -0.269 OA
ATOM      7  C   UNL     1       2.488  -0.153  -0.116  1.00  0.00     0.251 C 
ATOM      8  H   UNL     1       2.691   1.027  -1.729  1.00  0.00     0.163 HD
BRANCH   7   9
ATOM      9  C   UNL     1       3.197  -0.944   0.914  1.00  0.00     0.039 A 
ATOM     10  C   UNL     1       4.350  -0.441   1.516  1.00  0.00     0.014 A 
ATOM     11  C   UNL     1       2.728  -2.218   1.250  1.00  0.00     0.014 A 
ATOM     12  C   UNL     1       5.128  -1.273   2.308  1.00  0.00     0.010 A 
ATOM     13  C   UNL     1       3.463  -3.019   2.132  1.00  0.00     0.010 A 
ATOM     14  C   UNL     1       4.691  -2.569   2.638  1.00  0.00    -0.014 A 
BRANCH  14  15
ATOM     15  C   UNL     1       5.528  -3.386   3.556  1.00  0.00     0.031 A 
ATOM     16  C   UNL     1       6.190  -4.658   3.099  1.00  0.00     0.074 A 
ATOM     17  C   UNL     1       5.760  -2.906   4.795  1.00  0.00     0.049 A 
ATOM     18  N   UNL     1       7.027  -5.423   3.753  1.00  0.00    -0.248 NA
ATOM     19  C   UNL     1       5.876  -5.140   1.745  1.00  0.00     0.031 C 
ATOM     20  C   UNL     1       5.160  -1.688   5.349  1.00  0.00     0.029 A 
ATOM     21  N   UNL     1       6.595  -3.344   5.790  1.00  0.00    -0.354 N 
ATOM     22  C   UNL     1       7.328  -6.481   2.902  1.00  0.00     0.074 A 
ATOM     23  C   UNL     1       6.568  -6.272   1.689  1.00  0.00     0.031 C 
ATOM     24  C   UNL     1       5.714  -1.427   6.541  1.00  0.00     0.029 A 
ATOM     25  C   UNL     1       6.656  -2.491   6.868  1.00  0.00     0.049 A 
ATOM     26  H   UNL     1       7.101  -4.187   5.739  1.00  0.00     0.167 HD
ATOM     27  C   UNL     1       8.168  -7.523   3.115  1.00  0.00     0.037 A 
ATOM     28  C   UNL     1       7.390  -2.552   7.994  1.00  0.00     0.037 A 
ATOM     29  C   UNL     1       8.944  -7.708   4.315  1.00  0.00     0.049 A 
ATOM     30  C   UNL     1       8.315  -3.714   8.197  1.00  0.00     0.074 A 
ATOM     31  C   UNL     1       9.835  -8.726   4.615  1.00  0.00     0.029 A 
ATOM     32  N   UNL     1       8.933  -6.855   5.409  1.00  0.00    -0.354 N 
ATOM     33  N   UNL     1       8.576  -4.707   7.381  1.00  0.00    -0.248 NA
ATOM     34  C   UNL     1       9.033  -3.775   9.476  1.00  0.00     0.031 C 
ATOM     35  C   UNL     1      10.339  -8.504   5.901  1.00  0.00     0.029 A 
ATOM     36  C   UNL     1       9.790  -7.330   6.388  1.00  0.00     0.049 A 
ATOM     37  H   UNL     1       8.396  -6.033   5.479  1.00  0.00     0.167 HD
ATOM     38  C   UNL     1       9.482  -5.517   8.053  1.00  0.00     0.074 A 
ATOM     39  C   UNL     1       9.751  -4.880   9.326  1.00  0.00     0.031 C 
ATOM     40  C   UNL     1      10.032  -6.690   7.656  1.00  0.00     0.037 A 
BRANCH  27  41
ATOM     41  C   UNL     1       8.309  -8.557   2.032  1.00  0.00     0.058 A 
ATOM     42  C   UNL     1       7.761  -9.839   2.196  1.00  0.00     0.135 A 
ATOM     43  C   UNL     1       9.080  -8.316   0.884  1.00  0.00     0.135 A 
ATOM     44  F   UNL     1       7.010 -10.120   3.272  1.00  0.00    -0.206 F 
ATOM     45  C   UNL     1       7.994 -10.855   1.274  1.00  0.00     0.059 A 
ATOM     46  C   UNL     1       9.312  -9.312  -0.061  1.00  0.00     0.059 A 
ATOM     47  F   UNL     1       9.609  -7.101   0.670  1.00  0.00    -0.206 F 
ATOM     48  C   UNL     1       8.781 -10.584   0.153  1.00  0.00     0.060 A 
BRANCH  48  49
ATOM     49  S   UNL     1       9.082 -11.915  -1.031  1.00  0.00     0.124 S 
ATOM     50  O   UNL     1       9.983 -12.784  -0.283  1.00  0.00    -0.237 OA
ATOM     51  O   UNL     1       7.737 -12.435  -1.257  1.00  0.00    -0.237 OA
ATOM     52  O   UNL     1       9.675 -11.223  -2.172  1.00  0.00    -0.744 OA
ENDBRANCH  48  49
ENDBRANCH  27  41
BRANCH  28  53
ATOM     53  C   UNL     1       7.273  -1.474   9.009  1.00  0.00     0.058 A 
ATOM     54  C   UNL     1       6.100  -1.311   9.761  1.00  0.00     0.135 A 
ATOM     55  C   UNL     1       8.319  -0.565   9.220  1.00  0.00     0.135 A 
ATOM     56  F   UNL     1       5.066  -2.149   9.587  1.00  0.00    -0.206 F 
ATOM     57  C   UNL     1       5.956  -0.269  10.668  1.00  0.00     0.059 A 
ATOM     58  C   UNL     1       8.210   0.472  10.142  1.00  0.00     0.059 A 
ATOM     59  F   UNL     1       9.464  -0.689   8.531  1.00  0.00    -0.206 F 
ATOM     60  C   UNL     1       7.016   0.621  10.848  1.00  0.00     0.060 A 
BRANCH  60  61
ATOM     61  S   UNL     1       6.816   1.968  12.033  1.00  0.00     0.124 S 
ATOM     62  O   UNL     1       5.969   2.890  11.284  1.00  0.00    -0.237 OA
ATOM     63  O   UNL     1       6.181   1.296  13.162  1.00  0.00    -0.237 OA
ATOM     64  O   UNL     1       8.186   2.416  12.265  1.00  0.00    -0.744 OA
ENDBRANCH  60  61
ENDBRANCH  28  53
BRANCH  40  65
ATOM     65  C   UNL     1      10.968  -7.362   8.617  1.00  0.00     0.058 A 
ATOM     66  C   UNL     1      12.352  -7.358   8.392  1.00  0.00     0.135 A 
ATOM     67  C   UNL     1      10.485  -8.037   9.749  1.00  0.00     0.135 A 
ATOM     68  F   UNL     1      12.863  -6.728   7.322  1.00  0.00    -0.206 F 
ATOM     69  C   UNL     1      13.228  -8.003   9.258  1.00  0.00     0.059 A 
ATOM     70  C   UNL     1      11.345  -8.671  10.639  1.00  0.00     0.059 A 
ATOM     71  F   UNL     1       9.168  -8.056  10.013  1.00  0.00    -0.206 F 
ATOM     72  C   UNL     1      12.715  -8.658  10.379  1.00  0.00     0.060 A 
BRANCH  72  73
ATOM     73  S   UNL     1      13.866  -9.451  11.521  1.00  0.00     0.124 S 
ATOM     74  O   UNL     1      14.220 -10.664  10.793  1.00  0.00    -0.237 OA
ATOM     75  O   UNL     1      14.923  -8.452  11.643  1.00  0.00    -0.237 OA
ATOM     76  O   UNL     1      13.063  -9.650  12.724  1.00  0.00    -0.744 OA
ENDBRANCH  72  73
ENDBRANCH  40  65
ENDBRANCH  14  15
ENDBRANCH   7   9
ENDBRANCH   4   5
ENDBRANCH   3   4
ENDBRANCH   2   3
ENDBRANCH   1   2
BRANCH   1  77
ATOM     77  N   UNL     1       6.290   2.652  -3.617  1.00  0.00    -0.352 N 
ATOM     78  C   UNL     1       7.023   3.603  -4.286  1.00  0.00     0.254 C 
ATOM     79  H   UNL     1       6.803   2.047  -3.034  1.00  0.00     0.163 HD
ATOM     80  O   UNL     1       8.242   3.664  -4.178  1.00  0.00    -0.269 OA
BRANCH  78  81
ATOM     81  C   UNL     1       6.335   4.507  -5.218  1.00  0.00     0.076 A 
ATOM     82  C   UNL     1       6.716   4.497  -6.561  1.00  0.00     0.038 A 
ATOM     83  C   UNL     1       5.281   5.312  -4.790  1.00  0.00     0.136 A 
ATOM     84  C   UNL     1       5.949   5.214  -7.484  1.00  0.00     0.083 A 
ATOM     85  C   UNL     1       4.501   5.999  -5.714  1.00  0.00     0.041 A 
ATOM     86  F   UNL     1       4.952   5.388  -3.493  1.00  0.00    -0.206 F 
ATOM     87  C   UNL     1       4.811   5.918  -7.071  1.00  0.00     0.025 A 
BRANCH  84  88
ATOM     88  S   UNL     1       6.521   5.291  -9.163  1.00  0.00     0.240 S 
ATOM     89  O   UNL     1       7.953   5.462  -9.125  1.00  0.00    -0.207 OA
ATOM     90  O   UNL     1       5.894   4.199  -9.872  1.00  0.00    -0.207 OA
BRANCH  88  91
ATOM     91  N   UNL     1       5.851   6.690  -9.783  1.00  0.00    -0.209 NA
ATOM     92  H   UNL     1       4.840   6.561  -9.733  1.00  0.00     0.141 HD
BRANCH  91  93
ATOM     93  C   UNL     1       6.111   8.024  -9.235  1.00  0.00     0.120 C 
BRANCH  93  94
ATOM     94  C   UNL     1       7.542   8.535  -9.418  1.00  0.00     0.131 C 
BRANCH  94  95
ATOM     95  N   UNL     1       7.813   8.807 -10.816  1.00  0.00    -0.369 N 
ATOM     96  H   UNL     1       7.696   8.089 -11.479  1.00  0.00     0.162 HD
BRANCH  95  97
ATOM     97  C   UNL     1       8.231  10.046 -11.233  1.00  0.00     0.125 A 
ATOM     98  C   UNL     1       9.085  10.848 -10.482  1.00  0.00     0.047 A 
ATOM     99  N   UNL     1       7.738  10.452 -12.418  1.00  0.00    -0.240 NA
ATOM    100  C   UNL     1       9.417  12.120 -10.940  1.00  0.00     0.005 A 
ATOM    101  C   UNL     1       8.074  11.690 -12.847  1.00  0.00     0.113 A 
ATOM    102  C   UNL     1       8.895  12.556 -12.147  1.00  0.00     0.020 A 
ENDBRANCH  95  97
ENDBRANCH  94  95
ENDBRANCH  93  94
ENDBRANCH  91  93
ENDBRANCH  88  91
ENDBRANCH  84  88
ENDBRANCH  78  81
ENDBRANCH   1  77
TORSDOF 20
