REMARK SMILES O=C(NCCCCNC(=O)c1ccccc1O[C@H]1CCOC2(CCSCC2)C1)c1ccc(-c2c3nc(c(-c4c(F)cc(S(=O)(=O)[O-])cc4F)c4ccc([nH]4)c(-c4c(F)cc(S(=O)(=O)[O-])cc4F)c4nc(c(-c5c(F)cc(S(=O)(=O)[O-])cc5F)c5ccc2[nH]5)C=C4)C=C3)cc1
REMARK SMILES IDX 5 1 4 2 3 3 1 4 2 5 29 7 30 8 94 9 31 10 93 11 32 12 33 13
REMARK SMILES IDX 34 14 87 15 35 16 92 17 86 18 88 19 36 20 91 21 85 22 84 23
REMARK SMILES IDX 37 25 71 26 50 27 70 28 51 29 54 30 69 31 89 32 52 33 53 34
REMARK SMILES IDX 68 36 90 37 55 38 38 39 39 40 48 41 40 42 41 43 47 44 49 45
REMARK SMILES IDX 42 46 43 47 44 48 45 49 46 50 72 51 73 52 82 53 74 54 75 55
REMARK SMILES IDX 81 56 83 57 76 58 77 59 78 60 79 61 80 62 56 63 57 64 66 65
REMARK SMILES IDX 58 66 59 67 65 68 67 69 60 70 61 71 62 72 63 73 64 74 6 75
REMARK SMILES IDX 7 76 8 77 9 78 10 80 11 81 12 82 16 83 13 84 15 85 14 86
REMARK SMILES IDX 17 87 18 88 19 89 28 90 20 91 22 92 21 93 23 94 27 95 24 96
REMARK SMILES IDX 26 97 25 98
REMARK H PARENT 3 6 88 24 54 35 8 79
REMARK Flexibility Score: inf
ROOT
ATOM      1  C   UNL     1       6.595   1.366  -1.952  1.00  0.00     0.023 C 
ENDROOT
BRANCH   1   2
ATOM      2  C   UNL     1       6.604   0.693  -0.582  1.00  0.00     0.116 C 
BRANCH   2   3
ATOM      3  N   UNL     1       7.868   0.037  -0.277  1.00  0.00    -0.352 N 
ATOM      4  O   UNL     1       9.895  -0.241   0.667  1.00  0.00    -0.269 OA
ATOM      5  C   UNL     1       8.817   0.349   0.669  1.00  0.00     0.251 C 
ATOM      6  H   UNL     1       8.075  -0.749  -0.832  1.00  0.00     0.163 HD
BRANCH   5   7
ATOM      7  C   UNL     1       8.556   1.408   1.668  1.00  0.00     0.039 A 
ATOM      8  C   UNL     1       7.338   1.466   2.348  1.00  0.00     0.014 A 
ATOM      9  C   UNL     1       9.548   2.357   1.935  1.00  0.00     0.014 A 
ATOM     10  C   UNL     1       7.049   2.558   3.160  1.00  0.00     0.010 A 
ATOM     11  C   UNL     1       9.288   3.408   2.822  1.00  0.00     0.010 A 
ATOM     12  C   UNL     1       8.021   3.541   3.410  1.00  0.00    -0.014 A 
BRANCH  12  13
ATOM     13  C   UNL     1       7.698   4.671   4.321  1.00  0.00     0.031 A 
ATOM     14  C   UNL     1       7.647   6.088   3.818  1.00  0.00     0.074 A 
ATOM     15  C   UNL     1       7.413   4.404   5.611  1.00  0.00     0.049 A 
ATOM     16  N   UNL     1       7.348   7.183   4.470  1.00  0.00    -0.248 NA
ATOM     17  C   UNL     1       7.980   6.308   2.402  1.00  0.00     0.031 C 
ATOM     18  C   UNL     1       7.440   3.071   6.218  1.00  0.00     0.029 A 
ATOM     19  N   UNL     1       7.025   5.228   6.635  1.00  0.00    -0.354 N 
ATOM     20  C   UNL     1       7.476   8.223   3.556  1.00  0.00     0.074 A 
ATOM     21  C   UNL     1       7.904   7.629   2.307  1.00  0.00     0.031 C 
ATOM     22  C   UNL     1       7.034   3.160   7.493  1.00  0.00     0.029 A 
ATOM     23  C   UNL     1       6.775   4.561   7.811  1.00  0.00     0.049 A 
ATOM     24  H   UNL     1       6.934   6.203   6.538  1.00  0.00     0.167 HD
ATOM     25  C   UNL     1       7.251   9.547   3.740  1.00  0.00     0.037 A 
ATOM     26  C   UNL     1       6.390   5.021   9.016  1.00  0.00     0.037 A 
ATOM     27  C   UNL     1       6.809  10.130   4.982  1.00  0.00     0.049 A 
ATOM     28  C   UNL     1       6.159   6.492   9.198  1.00  0.00     0.074 A 
ATOM     29  C   UNL     1       6.516  11.455   5.257  1.00  0.00     0.029 A 
ATOM     30  N   UNL     1       6.600   9.425   6.159  1.00  0.00    -0.354 N 
ATOM     31  N   UNL     1       6.260   7.455   8.314  1.00  0.00    -0.248 NA
ATOM     32  C   UNL     1       5.769   6.940  10.541  1.00  0.00     0.031 C 
ATOM     33  C   UNL     1       6.169  11.557   6.610  1.00  0.00     0.029 A 
ATOM     34  C   UNL     1       6.204  10.289   7.168  1.00  0.00     0.049 A 
ATOM     35  H   UNL     1       6.715   8.452   6.263  1.00  0.00     0.167 HD
ATOM     36  C   UNL     1       5.934   8.625   8.990  1.00  0.00     0.074 A 
ATOM     37  C   UNL     1       5.618   8.244  10.353  1.00  0.00     0.031 C 
ATOM     38  C   UNL     1       5.900   9.897   8.523  1.00  0.00     0.037 A 
BRANCH  25  39
ATOM     39  C   UNL     1       7.503  10.463   2.572  1.00  0.00     0.058 A 
ATOM     40  C   UNL     1       6.651  10.494   1.456  1.00  0.00     0.135 A 
ATOM     41  C   UNL     1       8.605  11.335   2.577  1.00  0.00     0.135 A 
ATOM     42  F   UNL     1       5.590   9.675   1.393  1.00  0.00    -0.206 F 
ATOM     43  C   UNL     1       6.903  11.329   0.371  1.00  0.00     0.059 A 
ATOM     44  C   UNL     1       8.863  12.195   1.513  1.00  0.00     0.059 A 
ATOM     45  F   UNL     1       9.449  11.351   3.620  1.00  0.00    -0.206 F 
ATOM     46  C   UNL     1       8.017  12.170   0.405  1.00  0.00     0.060 A 
BRANCH  46  47
ATOM     47  S   UNL     1       8.350  13.226  -1.021  1.00  0.00     0.124 S 
ATOM     48  O   UNL     1       8.888  12.262  -1.976  1.00  0.00    -0.237 OA
ATOM     49  O   UNL     1       7.027  13.757  -1.336  1.00  0.00    -0.237 OA
ATOM     50  O   UNL     1       9.306  14.201  -0.507  1.00  0.00    -0.744 OA
ENDBRANCH  46  47
ENDBRANCH  25  39
BRANCH  26  51
ATOM     51  C   UNL     1       6.192   4.061  10.132  1.00  0.00     0.058 A 
ATOM     52  C   UNL     1       4.905   3.739  10.585  1.00  0.00     0.135 A 
ATOM     53  C   UNL     1       7.281   3.401  10.722  1.00  0.00     0.135 A 
ATOM     54  F   UNL     1       3.834   4.348  10.053  1.00  0.00    -0.206 F 
ATOM     55  C   UNL     1       4.702   2.792  11.583  1.00  0.00     0.059 A 
ATOM     56  C   UNL     1       7.102   2.433  11.704  1.00  0.00     0.059 A 
ATOM     57  F   UNL     1       8.530   3.664  10.309  1.00  0.00    -0.206 F 
ATOM     58  C   UNL     1       5.808   2.138  12.131  1.00  0.00     0.060 A 
BRANCH  58  59
ATOM     59  S   UNL     1       5.530   0.850  13.365  1.00  0.00     0.124 S 
ATOM     60  O   UNL     1       5.209   1.641  14.547  1.00  0.00    -0.237 OA
ATOM     61  O   UNL     1       4.425   0.096  12.781  1.00  0.00    -0.237 OA
ATOM     62  O   UNL     1       6.808   0.143  13.404  1.00  0.00    -0.744 OA
ENDBRANCH  58  59
ENDBRANCH  26  51
BRANCH  38  63
ATOM     63  C   UNL     1       5.491  10.970   9.492  1.00  0.00     0.058 A 
ATOM     64  C   UNL     1       6.358  11.417  10.501  1.00  0.00     0.135 A 
ATOM     65  C   UNL     1       4.231  11.581   9.388  1.00  0.00     0.135 A 
ATOM     66  F   UNL     1       7.569  10.859  10.648  1.00  0.00    -0.206 F 
ATOM     67  C   UNL     1       5.980  12.418  11.390  1.00  0.00     0.059 A 
ATOM     68  C   UNL     1       3.842  12.599  10.252  1.00  0.00     0.059 A 
ATOM     69  F   UNL     1       3.369  11.194   8.435  1.00  0.00    -0.206 F 
ATOM     70  C   UNL     1       4.719  13.003  11.258  1.00  0.00     0.060 A 
BRANCH  70  71
ATOM     71  S   UNL     1       4.249  14.320  12.400  1.00  0.00     0.124 S 
ATOM     72  O   UNL     1       3.936  13.563  13.608  1.00  0.00    -0.237 OA
ATOM     73  O   UNL     1       5.459  15.134  12.457  1.00  0.00    -0.237 OA
ATOM     74  O   UNL     1       3.109  14.949  11.740  1.00  0.00    -0.744 OA
ENDBRANCH  70  71
ENDBRANCH  38  63
ENDBRANCH  12  13
ENDBRANCH   5   7
ENDBRANCH   2   3
ENDBRANCH   1   2
BRANCH   1  75
ATOM     75  C   UNL     1       6.749   0.431  -3.152  1.00  0.00     0.023 C 
BRANCH  75  76
ATOM     76  C   UNL     1       5.803  -0.763  -3.176  1.00  0.00     0.116 C 
BRANCH  76  77
ATOM     77  N   UNL     1       4.402  -0.393  -3.178  1.00  0.00    -0.352 N 
ATOM     78  C   UNL     1       3.346  -1.055  -3.756  1.00  0.00     0.255 C 
ATOM     79  H   UNL     1       4.178   0.440  -2.704  1.00  0.00     0.163 HD
ATOM     80  O   UNL     1       2.211  -0.591  -3.674  1.00  0.00    -0.269 OA
BRANCH  78  81
ATOM     81  C   UNL     1       3.562  -2.288  -4.547  1.00  0.00     0.081 A 
ATOM     82  C   UNL     1       3.100  -2.266  -5.871  1.00  0.00     0.018 A 
ATOM     83  C   UNL     1       4.133  -3.453  -4.005  1.00  0.00     0.132 A 
ATOM     84  C   UNL     1       3.236  -3.393  -6.674  1.00  0.00     0.001 A 
ATOM     85  C   UNL     1       4.233  -4.588  -4.813  1.00  0.00     0.047 A 
ATOM     86  C   UNL     1       3.802  -4.551  -6.145  1.00  0.00     0.004 A 
BRANCH  83  87
ATOM     87  O   UNL     1       4.538  -3.382  -2.707  1.00  0.00    -0.489 OA
BRANCH  87  88
ATOM     88  C   UNL     1       5.276  -4.427  -2.070  1.00  0.00     0.178 C 
ATOM     89  C   UNL     1       6.694  -4.580  -2.622  1.00  0.00     0.074 C 
ATOM     90  C   UNL     1       5.387  -3.992  -0.603  1.00  0.00     0.080 C 
ATOM     91  C   UNL     1       7.474  -5.560  -1.765  1.00  0.00     0.165 C 
ATOM     92  C   UNL     1       6.278  -4.913   0.249  1.00  0.00     0.073 C 
ATOM     93  O   UNL     1       7.536  -5.129  -0.411  1.00  0.00    -0.375 OA
ATOM     94  C   UNL     1       5.556  -6.245   0.539  1.00  0.00     0.046 C 
ATOM     95  C   UNL     1       6.608  -4.170   1.566  1.00  0.00     0.046 C 
ATOM     96  C   UNL     1       6.347  -7.200   1.424  1.00  0.00     0.072 C 
ATOM     97  C   UNL     1       7.473  -4.966   2.537  1.00  0.00     0.072 C 
ATOM     98  S   UNL     1       6.648  -6.493   3.062  1.00  0.00    -0.162 SA
ENDBRANCH  87  88
ENDBRANCH  83  87
ENDBRANCH  78  81
ENDBRANCH  76  77
ENDBRANCH  75  76
ENDBRANCH   1  75
TORSDOF 16
