REMARK SMILES Cc1c(-c2ccc(O)cc2)nc(N)c(C#N)c1-c1ccccc1OCC(=O)NCCCCNC(=O)c1ccc(-c2c3nc(c(-c4c(F)cc(S(=O)(=O)[O-])cc4F)c4ccc([nH]4)c(-c4c(F)cc(S(=O)(=O)[O-])cc4F)c4nc(c(-c5c(F)cc(S(=O)(=O)[O-])cc5F)c5ccc2[nH]5)C=C4)C=C3)cc1
REMARK SMILES IDX 29 1 28 2 26 3 27 4 25 6 24 7 23 8 18 9 19 10 20 11 22 12
REMARK SMILES IDX 21 13 17 14 1 15 2 16 3 17 11 18 14 19 12 20 4 21 5 22 10 23
REMARK SMILES IDX 6 24 9 25 7 26 8 27 15 29 16 30 13 31 30 34 31 35 32 36
REMARK SMILES IDX 33 37 34 38 35 40 36 41 37 42 101 43 38 44 100 45 39 46
REMARK SMILES IDX 40 47 41 48 94 49 42 50 99 51 93 52 95 53 43 54 98 55 92 56
REMARK SMILES IDX 91 57 44 59 78 60 57 61 77 62 58 63 61 64 76 65 96 66 59 67
REMARK SMILES IDX 60 68 75 70 97 71 62 72 45 73 46 74 55 75 47 76 48 77 54 78
REMARK SMILES IDX 56 79 49 80 50 81 51 82 52 83 53 84 79 85 80 86 89 87 81 88
REMARK SMILES IDX 82 89 88 90 90 91 83 92 84 93 85 94 86 95 87 96 63 97 64 98
REMARK SMILES IDX 73 99 65 100 66 101 72 102 74 103 67 104 68 105 69 106
REMARK SMILES IDX 70 107 71 108
REMARK H PARENT 28 5 8 28 13 32 13 33 33 39 95 58 61 69
REMARK Flexibility Score: inf
ROOT
ATOM      1  C   UNL     1      -0.131   0.130  -3.124  1.00  0.00     0.116 C 
ENDROOT
BRANCH   1   2
ATOM      2  N   UNL     1      -0.311  -0.541  -1.855  1.00  0.00    -0.353 N 
ATOM      3  C   UNL     1      -1.014  -0.118  -0.766  1.00  0.00     0.257 C 
ATOM      4  O   UNL     1      -1.458  -0.982  -0.007  1.00  0.00    -0.271 OA
ATOM      5  H   UNL     1       0.131  -1.417  -1.767  1.00  0.00     0.163 HD
BRANCH   3   6
ATOM      6  C   UNL     1      -1.306   1.362  -0.503  1.00  0.00     0.329 C 
BRANCH   6   7
ATOM      7  O   UNL     1      -0.445   2.307  -1.083  1.00  0.00    -0.483 OA
BRANCH   7   8
ATOM      8  C   UNL     1       0.565   2.962  -0.444  1.00  0.00     0.127 A 
ATOM      9  C   UNL     1       1.194   2.745   0.802  1.00  0.00     0.026 A 
ATOM     10  C   UNL     1       2.296   3.577   1.128  1.00  0.00     0.012 A 
ATOM     11  C   UNL     1       2.736   4.602   0.288  1.00  0.00     0.001 A 
ATOM     12  C   UNL     1       1.028   4.002  -1.276  1.00  0.00     0.047 A 
ATOM     13  C   UNL     1       2.093   4.821  -0.917  1.00  0.00     0.004 A 
BRANCH   9  14
ATOM     14  C   UNL     1       0.804   1.742   1.827  1.00  0.00     0.012 A 
ATOM     15  C   UNL     1       1.975  -0.121   0.558  1.00  0.00     0.047 C 
ATOM     16  C   UNL     1       1.078   0.359   1.670  1.00  0.00    -0.015 A 
ATOM     17  C   UNL     1       0.536  -0.534   2.618  1.00  0.00     0.076 A 
ATOM     18  N   UNL     1      -0.083  -0.096   3.746  1.00  0.00    -0.230 NA
ATOM     19  C   UNL     1       0.163   2.166   3.018  1.00  0.00     0.102 A 
ATOM     20  C   UNL     1      -0.218   1.218   3.962  1.00  0.00     0.142 A 
BRANCH  17  21
ATOM     21  C   UNL     1       0.381  -1.994   2.411  1.00  0.00     0.001 A 
ATOM     22  C   UNL     1      -0.914  -2.552   2.503  1.00  0.00     0.014 A 
ATOM     23  C   UNL     1       1.428  -2.858   2.057  1.00  0.00     0.014 A 
ATOM     24  C   UNL     1      -1.168  -3.884   2.174  1.00  0.00     0.047 A 
ATOM     25  C   UNL     1       1.178  -4.197   1.717  1.00  0.00     0.047 A 
ATOM     26  C   UNL     1      -0.122  -4.691   1.761  1.00  0.00     0.115 A 
BRANCH  26  27
ATOM     27  O   UNL     1      -0.417  -5.969   1.394  1.00  0.00    -0.508 OA
ATOM     28  H   UNL     1      -1.302  -6.276   1.434  1.00  0.00     0.293 HD
ENDBRANCH  26  27
ENDBRANCH  17  21
BRANCH  19  29
ATOM     29  C   UNL     1      -0.074   3.554   3.296  1.00  0.00     0.104 C 
ATOM     30  N   UNL     1      -0.237   4.673   3.560  1.00  0.00    -0.192 NA
ENDBRANCH  19  29
BRANCH  20  31
ATOM     31  N   UNL     1      -0.838   1.535   5.157  1.00  0.00    -0.383 N 
ATOM     32  H   UNL     1      -1.085   0.821   5.788  1.00  0.00     0.158 HD
ATOM     33  H   UNL     1      -1.032   2.475   5.378  1.00  0.00     0.158 HD
ENDBRANCH  20  31
ENDBRANCH   9  14
ENDBRANCH   7   8
ENDBRANCH   6   7
ENDBRANCH   3   6
ENDBRANCH   1   2
BRANCH   1  34
ATOM     34  C   UNL     1       1.291   0.600  -3.421  1.00  0.00     0.023 C 
BRANCH  34  35
ATOM     35  C   UNL     1       2.413  -0.438  -3.343  1.00  0.00     0.023 C 
BRANCH  35  36
ATOM     36  C   UNL     1       2.158  -1.796  -3.984  1.00  0.00     0.116 C 
BRANCH  36  37
ATOM     37  N   UNL     1       1.773  -1.720  -5.382  1.00  0.00    -0.352 N 
ATOM     38  C   UNL     1       2.288  -2.362  -6.482  1.00  0.00     0.251 C 
ATOM     39  H   UNL     1       1.022  -1.112  -5.572  1.00  0.00     0.163 HD
ATOM     40  O   UNL     1       1.845  -2.090  -7.596  1.00  0.00    -0.269 OA
BRANCH  38  41
ATOM     41  C   UNL     1       3.394  -3.338  -6.347  1.00  0.00     0.039 A 
ATOM     42  C   UNL     1       4.456  -3.266  -7.254  1.00  0.00     0.014 A 
ATOM     43  C   UNL     1       3.393  -4.322  -5.354  1.00  0.00     0.014 A 
ATOM     44  C   UNL     1       5.547  -4.128  -7.120  1.00  0.00     0.010 A 
ATOM     45  C   UNL     1       4.514  -5.133  -5.178  1.00  0.00     0.010 A 
ATOM     46  C   UNL     1       5.604  -5.043  -6.057  1.00  0.00    -0.014 A 
BRANCH  46  47
ATOM     47  C   UNL     1       6.795  -5.910  -5.857  1.00  0.00     0.031 A 
ATOM     48  C   UNL     1       6.679  -7.403  -6.001  1.00  0.00     0.074 A 
ATOM     49  C   UNL     1       7.976  -5.355  -5.516  1.00  0.00     0.049 A 
ATOM     50  N   UNL     1       7.594  -8.322  -5.828  1.00  0.00    -0.248 NA
ATOM     51  C   UNL     1       5.358  -7.934  -6.371  1.00  0.00     0.031 C 
ATOM     52  C   UNL     1       8.211  -3.922  -5.324  1.00  0.00     0.029 A 
ATOM     53  N   UNL     1       9.200  -5.925  -5.273  1.00  0.00    -0.354 N 
ATOM     54  C   UNL     1       6.964  -9.536  -6.073  1.00  0.00     0.074 A 
ATOM     55  C   UNL     1       5.573  -9.242  -6.342  1.00  0.00     0.031 C 
ATOM     56  C   UNL     1       9.506  -3.724  -5.031  1.00  0.00     0.029 A 
ATOM     57  C   UNL     1      10.186  -5.014  -4.973  1.00  0.00     0.049 A 
ATOM     58  H   UNL     1       9.359  -6.896  -5.311  1.00  0.00     0.167 HD
ATOM     59  C   UNL     1       7.501 -10.779  -6.104  1.00  0.00     0.037 A 
ATOM     60  C   UNL     1      11.490  -5.196  -4.684  1.00  0.00     0.037 A 
ATOM     61  C   UNL     1       8.888 -11.066  -5.847  1.00  0.00     0.049 A 
ATOM     62  C   UNL     1      12.052  -6.592  -4.674  1.00  0.00     0.074 A 
ATOM     63  C   UNL     1       9.531 -12.291  -5.873  1.00  0.00     0.029 A 
ATOM     64  N   UNL     1       9.847 -10.119  -5.519  1.00  0.00    -0.354 N 
ATOM     65  N   UNL     1      11.447  -7.726  -4.937  1.00  0.00    -0.248 NA
ATOM     66  C   UNL     1      13.473  -6.736  -4.326  1.00  0.00     0.031 C 
ATOM     67  C   UNL     1      10.869 -12.091  -5.520  1.00  0.00     0.029 A 
ATOM     68  C   UNL     1      11.072 -10.735  -5.321  1.00  0.00     0.049 A 
ATOM     69  H   UNL     1       9.682  -9.152  -5.439  1.00  0.00     0.167 HD
ATOM     70  C   UNL     1      12.417  -8.713  -4.811  1.00  0.00     0.074 A 
ATOM     71  C   UNL     1      13.652  -8.043  -4.459  1.00  0.00     0.031 C 
ATOM     72  C   UNL     1      12.296 -10.054  -4.973  1.00  0.00     0.037 A 
BRANCH  59  73
ATOM     73  C   UNL     1       6.586 -11.924  -6.444  1.00  0.00     0.058 A 
ATOM     74  C   UNL     1       6.077 -12.091  -7.742  1.00  0.00     0.135 A 
ATOM     75  C   UNL     1       6.247 -12.886  -5.479  1.00  0.00     0.135 A 
ATOM     76  F   UNL     1       6.356 -11.192  -8.699  1.00  0.00    -0.206 F 
ATOM     77  C   UNL     1       5.244 -13.156  -8.066  1.00  0.00     0.059 A 
ATOM     78  C   UNL     1       5.438 -13.976  -5.788  1.00  0.00     0.059 A 
ATOM     79  F   UNL     1       6.705 -12.775  -4.222  1.00  0.00    -0.206 F 
ATOM     80  C   UNL     1       4.931 -14.095  -7.082  1.00  0.00     0.060 A 
BRANCH  80  81
ATOM     81  S   UNL     1       3.852 -15.473  -7.524  1.00  0.00     0.124 S 
ATOM     82  O   UNL     1       2.572 -14.794  -7.703  1.00  0.00    -0.237 OA
ATOM     83  O   UNL     1       4.477 -15.978  -8.742  1.00  0.00    -0.237 OA
ATOM     84  O   UNL     1       3.935 -16.357  -6.365  1.00  0.00    -0.744 OA
ENDBRANCH  80  81
ENDBRANCH  59  73
BRANCH  60  85
ATOM     85  C   UNL     1      12.361  -4.020  -4.416  1.00  0.00     0.058 A 
ATOM     86  C   UNL     1      13.344  -3.631  -5.338  1.00  0.00     0.135 A 
ATOM     87  C   UNL     1      12.216  -3.248  -3.253  1.00  0.00     0.135 A 
ATOM     88  F   UNL     1      13.529  -4.343  -6.461  1.00  0.00    -0.206 F 
ATOM     89  C   UNL     1      14.155  -2.523  -5.117  1.00  0.00     0.059 A 
ATOM     90  C   UNL     1      12.998  -2.121  -3.020  1.00  0.00     0.059 A 
ATOM     91  F   UNL     1      11.282  -3.570  -2.344  1.00  0.00    -0.206 F 
ATOM     92  C   UNL     1      13.969  -1.769  -3.957  1.00  0.00     0.060 A 
BRANCH  92  93
ATOM     93  S   UNL     1      14.985  -0.296  -3.713  1.00  0.00     0.124 S 
ATOM     94  O   UNL     1      16.298  -0.881  -3.468  1.00  0.00    -0.237 OA
ATOM     95  O   UNL     1      14.822   0.399  -4.986  1.00  0.00    -0.237 OA
ATOM     96  O   UNL     1      14.361   0.357  -2.566  1.00  0.00    -0.744 OA
ENDBRANCH  92  93
ENDBRANCH  60  85
BRANCH  72  97
ATOM     97  C   UNL     1      13.529 -10.895  -4.789  1.00  0.00     0.058 A 
ATOM     98  C   UNL     1      14.068 -11.139  -3.517  1.00  0.00     0.135 A 
ATOM     99  C   UNL     1      14.131 -11.527  -5.889  1.00  0.00     0.135 A 
ATOM    100  F   UNL     1      13.534 -10.554  -2.433  1.00  0.00    -0.206 F 
ATOM    101  C   UNL     1      15.168 -11.972  -3.342  1.00  0.00     0.059 A 
ATOM    102  C   UNL     1      15.216 -12.385  -5.735  1.00  0.00     0.059 A 
ATOM    103  F   UNL     1      13.649 -11.334  -7.127  1.00  0.00    -0.206 F 
ATOM    104  C   UNL     1      15.731 -12.596  -4.457  1.00  0.00     0.060 A 
BRANCH 104 105
ATOM    105  S   UNL     1      17.126 -13.714  -4.205  1.00  0.00     0.124 S 
ATOM    106  O   UNL     1      18.191 -12.781  -3.850  1.00  0.00    -0.237 OA
ATOM    107  O   UNL     1      16.646 -14.569  -3.124  1.00  0.00    -0.237 OA
ATOM    108  O   UNL     1      17.274 -14.373  -5.499  1.00  0.00    -0.744 OA
ENDBRANCH 104 105
ENDBRANCH  72  97
ENDBRANCH  46  47
ENDBRANCH  38  41
ENDBRANCH  36  37
ENDBRANCH  35  36
ENDBRANCH  34  35
ENDBRANCH   1  34
TORSDOF 21
