REMARK SMILES COc1ccccc1C(=O)N1[C@@H](C(=O)NCCCCNC(=O)c2ccc(-c3c4nc(c(-c5c(F)cc(S(=O)(=O)[O-])cc5F)c5ccc([nH]5)c(-c5c(F)cc(S(=O)(=O)[O-])cc5F)c5nc(c(-c6c(F)cc(S(=O)(=O)[O-])cc6F)c6ccc3[nH]6)C=C5)C=C4)cc2)COC12CC[NH+](Cc1ccccc1)CC2
REMARK SMILES IDX 17 1 16 2 15 3 13 4 14 5 12 7 11 8 91 9 89 10 90 11 92 12
REMARK SMILES IDX 103 13 93 14 102 15 94 16 9 18 10 19 8 20 3 21 4 22 5 23
REMARK SMILES IDX 7 24 6 25 2 26 1 27 95 28 96 29 97 30 101 31 98 32 100 33
REMARK SMILES IDX 99 34 18 35 19 36 20 37 21 38 22 40 23 41 24 42 88 43 25 44
REMARK SMILES IDX 87 45 26 46 27 47 28 48 81 49 29 50 86 51 80 52 82 53 30 54
REMARK SMILES IDX 85 55 79 56 78 57 31 59 65 60 44 61 64 62 45 63 48 64 63 65
REMARK SMILES IDX 83 66 46 67 47 68 62 70 84 71 49 72 32 73 33 74 42 75 34 76
REMARK SMILES IDX 35 77 41 78 43 79 36 80 37 81 38 82 39 83 40 84 66 85 67 86
REMARK SMILES IDX 76 87 68 88 69 89 75 90 77 91 70 92 71 93 72 94 73 95 74 96
REMARK SMILES IDX 50 97 51 98 60 99 52 100 53 101 59 102 61 103 54 104 55 105
REMARK SMILES IDX 56 106 57 107 58 108
REMARK H PARENT 15 6 94 17 20 39 82 58 48 69
REMARK Flexibility Score: inf
ROOT
ATOM      1  C   UNL     1      -2.723   0.210   1.866  1.00  0.00     0.023 C 
ENDROOT
BRANCH   1   2
ATOM      2  C   UNL     1      -1.310   0.075   1.322  1.00  0.00     0.116 C 
BRANCH   2   3
ATOM      3  N   UNL     1      -1.131   0.590  -0.018  1.00  0.00    -0.354 N 
ATOM      4  C   UNL     1       0.029   0.960  -0.645  1.00  0.00     0.245 C 
ATOM      5  O   UNL     1      -0.071   1.408  -1.793  1.00  0.00    -0.273 OA
ATOM      6  H   UNL     1      -1.953   0.686  -0.551  1.00  0.00     0.163 HD
BRANCH   4   7
ATOM      7  C   UNL     1       1.404   0.948   0.062  1.00  0.00     0.203 C 
ATOM      8  N   UNL     1       1.819  -0.338   0.595  1.00  0.00    -0.295 N 
ATOM      9  C   UNL     1       2.146  -0.206   2.019  1.00  0.00     0.155 C 
ATOM     10  C   UNL     1       1.395   1.862   1.271  1.00  0.00     0.198 C 
ATOM     11  O   UNL     1       1.409   0.975   2.420  1.00  0.00    -0.352 OA
ATOM     12  C   UNL     1       1.745  -1.431   2.860  1.00  0.00     0.120 C 
ATOM     13  C   UNL     1       3.615   0.157   2.285  1.00  0.00     0.120 C 
ATOM     14  C   UNL     1       2.180  -1.369   4.320  1.00  0.00     0.267 C 
ATOM     15  C   UNL     1       3.867   0.262   3.798  1.00  0.00     0.267 C 
ATOM     16  N   UNL     1       3.572  -0.972   4.509  1.00  0.00    -0.331 N 
ATOM     17  H   UNL     1       3.667  -0.735   5.497  1.00  0.00     0.348 HD
BRANCH   8  18
ATOM     18  C   UNL     1       2.348  -1.300  -0.260  1.00  0.00     0.260 C 
ATOM     19  O   UNL     1       3.062  -1.040  -1.222  1.00  0.00    -0.269 OA
BRANCH  18  20
ATOM     20  C   UNL     1       1.901  -2.700  -0.051  1.00  0.00     0.082 A 
ATOM     21  C   UNL     1       0.553  -3.051  -0.122  1.00  0.00     0.131 A 
ATOM     22  C   UNL     1       0.118  -4.275   0.387  1.00  0.00     0.047 A 
ATOM     23  C   UNL     1       1.047  -5.209   0.839  1.00  0.00     0.004 A 
ATOM     24  C   UNL     1       2.833  -3.686   0.257  1.00  0.00     0.018 A 
ATOM     25  C   UNL     1       2.408  -4.938   0.717  1.00  0.00     0.001 A 
BRANCH  21  26
ATOM     26  O   UNL     1      -0.393  -2.273  -0.734  1.00  0.00    -0.496 OA
ATOM     27  C   UNL     1      -0.097  -2.140  -2.132  1.00  0.00     0.278 C 
ENDBRANCH  21  26
ENDBRANCH  18  20
ENDBRANCH   8  18
BRANCH  16  28
ATOM     28  C   UNL     1       4.595  -2.033   4.543  1.00  0.00     0.299 C 
BRANCH  28  29
ATOM     29  C   UNL     1       5.464  -2.270   3.319  1.00  0.00     0.006 A 
ATOM     30  C   UNL     1       5.354  -3.448   2.573  1.00  0.00     0.009 A 
ATOM     31  C   UNL     1       6.414  -1.319   2.902  1.00  0.00     0.009 A 
ATOM     32  C   UNL     1       6.091  -3.617   1.393  1.00  0.00     0.001 A 
ATOM     33  C   UNL     1       7.081  -1.448   1.682  1.00  0.00     0.001 A 
ATOM     34  C   UNL     1       6.905  -2.593   0.916  1.00  0.00     0.000 A 
ENDBRANCH  28  29
ENDBRANCH  16  28
ENDBRANCH   4   7
ENDBRANCH   2   3
ENDBRANCH   1   2
BRANCH   1  35
ATOM     35  C   UNL     1      -3.718  -0.839   1.389  1.00  0.00     0.023 C 
BRANCH  35  36
ATOM     36  C   UNL     1      -3.292  -2.295   1.560  1.00  0.00     0.116 C 
BRANCH  36  37
ATOM     37  N   UNL     1      -2.820  -2.632   2.898  1.00  0.00    -0.352 N 
ATOM     38  C   UNL     1      -3.164  -3.707   3.690  1.00  0.00     0.251 C 
ATOM     39  H   UNL     1      -2.168  -2.007   3.288  1.00  0.00     0.163 HD
ATOM     40  O   UNL     1      -2.702  -3.839   4.809  1.00  0.00    -0.269 OA
BRANCH  38  41
ATOM     41  C   UNL     1      -4.140  -4.680   3.158  1.00  0.00     0.039 A 
ATOM     42  C   UNL     1      -5.352  -4.859   3.828  1.00  0.00     0.014 A 
ATOM     43  C   UNL     1      -3.891  -5.325   1.945  1.00  0.00     0.014 A 
ATOM     44  C   UNL     1      -6.361  -5.613   3.225  1.00  0.00     0.010 A 
ATOM     45  C   UNL     1      -4.918  -6.022   1.319  1.00  0.00     0.010 A 
ATOM     46  C   UNL     1      -6.168  -6.155   1.943  1.00  0.00    -0.014 A 
BRANCH  46  47
ATOM     47  C   UNL     1      -7.269  -6.830   1.210  1.00  0.00     0.031 A 
ATOM     48  C   UNL     1      -7.153  -8.285   0.855  1.00  0.00     0.074 A 
ATOM     49  C   UNL     1      -8.321  -6.107   0.776  1.00  0.00     0.049 A 
ATOM     50  N   UNL     1      -7.941  -9.019   0.115  1.00  0.00    -0.248 NA
ATOM     51  C   UNL     1      -5.977  -9.000   1.377  1.00  0.00     0.031 C 
ATOM     52  C   UNL     1      -8.522  -4.675   1.013  1.00  0.00     0.029 A 
ATOM     53  N   UNL     1      -9.410  -6.472   0.024  1.00  0.00    -0.354 N 
ATOM     54  C   UNL     1      -7.351 -10.276   0.065  1.00  0.00     0.074 A 
ATOM     55  C   UNL     1      -6.115 -10.192   0.813  1.00  0.00     0.031 C 
ATOM     56  C   UNL     1      -9.666  -4.287   0.427  1.00  0.00     0.029 A 
ATOM     57  C   UNL     1     -10.262  -5.429  -0.259  1.00  0.00     0.049 A 
ATOM     58  H   UNL     1      -9.566  -7.393  -0.285  1.00  0.00     0.167 HD
ATOM     59  C   UNL     1      -7.807 -11.401  -0.533  1.00  0.00     0.037 A 
ATOM     60  C   UNL     1     -11.388  -5.394  -0.998  1.00  0.00     0.037 A 
ATOM     61  C   UNL     1      -9.051 -11.483  -1.254  1.00  0.00     0.049 A 
ATOM     62  C   UNL     1     -11.880  -6.660  -1.648  1.00  0.00     0.074 A 
ATOM     63  C   UNL     1      -9.629 -12.592  -1.846  1.00  0.00     0.029 A 
ATOM     64  N   UNL     1      -9.907 -10.416  -1.480  1.00  0.00    -0.354 N 
ATOM     65  N   UNL     1     -11.341  -7.855  -1.632  1.00  0.00    -0.248 NA
ATOM     66  C   UNL     1     -13.134  -6.575  -2.410  1.00  0.00     0.031 C 
ATOM     67  C   UNL     1     -10.818 -12.188  -2.462  1.00  0.00     0.029 A 
ATOM     68  C   UNL     1     -11.003 -10.837  -2.216  1.00  0.00     0.049 A 
ATOM     69  H   UNL     1      -9.758  -9.495  -1.165  1.00  0.00     0.167 HD
ATOM     70  C   UNL     1     -12.206  -8.672  -2.353  1.00  0.00     0.074 A 
ATOM     71  C   UNL     1     -13.304  -7.835  -2.789  1.00  0.00     0.031 C 
ATOM     72  C   UNL     1     -12.099  -9.995  -2.625  1.00  0.00     0.037 A 
BRANCH  59  73
ATOM     73  C   UNL     1      -6.958 -12.637  -0.429  1.00  0.00     0.058 A 
ATOM     74  C   UNL     1      -6.814 -13.329   0.784  1.00  0.00     0.135 A 
ATOM     75  C   UNL     1      -6.305 -13.153  -1.560  1.00  0.00     0.135 A 
ATOM     76  F   UNL     1      -7.403 -12.870   1.899  1.00  0.00    -0.206 F 
ATOM     77  C   UNL     1      -6.026 -14.471   0.880  1.00  0.00     0.059 A 
ATOM     78  C   UNL     1      -5.535 -14.310  -1.493  1.00  0.00     0.059 A 
ATOM     79  F   UNL     1      -6.410 -12.531  -2.744  1.00  0.00    -0.206 F 
ATOM     80  C   UNL     1      -5.388 -14.953  -0.264  1.00  0.00     0.060 A 
BRANCH  80  81
ATOM     81  S   UNL     1      -4.367 -16.434  -0.122  1.00  0.00     0.124 S 
ATOM     82  O   UNL     1      -3.189 -15.909   0.563  1.00  0.00    -0.237 OA
ATOM     83  O   UNL     1      -5.213 -17.324   0.667  1.00  0.00    -0.237 OA
ATOM     84  O   UNL     1      -4.158 -16.837  -1.509  1.00  0.00    -0.744 OA
ENDBRANCH  80  81
ENDBRANCH  59  73
BRANCH  60  85
ATOM     85  C   UNL     1     -12.141  -4.120  -1.146  1.00  0.00     0.058 A 
ATOM     86  C   UNL     1     -13.376  -3.936  -0.506  1.00  0.00     0.135 A 
ATOM     87  C   UNL     1     -11.638  -3.058  -1.913  1.00  0.00     0.135 A 
ATOM     88  F   UNL     1     -13.901  -4.925   0.233  1.00  0.00    -0.206 F 
ATOM     89  C   UNL     1     -14.095  -2.752  -0.634  1.00  0.00     0.059 A 
ATOM     90  C   UNL     1     -12.326  -1.855  -2.037  1.00  0.00     0.059 A 
ATOM     91  F   UNL     1     -10.452  -3.177  -2.530  1.00  0.00    -0.206 F 
ATOM     92  C   UNL     1     -13.560  -1.716  -1.401  1.00  0.00     0.060 A 
BRANCH  92  93
ATOM     93  S   UNL     1     -14.477  -0.164  -1.520  1.00  0.00     0.124 S 
ATOM     94  O   UNL     1     -15.562  -0.533  -2.421  1.00  0.00    -0.237 OA
ATOM     95  O   UNL     1     -14.854   0.077  -0.130  1.00  0.00    -0.237 OA
ATOM     96  O   UNL     1     -13.492   0.766  -2.063  1.00  0.00    -0.744 OA
ENDBRANCH  92  93
ENDBRANCH  60  85
BRANCH  72  97
ATOM     97  C   UNL     1     -13.219 -10.643  -3.390  1.00  0.00     0.058 A 
ATOM     98  C   UNL     1     -13.379 -10.449  -4.770  1.00  0.00     0.135 A 
ATOM     99  C   UNL     1     -14.093 -11.533  -2.745  1.00  0.00     0.135 A 
ATOM    100  F   UNL     1     -12.575  -9.603  -5.432  1.00  0.00    -0.206 F 
ATOM    101  C   UNL     1     -14.374 -11.110  -5.484  1.00  0.00     0.059 A 
ATOM    102  C   UNL     1     -15.079 -12.222  -3.443  1.00  0.00     0.059 A 
ATOM    103  F   UNL     1     -13.976 -11.758  -1.427  1.00  0.00    -0.206 F 
ATOM    104  C   UNL     1     -15.216 -11.999  -4.812  1.00  0.00     0.060 A 
BRANCH 104 105
ATOM    105  S   UNL     1     -16.463 -12.896  -5.761  1.00  0.00     0.124 S 
ATOM    106  O   UNL     1     -17.455 -11.854  -6.002  1.00  0.00    -0.237 OA
ATOM    107  O   UNL     1     -15.709 -13.338  -6.930  1.00  0.00    -0.237 OA
ATOM    108  O   UNL     1     -16.879 -13.961  -4.852  1.00  0.00    -0.744 OA
ENDBRANCH 104 105
ENDBRANCH  72  97
ENDBRANCH  46  47
ENDBRANCH  38  41
ENDBRANCH  36  37
ENDBRANCH  35  36
ENDBRANCH   1  35
TORSDOF 19
