REMARK SMILES CC(C)n1cc(C(=O)NCCCCNC(=O)c2ccc(-c3c4nc(c(-c5c(F)cc(S(=O)(=O)[O-])cc5F)c5ccc([nH]5)c(-c5c(F)cc(S(=O)(=O)[O-])cc5F)c5nc(c(-c6c(F)cc(S(=O)(=O)[O-])cc6F)c6ccc3[nH]6)C=C5)C=C4)cc2)c2ccccc2c1=O
REMARK SMILES IDX 12 1 11 2 10 3 9 4 7 5 8 6 6 8 4 9 5 10 89 11 88 12 90 13
REMARK SMILES IDX 83 14 87 15 84 16 86 17 85 18 2 19 1 20 3 21 13 22 14 23
REMARK SMILES IDX 15 24 16 26 17 27 18 28 82 29 19 30 81 31 20 32 21 33 22 34
REMARK SMILES IDX 75 35 23 36 80 37 74 38 76 39 24 40 79 41 73 42 72 43 25 45
REMARK SMILES IDX 59 46 38 47 58 48 39 49 42 50 57 51 77 52 40 53 41 54 56 56
REMARK SMILES IDX 78 57 43 58 26 59 27 60 36 61 28 62 29 63 35 64 37 65 30 66
REMARK SMILES IDX 31 67 32 68 33 69 34 70 60 71 61 72 70 73 62 74 63 75 69 76
REMARK SMILES IDX 71 77 64 78 65 79 66 80 67 81 68 82 44 83 45 84 54 85 46 86
REMARK SMILES IDX 47 87 53 88 55 89 48 90 49 91 50 92 51 93 52 94
REMARK H PARENT 9 7 14 25 76 44 42 55
REMARK Flexibility Score: inf
ROOT
ATOM      1  C   UNL     1      -1.085   7.170  -1.581  1.00  0.00     0.023 C 
ENDROOT
BRANCH   1   2
ATOM      2  C   UNL     1      -0.783   5.788  -0.988  1.00  0.00     0.023 C 
BRANCH   2   3
ATOM      3  C   UNL     1      -1.427   5.535   0.377  1.00  0.00     0.116 C 
BRANCH   3   4
ATOM      4  N   UNL     1      -2.819   5.154   0.239  1.00  0.00    -0.352 N 
ATOM      5  C   UNL     1      -3.515   4.002   0.051  1.00  0.00     0.253 C 
ATOM      6  O   UNL     1      -4.734   4.182  -0.020  1.00  0.00    -0.269 OA
ATOM      7  H   UNL     1      -3.417   5.934   0.297  1.00  0.00     0.163 HD
BRANCH   5   8
ATOM      8  C   UNL     1      -2.929   2.601  -0.045  1.00  0.00     0.064 A 
ATOM      9  N   UNL     1      -0.956   1.162  -0.133  1.00  0.00    -0.312 N 
ATOM     10  C   UNL     1      -1.603   2.395  -0.098  1.00  0.00     0.104 A 
ATOM     11  C   UNL     1      -1.689  -0.026  -0.114  1.00  0.00     0.258 A 
ATOM     12  C   UNL     1      -3.170   0.104  -0.114  1.00  0.00     0.048 A 
ATOM     13  O   UNL     1      -1.209  -1.156  -0.103  1.00  0.00    -0.269 OA
ATOM     14  C   UNL     1      -3.780   1.370  -0.106  1.00  0.00     0.001 A 
ATOM     15  C   UNL     1      -3.932  -1.081  -0.151  1.00  0.00     0.014 A 
ATOM     16  C   UNL     1      -5.186   1.386  -0.176  1.00  0.00     0.010 A 
ATOM     17  C   UNL     1      -5.319  -1.027  -0.207  1.00  0.00     0.001 A 
ATOM     18  C   UNL     1      -5.945   0.209  -0.228  1.00  0.00     0.001 A 
BRANCH   9  19
ATOM     19  C   UNL     1       0.542   1.192  -0.138  1.00  0.00     0.084 C 
ATOM     20  C   UNL     1       1.271  -0.146   0.027  1.00  0.00     0.031 C 
ATOM     21  C   UNL     1       1.093   1.889  -1.393  1.00  0.00     0.031 C 
ENDBRANCH   9  19
ENDBRANCH   5   8
ENDBRANCH   3   4
ENDBRANCH   2   3
ENDBRANCH   1   2
BRANCH   1  22
ATOM     22  C   UNL     1      -0.644   8.353  -0.726  1.00  0.00     0.116 C 
BRANCH  22  23
ATOM     23  N   UNL     1       0.763   8.325  -0.354  1.00  0.00    -0.352 N 
ATOM     24  C   UNL     1       1.560   9.393   0.011  1.00  0.00     0.251 C 
ATOM     25  H   UNL     1       1.198   7.441  -0.363  1.00  0.00     0.163 HD
ATOM     26  O   UNL     1       2.749   9.245   0.225  1.00  0.00    -0.269 OA
BRANCH  24  27
ATOM     27  C   UNL     1       0.932  10.730   0.074  1.00  0.00     0.039 A 
ATOM     28  C   UNL     1      -0.230  10.918   0.823  1.00  0.00     0.014 A 
ATOM     29  C   UNL     1       1.444  11.758  -0.720  1.00  0.00     0.014 A 
ATOM     30  C   UNL     1      -0.979  12.071   0.637  1.00  0.00     0.010 A 
ATOM     31  C   UNL     1       0.730  12.953  -0.838  1.00  0.00     0.010 A 
ATOM     32  C   UNL     1      -0.516  13.096  -0.206  1.00  0.00    -0.014 A 
BRANCH  32  33
ATOM     33  C   UNL     1      -1.367  14.294  -0.426  1.00  0.00     0.031 A 
ATOM     34  C   UNL     1      -1.941  14.592  -1.787  1.00  0.00     0.074 A 
ATOM     35  C   UNL     1      -1.679  15.075   0.625  1.00  0.00     0.049 A 
ATOM     36  N   UNL     1      -2.714  15.582  -2.155  1.00  0.00    -0.248 NA
ATOM     37  C   UNL     1      -1.604  13.662  -2.877  1.00  0.00     0.031 C 
ATOM     38  C   UNL     1      -1.200  14.870   1.994  1.00  0.00     0.029 A 
ATOM     39  N   UNL     1      -2.493  16.174   0.718  1.00  0.00    -0.354 N 
ATOM     40  C   UNL     1      -2.940  15.408  -3.516  1.00  0.00     0.074 A 
ATOM     41  C   UNL     1      -2.200  14.231  -3.916  1.00  0.00     0.031 C 
ATOM     42  C   UNL     1      -1.777  15.773   2.800  1.00  0.00     0.029 A 
ATOM     43  C   UNL     1      -2.609  16.663   1.997  1.00  0.00     0.049 A 
ATOM     44  H   UNL     1      -2.950  16.574  -0.056  1.00  0.00     0.167 HD
ATOM     45  C   UNL     1      -3.703  16.154  -4.350  1.00  0.00     0.037 A 
ATOM     46  C   UNL     1      -3.296  17.718   2.473  1.00  0.00     0.037 A 
ATOM     47  C   UNL     1      -4.454  17.313  -3.938  1.00  0.00     0.049 A 
ATOM     48  C   UNL     1      -4.099  18.555   1.521  1.00  0.00     0.074 A 
ATOM     49  C   UNL     1      -5.264  18.131  -4.707  1.00  0.00     0.029 A 
ATOM     50  N   UNL     1      -4.491  17.816  -2.646  1.00  0.00    -0.354 N 
ATOM     51  N   UNL     1      -4.284  18.386   0.234  1.00  0.00    -0.248 NA
ATOM     52  C   UNL     1      -4.772  19.734   2.080  1.00  0.00     0.031 C 
ATOM     53  C   UNL     1      -5.760  19.151  -3.887  1.00  0.00     0.029 A 
ATOM     54  C   UNL     1      -5.295  18.944  -2.598  1.00  0.00     0.049 A 
ATOM     55  H   UNL     1      -4.016  17.428  -1.875  1.00  0.00     0.167 HD
ATOM     56  C   UNL     1      -5.099  19.435  -0.172  1.00  0.00     0.074 A 
ATOM     57  C   UNL     1      -5.388  20.221   1.011  1.00  0.00     0.031 C 
ATOM     58  C   UNL     1      -5.563  19.721  -1.413  1.00  0.00     0.037 A 
BRANCH  45  59
ATOM     59  C   UNL     1      -3.755  15.752  -5.800  1.00  0.00     0.058 A 
ATOM     60  C   UNL     1      -4.458  14.614  -6.226  1.00  0.00     0.135 A 
ATOM     61  C   UNL     1      -3.127  16.537  -6.781  1.00  0.00     0.135 A 
ATOM     62  F   UNL     1      -5.063  13.818  -5.330  1.00  0.00    -0.206 F 
ATOM     63  C   UNL     1      -4.515  14.254  -7.569  1.00  0.00     0.059 A 
ATOM     64  C   UNL     1      -3.192  16.210  -8.133  1.00  0.00     0.059 A 
ATOM     65  F   UNL     1      -2.442  17.637  -6.430  1.00  0.00    -0.206 F 
ATOM     66  C   UNL     1      -3.876  15.058  -8.516  1.00  0.00     0.060 A 
BRANCH  66  67
ATOM     67  S   UNL     1      -3.954  14.572 -10.253  1.00  0.00     0.124 S 
ATOM     68  O   UNL     1      -3.075  13.407 -10.268  1.00  0.00    -0.237 OA
ATOM     69  O   UNL     1      -5.375  14.295 -10.436  1.00  0.00    -0.237 OA
ATOM     70  O   UNL     1      -3.451  15.746 -10.959  1.00  0.00    -0.744 OA
ENDBRANCH  66  67
ENDBRANCH  45  59
BRANCH  46  71
ATOM     71  C   UNL     1      -3.245  18.024   3.925  1.00  0.00     0.058 A 
ATOM     72  C   UNL     1      -4.355  17.793   4.749  1.00  0.00     0.135 A 
ATOM     73  C   UNL     1      -2.064  18.485   4.529  1.00  0.00     0.135 A 
ATOM     74  F   UNL     1      -5.508  17.359   4.215  1.00  0.00    -0.206 F 
ATOM     75  C   UNL     1      -4.294  17.996   6.123  1.00  0.00     0.059 A 
ATOM     76  C   UNL     1      -1.971  18.671   5.903  1.00  0.00     0.059 A 
ATOM     77  F   UNL     1      -0.970  18.706   3.783  1.00  0.00    -0.206 F 
ATOM     78  C   UNL     1      -3.093  18.424   6.693  1.00  0.00     0.060 A 
BRANCH  78  79
ATOM     79  S   UNL     1      -2.999  18.592   8.488  1.00  0.00     0.124 S 
ATOM     80  O   UNL     1      -3.799  19.791   8.713  1.00  0.00    -0.237 OA
ATOM     81  O   UNL     1      -3.587  17.336   8.943  1.00  0.00    -0.237 OA
ATOM     82  O   UNL     1      -1.567  18.732   8.737  1.00  0.00    -0.744 OA
ENDBRANCH  78  79
ENDBRANCH  46  71
BRANCH  58  83
ATOM     83  C   UNL     1      -6.436  20.936  -1.559  1.00  0.00     0.058 A 
ATOM     84  C   UNL     1      -5.897  22.231  -1.524  1.00  0.00     0.135 A 
ATOM     85  C   UNL     1      -7.813  20.801  -1.794  1.00  0.00     0.135 A 
ATOM     86  F   UNL     1      -4.587  22.412  -1.293  1.00  0.00    -0.206 F 
ATOM     87  C   UNL     1      -6.697  23.354  -1.705  1.00  0.00     0.059 A 
ATOM     88  C   UNL     1      -8.628  21.909  -2.001  1.00  0.00     0.059 A 
ATOM     89  F   UNL     1      -8.375  19.583  -1.844  1.00  0.00    -0.206 F 
ATOM     90  C   UNL     1      -8.062  23.182  -1.947  1.00  0.00     0.060 A 
BRANCH  90  91
ATOM     91  S   UNL     1      -9.080  24.647  -2.221  1.00  0.00     0.124 S 
ATOM     92  O   UNL     1      -9.153  25.211  -0.877  1.00  0.00    -0.237 OA
ATOM     93  O   UNL     1      -8.285  25.404  -3.183  1.00  0.00    -0.237 OA
ATOM     94  O   UNL     1     -10.330  24.101  -2.741  1.00  0.00    -0.744 OA
ENDBRANCH  90  91
ENDBRANCH  58  83
ENDBRANCH  32  33
ENDBRANCH  24  27
ENDBRANCH  22  23
ENDBRANCH   1  22
TORSDOF 15
