REMARK SMILES Cc1cccc(NC(=O)[C@H]2CCCCC[C@@H]2[NH3+])c1C(=O)NCCCCNC(=O)c1ccc(-c2c3nc(c(-c4c(F)cc(S(=O)(=O)[O-])cc4F)c4ccc([nH]4)c(-c4c(F)cc(S(=O)(=O)[O-])cc4F)c4nc(c(-c5c(F)cc(S(=O)(=O)[O-])cc5F)c5ccc2[nH]5)C=C4)C=C3)cc1
REMARK SMILES IDX 22 1 21 2 19 3 20 4 18 6 1 7 2 8 3 9 4 10 6 11 5 12 7 13
REMARK SMILES IDX 8 14 9 16 10 17 11 18 12 19 13 20 14 21 16 23 15 24 17 26
REMARK SMILES IDX 23 30 24 31 25 32 26 33 27 34 28 36 29 37 30 38 94 39 31 40
REMARK SMILES IDX 93 41 32 42 33 43 34 44 87 45 35 46 92 47 86 48 88 49 36 50
REMARK SMILES IDX 91 51 85 52 84 53 37 55 71 56 50 57 70 58 51 59 54 60 69 61
REMARK SMILES IDX 89 62 52 63 53 64 68 66 90 67 55 68 38 69 39 70 48 71 40 72
REMARK SMILES IDX 41 73 47 74 49 75 42 76 43 77 44 78 45 79 46 80 72 81 73 82
REMARK SMILES IDX 82 83 74 84 75 85 81 86 83 87 76 88 77 89 78 90 79 91 80 92
REMARK SMILES IDX 56 93 57 94 66 95 58 96 59 97 65 98 67 99 60 100 61 101
REMARK SMILES IDX 62 102 63 103 64 104
REMARK H PARENT 21 5 7 15 17 27 17 28 17 29 26 35 88 54 54 65
REMARK Flexibility Score: 90.00
ROOT
ATOM      1  C   UNL     1      -6.771   6.945   3.987  1.00  0.00     0.116 C 
ENDROOT
BRANCH   1   2
ATOM      2  N   UNL     1      -6.956   5.547   3.628  1.00  0.00    -0.352 N 
ATOM      3  C   UNL     1      -6.543   4.707   2.627  1.00  0.00     0.253 C 
ATOM      4  O   UNL     1      -7.033   3.572   2.695  1.00  0.00    -0.269 OA
ATOM      5  H   UNL     1      -7.529   5.080   4.278  1.00  0.00     0.163 HD
BRANCH   3   6
ATOM      6  C   UNL     1      -5.516   4.969   1.548  1.00  0.00     0.066 A 
ATOM      7  C   UNL     1      -6.315   7.354   0.887  1.00  0.00     0.045 C 
ATOM      8  C   UNL     1      -5.380   6.187   0.829  1.00  0.00    -0.036 A 
ATOM      9  C   UNL     1      -4.356   6.332  -0.126  1.00  0.00     0.004 A 
ATOM     10  C   UNL     1      -3.539   5.273  -0.464  1.00  0.00     0.002 A 
ATOM     11  C   UNL     1      -4.709   3.843   1.127  1.00  0.00     0.054 A 
ATOM     12  C   UNL     1      -3.730   4.040   0.146  1.00  0.00     0.027 A 
BRANCH  11  13
ATOM     13  N   UNL     1      -4.910   2.560   1.715  1.00  0.00    -0.325 N 
ATOM     14  C   UNL     1      -4.556   1.264   1.454  1.00  0.00     0.233 C 
ATOM     15  H   UNL     1      -5.454   2.624   2.534  1.00  0.00     0.169 HD
ATOM     16  O   UNL     1      -4.841   0.433   2.325  1.00  0.00    -0.274 OA
BRANCH  14  17
ATOM     17  C   UNL     1      -3.906   0.804   0.140  1.00  0.00     0.137 C 
BRANCH  17  18
ATOM     18  C   UNL     1      -3.244  -0.591   0.226  1.00  0.00     0.020 C 
BRANCH  18  19
ATOM     19  C   UNL     1      -4.156  -1.802   0.405  1.00  0.00     0.001 C 
BRANCH  19  20
ATOM     20  C   UNL     1      -4.716  -2.393  -0.881  1.00  0.00     0.000 C 
BRANCH  20  21
ATOM     21  C   UNL     1      -5.330  -1.422  -1.879  1.00  0.00     0.006 CG0
ATOM     22  G   UNL     1      -5.891  -0.125  -1.293  1.00  0.00     0.000 G0
ENDBRANCH  20  21
ENDBRANCH  19  20
ENDBRANCH  18  19
ENDBRANCH  17  18
BRANCH  17  23
ATOM     23  C   UNL     1      -4.873   1.010  -1.047  1.00  0.00     0.193 C 
BRANCH  23  24
ATOM     24  C   UNL     1      -5.891  -0.125  -1.293  1.00  0.00     0.066 CG0
ATOM     25  G   UNL     1      -5.330  -1.422  -1.879  1.00  0.00     0.000 G0
ENDBRANCH  23  24
BRANCH  23  26
ATOM     26  N   UNL     1      -4.114   1.312  -2.277  1.00  0.00    -0.354 N 
ATOM     27  H   UNL     1      -3.544   0.505  -2.531  1.00  0.00     0.344 HD
ATOM     28  H   UNL     1      -3.511   2.118  -2.115  1.00  0.00     0.344 HD
ATOM     29  H   UNL     1      -4.764   1.520  -3.035  1.00  0.00     0.344 HD
ENDBRANCH  23  26
ENDBRANCH  17  23
ENDBRANCH  14  17
ENDBRANCH  11  13
ENDBRANCH   3   6
ENDBRANCH   1   2
BRANCH   1  30
ATOM     30  C   UNL     1      -7.988   7.781   3.540  1.00  0.00     0.023 C 
BRANCH  30  31
ATOM     31  C   UNL     1      -9.242   7.611   4.397  1.00  0.00     0.023 C 
BRANCH  31  32
ATOM     32  C   UNL     1      -9.209   8.480   5.641  1.00  0.00     0.116 C 
BRANCH  32  33
ATOM     33  N   UNL     1     -10.054   9.666   5.572  1.00  0.00    -0.352 N 
ATOM     34  C   UNL     1     -10.262  10.610   6.565  1.00  0.00     0.251 C 
ATOM     35  H   UNL     1     -10.530   9.814   4.723  1.00  0.00     0.163 HD
ATOM     36  O   UNL     1     -11.165  11.437   6.496  1.00  0.00    -0.269 OA
BRANCH  34  37
ATOM     37  C   UNL     1      -9.282  10.650   7.671  1.00  0.00     0.039 A 
ATOM     38  C   UNL     1      -8.435  11.762   7.737  1.00  0.00     0.014 A 
ATOM     39  C   UNL     1      -8.985   9.479   8.359  1.00  0.00     0.014 A 
ATOM     40  C   UNL     1      -7.173  11.623   8.309  1.00  0.00     0.010 A 
ATOM     41  C   UNL     1      -7.693   9.307   8.809  1.00  0.00     0.010 A 
ATOM     42  C   UNL     1      -6.770  10.363   8.740  1.00  0.00    -0.014 A 
BRANCH  42  43
ATOM     43  C   UNL     1      -5.390  10.009   9.062  1.00  0.00     0.031 A 
ATOM     44  C   UNL     1      -5.038   9.627  10.449  1.00  0.00     0.074 A 
ATOM     45  C   UNL     1      -4.473   9.893   8.076  1.00  0.00     0.049 A 
ATOM     46  N   UNL     1      -3.837   9.513  10.906  1.00  0.00    -0.248 NA
ATOM     47  C   UNL     1      -6.053   9.402  11.471  1.00  0.00     0.031 C 
ATOM     48  C   UNL     1      -3.203   9.177   8.136  1.00  0.00     0.029 A 
ATOM     49  N   UNL     1      -4.426  10.570   6.859  1.00  0.00    -0.354 N 
ATOM     50  C   UNL     1      -3.908   8.924  12.152  1.00  0.00     0.074 A 
ATOM     51  C   UNL     1      -5.308   8.968  12.488  1.00  0.00     0.031 C 
ATOM     52  C   UNL     1      -2.408   9.609   7.146  1.00  0.00     0.029 A 
ATOM     53  C   UNL     1      -3.072  10.734   6.513  1.00  0.00     0.049 A 
ATOM     54  H   UNL     1      -5.200  10.877   6.335  1.00  0.00     0.167 HD
ATOM     55  C   UNL     1      -2.783   8.350  12.673  1.00  0.00     0.037 A 
ATOM     56  C   UNL     1      -2.524  11.982   6.404  1.00  0.00     0.037 A 
ATOM     57  C   UNL     1      -1.606   8.719  11.875  1.00  0.00     0.049 A 
ATOM     58  C   UNL     1      -1.451  12.280   7.429  1.00  0.00     0.074 A 
ATOM     59  C   UNL     1      -0.872   8.056  10.906  1.00  0.00     0.029 A 
ATOM     60  N   UNL     1      -1.217  10.056  11.811  1.00  0.00    -0.354 N 
ATOM     61  N   UNL     1      -1.225  11.548   8.485  1.00  0.00    -0.248 NA
ATOM     62  C   UNL     1      -0.556  13.434   7.356  1.00  0.00     0.031 C 
ATOM     63  C   UNL     1      -0.111   9.019  10.194  1.00  0.00     0.029 A 
ATOM     64  C   UNL     1      -0.357  10.264  10.748  1.00  0.00     0.049 A 
ATOM     65  H   UNL     1      -1.514  10.756  12.435  1.00  0.00     0.167 HD
ATOM     66  C   UNL     1      -0.237  12.119   9.244  1.00  0.00     0.074 A 
ATOM     67  C   UNL     1       0.175  13.280   8.476  1.00  0.00     0.031 C 
ATOM     68  C   UNL     1       0.148  11.598  10.447  1.00  0.00     0.037 A 
BRANCH  55  69
ATOM     69  C   UNL     1      -2.782   7.223  13.706  1.00  0.00     0.058 A 
ATOM     70  C   UNL     1      -1.671   6.353  13.819  1.00  0.00     0.135 A 
ATOM     71  C   UNL     1      -3.863   6.865  14.539  1.00  0.00     0.135 A 
ATOM     72  F   UNL     1      -0.520   6.603  13.179  1.00  0.00    -0.206 F 
ATOM     73  C   UNL     1      -1.682   5.181  14.586  1.00  0.00     0.059 A 
ATOM     74  C   UNL     1      -3.916   5.682  15.283  1.00  0.00     0.059 A 
ATOM     75  F   UNL     1      -4.913   7.666  14.728  1.00  0.00    -0.206 F 
ATOM     76  C   UNL     1      -2.826   4.832  15.287  1.00  0.00     0.060 A 
BRANCH  76  77
ATOM     77  S   UNL     1      -2.869   3.287  16.212  1.00  0.00     0.124 S 
ATOM     78  O   UNL     1      -2.616   2.299  15.169  1.00  0.00    -0.237 OA
ATOM     79  O   UNL     1      -1.796   3.481  17.181  1.00  0.00    -0.237 OA
ATOM     80  O   UNL     1      -4.218   3.263  16.774  1.00  0.00    -0.744 OA
ENDBRANCH  76  77
ENDBRANCH  55  69
BRANCH  56  81
ATOM     81  C   UNL     1      -3.459  12.972   5.801  1.00  0.00     0.058 A 
ATOM     82  C   UNL     1      -3.783  12.797   4.442  1.00  0.00     0.135 A 
ATOM     83  C   UNL     1      -4.355  13.703   6.595  1.00  0.00     0.135 A 
ATOM     84  F   UNL     1      -2.945  12.125   3.634  1.00  0.00    -0.206 F 
ATOM     85  C   UNL     1      -5.026  13.154   3.938  1.00  0.00     0.059 A 
ATOM     86  C   UNL     1      -5.608  14.080   6.105  1.00  0.00     0.059 A 
ATOM     87  F   UNL     1      -4.096  13.907   7.895  1.00  0.00    -0.206 F 
ATOM     88  C   UNL     1      -5.959  13.723   4.802  1.00  0.00     0.060 A 
BRANCH  88  89
ATOM     89  S   UNL     1      -7.682  13.771   4.255  1.00  0.00     0.124 S 
ATOM     90  O   UNL     1      -7.590  14.549   3.024  1.00  0.00    -0.237 OA
ATOM     91  O   UNL     1      -7.965  12.347   4.084  1.00  0.00    -0.237 OA
ATOM     92  O   UNL     1      -8.366  14.423   5.365  1.00  0.00    -0.744 OA
ENDBRANCH  88  89
ENDBRANCH  56  81
BRANCH  68  93
ATOM     93  C   UNL     1       1.092  12.257  11.425  1.00  0.00     0.058 A 
ATOM     94  C   UNL     1       1.193  13.647  11.607  1.00  0.00     0.135 A 
ATOM     95  C   UNL     1       1.843  11.466  12.328  1.00  0.00     0.135 A 
ATOM     96  F   UNL     1       0.452  14.499  10.884  1.00  0.00    -0.206 F 
ATOM     97  C   UNL     1       2.028  14.216  12.572  1.00  0.00     0.059 A 
ATOM     98  C   UNL     1       2.638  12.011  13.332  1.00  0.00     0.059 A 
ATOM     99  F   UNL     1       1.817  10.126  12.268  1.00  0.00    -0.206 F 
ATOM    100  C   UNL     1       2.747  13.390  13.431  1.00  0.00     0.060 A 
BRANCH 100 101
ATOM    101  S   UNL     1       3.781  14.110  14.721  1.00  0.00     0.124 S 
ATOM    102  O   UNL     1       5.077  14.174  14.053  1.00  0.00    -0.237 OA
ATOM    103  O   UNL     1       3.139  15.396  14.975  1.00  0.00    -0.237 OA
ATOM    104  O   UNL     1       3.675  13.141  15.807  1.00  0.00    -0.744 OA
ENDBRANCH 100 101
ENDBRANCH  68  93
ENDBRANCH  42  43
ENDBRANCH  34  37
ENDBRANCH  32  33
ENDBRANCH  31  32
ENDBRANCH  30  31
ENDBRANCH   1  30
TORSDOF 17
