REMARK SMILES O=C(NCCCCNC(=O)[C@H](c1c[nH]c2cc(OCc3ccccc3)ccc12)[NH+]1CC[NH+]([C@H]2CCS(=O)(=O)C2)CC1)c1ccc(-c2c3nc(c(-c4c(F)cc(S(=O)(=O)[O-])cc4F)c4ccc([nH]4)c(-c4c(F)cc(S(=O)(=O)[O-])cc4F)c4nc(c(-c5c(F)cc(S(=O)(=O)[O-])cc5F)c5ccc2[nH]5)C=C4)C=C3)cc1
REMARK SMILES IDX 6 1 5 2 4 3 3 4 1 5 2 6 42 8 43 9 107 10 44 11 106 12 45 13
REMARK SMILES IDX 46 14 47 15 100 16 48 17 105 18 99 19 101 20 49 21 104 22
REMARK SMILES IDX 98 23 97 24 50 26 84 27 63 28 83 29 64 30 67 31 82 32 102 33
REMARK SMILES IDX 65 34 66 35 81 37 103 38 68 39 51 40 52 41 61 42 53 43 54 44
REMARK SMILES IDX 60 45 62 46 55 47 56 48 57 49 58 50 59 51 85 52 86 53 95 54
REMARK SMILES IDX 87 55 88 56 94 57 96 58 89 59 90 60 91 61 92 62 93 63 69 64
REMARK SMILES IDX 70 65 79 66 71 67 72 68 78 69 80 70 73 71 74 72 75 73 76 74
REMARK SMILES IDX 77 75 7 76 8 77 9 78 10 80 11 81 29 82 30 83 41 84 31 86
REMARK SMILES IDX 40 87 32 88 33 90 34 91 39 92 35 93 36 94 37 95 38 96 12 97
REMARK SMILES IDX 13 98 28 99 14 100 15 101 27 102 16 104 26 105 17 106 18 107
REMARK SMILES IDX 19 108 20 109 21 110 25 111 22 112 24 113 23 114
REMARK H PARENT 3 7 101 25 67 36 8 79 29 85 32 89 14 103
REMARK Flexibility Score: inf
ROOT
ATOM      1  C   UNL     1       1.353  -8.672  -6.691  1.00  0.00     0.023 C 
ENDROOT
BRANCH   1   2
ATOM      2  C   UNL     1       2.881  -8.816  -6.719  1.00  0.00     0.023 C 
BRANCH   2   3
ATOM      3  C   UNL     1       3.632  -8.466  -5.434  1.00  0.00     0.116 C 
BRANCH   3   4
ATOM      4  N   UNL     1       3.374  -9.382  -4.330  1.00  0.00    -0.352 N 
ATOM      5  O   UNL     1       3.738 -11.078  -2.887  1.00  0.00    -0.269 OA
ATOM      6  C   UNL     1       4.191 -10.327  -3.746  1.00  0.00     0.251 C 
ATOM      7  H   UNL     1       2.473  -9.315  -3.939  1.00  0.00     0.163 HD
BRANCH   6   8
ATOM      8  C   UNL     1       5.600 -10.465  -4.181  1.00  0.00     0.039 A 
ATOM      9  C   UNL     1       6.410  -9.341  -4.330  1.00  0.00     0.014 A 
ATOM     10  C   UNL     1       6.111 -11.735  -4.469  1.00  0.00     0.014 A 
ATOM     11  C   UNL     1       7.638  -9.460  -4.972  1.00  0.00     0.010 A 
ATOM     12  C   UNL     1       7.395 -11.862  -5.012  1.00  0.00     0.010 A 
ATOM     13  C   UNL     1       8.149 -10.720  -5.327  1.00  0.00    -0.014 A 
BRANCH  13  14
ATOM     14  C   UNL     1       9.473 -10.805  -6.005  1.00  0.00     0.031 A 
ATOM     15  C   UNL     1       9.607 -11.381  -7.393  1.00  0.00     0.074 A 
ATOM     16  C   UNL     1      10.558 -10.304  -5.379  1.00  0.00     0.049 A 
ATOM     17  N   UNL     1      10.675 -11.475  -8.146  1.00  0.00    -0.248 NA
ATOM     18  C   UNL     1       8.393 -11.931  -8.015  1.00  0.00     0.031 C 
ATOM     19  C   UNL     1      10.560  -9.728  -4.032  1.00  0.00     0.029 A 
ATOM     20  N   UNL     1      11.858 -10.173  -5.795  1.00  0.00    -0.354 N 
ATOM     21  C   UNL     1      10.270 -12.113  -9.315  1.00  0.00     0.074 A 
ATOM     22  C   UNL     1       8.862 -12.409  -9.159  1.00  0.00     0.031 C 
ATOM     23  C   UNL     1      11.781  -9.251  -3.757  1.00  0.00     0.029 A 
ATOM     24  C   UNL     1      12.669  -9.551  -4.875  1.00  0.00     0.049 A 
ATOM     25  H   UNL     1      12.180 -10.493  -6.668  1.00  0.00     0.167 HD
ATOM     26  C   UNL     1      11.001 -12.416 -10.416  1.00  0.00     0.037 A 
ATOM     27  C   UNL     1      13.984  -9.264  -4.913  1.00  0.00     0.037 A 
ATOM     28  C   UNL     1      12.401 -12.101 -10.568  1.00  0.00     0.049 A 
ATOM     29  C   UNL     1      14.775  -9.633  -6.135  1.00  0.00     0.074 A 
ATOM     30  C   UNL     1      13.219 -12.326 -11.663  1.00  0.00     0.029 A 
ATOM     31  N   UNL     1      13.195 -11.506  -9.597  1.00  0.00    -0.354 N 
ATOM     32  N   UNL     1      14.364 -10.199  -7.245  1.00  0.00    -0.248 NA
ATOM     33  C   UNL     1      16.211  -9.325  -6.112  1.00  0.00     0.031 C 
ATOM     34  C   UNL     1      14.518 -11.926 -11.331  1.00  0.00     0.029 A 
ATOM     35  C   UNL     1      14.498 -11.384 -10.056  1.00  0.00     0.049 A 
ATOM     36  H   UNL     1      12.879 -11.213  -8.712  1.00  0.00     0.167 HD
ATOM     37  C   UNL     1      15.483 -10.284  -8.065  1.00  0.00     0.074 A 
ATOM     38  C   UNL     1      16.584  -9.699  -7.327  1.00  0.00     0.031 C 
ATOM     39  C   UNL     1      15.588 -10.796  -9.316  1.00  0.00     0.037 A 
BRANCH  26  40
ATOM     40  C   UNL     1      10.316 -13.152 -11.540  1.00  0.00     0.058 A 
ATOM     41  C   UNL     1       9.336 -12.548 -12.343  1.00  0.00     0.135 A 
ATOM     42  C   UNL     1      10.683 -14.474 -11.848  1.00  0.00     0.135 A 
ATOM     43  F   UNL     1       8.935 -11.291 -12.092  1.00  0.00    -0.206 F 
ATOM     44  C   UNL     1       8.722 -13.235 -13.387  1.00  0.00     0.059 A 
ATOM     45  C   UNL     1      10.105 -15.170 -12.907  1.00  0.00     0.059 A 
ATOM     46  F   UNL     1      11.617 -15.104 -11.118  1.00  0.00    -0.206 F 
ATOM     47  C   UNL     1       9.113 -14.547 -13.661  1.00  0.00     0.060 A 
BRANCH  47  48
ATOM     48  S   UNL     1       8.303 -15.425 -15.015  1.00  0.00     0.124 S 
ATOM     49  O   UNL     1       6.970 -15.645 -14.461  1.00  0.00    -0.237 OA
ATOM     50  O   UNL     1       8.383 -14.459 -16.105  1.00  0.00    -0.237 OA
ATOM     51  O   UNL     1       9.118 -16.625 -15.181  1.00  0.00    -0.744 OA
ENDBRANCH  47  48
ENDBRANCH  26  40
BRANCH  27  52
ATOM     52  C   UNL     1      14.629  -8.588  -3.755  1.00  0.00     0.058 A 
ATOM     53  C   UNL     1      15.118  -7.278  -3.862  1.00  0.00     0.135 A 
ATOM     54  C   UNL     1      14.755  -9.234  -2.515  1.00  0.00     0.135 A 
ATOM     55  F   UNL     1      15.025  -6.620  -5.028  1.00  0.00    -0.206 F 
ATOM     56  C   UNL     1      15.726  -6.638  -2.787  1.00  0.00     0.059 A 
ATOM     57  C   UNL     1      15.328  -8.603  -1.416  1.00  0.00     0.059 A 
ATOM     58  F   UNL     1      14.287 -10.482  -2.354  1.00  0.00    -0.206 F 
ATOM     59  C   UNL     1      15.822  -7.308  -1.567  1.00  0.00     0.060 A 
BRANCH  59  60
ATOM     60  S   UNL     1      16.575  -6.453  -0.167  1.00  0.00     0.124 S 
ATOM     61  O   UNL     1      17.980  -6.431  -0.557  1.00  0.00    -0.237 OA
ATOM     62  O   UNL     1      15.885  -5.167  -0.188  1.00  0.00    -0.237 OA
ATOM     63  O   UNL     1      16.248  -7.312   0.967  1.00  0.00    -0.744 OA
ENDBRANCH  59  60
ENDBRANCH  27  52
BRANCH  39  64
ATOM     64  C   UNL     1      16.931 -10.700  -9.990  1.00  0.00     0.058 A 
ATOM     65  C   UNL     1      18.035 -11.457  -9.567  1.00  0.00     0.135 A 
ATOM     66  C   UNL     1      17.107  -9.850 -11.095  1.00  0.00     0.135 A 
ATOM     67  F   UNL     1      17.926 -12.281  -8.512  1.00  0.00    -0.206 F 
ATOM     68  C   UNL     1      19.275 -11.345 -10.189  1.00  0.00     0.059 A 
ATOM     69  C   UNL     1      18.327  -9.749 -11.754  1.00  0.00     0.059 A 
ATOM     70  F   UNL     1      16.082  -9.111 -11.550  1.00  0.00    -0.206 F 
ATOM     71  C   UNL     1      19.411 -10.488 -11.282  1.00  0.00     0.060 A 
BRANCH  71  72
ATOM     72  S   UNL     1      21.021 -10.361 -12.088  1.00  0.00     0.124 S 
ATOM     73  O   UNL     1      21.785  -9.604 -11.103  1.00  0.00    -0.237 OA
ATOM     74  O   UNL     1      21.401 -11.762 -12.246  1.00  0.00    -0.237 OA
ATOM     75  O   UNL     1      20.724  -9.655 -13.331  1.00  0.00    -0.744 OA
ENDBRANCH  71  72
ENDBRANCH  39  64
ENDBRANCH  13  14
ENDBRANCH   6   8
ENDBRANCH   3   4
ENDBRANCH   2   3
ENDBRANCH   1   2
BRANCH   1  76
ATOM     76  C   UNL     1       0.819  -7.351  -6.140  1.00  0.00     0.116 C 
BRANCH  76  77
ATOM     77  N   UNL     1       1.296  -6.173  -6.845  1.00  0.00    -0.351 N 
ATOM     78  C   UNL     1       0.868  -4.866  -6.818  1.00  0.00     0.283 C 
ATOM     79  H   UNL     1       2.057  -6.339  -7.446  1.00  0.00     0.163 HD
ATOM     80  O   UNL     1       1.585  -4.071  -7.440  1.00  0.00    -0.268 OA
BRANCH  78  81
ATOM     81  C   UNL     1      -0.438  -4.425  -6.068  1.00  0.00     0.308 C 
BRANCH  81  82
ATOM     82  N   UNL     1      -0.335  -4.273  -4.568  1.00  0.00    -0.312 N 
ATOM     83  C   UNL     1       0.852  -4.774  -3.870  1.00  0.00     0.325 C 
ATOM     84  C   UNL     1      -0.630  -2.974  -3.947  1.00  0.00     0.325 C 
ATOM     85  H   UNL     1      -1.118  -4.913  -4.433  1.00  0.00     0.349 HD
ATOM     86  C   UNL     1       2.106  -3.915  -4.061  1.00  0.00     0.324 C 
ATOM     87  C   UNL     1       0.566  -1.978  -3.813  1.00  0.00     0.324 C 
ATOM     88  N   UNL     1       1.931  -2.514  -3.670  1.00  0.00    -0.322 N 
ATOM     89  H   UNL     1       2.017  -2.489  -2.654  1.00  0.00     0.348 HD
BRANCH  88  90
ATOM     90  C   UNL     1       3.037  -1.662  -4.150  1.00  0.00     0.200 C 
ATOM     91  C   UNL     1       3.205  -1.534  -5.681  1.00  0.00     0.082 C 
ATOM     92  C   UNL     1       2.978  -0.218  -3.644  1.00  0.00     0.201 C 
ATOM     93  C   UNL     1       4.327  -0.536  -5.931  1.00  0.00     0.143 C 
ATOM     94  S   UNL     1       4.228   0.633  -4.589  1.00  0.00     0.156 S 
ATOM     95  O   UNL     1       5.474   0.589  -3.847  1.00  0.00    -0.229 OA
ATOM     96  O   UNL     1       3.667   1.872  -5.080  1.00  0.00    -0.229 OA
ENDBRANCH  88  90
ENDBRANCH  81  82
BRANCH  81  97
ATOM     97  C   UNL     1      -1.068  -3.203  -6.763  1.00  0.00     0.044 A 
ATOM     98  C   UNL     1      -0.501  -1.946  -6.897  1.00  0.00     0.094 A 
ATOM     99  C   UNL     1      -2.297  -3.115  -7.516  1.00  0.00     0.009 A 
ATOM    100  N   UNL     1      -1.409  -1.074  -7.409  1.00  0.00    -0.361 N 
ATOM    101  C   UNL     1      -2.485  -1.775  -7.874  1.00  0.00     0.050 A 
ATOM    102  C   UNL     1      -3.262  -4.038  -7.963  1.00  0.00     0.015 A 
ATOM    103  H   UNL     1      -1.308  -0.095  -7.439  1.00  0.00     0.166 HD
ATOM    104  C   UNL     1      -3.572  -1.312  -8.618  1.00  0.00     0.073 A 
ATOM    105  C   UNL     1      -4.328  -3.598  -8.773  1.00  0.00     0.047 A 
ATOM    106  C   UNL     1      -4.473  -2.253  -9.111  1.00  0.00     0.121 A 
BRANCH 106 107
ATOM    107  O   UNL     1      -5.413  -1.712  -9.947  1.00  0.00    -0.489 OA
BRANCH 107 108
ATOM    108  C   UNL     1      -6.218  -2.591 -10.735  1.00  0.00     0.265 C 
BRANCH 108 109
ATOM    109  C   UNL     1      -5.455  -3.385 -11.773  1.00  0.00    -0.011 A 
ATOM    110  C   UNL     1      -4.385  -2.824 -12.485  1.00  0.00     0.007 A 
ATOM    111  C   UNL     1      -5.821  -4.713 -12.033  1.00  0.00     0.007 A 
ATOM    112  C   UNL     1      -3.668  -3.593 -13.404  1.00  0.00     0.000 A 
ATOM    113  C   UNL     1      -5.103  -5.479 -12.951  1.00  0.00     0.000 A 
ATOM    114  C   UNL     1      -4.024  -4.921 -13.632  1.00  0.00     0.000 A 
ENDBRANCH 108 109
ENDBRANCH 107 108
ENDBRANCH 106 107
ENDBRANCH  81  97
ENDBRANCH  78  81
ENDBRANCH  76  77
ENDBRANCH   1  76
TORSDOF 20
