REMARK SMILES CC(C)[C@@H](NC(=O)/C(=C\c1ccccc1F)NC(=O)c1ccccc1)C(=O)NCCCCNC(=O)c1ccc(-c2c3nc(c(-c4c(F)cc(S(=O)(=O)[O-])cc4F)c4ccc([nH]4)c(-c4c(F)cc(S(=O)(=O)[O-])cc4F)c4nc(c(-c5c(F)cc(S(=O)(=O)[O-])cc5F)c5ccc2[nH]5)C=C4)C=C3)cc1
REMARK SMILES IDX 30 1 29 2 28 3 26 4 27 5 4 7 2 8 1 9 3 10 5 11 6 12 7 14
REMARK SMILES IDX 8 15 9 16 17 17 18 18 19 20 20 21 21 22 25 23 22 24 24 25
REMARK SMILES IDX 23 26 10 27 11 28 15 29 12 30 14 31 16 32 13 33 31 34 32 35
REMARK SMILES IDX 33 36 34 37 35 39 36 40 37 41 101 42 38 43 100 44 39 45
REMARK SMILES IDX 40 46 41 47 94 48 42 49 99 50 93 51 95 52 43 53 98 54 92 55
REMARK SMILES IDX 91 56 44 58 78 59 57 60 77 61 58 62 61 63 76 64 96 65 59 66
REMARK SMILES IDX 60 67 75 69 97 70 62 71 45 72 46 73 55 74 47 75 48 76 54 77
REMARK SMILES IDX 56 78 49 79 50 80 51 81 52 82 53 83 79 84 80 85 89 86 81 87
REMARK SMILES IDX 82 88 88 89 90 90 83 91 84 92 85 93 86 94 87 95 63 96 64 97
REMARK SMILES IDX 73 98 65 99 66 100 72 101 74 102 67 103 68 104 69 105 70 106
REMARK SMILES IDX 71 107
REMARK H PARENT 28 6 5 13 17 19 33 38 95 57 61 68
REMARK Flexibility Score: inf
ROOT
ATOM      1  C   UNL     1       1.595  -4.925   0.898  1.00  0.00     0.023 C 
ENDROOT
BRANCH   1   2
ATOM      2  C   UNL     1       0.339  -4.195   0.425  1.00  0.00     0.116 C 
BRANCH   2   3
ATOM      3  N   UNL     1      -0.196  -3.450   1.536  1.00  0.00    -0.354 N 
ATOM      4  C   UNL     1      -0.029  -2.111   1.704  1.00  0.00     0.242 C 
ATOM      5  O   UNL     1       0.423  -1.725   2.784  1.00  0.00    -0.273 OA
ATOM      6  H   UNL     1      -0.714  -3.940   2.215  1.00  0.00     0.163 HD
BRANCH   4   7
ATOM      7  C   UNL     1      -0.250  -1.149   0.526  1.00  0.00     0.174 C 
BRANCH   7   8
ATOM      8  C   UNL     1       1.091  -0.870  -0.230  1.00  0.00     0.015 C 
ATOM      9  C   UNL     1       1.022   0.436  -1.031  1.00  0.00     0.010 C 
ATOM     10  C   UNL     1       2.318  -0.803   0.692  1.00  0.00     0.010 C 
ENDBRANCH   7   8
BRANCH   7  11
ATOM     11  N   UNL     1      -1.314  -1.567  -0.418  1.00  0.00    -0.339 N 
ATOM     12  C   UNL     1      -2.662  -1.657  -0.166  1.00  0.00     0.268 C 
ATOM     13  H   UNL     1      -1.022  -1.808  -1.327  1.00  0.00     0.164 HD
ATOM     14  O   UNL     1      -3.435  -1.042  -0.900  1.00  0.00    -0.268 OA
BRANCH  12  15
ATOM     15  C   UNL     1      -3.198  -2.676   0.804  1.00  0.00     0.107 C 
ATOM     16  C   UNL     1      -3.306  -2.454   2.133  1.00  0.00     0.043 C 
BRANCH  15  17
ATOM     17  N   UNL     1      -3.687  -3.896   0.353  1.00  0.00    -0.317 N 
ATOM     18  C   UNL     1      -3.859  -4.485  -0.875  1.00  0.00     0.255 C 
ATOM     19  H   UNL     1      -3.980  -4.478   1.091  1.00  0.00     0.170 HD
ATOM     20  O   UNL     1      -4.326  -5.622  -0.930  1.00  0.00    -0.269 OA
BRANCH  18  21
ATOM     21  C   UNL     1      -3.524  -3.821  -2.135  1.00  0.00     0.040 A 
ATOM     22  C   UNL     1      -4.553  -3.271  -2.903  1.00  0.00     0.014 A 
ATOM     23  C   UNL     1      -2.212  -3.850  -2.611  1.00  0.00     0.014 A 
ATOM     24  C   UNL     1      -4.251  -2.682  -4.130  1.00  0.00     0.001 A 
ATOM     25  C   UNL     1      -1.914  -3.252  -3.835  1.00  0.00     0.001 A 
ATOM     26  C   UNL     1      -2.932  -2.662  -4.588  1.00  0.00     0.000 A 
ENDBRANCH  18  21
ENDBRANCH  15  17
BRANCH  16  27
ATOM     27  C   UNL     1      -2.854  -1.326   2.956  1.00  0.00     0.012 A 
ATOM     28  C   UNL     1      -2.162  -1.638   4.138  1.00  0.00     0.011 A 
ATOM     29  C   UNL     1      -3.040   0.018   2.635  1.00  0.00     0.130 A 
ATOM     30  C   UNL     1      -1.563  -0.634   4.901  1.00  0.00     0.001 A 
ATOM     31  C   UNL     1      -2.454   1.026   3.399  1.00  0.00     0.040 A 
ATOM     32  F   UNL     1      -3.767   0.372   1.568  1.00  0.00    -0.206 F 
ATOM     33  C   UNL     1      -1.691   0.698   4.518  1.00  0.00     0.003 A 
ENDBRANCH  16  27
ENDBRANCH  12  15
ENDBRANCH   7  11
ENDBRANCH   4   7
ENDBRANCH   2   3
ENDBRANCH   1   2
BRANCH   1  34
ATOM     34  C   UNL     1       1.284  -6.079   1.858  1.00  0.00     0.023 C 
BRANCH  34  35
ATOM     35  C   UNL     1       0.274  -7.078   1.306  1.00  0.00     0.116 C 
BRANCH  35  36
ATOM     36  N   UNL     1       0.654  -7.529  -0.024  1.00  0.00    -0.352 N 
ATOM     37  C   UNL     1       0.805  -8.810  -0.480  1.00  0.00     0.251 C 
ATOM     38  H   UNL     1       0.826  -6.819  -0.683  1.00  0.00     0.163 HD
ATOM     39  O   UNL     1       1.385  -9.021  -1.538  1.00  0.00    -0.269 OA
BRANCH  37  40
ATOM     40  C   UNL     1       0.263  -9.917   0.324  1.00  0.00     0.039 A 
ATOM     41  C   UNL     1       1.042 -11.057   0.516  1.00  0.00     0.014 A 
ATOM     42  C   UNL     1      -1.021  -9.822   0.873  1.00  0.00     0.014 A 
ATOM     43  C   UNL     1       0.533 -12.107   1.274  1.00  0.00     0.010 A 
ATOM     44  C   UNL     1      -1.494 -10.836   1.692  1.00  0.00     0.010 A 
ATOM     45  C   UNL     1      -0.735 -12.001   1.870  1.00  0.00    -0.014 A 
BRANCH  45  46
ATOM     46  C   UNL     1      -1.318 -13.139   2.614  1.00  0.00     0.031 A 
ATOM     47  C   UNL     1      -2.527 -13.839   2.059  1.00  0.00     0.074 A 
ATOM     48  C   UNL     1      -0.773 -13.521   3.784  1.00  0.00     0.049 A 
ATOM     49  N   UNL     1      -3.205 -14.836   2.562  1.00  0.00    -0.248 NA
ATOM     50  C   UNL     1      -3.063 -13.335   0.782  1.00  0.00     0.031 C 
ATOM     51  C   UNL     1       0.376 -12.883   4.430  1.00  0.00     0.029 A 
ATOM     52  N   UNL     1      -1.109 -14.542   4.633  1.00  0.00    -0.354 N 
ATOM     53  C   UNL     1      -4.248 -15.069   1.674  1.00  0.00     0.074 A 
ATOM     54  C   UNL     1      -4.153 -14.072   0.632  1.00  0.00     0.031 C 
ATOM     55  C   UNL     1       0.672 -13.552   5.556  1.00  0.00     0.029 A 
ATOM     56  C   UNL     1      -0.280 -14.646   5.724  1.00  0.00     0.049 A 
ATOM     57  H   UNL     1      -1.872 -15.144   4.476  1.00  0.00     0.167 HD
ATOM     58  C   UNL     1      -5.181 -16.047   1.707  1.00  0.00     0.037 A 
ATOM     59  C   UNL     1      -0.284 -15.535   6.736  1.00  0.00     0.037 A 
ATOM     60  C   UNL     1      -5.240 -17.059   2.727  1.00  0.00     0.049 A 
ATOM     61  C   UNL     1      -1.310 -16.634   6.734  1.00  0.00     0.074 A 
ATOM     62  C   UNL     1      -6.126 -18.114   2.844  1.00  0.00     0.029 A 
ATOM     63  N   UNL     1      -4.364 -17.149   3.799  1.00  0.00    -0.354 N 
ATOM     64  N   UNL     1      -2.275 -16.857   5.873  1.00  0.00    -0.248 NA
ATOM     65  C   UNL     1      -1.243 -17.610   7.830  1.00  0.00     0.031 C 
ATOM     66  C   UNL     1      -5.799 -18.830   4.000  1.00  0.00     0.029 A 
ATOM     67  C   UNL     1      -4.685 -18.244   4.580  1.00  0.00     0.049 A 
ATOM     68  H   UNL     1      -3.623 -16.526   3.977  1.00  0.00     0.167 HD
ATOM     69  C   UNL     1      -2.909 -18.016   6.303  1.00  0.00     0.074 A 
ATOM     70  C   UNL     1      -2.216 -18.449   7.500  1.00  0.00     0.031 C 
ATOM     71  C   UNL     1      -3.966 -18.665   5.757  1.00  0.00     0.037 A 
BRANCH  58  72
ATOM     72  C   UNL     1      -6.194 -16.084   0.598  1.00  0.00     0.058 A 
ATOM     73  C   UNL     1      -7.540 -15.774   0.845  1.00  0.00     0.135 A 
ATOM     74  C   UNL     1      -5.838 -16.461  -0.708  1.00  0.00     0.135 A 
ATOM     75  F   UNL     1      -7.934 -15.397   2.072  1.00  0.00    -0.206 F 
ATOM     76  C   UNL     1      -8.500 -15.851  -0.159  1.00  0.00     0.059 A 
ATOM     77  C   UNL     1      -6.777 -16.519  -1.734  1.00  0.00     0.059 A 
ATOM     78  F   UNL     1      -4.559 -16.740  -1.005  1.00  0.00    -0.206 F 
ATOM     79  C   UNL     1      -8.109 -16.227  -1.445  1.00  0.00     0.060 A 
BRANCH  79  80
ATOM     80  S   UNL     1      -9.360 -16.290  -2.745  1.00  0.00     0.124 S 
ATOM     81  O   UNL     1     -10.110 -17.486  -2.381  1.00  0.00    -0.237 OA
ATOM     82  O   UNL     1     -10.058 -15.021  -2.564  1.00  0.00    -0.237 OA
ATOM     83  O   UNL     1      -8.569 -16.390  -3.969  1.00  0.00    -0.744 OA
ENDBRANCH  79  80
ENDBRANCH  58  72
BRANCH  59  84
ATOM     84  C   UNL     1       0.759 -15.451   7.791  1.00  0.00     0.058 A 
ATOM     85  C   UNL     1       0.758 -14.418   8.739  1.00  0.00     0.135 A 
ATOM     86  C   UNL     1       1.807 -16.383   7.839  1.00  0.00     0.135 A 
ATOM     87  F   UNL     1      -0.214 -13.493   8.726  1.00  0.00    -0.206 F 
ATOM     88  C   UNL     1       1.769 -14.299   9.687  1.00  0.00     0.059 A 
ATOM     89  C   UNL     1       2.819 -16.298   8.791  1.00  0.00     0.059 A 
ATOM     90  F   UNL     1       1.847 -17.392   6.955  1.00  0.00    -0.206 F 
ATOM     91  C   UNL     1       2.799 -15.242   9.701  1.00  0.00     0.060 A 
BRANCH  91  92
ATOM     92  S   UNL     1       4.111 -15.061  10.928  1.00  0.00     0.124 S 
ATOM     93  O   UNL     1       4.817 -13.885  10.427  1.00  0.00    -0.237 OA
ATOM     94  O   UNL     1       3.354 -14.870  12.160  1.00  0.00    -0.237 OA
ATOM     95  O   UNL     1       4.840 -16.321  10.830  1.00  0.00    -0.744 OA
ENDBRANCH  91  92
ENDBRANCH  59  84
BRANCH  71  96
ATOM     96  C   UNL     1      -4.416 -19.937   6.415  1.00  0.00     0.058 A 
ATOM     97  C   UNL     1      -4.189 -21.173   5.790  1.00  0.00     0.135 A 
ATOM     98  C   UNL     1      -5.139 -19.929   7.617  1.00  0.00     0.135 A 
ATOM     99  F   UNL     1      -3.508 -21.233   4.634  1.00  0.00    -0.206 F 
ATOM    100  C   UNL     1      -4.676 -22.358   6.328  1.00  0.00     0.059 A 
ATOM    101  C   UNL     1      -5.614 -21.106   8.187  1.00  0.00     0.059 A 
ATOM    102  F   UNL     1      -5.373 -18.771   8.256  1.00  0.00    -0.206 F 
ATOM    103  C   UNL     1      -5.392 -22.314   7.525  1.00  0.00     0.060 A 
BRANCH 103 104
ATOM    104  S   UNL     1      -6.003 -23.863   8.221  1.00  0.00     0.124 S 
ATOM    105  O   UNL     1      -7.117 -24.171   7.331  1.00  0.00    -0.237 OA
ATOM    106  O   UNL     1      -4.838 -24.736   8.106  1.00  0.00    -0.237 OA
ATOM    107  O   UNL     1      -6.370 -23.498   9.586  1.00  0.00    -0.744 OA
ENDBRANCH 103 104
ENDBRANCH  71  96
ENDBRANCH  45  46
ENDBRANCH  37  40
ENDBRANCH  35  36
ENDBRANCH  34  35
ENDBRANCH   1  34
TORSDOF 20
