REMARK SMILES CC(C)n1c([C@H](O)CC(=O)NCCCCNC(=O)c2ccc(-c3c4nc(c(-c5c(F)cc(S(=O)(=O)[O-])cc5F)c5ccc([nH]5)c(-c5c(F)cc(S(=O)(=O)[O-])cc5F)c5nc(c(-c6c(F)cc(S(=O)(=O)[O-])cc6F)c6ccc3[nH]6)C=C5)C=C4)cc2)nc2cc(Cl)ccc21
REMARK SMILES IDX 13 1 12 2 11 3 9 4 10 5 8 7 6 8 5 9 4 10 92 11 85 12 86 13
REMARK SMILES IDX 91 14 87 15 90 16 88 17 89 18 2 19 1 20 3 21 7 22 14 24
REMARK SMILES IDX 15 25 16 26 17 27 18 29 19 30 20 31 84 32 21 33 83 34 22 35
REMARK SMILES IDX 23 36 24 37 77 38 25 39 82 40 76 41 78 42 26 43 81 44 75 45
REMARK SMILES IDX 74 46 27 48 61 49 40 50 60 51 41 52 44 53 59 54 79 55 42 56
REMARK SMILES IDX 43 57 58 59 80 60 45 61 28 62 29 63 38 64 30 65 31 66 37 67
REMARK SMILES IDX 39 68 32 69 33 70 34 71 35 72 36 73 62 74 63 75 72 76 64 77
REMARK SMILES IDX 65 78 71 79 73 80 66 81 67 82 68 83 69 84 70 85 46 86 47 87
REMARK SMILES IDX 56 88 48 89 49 90 55 91 57 92 50 93 51 94 52 95 53 96 54 97
REMARK H PARENT 11 6 7 23 16 28 78 47 44 58
REMARK Flexibility Score: inf
ROOT
ATOM      1  C   UNL     1      -1.270   3.543   0.301  1.00  0.00     0.023 C 
ENDROOT
BRANCH   1   2
ATOM      2  C   UNL     1      -1.784   2.931  -0.991  1.00  0.00     0.116 C 
BRANCH   2   3
ATOM      3  N   UNL     1      -0.754   2.833  -2.006  1.00  0.00    -0.356 N 
ATOM      4  C   UNL     1      -0.428   1.770  -2.798  1.00  0.00     0.223 C 
ATOM      5  O   UNL     1       0.521   1.886  -3.576  1.00  0.00    -0.275 OA
ATOM      6  H   UNL     1      -0.215   3.645  -2.143  1.00  0.00     0.163 HD
BRANCH   4   7
ATOM      7  C   UNL     1      -1.310   0.540  -2.833  1.00  0.00     0.140 C 
BRANCH   7   8
ATOM      8  C   UNL     1      -1.155  -0.463  -1.703  1.00  0.00     0.190 C 
BRANCH   8   9
ATOM      9  C   UNL     1      -2.150  -1.608  -1.676  1.00  0.00     0.139 A 
ATOM     10  N   UNL     1      -3.540  -1.594  -1.799  1.00  0.00    -0.323 N 
ATOM     11  C   UNL     1      -3.999  -2.861  -1.443  1.00  0.00     0.069 A 
ATOM     12  N   UNL     1      -1.743  -2.816  -1.311  1.00  0.00    -0.230 NA
ATOM     13  C   UNL     1      -2.856  -3.584  -1.144  1.00  0.00     0.090 A 
ATOM     14  C   UNL     1      -5.282  -3.425  -1.349  1.00  0.00     0.030 A 
ATOM     15  C   UNL     1      -2.958  -4.918  -0.722  1.00  0.00     0.051 A 
ATOM     16  C   UNL     1      -5.374  -4.754  -0.928  1.00  0.00     0.023 A 
ATOM     17  C   UNL     1      -4.229  -5.485  -0.620  1.00  0.00     0.043 A 
ATOM     18  Cl  UNL     1      -4.391  -7.120  -0.103  1.00  0.00    -0.084 Cl
BRANCH  10  19
ATOM     19  C   UNL     1      -4.470  -0.553  -2.232  1.00  0.00     0.083 C 
ATOM     20  C   UNL     1      -4.489   0.730  -1.408  1.00  0.00     0.031 C 
ATOM     21  C   UNL     1      -4.454  -0.335  -3.748  1.00  0.00     0.031 C 
ENDBRANCH  10  19
ENDBRANCH   8   9
BRANCH   8  22
ATOM     22  O   UNL     1      -1.215   0.087  -0.395  1.00  0.00    -0.385 OA
ATOM     23  H   UNL     1      -2.116   0.400  -0.217  1.00  0.00     0.211 HD
ENDBRANCH   8  22
ENDBRANCH   7   8
ENDBRANCH   4   7
ENDBRANCH   2   3
ENDBRANCH   1   2
BRANCH   1  24
ATOM     24  C   UNL     1      -1.199   5.065   0.262  1.00  0.00     0.023 C 
BRANCH  24  25
ATOM     25  C   UNL     1      -2.525   5.766  -0.066  1.00  0.00     0.116 C 
BRANCH  25  26
ATOM     26  N   UNL     1      -3.646   5.407   0.783  1.00  0.00    -0.352 N 
ATOM     27  C   UNL     1      -4.095   5.857   1.997  1.00  0.00     0.251 C 
ATOM     28  H   UNL     1      -4.202   4.686   0.406  1.00  0.00     0.163 HD
ATOM     29  O   UNL     1      -5.224   5.492   2.334  1.00  0.00    -0.269 OA
BRANCH  27  30
ATOM     30  C   UNL     1      -3.280   6.663   2.943  1.00  0.00     0.039 A 
ATOM     31  C   UNL     1      -2.036   7.215   2.646  1.00  0.00     0.014 A 
ATOM     32  C   UNL     1      -3.773   6.786   4.254  1.00  0.00     0.014 A 
ATOM     33  C   UNL     1      -1.221   7.699   3.653  1.00  0.00     0.010 A 
ATOM     34  C   UNL     1      -2.988   7.340   5.259  1.00  0.00     0.010 A 
ATOM     35  C   UNL     1      -1.684   7.728   4.966  1.00  0.00    -0.014 A 
BRANCH  35  36
ATOM     36  C   UNL     1      -0.782   8.295   5.963  1.00  0.00     0.031 A 
ATOM     37  C   UNL     1      -0.344   9.693   5.669  1.00  0.00     0.074 A 
ATOM     38  C   UNL     1      -0.451   7.648   7.098  1.00  0.00     0.049 A 
ATOM     39  N   UNL     1       0.857  10.153   5.516  1.00  0.00    -0.248 NA
ATOM     40  C   UNL     1      -1.400  10.677   5.365  1.00  0.00     0.031 C 
ATOM     41  C   UNL     1      -1.011   6.397   7.614  1.00  0.00     0.029 A 
ATOM     42  N   UNL     1       0.383   8.043   8.098  1.00  0.00    -0.354 N 
ATOM     43  C   UNL     1       0.714  11.524   5.304  1.00  0.00     0.074 A 
ATOM     44  C   UNL     1      -0.685  11.759   5.065  1.00  0.00     0.031 C 
ATOM     45  C   UNL     1      -0.698   6.279   8.923  1.00  0.00     0.029 A 
ATOM     46  C   UNL     1       0.183   7.371   9.298  1.00  0.00     0.049 A 
ATOM     47  H   UNL     1       1.066   8.742   7.982  1.00  0.00     0.167 HD
ATOM     48  C   UNL     1       1.718  12.408   5.555  1.00  0.00     0.037 A 
ATOM     49  C   UNL     1       0.630   7.754  10.521  1.00  0.00     0.037 A 
ATOM     50  C   UNL     1       3.003  11.766   5.584  1.00  0.00     0.049 A 
ATOM     51  C   UNL     1       1.754   8.702  10.299  1.00  0.00     0.074 A 
ATOM     52  C   UNL     1       3.759  11.064   4.665  1.00  0.00     0.029 A 
ATOM     53  N   UNL     1       3.565  11.503   6.808  1.00  0.00    -0.354 N 
ATOM     54  N   UNL     1       2.900   8.371   9.768  1.00  0.00    -0.248 NA
ATOM     55  C   UNL     1       1.446  10.124  10.276  1.00  0.00     0.031 C 
ATOM     56  C   UNL     1       4.415  10.051   5.422  1.00  0.00     0.029 A 
ATOM     57  C   UNL     1       4.058  10.224   6.760  1.00  0.00     0.049 A 
ATOM     58  H   UNL     1       3.607  12.117   7.577  1.00  0.00     0.167 HD
ATOM     59  C   UNL     1       3.257   9.459   8.985  1.00  0.00     0.074 A 
ATOM     60  C   UNL     1       2.372  10.540   9.409  1.00  0.00     0.031 C 
ATOM     61  C   UNL     1       4.048   9.310   7.881  1.00  0.00     0.037 A 
BRANCH  48  62
ATOM     62  C   UNL     1       1.485  13.788   6.123  1.00  0.00     0.058 A 
ATOM     63  C   UNL     1       2.542  14.718   6.171  1.00  0.00     0.135 A 
ATOM     64  C   UNL     1       0.340  14.126   6.880  1.00  0.00     0.135 A 
ATOM     65  F   UNL     1       3.685  14.488   5.505  1.00  0.00    -0.206 F 
ATOM     66  C   UNL     1       2.489  15.867   6.962  1.00  0.00     0.059 A 
ATOM     67  C   UNL     1       0.244  15.291   7.630  1.00  0.00     0.059 A 
ATOM     68  F   UNL     1      -0.702  13.294   7.009  1.00  0.00    -0.206 F 
ATOM     69  C   UNL     1       1.338  16.136   7.700  1.00  0.00     0.060 A 
BRANCH  69  70
ATOM     70  S   UNL     1       1.305  17.554   8.809  1.00  0.00     0.124 S 
ATOM     71  O   UNL     1       2.270  17.150   9.825  1.00  0.00    -0.237 OA
ATOM     72  O   UNL     1       1.721  18.638   7.926  1.00  0.00    -0.237 OA
ATOM     73  O   UNL     1      -0.087  17.608   9.245  1.00  0.00    -0.744 OA
ENDBRANCH  69  70
ENDBRANCH  48  62
BRANCH  49  74
ATOM     74  C   UNL     1      -0.105   7.678  11.816  1.00  0.00     0.058 A 
ATOM     75  C   UNL     1       0.544   7.965  13.031  1.00  0.00     0.135 A 
ATOM     76  C   UNL     1      -1.513   7.607  11.870  1.00  0.00     0.135 A 
ATOM     77  F   UNL     1       1.881   8.069  13.074  1.00  0.00    -0.206 F 
ATOM     78  C   UNL     1      -0.162   8.230  14.211  1.00  0.00     0.059 A 
ATOM     79  C   UNL     1      -2.235   7.851  13.037  1.00  0.00     0.059 A 
ATOM     80  F   UNL     1      -2.244   7.395  10.767  1.00  0.00    -0.206 F 
ATOM     81  C   UNL     1      -1.555   8.194  14.197  1.00  0.00     0.060 A 
BRANCH  81  82
ATOM     82  S   UNL     1      -2.476   8.720  15.662  1.00  0.00     0.124 S 
ATOM     83  O   UNL     1      -2.156   7.664  16.616  1.00  0.00    -0.237 OA
ATOM     84  O   UNL     1      -1.891  10.028  15.937  1.00  0.00    -0.237 OA
ATOM     85  O   UNL     1      -3.862   8.745  15.201  1.00  0.00    -0.744 OA
ENDBRANCH  81  82
ENDBRANCH  49  74
BRANCH  61  86
ATOM     86  C   UNL     1       4.774   8.004   7.691  1.00  0.00     0.058 A 
ATOM     87  C   UNL     1       4.141   6.769   7.466  1.00  0.00     0.135 A 
ATOM     88  C   UNL     1       6.171   8.040   7.564  1.00  0.00     0.135 A 
ATOM     89  F   UNL     1       2.805   6.669   7.467  1.00  0.00    -0.206 F 
ATOM     90  C   UNL     1       4.867   5.616   7.160  1.00  0.00     0.059 A 
ATOM     91  C   UNL     1       6.913   6.910   7.229  1.00  0.00     0.059 A 
ATOM     92  F   UNL     1       6.830   9.202   7.708  1.00  0.00    -0.206 F 
ATOM     93  C   UNL     1       6.254   5.698   7.036  1.00  0.00     0.060 A 
BRANCH  93  94
ATOM     94  S   UNL     1       7.186   4.231   6.546  1.00  0.00     0.124 S 
ATOM     95  O   UNL     1       7.053   3.375   7.726  1.00  0.00    -0.237 OA
ATOM     96  O   UNL     1       6.459   3.780   5.358  1.00  0.00    -0.237 OA
ATOM     97  O   UNL     1       8.523   4.739   6.292  1.00  0.00    -0.744 OA
ENDBRANCH  93  94
ENDBRANCH  61  86
ENDBRANCH  35  36
ENDBRANCH  27  30
ENDBRANCH  25  26
ENDBRANCH  24  25
ENDBRANCH   1  24
TORSDOF 18
