REMARK SMILES O=C(NCCCCNC(=O)c1ccc(-c2c3nc(c(-c4c(F)cc(S(=O)(=O)[O-])cc4F)c4ccc([nH]4)c(-c4c(F)cc(S(=O)(=O)[O-])cc4F)c4nc(c(-c5c(F)cc(S(=O)(=O)[O-])cc5F)c5ccc2[nH]5)C=C4)C=C3)cc1)C1=Cc2cc(Cl)ccc2O[C@@H]1C(F)(F)F
REMARK SMILES IDX 6 1 5 2 4 3 3 4 1 5 2 6 77 8 78 9 87 10 79 11 86 12 80 13
REMARK SMILES IDX 85 14 81 15 84 16 82 17 83 18 88 19 89 20 90 21 91 22 7 23
REMARK SMILES IDX 8 24 9 25 10 27 11 28 12 29 76 30 13 31 75 32 14 33 15 34
REMARK SMILES IDX 16 35 69 36 17 37 74 38 68 39 70 40 18 41 73 42 67 43 66 44
REMARK SMILES IDX 19 46 53 47 32 48 52 49 33 50 36 51 51 52 71 53 34 54 35 55
REMARK SMILES IDX 50 57 72 58 37 59 20 60 21 61 30 62 22 63 23 64 29 65 31 66
REMARK SMILES IDX 24 67 25 68 26 69 27 70 28 71 54 72 55 73 64 74 56 75 57 76
REMARK SMILES IDX 63 77 65 78 58 79 59 80 60 81 61 82 62 83 38 84 39 85 48 86
REMARK SMILES IDX 40 87 41 88 47 89 49 90 42 91 43 92 44 93 45 94 46 95
REMARK H PARENT 3 7 8 26 70 45 36 56
REMARK Flexibility Score: inf
ROOT
ATOM      1  C   UNL     1       4.116  -3.820  -2.055  1.00  0.00     0.023 C 
ENDROOT
BRANCH   1   2
ATOM      2  C   UNL     1       4.178  -2.943  -0.801  1.00  0.00     0.023 C 
BRANCH   2   3
ATOM      3  C   UNL     1       3.406  -1.628  -0.947  1.00  0.00     0.116 C 
BRANCH   3   4
ATOM      4  N   UNL     1       2.389  -1.424   0.088  1.00  0.00    -0.352 N 
ATOM      5  O   UNL     1       1.189  -0.203   1.589  1.00  0.00    -0.270 OA
ATOM      6  C   UNL     1       2.221  -0.371   0.955  1.00  0.00     0.251 C 
ATOM      7  H   UNL     1       1.728  -2.149   0.175  1.00  0.00     0.163 HD
BRANCH   6   8
ATOM      8  C   UNL     1       3.348   0.569   1.071  1.00  0.00     0.067 C 
ATOM      9  C   UNL     1       4.467   0.059   1.597  1.00  0.00     0.025 C 
ATOM     10  C   UNL     1       3.301   1.828   0.262  1.00  0.00     0.314 C 
ATOM     11  C   UNL     1       5.686   0.455   0.895  1.00  0.00     0.019 A 
ATOM     12  O   UNL     1       4.473   1.993  -0.581  1.00  0.00    -0.475 OA
ATOM     13  C   UNL     1       6.834  -0.314   1.106  1.00  0.00     0.032 A 
ATOM     14  C   UNL     1       5.601   1.294  -0.229  1.00  0.00     0.128 A 
ATOM     15  C   UNL     1       7.840  -0.320   0.144  1.00  0.00     0.041 A 
ATOM     16  C   UNL     1       6.633   1.311  -1.166  1.00  0.00     0.048 A 
ATOM     17  Cl  UNL     1       9.158  -1.412   0.314  1.00  0.00    -0.084 Cl
ATOM     18  C   UNL     1       7.738   0.475  -0.996  1.00  0.00     0.024 A 
BRANCH  10  19
ATOM     19  C   UNL     1       3.096   3.070   1.144  1.00  0.00     0.429 C 
ATOM     20  F   UNL     1       2.905   4.179   0.386  1.00  0.00    -0.167 F 
ATOM     21  F   UNL     1       2.011   2.956   1.944  1.00  0.00    -0.167 F 
ATOM     22  F   UNL     1       4.161   3.316   1.944  1.00  0.00    -0.167 F 
ENDBRANCH  10  19
ENDBRANCH   6   8
ENDBRANCH   3   4
ENDBRANCH   2   3
ENDBRANCH   1   2
BRANCH   1  23
ATOM     23  C   UNL     1       4.648  -3.189  -3.340  1.00  0.00     0.116 C 
BRANCH  23  24
ATOM     24  N   UNL     1       6.092  -2.994  -3.360  1.00  0.00    -0.352 N 
ATOM     25  C   UNL     1       6.973  -3.311  -4.374  1.00  0.00     0.251 C 
ATOM     26  H   UNL     1       6.486  -2.588  -2.554  1.00  0.00     0.163 HD
ATOM     27  O   UNL     1       8.178  -3.117  -4.247  1.00  0.00    -0.269 OA
BRANCH  25  28
ATOM     28  C   UNL     1       6.439  -3.935  -5.604  1.00  0.00     0.039 A 
ATOM     29  C   UNL     1       6.862  -5.220  -5.955  1.00  0.00     0.014 A 
ATOM     30  C   UNL     1       5.422  -3.301  -6.320  1.00  0.00     0.014 A 
ATOM     31  C   UNL     1       6.183  -5.918  -6.958  1.00  0.00     0.010 A 
ATOM     32  C   UNL     1       4.704  -4.025  -7.267  1.00  0.00     0.010 A 
ATOM     33  C   UNL     1       5.059  -5.349  -7.579  1.00  0.00    -0.014 A 
BRANCH  33  34
ATOM     34  C   UNL     1       4.207  -6.114  -8.531  1.00  0.00     0.031 A 
ATOM     35  C   UNL     1       4.029  -5.606  -9.937  1.00  0.00     0.074 A 
ATOM     36  C   UNL     1       3.495  -7.176  -8.100  1.00  0.00     0.049 A 
ATOM     37  N   UNL     1       3.176  -5.987 -10.851  1.00  0.00    -0.248 NA
ATOM     38  C   UNL     1       4.897  -4.492 -10.352  1.00  0.00     0.031 C 
ATOM     39  C   UNL     1       3.534  -7.738  -6.747  1.00  0.00     0.029 A 
ATOM     40  N   UNL     1       2.569  -7.959  -8.750  1.00  0.00    -0.354 N 
ATOM     41  C   UNL     1       3.368  -5.129 -11.928  1.00  0.00     0.074 A 
ATOM     42  C   UNL     1       4.402  -4.193 -11.545  1.00  0.00     0.031 C 
ATOM     43  C   UNL     1       2.679  -8.772  -6.670  1.00  0.00     0.029 A 
ATOM     44  C   UNL     1       1.997  -8.923  -7.951  1.00  0.00     0.049 A 
ATOM     45  H   UNL     1       2.337  -7.840  -9.699  1.00  0.00     0.167 HD
ATOM     46  C   UNL     1       2.747  -5.132 -13.130  1.00  0.00     0.037 A 
ATOM     47  C   UNL     1       1.019  -9.813  -8.213  1.00  0.00     0.037 A 
ATOM     48  C   UNL     1       1.777  -6.114 -13.534  1.00  0.00     0.049 A 
ATOM     49  C   UNL     1       0.388  -9.830  -9.581  1.00  0.00     0.074 A 
ATOM     50  C   UNL     1       1.167  -6.260 -14.768  1.00  0.00     0.029 A 
ATOM     51  N   UNL     1       1.288  -7.125 -12.722  1.00  0.00    -0.354 N 
ATOM     52  N   UNL     1       0.629  -9.050 -10.607  1.00  0.00    -0.248 NA
ATOM     53  C   UNL     1      -0.646 -10.846  -9.830  1.00  0.00     0.031 C 
ATOM     54  C   UNL     1       0.288  -7.344 -14.694  1.00  0.00     0.029 A 
ATOM     55  C   UNL     1       0.378  -7.894 -13.425  1.00  0.00     0.049 A 
ATOM     56  H   UNL     1       1.549  -7.273 -11.784  1.00  0.00     0.167 HD
ATOM     57  C   UNL     1      -0.195  -9.505 -11.631  1.00  0.00     0.074 A 
ATOM     58  C   UNL     1      -0.940 -10.628 -11.104  1.00  0.00     0.031 C 
ATOM     59  C   UNL     1      -0.324  -9.034 -12.895  1.00  0.00     0.037 A 
BRANCH  46  60
ATOM     60  C   UNL     1       3.103  -4.052 -14.112  1.00  0.00     0.058 A 
ATOM     61  C   UNL     1       4.328  -4.053 -14.795  1.00  0.00     0.135 A 
ATOM     62  C   UNL     1       2.175  -3.046 -14.427  1.00  0.00     0.135 A 
ATOM     63  F   UNL     1       5.256  -4.982 -14.518  1.00  0.00    -0.206 F 
ATOM     64  C   UNL     1       4.627  -3.086 -15.749  1.00  0.00     0.059 A 
ATOM     65  C   UNL     1       2.442  -2.083 -15.395  1.00  0.00     0.059 A 
ATOM     66  F   UNL     1       0.989  -3.000 -13.799  1.00  0.00    -0.206 F 
ATOM     67  C   UNL     1       3.675  -2.108 -16.046  1.00  0.00     0.060 A 
BRANCH  67  68
ATOM     68  S   UNL     1       4.063  -0.885 -17.316  1.00  0.00     0.124 S 
ATOM     69  O   UNL     1       5.001  -0.020 -16.608  1.00  0.00    -0.237 OA
ATOM     70  O   UNL     1       4.635  -1.707 -18.377  1.00  0.00    -0.237 OA
ATOM     71  O   UNL     1       2.766  -0.289 -17.619  1.00  0.00    -0.744 OA
ENDBRANCH  67  68
ENDBRANCH  46  60
BRANCH  47  72
ATOM     72  C   UNL     1       0.564 -10.772  -7.169  1.00  0.00     0.058 A 
ATOM     73  C   UNL     1       0.845 -12.142  -7.280  1.00  0.00     0.135 A 
ATOM     74  C   UNL     1      -0.189 -10.348  -6.064  1.00  0.00     0.135 A 
ATOM     75  F   UNL     1       1.557 -12.597  -8.322  1.00  0.00    -0.206 F 
ATOM     76  C   UNL     1       0.365 -13.064  -6.355  1.00  0.00     0.059 A 
ATOM     77  C   UNL     1      -0.660 -11.248  -5.112  1.00  0.00     0.059 A 
ATOM     78  F   UNL     1      -0.469  -9.046  -5.899  1.00  0.00    -0.206 F 
ATOM     79  C   UNL     1      -0.395 -12.607  -5.277  1.00  0.00     0.060 A 
BRANCH  79  80
ATOM     80  S   UNL     1      -1.011 -13.807  -4.076  1.00  0.00     0.124 S 
ATOM     81  O   UNL     1      -2.141 -14.384  -4.795  1.00  0.00    -0.237 OA
ATOM     82  O   UNL     1       0.142 -14.681  -3.891  1.00  0.00    -0.237 OA
ATOM     83  O   UNL     1      -1.350 -12.978  -2.923  1.00  0.00    -0.744 OA
ENDBRANCH  79  80
ENDBRANCH  47  72
BRANCH  59  84
ATOM     84  C   UNL     1      -1.254  -9.761 -13.821  1.00  0.00     0.058 A 
ATOM     85  C   UNL     1      -2.646  -9.607 -13.738  1.00  0.00     0.135 A 
ATOM     86  C   UNL     1      -0.738 -10.550 -14.861  1.00  0.00     0.135 A 
ATOM     87  F   UNL     1      -3.186  -8.868 -12.756  1.00  0.00    -0.206 F 
ATOM     88  C   UNL     1      -3.497 -10.217 -14.653  1.00  0.00     0.059 A 
ATOM     89  C   UNL     1      -1.569 -11.151 -15.800  1.00  0.00     0.059 A 
ATOM     90  F   UNL     1       0.588 -10.719 -14.987  1.00  0.00    -0.206 F 
ATOM     91  C   UNL     1      -2.948 -10.982 -15.685  1.00  0.00     0.060 A 
BRANCH  91  92
ATOM     92  S   UNL     1      -4.058 -11.714 -16.907  1.00  0.00     0.124 S 
ATOM     93  O   UNL     1      -4.607 -12.844 -16.166  1.00  0.00    -0.237 OA
ATOM     94  O   UNL     1      -4.988 -10.623 -17.180  1.00  0.00    -0.237 OA
ATOM     95  O   UNL     1      -3.166 -12.059 -18.010  1.00  0.00    -0.744 OA
ENDBRANCH  91  92
ENDBRANCH  59  84
ENDBRANCH  33  34
ENDBRANCH  25  28
ENDBRANCH  23  24
ENDBRANCH   1  23
TORSDOF 15
