REMARK SMILES O=C(NCCCCNC(=O)c1ccncc1-c1ccc(F)cc1F)c1ccc(-c2c3nc(c(-c4c(F)cc(S(=O)(=O)[O-])cc4F)c4ccc([nH]4)c(-c4c(F)cc(S(=O)(=O)[O-])cc4F)c4nc(c(-c5c(F)cc(S(=O)(=O)[O-])cc5F)c5ccc2[nH]5)C=C4)C=C3)cc1
REMARK SMILES IDX 4 1 3 2 1 3 2 4 25 6 26 7 90 8 27 9 89 10 28 11 29 12 30 13
REMARK SMILES IDX 83 14 31 15 88 16 82 17 84 18 32 19 87 20 81 21 80 22 33 24
REMARK SMILES IDX 67 25 46 26 66 27 47 28 50 29 65 30 85 31 48 32 49 33 64 35
REMARK SMILES IDX 86 36 51 37 34 38 35 39 44 40 36 41 37 42 43 43 45 44 38 45
REMARK SMILES IDX 39 46 40 47 41 48 42 49 68 50 69 51 78 52 70 53 71 54 77 55
REMARK SMILES IDX 79 56 72 57 73 58 74 59 75 60 76 61 52 62 53 63 62 64 54 65
REMARK SMILES IDX 55 66 61 67 63 68 56 69 57 70 58 71 59 72 60 73 5 74 6 75
REMARK SMILES IDX 7 76 8 77 9 78 10 80 11 81 12 82 16 83 13 84 15 85 14 86
REMARK SMILES IDX 17 87 18 88 23 89 19 90 22 91 24 92 20 93 21 94
REMARK H PARENT 3 5 84 23 50 34 8 79
REMARK Flexibility Score: inf
ROOT
ATOM      1  C   UNL     1       4.582  -1.262   0.387  1.00  0.00     0.116 C 
ENDROOT
BRANCH   1   2
ATOM      2  N   UNL     1       3.150  -1.132   0.170  1.00  0.00    -0.352 N 
ATOM      3  O   UNL     1       1.176  -0.083  -0.103  1.00  0.00    -0.269 OA
ATOM      4  C   UNL     1       2.401  -0.003  -0.065  1.00  0.00     0.251 C 
ATOM      5  H   UNL     1       2.642  -1.976   0.194  1.00  0.00     0.163 HD
BRANCH   4   6
ATOM      6  C   UNL     1       3.066   1.308  -0.238  1.00  0.00     0.039 A 
ATOM      7  C   UNL     1       4.194   1.438  -1.052  1.00  0.00     0.014 A 
ATOM      8  C   UNL     1       2.551   2.426   0.427  1.00  0.00     0.014 A 
ATOM      9  C   UNL     1       4.890   2.642  -1.081  1.00  0.00     0.010 A 
ATOM     10  C   UNL     1       3.207   3.657   0.331  1.00  0.00     0.010 A 
ATOM     11  C   UNL     1       4.401   3.768  -0.398  1.00  0.00    -0.014 A 
BRANCH  11  12
ATOM     12  C   UNL     1       5.129   5.058  -0.506  1.00  0.00     0.031 A 
ATOM     13  C   UNL     1       5.791   5.684   0.691  1.00  0.00     0.074 A 
ATOM     14  C   UNL     1       5.219   5.648  -1.715  1.00  0.00     0.049 A 
ATOM     15  N   UNL     1       6.480   6.794   0.762  1.00  0.00    -0.248 NA
ATOM     16  C   UNL     1       5.661   4.978   1.976  1.00  0.00     0.031 C 
ATOM     17  C   UNL     1       4.611   5.137  -2.946  1.00  0.00     0.029 A 
ATOM     18  N   UNL     1       5.870   6.787  -2.115  1.00  0.00    -0.354 N 
ATOM     19  C   UNL     1       6.853   6.930   2.094  1.00  0.00     0.074 A 
ATOM     20  C   UNL     1       6.294   5.799   2.804  1.00  0.00     0.031 C 
ATOM     21  C   UNL     1       4.957   5.929  -3.970  1.00  0.00     0.029 A 
ATOM     22  C   UNL     1       5.761   7.036  -3.462  1.00  0.00     0.049 A 
ATOM     23  H   UNL     1       6.366   7.370  -1.497  1.00  0.00     0.167 HD
ATOM     24  C   UNL     1       7.599   7.905   2.668  1.00  0.00     0.037 A 
ATOM     25  C   UNL     1       6.244   8.047  -4.209  1.00  0.00     0.037 A 
ATOM     26  C   UNL     1       8.166   9.019   1.950  1.00  0.00     0.049 A 
ATOM     27  C   UNL     1       7.053   9.122  -3.546  1.00  0.00     0.074 A 
ATOM     28  C   UNL     1       8.956  10.046   2.440  1.00  0.00     0.029 A 
ATOM     29  N   UNL     1       8.006   9.254   0.592  1.00  0.00    -0.354 N 
ATOM     30  N   UNL     1       7.403   9.227  -2.286  1.00  0.00    -0.248 NA
ATOM     31  C   UNL     1       7.527  10.219  -4.399  1.00  0.00     0.031 C 
ATOM     32  C   UNL     1       9.242  10.920   1.386  1.00  0.00     0.029 A 
ATOM     33  C   UNL     1       8.666  10.417   0.230  1.00  0.00     0.049 A 
ATOM     34  H   UNL     1       7.497   8.679  -0.024  1.00  0.00     0.167 HD
ATOM     35  C   UNL     1       8.144  10.399  -2.196  1.00  0.00     0.074 A 
ATOM     36  C   UNL     1       8.208  10.957  -3.532  1.00  0.00     0.031 C 
ATOM     37  C   UNL     1       8.715  10.962  -1.103  1.00  0.00     0.037 A 
BRANCH  24  38
ATOM     38  C   UNL     1       7.843   7.823   4.150  1.00  0.00     0.058 A 
ATOM     39  C   UNL     1       7.216   8.724   5.027  1.00  0.00     0.135 A 
ATOM     40  C   UNL     1       8.741   6.894   4.699  1.00  0.00     0.135 A 
ATOM     41  F   UNL     1       6.349   9.633   4.554  1.00  0.00    -0.206 F 
ATOM     42  C   UNL     1       7.471   8.711   6.396  1.00  0.00     0.059 A 
ATOM     43  C   UNL     1       8.995   6.849   6.066  1.00  0.00     0.059 A 
ATOM     44  F   UNL     1       9.357   6.001   3.908  1.00  0.00    -0.206 F 
ATOM     45  C   UNL     1       8.355   7.762   6.907  1.00  0.00     0.060 A 
BRANCH  45  46
ATOM     46  S   UNL     1       8.701   7.691   8.678  1.00  0.00     0.124 S 
ATOM     47  O   UNL     1       8.020   6.457   9.058  1.00  0.00    -0.237 OA
ATOM     48  O   UNL     1      10.159   7.645   8.709  1.00  0.00    -0.237 OA
ATOM     49  O   UNL     1       8.104   8.920   9.192  1.00  0.00    -0.744 OA
ENDBRANCH  45  46
ENDBRANCH  24  38
BRANCH  25  50
ATOM     50  C   UNL     1       5.965   8.075  -5.667  1.00  0.00     0.058 A 
ATOM     51  C   UNL     1       4.671   8.320  -6.153  1.00  0.00     0.135 A 
ATOM     52  C   UNL     1       6.975   7.802  -6.600  1.00  0.00     0.135 A 
ATOM     53  F   UNL     1       3.667   8.569  -5.297  1.00  0.00    -0.206 F 
ATOM     54  C   UNL     1       4.379   8.268  -7.511  1.00  0.00     0.059 A 
ATOM     55  C   UNL     1       6.713   7.768  -7.965  1.00  0.00     0.059 A 
ATOM     56  F   UNL     1       8.229   7.567  -6.182  1.00  0.00    -0.206 F 
ATOM     57  C   UNL     1       5.409   7.995  -8.411  1.00  0.00     0.060 A 
BRANCH  57  58
ATOM     58  S   UNL     1       5.064   7.872 -10.179  1.00  0.00     0.124 S 
ATOM     59  O   UNL     1       5.675   9.097 -10.682  1.00  0.00    -0.237 OA
ATOM     60  O   UNL     1       5.739   6.628 -10.537  1.00  0.00    -0.237 OA
ATOM     61  O   UNL     1       3.606   7.824 -10.234  1.00  0.00    -0.744 OA
ENDBRANCH  57  58
ENDBRANCH  25  50
BRANCH  37  62
ATOM     62  C   UNL     1       9.469  12.244  -1.307  1.00  0.00     0.058 A 
ATOM     63  C   UNL     1      10.872  12.262  -1.259  1.00  0.00     0.135 A 
ATOM     64  C   UNL     1       8.801  13.463  -1.497  1.00  0.00     0.135 A 
ATOM     65  F   UNL     1      11.556  11.122  -1.073  1.00  0.00    -0.206 F 
ATOM     66  C   UNL     1      11.590  13.447  -1.384  1.00  0.00     0.059 A 
ATOM     67  C   UNL     1       9.499  14.656  -1.645  1.00  0.00     0.059 A 
ATOM     68  F   UNL     1       7.460  13.496  -1.559  1.00  0.00    -0.206 F 
ATOM     69  C   UNL     1      10.894  14.638  -1.585  1.00  0.00     0.060 A 
BRANCH  69  70
ATOM     70  S   UNL     1      11.785  16.201  -1.742  1.00  0.00     0.124 S 
ATOM     71  O   UNL     1      11.630  16.486  -3.164  1.00  0.00    -0.237 OA
ATOM     72  O   UNL     1      11.046  17.074  -0.835  1.00  0.00    -0.237 OA
ATOM     73  O   UNL     1      13.139  15.864  -1.313  1.00  0.00    -0.744 OA
ENDBRANCH  69  70
ENDBRANCH  37  62
ENDBRANCH  11  12
ENDBRANCH   4   6
ENDBRANCH   1   2
BRANCH   1  74
ATOM     74  C   UNL     1       4.931  -2.004   1.671  1.00  0.00     0.023 C 
BRANCH  74  75
ATOM     75  C   UNL     1       4.427  -3.443   1.763  1.00  0.00     0.023 C 
BRANCH  75  76
ATOM     76  C   UNL     1       4.768  -4.338   0.575  1.00  0.00     0.116 C 
BRANCH  76  77
ATOM     77  N   UNL     1       6.198  -4.456   0.340  1.00  0.00    -0.352 N 
ATOM     78  C   UNL     1       6.990  -5.577   0.295  1.00  0.00     0.252 C 
ATOM     79  H   UNL     1       6.669  -3.604   0.190  1.00  0.00     0.163 HD
ATOM     80  O   UNL     1       8.196  -5.479   0.092  1.00  0.00    -0.269 OA
BRANCH  78  81
ATOM     81  C   UNL     1       6.380  -6.908   0.492  1.00  0.00     0.050 A 
ATOM     82  C   UNL     1       5.399  -7.316  -0.419  1.00  0.00     0.034 A 
ATOM     83  C   UNL     1       6.808  -7.759   1.522  1.00  0.00     0.016 A 
ATOM     84  C   UNL     1       4.800  -8.542  -0.224  1.00  0.00     0.112 A 
ATOM     85  C   UNL     1       6.126  -8.974   1.609  1.00  0.00     0.120 A 
ATOM     86  N   UNL     1       5.126  -9.373   0.783  1.00  0.00    -0.264 NA
BRANCH  83  87
ATOM     87  C   UNL     1       7.913  -7.463   2.448  1.00  0.00     0.020 A 
ATOM     88  C   UNL     1       7.879  -6.362   3.321  1.00  0.00     0.015 A 
ATOM     89  C   UNL     1       9.054  -8.287   2.481  1.00  0.00     0.134 A 
ATOM     90  C   UNL     1       8.951  -6.101   4.181  1.00  0.00     0.040 A 
ATOM     91  C   UNL     1      10.123  -8.036   3.333  1.00  0.00     0.079 A 
ATOM     92  F   UNL     1       9.128  -9.359   1.676  1.00  0.00    -0.206 F 
ATOM     93  C   UNL     1      10.061  -6.939   4.178  1.00  0.00     0.126 A 
ATOM     94  F   UNL     1      11.082  -6.689   5.008  1.00  0.00    -0.207 F 
ENDBRANCH  83  87
ENDBRANCH  78  81
ENDBRANCH  76  77
ENDBRANCH  75  76
ENDBRANCH  74  75
ENDBRANCH   1  74
TORSDOF 15
