REMARK SMILES C[C@H](Oc1ccc(C(=O)NCc2ccccc2)cc1)C(=O)NCCCCNC(=O)c1ccc(-c2c3nc(c(-c4c(F)cc(S(=O)(=O)[O-])cc4F)c4ccc([nH]4)c(-c4c(F)cc(S(=O)(=O)[O-])cc4F)c4nc(c(-c5c(F)cc(S(=O)(=O)[O-])cc5F)c5ccc2[nH]5)C=C4)C=C3)cc1
REMARK SMILES IDX 23 1 22 2 20 3 21 4 2 6 1 7 3 8 4 9 5 10 19 11 6 12 18 13
REMARK SMILES IDX 7 14 8 15 9 16 10 17 11 19 12 20 13 21 17 22 14 23 16 24
REMARK SMILES IDX 15 25 24 26 25 27 26 28 27 29 28 30 29 32 30 33 31 34 95 35
REMARK SMILES IDX 32 36 94 37 33 38 34 39 35 40 88 41 36 42 93 43 87 44 89 45
REMARK SMILES IDX 37 46 92 47 86 48 85 49 38 51 72 52 51 53 71 54 52 55 55 56
REMARK SMILES IDX 70 57 90 58 53 59 54 60 69 62 91 63 56 64 39 65 40 66 49 67
REMARK SMILES IDX 41 68 42 69 48 70 50 71 43 72 44 73 45 74 46 75 47 76 73 77
REMARK SMILES IDX 74 78 83 79 75 80 76 81 82 82 84 83 77 84 78 85 79 86 80 87
REMARK SMILES IDX 81 88 57 89 58 90 67 91 59 92 60 93 66 94 68 95 61 96 62 97
REMARK SMILES IDX 63 98 64 99 65 100
REMARK H PARENT 22 5 10 18 27 31 89 50 55 61
REMARK Flexibility Score: inf
ROOT
ATOM      1  C   UNL     1      -1.009  -1.694  -1.289  1.00  0.00     0.116 C 
ENDROOT
BRANCH   1   2
ATOM      2  N   UNL     1      -1.554  -0.363  -1.083  1.00  0.00    -0.353 N 
ATOM      3  C   UNL     1      -0.906   0.844  -1.053  1.00  0.00     0.260 C 
ATOM      4  O   UNL     1      -1.578   1.863  -0.871  1.00  0.00    -0.271 OA
ATOM      5  H   UNL     1      -2.529  -0.323  -0.947  1.00  0.00     0.163 HD
BRANCH   3   6
ATOM      6  C   UNL     1       0.610   0.922  -1.305  1.00  0.00     0.258 C 
ATOM      7  C   UNL     1       0.862   0.557  -2.770  1.00  0.00     0.064 C 
BRANCH   6   8
ATOM      8  O   UNL     1       1.197   0.167  -0.242  1.00  0.00    -0.481 OA
BRANCH   8   9
ATOM      9  C   UNL     1       2.323  -0.578  -0.344  1.00  0.00     0.120 A 
ATOM     10  C   UNL     1       3.357  -0.413  -1.251  1.00  0.00     0.047 A 
ATOM     11  C   UNL     1       2.396  -1.621   0.585  1.00  0.00     0.047 A 
ATOM     12  C   UNL     1       4.417  -1.329  -1.271  1.00  0.00     0.017 A 
ATOM     13  C   UNL     1       3.448  -2.542   0.565  1.00  0.00     0.017 A 
ATOM     14  C   UNL     1       4.481  -2.399  -0.360  1.00  0.00     0.040 A 
BRANCH  14  15
ATOM     15  C   UNL     1       5.618  -3.347  -0.516  1.00  0.00     0.251 C 
ATOM     16  O   UNL     1       6.136  -3.467  -1.627  1.00  0.00    -0.269 OA
ATOM     17  N   UNL     1       6.142  -4.091   0.505  1.00  0.00    -0.348 N 
ATOM     18  H   UNL     1       6.869  -4.689   0.218  1.00  0.00     0.164 HD
BRANCH  17  19
ATOM     19  C   UNL     1       5.849  -4.181   1.921  1.00  0.00     0.152 C 
BRANCH  19  20
ATOM     20  C   UNL     1       5.142  -5.468   2.287  1.00  0.00    -0.029 A 
ATOM     21  C   UNL     1       4.374  -6.195   1.362  1.00  0.00     0.005 A 
ATOM     22  C   UNL     1       5.225  -5.948   3.603  1.00  0.00     0.005 A 
ATOM     23  C   UNL     1       3.732  -7.378   1.734  1.00  0.00     0.000 A 
ATOM     24  C   UNL     1       4.583  -7.133   3.974  1.00  0.00     0.000 A 
ATOM     25  C   UNL     1       3.840  -7.848   3.039  1.00  0.00     0.000 A 
ENDBRANCH  19  20
ENDBRANCH  17  19
ENDBRANCH  14  15
ENDBRANCH   8   9
ENDBRANCH   6   8
ENDBRANCH   3   6
ENDBRANCH   1   2
BRANCH   1  26
ATOM     26  C   UNL     1      -1.333  -2.638  -0.135  1.00  0.00     0.023 C 
BRANCH  26  27
ATOM     27  C   UNL     1      -2.808  -3.020  -0.025  1.00  0.00     0.023 C 
BRANCH  27  28
ATOM     28  C   UNL     1      -3.410  -3.650  -1.277  1.00  0.00     0.116 C 
BRANCH  28  29
ATOM     29  N   UNL     1      -2.744  -4.881  -1.671  1.00  0.00    -0.352 N 
ATOM     30  C   UNL     1      -3.298  -6.096  -2.013  1.00  0.00     0.251 C 
ATOM     31  H   UNL     1      -1.760  -4.842  -1.697  1.00  0.00     0.163 HD
ATOM     32  O   UNL     1      -2.582  -7.070  -2.182  1.00  0.00    -0.269 OA
BRANCH  30  33
ATOM     33  C   UNL     1      -4.769  -6.214  -2.138  1.00  0.00     0.039 A 
ATOM     34  C   UNL     1      -5.415  -7.284  -1.514  1.00  0.00     0.014 A 
ATOM     35  C   UNL     1      -5.508  -5.261  -2.843  1.00  0.00     0.014 A 
ATOM     36  C   UNL     1      -6.810  -7.356  -1.536  1.00  0.00     0.010 A 
ATOM     37  C   UNL     1      -6.900  -5.293  -2.799  1.00  0.00     0.010 A 
ATOM     38  C   UNL     1      -7.566  -6.340  -2.143  1.00  0.00    -0.014 A 
BRANCH  38  39
ATOM     39  C   UNL     1      -9.052  -6.347  -2.091  1.00  0.00     0.031 A 
ATOM     40  C   UNL     1      -9.852  -6.448  -3.362  1.00  0.00     0.074 A 
ATOM     41  C   UNL     1      -9.679  -6.193  -0.908  1.00  0.00     0.049 A 
ATOM     42  N   UNL     1     -11.149  -6.397  -3.526  1.00  0.00    -0.248 NA
ATOM     43  C   UNL     1      -9.095  -6.599  -4.615  1.00  0.00     0.031 C 
ATOM     44  C   UNL     1      -9.015  -6.035   0.389  1.00  0.00     0.029 A 
ATOM     45  N   UNL     1     -11.016  -6.133  -0.602  1.00  0.00    -0.354 N 
ATOM     46  C   UNL     1     -11.363  -6.494  -4.896  1.00  0.00     0.074 A 
ATOM     47  C   UNL     1     -10.060  -6.556  -5.522  1.00  0.00     0.031 C 
ATOM     48  C   UNL     1      -9.945  -5.918   1.349  1.00  0.00     0.029 A 
ATOM     49  C   UNL     1     -11.270  -5.952   0.738  1.00  0.00     0.049 A 
ATOM     50  H   UNL     1     -11.727  -6.212  -1.278  1.00  0.00     0.167 HD
ATOM     51  C   UNL     1     -12.537  -6.551  -5.569  1.00  0.00     0.037 A 
ATOM     52  C   UNL     1     -12.437  -5.819   1.399  1.00  0.00     0.037 A 
ATOM     53  C   UNL     1     -13.831  -6.517  -4.938  1.00  0.00     0.049 A 
ATOM     54  C   UNL     1     -13.728  -5.884   0.628  1.00  0.00     0.074 A 
ATOM     55  C   UNL     1     -15.078  -6.631  -5.528  1.00  0.00     0.029 A 
ATOM     56  N   UNL     1     -14.046  -6.355  -3.577  1.00  0.00    -0.354 N 
ATOM     57  N   UNL     1     -13.911  -6.045  -0.661  1.00  0.00    -0.248 NA
ATOM     58  C   UNL     1     -14.972  -5.755   1.401  1.00  0.00     0.031 C 
ATOM     59  C   UNL     1     -16.048  -6.492  -4.530  1.00  0.00     0.029 A 
ATOM     60  C   UNL     1     -15.405  -6.344  -3.311  1.00  0.00     0.049 A 
ATOM     61  H   UNL     1     -13.337  -6.261  -2.901  1.00  0.00     0.167 HD
ATOM     62  C   UNL     1     -15.289  -6.066  -0.849  1.00  0.00     0.074 A 
ATOM     63  C   UNL     1     -15.892  -5.914   0.459  1.00  0.00     0.031 C 
ATOM     64  C   UNL     1     -15.992  -6.202  -2.002  1.00  0.00     0.037 A 
BRANCH  51  65
ATOM     65  C   UNL     1     -12.479  -6.661  -7.069  1.00  0.00     0.058 A 
ATOM     66  C   UNL     1     -12.042  -7.834  -7.705  1.00  0.00     0.135 A 
ATOM     67  C   UNL     1     -12.909  -5.598  -7.880  1.00  0.00     0.135 A 
ATOM     68  F   UNL     1     -11.606  -8.876  -6.979  1.00  0.00    -0.206 F 
ATOM     69  C   UNL     1     -12.007  -7.940  -9.092  1.00  0.00     0.059 A 
ATOM     70  C   UNL     1     -12.910  -5.693  -9.269  1.00  0.00     0.059 A 
ATOM     71  F   UNL     1     -13.337  -4.454  -7.325  1.00  0.00    -0.206 F 
ATOM     72  C   UNL     1     -12.444  -6.864  -9.866  1.00  0.00     0.060 A 
BRANCH  72  73
ATOM     73  S   UNL     1     -12.402  -7.023 -11.663  1.00  0.00     0.124 S 
ATOM     74  O   UNL     1     -10.970  -6.940 -11.929  1.00  0.00    -0.237 OA
ATOM     75  O   UNL     1     -13.011  -8.333 -11.875  1.00  0.00    -0.237 OA
ATOM     76  O   UNL     1     -13.193  -5.886 -12.124  1.00  0.00    -0.744 OA
ENDBRANCH  72  73
ENDBRANCH  51  65
BRANCH  52  77
ATOM     77  C   UNL     1     -12.441  -5.632   2.875  1.00  0.00     0.058 A 
ATOM     78  C   UNL     1     -12.903  -6.644   3.729  1.00  0.00     0.135 A 
ATOM     79  C   UNL     1     -11.982  -4.442   3.462  1.00  0.00     0.135 A 
ATOM     80  F   UNL     1     -13.359  -7.798   3.216  1.00  0.00    -0.206 F 
ATOM     81  C   UNL     1     -12.931  -6.478   5.110  1.00  0.00     0.059 A 
ATOM     82  C   UNL     1     -11.974  -4.263   4.842  1.00  0.00     0.059 A 
ATOM     83  F   UNL     1     -11.514  -3.449   2.690  1.00  0.00    -0.206 F 
ATOM     84  C   UNL     1     -12.462  -5.283   5.657  1.00  0.00     0.060 A 
BRANCH  84  85
ATOM     85  S   UNL     1     -12.463  -5.093   7.453  1.00  0.00     0.124 S 
ATOM     86  O   UNL     1     -13.884  -4.914   7.728  1.00  0.00    -0.237 OA
ATOM     87  O   UNL     1     -11.881  -6.357   7.895  1.00  0.00    -0.237 OA
ATOM     88  O   UNL     1     -11.624  -3.917   7.667  1.00  0.00    -0.744 OA
ENDBRANCH  84  85
ENDBRANCH  52  77
BRANCH  64  89
ATOM     89  C   UNL     1     -17.492  -6.232  -1.901  1.00  0.00     0.058 A 
ATOM     90  C   UNL     1     -18.237  -5.077  -1.615  1.00  0.00     0.135 A 
ATOM     91  C   UNL     1     -18.195  -7.422  -2.146  1.00  0.00     0.135 A 
ATOM     92  F   UNL     1     -17.614  -3.915  -1.366  1.00  0.00    -0.206 F 
ATOM     93  C   UNL     1     -19.627  -5.107  -1.554  1.00  0.00     0.059 A 
ATOM     94  C   UNL     1     -19.586  -7.469  -2.119  1.00  0.00     0.059 A 
ATOM     95  F   UNL     1     -17.532  -8.553  -2.433  1.00  0.00    -0.206 F 
ATOM     96  C   UNL     1     -20.293  -6.308  -1.810  1.00  0.00     0.060 A 
BRANCH  96  97
ATOM     97  S   UNL     1     -22.097  -6.324  -1.763  1.00  0.00     0.124 S 
ATOM     98  O   UNL     1     -22.355  -6.249  -0.329  1.00  0.00    -0.237 OA
ATOM     99  O   UNL     1     -22.441  -5.133  -2.532  1.00  0.00    -0.237 OA
ATOM    100  O   UNL     1     -22.442  -7.593  -2.397  1.00  0.00    -0.744 OA
ENDBRANCH  96  97
ENDBRANCH  64  89
ENDBRANCH  38  39
ENDBRANCH  30  33
ENDBRANCH  28  29
ENDBRANCH  27  28
ENDBRANCH  26  27
ENDBRANCH   1  26
TORSDOF 19
