REMARK SMILES O=C(CCS(=O)(=O)c1ccc2[nH]c(=O)oc2c1)NCCCCNC(=O)c1ccc(-c2c3nc(c(-c4c(F)cc(S(=O)(=O)[O-])cc4F)c4ccc([nH]4)c(-c4c(F)cc(S(=O)(=O)[O-])cc4F)c4nc(c(-c5c(F)cc(S(=O)(=O)[O-])cc5F)c5ccc2[nH]5)C=C4)C=C3)cc1
REMARK SMILES IDX 20 1 19 2 18 3 1 4 2 5 3 7 4 8 5 9 6 10 7 11 8 12 9 13 17 14
REMARK SMILES IDX 10 15 16 16 11 17 15 18 12 19 13 20 14 22 21 23 22 24 23 25
REMARK SMILES IDX 24 26 25 28 26 29 27 30 91 31 28 32 90 33 29 34 30 35 31 36
REMARK SMILES IDX 84 37 32 38 89 39 83 40 85 41 33 42 88 43 82 44 81 45 34 47
REMARK SMILES IDX 68 48 47 49 67 50 48 51 51 52 66 53 86 54 49 55 50 56 65 58
REMARK SMILES IDX 87 59 52 60 35 61 36 62 45 63 37 64 38 65 44 66 46 67 39 68
REMARK SMILES IDX 40 69 41 70 42 71 43 72 69 73 70 74 79 75 71 76 72 77 78 78
REMARK SMILES IDX 80 79 73 80 74 81 75 82 76 83 77 84 53 85 54 86 63 87 55 88
REMARK SMILES IDX 56 89 62 90 64 91 57 92 58 93 59 94 60 95 61 96
REMARK H PARENT 18 6 12 21 23 27 85 46 51 57
REMARK Flexibility Score: inf
ROOT
ATOM      1  C   UNL     1       2.910  -4.079   0.411  1.00  0.00     0.023 C 
ENDROOT
BRANCH   1   2
ATOM      2  C   UNL     1       2.182  -2.724   0.317  1.00  0.00     0.116 C 
BRANCH   2   3
ATOM      3  N   UNL     1       2.884  -1.571  -0.220  1.00  0.00    -0.356 N 
ATOM      4  O   UNL     1       1.193  -0.108   0.339  1.00  0.00    -0.275 OA
ATOM      5  C   UNL     1       2.294  -0.321  -0.165  1.00  0.00     0.221 C 
ATOM      6  H   UNL     1       3.776  -1.680  -0.622  1.00  0.00     0.163 HD
BRANCH   5   7
ATOM      7  C   UNL     1       3.114   0.823  -0.715  1.00  0.00     0.116 C 
BRANCH   7   8
ATOM      8  C   UNL     1       3.555   1.775   0.390  1.00  0.00     0.152 C 
BRANCH   8   9
ATOM      9  S   UNL     1       4.711   1.068   1.543  1.00  0.00     0.179 S 
ATOM     10  O   UNL     1       5.478   0.062   0.829  1.00  0.00    -0.224 OA
ATOM     11  O   UNL     1       5.380   2.155   2.231  1.00  0.00    -0.224 OA
BRANCH   9  12
ATOM     12  C   UNL     1       3.726   0.236   2.770  1.00  0.00     0.071 A 
ATOM     13  C   UNL     1       2.964   0.960   3.708  1.00  0.00     0.023 A 
ATOM     14  C   UNL     1       3.699  -1.154   2.756  1.00  0.00     0.069 A 
ATOM     15  C   UNL     1       2.102   0.286   4.591  1.00  0.00     0.031 A 
ATOM     16  C   UNL     1       2.805  -1.783   3.591  1.00  0.00     0.157 A 
ATOM     17  C   UNL     1       2.026  -1.082   4.476  1.00  0.00     0.087 A 
ATOM     18  O   UNL     1       2.480  -3.127   3.553  1.00  0.00    -0.408 OA
ATOM     19  N   UNL     1       1.195  -2.000   5.057  1.00  0.00    -0.287 N 
ATOM     20  C   UNL     1       1.434  -3.216   4.468  1.00  0.00     0.417 A 
ATOM     21  H   UNL     1       0.542  -1.820   5.771  1.00  0.00     0.173 HD
ATOM     22  O   UNL     1       0.784  -4.238   4.655  1.00  0.00    -0.224 OA
ENDBRANCH   9  12
ENDBRANCH   8   9
ENDBRANCH   7   8
ENDBRANCH   5   7
ENDBRANCH   2   3
ENDBRANCH   1   2
BRANCH   1  23
ATOM     23  C   UNL     1       4.416  -4.238   0.701  1.00  0.00     0.023 C 
BRANCH  23  24
ATOM     24  C   UNL     1       5.016  -4.372   2.116  1.00  0.00     0.116 C 
BRANCH  24  25
ATOM     25  N   UNL     1       4.244  -5.061   3.132  1.00  0.00    -0.352 N 
ATOM     26  C   UNL     1       4.667  -5.421   4.398  1.00  0.00     0.251 C 
ATOM     27  H   UNL     1       3.318  -5.298   2.895  1.00  0.00     0.163 HD
ATOM     28  O   UNL     1       3.881  -5.828   5.246  1.00  0.00    -0.269 OA
BRANCH  26  29
ATOM     29  C   UNL     1       6.105  -5.359   4.718  1.00  0.00     0.039 A 
ATOM     30  C   UNL     1       6.780  -6.562   4.936  1.00  0.00     0.014 A 
ATOM     31  C   UNL     1       6.785  -4.140   4.743  1.00  0.00     0.014 A 
ATOM     32  C   UNL     1       8.166  -6.553   5.079  1.00  0.00     0.010 A 
ATOM     33  C   UNL     1       8.175  -4.139   4.830  1.00  0.00     0.010 A 
ATOM     34  C   UNL     1       8.877  -5.347   4.969  1.00  0.00    -0.014 A 
BRANCH  34  35
ATOM     35  C   UNL     1      10.360  -5.349   4.931  1.00  0.00     0.031 A 
ATOM     36  C   UNL     1      11.144  -4.693   6.029  1.00  0.00     0.074 A 
ATOM     37  C   UNL     1      10.979  -5.890   3.861  1.00  0.00     0.049 A 
ATOM     38  N   UNL     1      12.437  -4.544   6.144  1.00  0.00    -0.248 NA
ATOM     39  C   UNL     1      10.370  -4.098   7.130  1.00  0.00     0.031 C 
ATOM     40  C   UNL     1      10.297  -6.497   2.714  1.00  0.00     0.029 A 
ATOM     41  N   UNL     1      12.309  -6.012   3.553  1.00  0.00    -0.354 N 
ATOM     42  C   UNL     1      12.632  -3.834   7.323  1.00  0.00     0.074 A 
ATOM     43  C   UNL     1      11.322  -3.528   7.853  1.00  0.00     0.031 C 
ATOM     44  C   UNL     1      11.211  -6.947   1.841  1.00  0.00     0.029 A 
ATOM     45  C   UNL     1      12.542  -6.627   2.343  1.00  0.00     0.049 A 
ATOM     46  H   UNL     1      13.030  -5.690   4.141  1.00  0.00     0.167 HD
ATOM     47  C   UNL     1      13.801  -3.494   7.918  1.00  0.00     0.037 A 
ATOM     48  C   UNL     1      13.700  -6.894   1.710  1.00  0.00     0.037 A 
ATOM     49  C   UNL     1      15.092  -3.819   7.366  1.00  0.00     0.049 A 
ATOM     50  C   UNL     1      14.986  -6.510   2.390  1.00  0.00     0.074 A 
ATOM     51  C   UNL     1      16.345  -3.566   7.892  1.00  0.00     0.029 A 
ATOM     52  N   UNL     1      15.291  -4.468   6.153  1.00  0.00    -0.354 N 
ATOM     53  N   UNL     1      15.156  -5.897   3.539  1.00  0.00    -0.248 NA
ATOM     54  C   UNL     1      16.234  -6.860   1.703  1.00  0.00     0.031 C 
ATOM     55  C   UNL     1      17.301  -4.015   6.975  1.00  0.00     0.029 A 
ATOM     56  C   UNL     1      16.645  -4.607   5.904  1.00  0.00     0.049 A 
ATOM     57  H   UNL     1      14.573  -4.783   5.557  1.00  0.00     0.167 HD
ATOM     58  C   UNL     1      16.530  -5.809   3.725  1.00  0.00     0.074 A 
ATOM     59  C   UNL     1      17.143  -6.449   2.577  1.00  0.00     0.031 C 
ATOM     60  C   UNL     1      17.224  -5.252   4.750  1.00  0.00     0.037 A 
BRANCH  47  61
ATOM     61  C   UNL     1      13.731  -2.739   9.220  1.00  0.00     0.058 A 
ATOM     62  C   UNL     1      13.225  -3.330  10.390  1.00  0.00     0.135 A 
ATOM     63  C   UNL     1      14.186  -1.413   9.308  1.00  0.00     0.135 A 
ATOM     64  F   UNL     1      12.761  -4.590  10.366  1.00  0.00    -0.206 F 
ATOM     65  C   UNL     1      13.137  -2.625  11.587  1.00  0.00     0.059 A 
ATOM     66  C   UNL     1      14.139  -0.699  10.504  1.00  0.00     0.059 A 
ATOM     67  F   UNL     1      14.680  -0.793   8.225  1.00  0.00    -0.206 F 
ATOM     68  C   UNL     1      13.597  -1.309  11.634  1.00  0.00     0.060 A 
BRANCH  68  69
ATOM     69  S   UNL     1      13.478  -0.412  13.196  1.00  0.00     0.124 S 
ATOM     70  O   UNL     1      12.037  -0.205  13.306  1.00  0.00    -0.237 OA
ATOM     71  O   UNL     1      14.055  -1.360  14.144  1.00  0.00    -0.237 OA
ATOM     72  O   UNL     1      14.267   0.793  12.960  1.00  0.00    -0.744 OA
ENDBRANCH  68  69
ENDBRANCH  47  61
BRANCH  48  73
ATOM     73  C   UNL     1      13.689  -7.574   0.384  1.00  0.00     0.058 A 
ATOM     74  C   UNL     1      14.159  -8.888   0.235  1.00  0.00     0.135 A 
ATOM     75  C   UNL     1      13.176  -6.936  -0.758  1.00  0.00     0.135 A 
ATOM     76  F   UNL     1      14.661  -9.543   1.292  1.00  0.00    -0.206 F 
ATOM     77  C   UNL     1      14.136  -9.539  -0.995  1.00  0.00     0.059 A 
ATOM     78  C   UNL     1      13.115  -7.577  -1.993  1.00  0.00     0.059 A 
ATOM     79  F   UNL     1      12.694  -5.687  -0.671  1.00  0.00    -0.206 F 
ATOM     80  C   UNL     1      13.607  -8.876  -2.104  1.00  0.00     0.060 A 
BRANCH  80  81
ATOM     81  S   UNL     1      13.535  -9.749  -3.684  1.00  0.00     0.124 S 
ATOM     82  O   UNL     1      14.944  -9.807  -4.053  1.00  0.00    -0.237 OA
ATOM     83  O   UNL     1      12.921 -11.017  -3.304  1.00  0.00    -0.237 OA
ATOM     84  O   UNL     1      12.702  -8.880  -4.511  1.00  0.00    -0.744 OA
ENDBRANCH  80  81
ENDBRANCH  48  73
BRANCH  60  85
ATOM     85  C   UNL     1      18.723  -5.339   4.688  1.00  0.00     0.058 A 
ATOM     86  C   UNL     1      19.471  -4.582   3.773  1.00  0.00     0.135 A 
ATOM     87  C   UNL     1      19.421  -6.151   5.596  1.00  0.00     0.135 A 
ATOM     88  F   UNL     1      18.850  -3.796   2.878  1.00  0.00    -0.206 F 
ATOM     89  C   UNL     1      20.859  -4.645   3.745  1.00  0.00     0.059 A 
ATOM     90  C   UNL     1      20.810  -6.203   5.609  1.00  0.00     0.059 A 
ATOM     91  F   UNL     1      18.753  -6.887   6.499  1.00  0.00    -0.206 F 
ATOM     92  C   UNL     1      21.520  -5.456   4.670  1.00  0.00     0.060 A 
BRANCH  92  93
ATOM     93  S   UNL     1      23.323  -5.498   4.646  1.00  0.00     0.124 S 
ATOM     94  O   UNL     1      23.582  -6.255   3.425  1.00  0.00    -0.237 OA
ATOM     95  O   UNL     1      23.667  -4.081   4.598  1.00  0.00    -0.237 OA
ATOM     96  O   UNL     1      23.665  -6.179   5.891  1.00  0.00    -0.744 OA
ENDBRANCH  92  93
ENDBRANCH  60  85
ENDBRANCH  34  35
ENDBRANCH  26  29
ENDBRANCH  24  25
ENDBRANCH  23  24
ENDBRANCH   1  23
TORSDOF 17
