REMARK SMILES COC(=O)c1ccc2c(c1)=N[C@H](c1cn(CCC(=O)NCCCCNC(=O)c3ccc(-c4c5nc(c(-c6c(F)cc(S(=O)(=O)[O-])cc6F)c6ccc([nH]6)c(-c6c(F)cc(S(=O)(=O)[O-])cc6F)c6nc(c(-c7c(F)cc(S(=O)(=O)[O-])cc7F)c7ccc4[nH]7)C=C6)C=C5)cc3)c3ccccc13)N=2
REMARK SMILES IDX 21 1 20 2 18 3 19 4 17 6 16 7 15 8 13 9 14 10 99 11 94 12
REMARK SMILES IDX 98 13 95 14 97 15 96 16 12 17 5 18 6 19 10 20 7 21 9 22 8 23
REMARK SMILES IDX 11 24 100 25 3 26 4 27 2 28 1 29 22 30 23 31 24 32 25 33
REMARK SMILES IDX 26 34 27 36 28 37 29 38 93 39 30 40 92 41 31 42 32 43 33 44
REMARK SMILES IDX 86 45 34 46 91 47 85 48 87 49 35 50 90 51 84 52 83 53 36 55
REMARK SMILES IDX 70 56 49 57 69 58 50 59 53 60 68 61 88 62 51 63 52 64 67 66
REMARK SMILES IDX 89 67 54 68 37 69 38 70 47 71 39 72 40 73 46 74 48 75 41 76
REMARK SMILES IDX 42 77 43 78 44 79 45 80 71 81 72 82 81 83 73 84 74 85 80 86
REMARK SMILES IDX 82 87 75 88 76 89 77 90 78 91 79 92 55 93 56 94 65 95 57 96
REMARK SMILES IDX 58 97 64 98 66 99 59 100 60 101 61 102 62 103 63 104
REMARK H PARENT 20 5 25 35 87 54 53 65
REMARK Flexibility Score: inf
ROOT
ATOM      1  C   UNL     1      -2.048  -1.159  12.034  1.00  0.00     0.116 C 
ENDROOT
BRANCH   1   2
ATOM      2  N   UNL     1      -1.956  -2.606  12.178  1.00  0.00    -0.356 N 
ATOM      3  C   UNL     1      -0.909  -3.452  12.420  1.00  0.00     0.221 C 
ATOM      4  O   UNL     1      -1.185  -4.626  12.688  1.00  0.00    -0.275 OA
ATOM      5  H   UNL     1      -2.821  -3.067  12.082  1.00  0.00     0.163 HD
BRANCH   3   6
ATOM      6  C   UNL     1       0.540  -2.993  12.455  1.00  0.00     0.122 C 
BRANCH   6   7
ATOM      7  C   UNL     1       1.464  -3.827  11.529  1.00  0.00     0.132 C 
BRANCH   7   8
ATOM      8  N   UNL     1       1.528  -3.365  10.131  1.00  0.00    -0.347 N 
ATOM      9  C   UNL     1       0.481  -1.664   9.203  1.00  0.00     0.024 A 
ATOM     10  C   UNL     1       1.661  -2.021   9.864  1.00  0.00     0.094 A 
ATOM     11  C   UNL     1      -0.358  -2.854   9.286  1.00  0.00     0.007 A 
ATOM     12  C   UNL     1       0.655  -3.800   9.151  1.00  0.00     0.048 A 
ATOM     13  C   UNL     1      -1.600  -3.276   8.796  1.00  0.00     0.011 A 
ATOM     14  C   UNL     1       0.732  -4.510   7.940  1.00  0.00     0.027 A 
ATOM     15  C   UNL     1      -1.647  -4.113   7.693  1.00  0.00     0.001 A 
ATOM     16  C   UNL     1      -0.452  -4.594   7.181  1.00  0.00     0.002 A 
BRANCH   9  17
ATOM     17  C   UNL     1       0.341  -0.365   8.462  1.00  0.00     0.255 C 
ATOM     18  C   UNL     1       0.629  -0.080   3.974  1.00  0.00     0.062 A 
ATOM     19  C   UNL     1      -0.743   0.369   4.167  1.00  0.00     0.018 A 
ATOM     20  C   UNL     1       1.440  -0.340   5.014  1.00  0.00     0.046 A 
ATOM     21  C   UNL     1      -1.354   0.371   5.360  1.00  0.00     0.031 A 
ATOM     22  C   UNL     1       0.874  -0.244   6.360  1.00  0.00     0.087 A 
ATOM     23  C   UNL     1      -0.575  -0.034   6.530  1.00  0.00     0.086 A 
ATOM     24  N   UNL     1       1.478  -0.312   7.490  1.00  0.00    -0.252 NA
ATOM     25  N   UNL     1      -0.949  -0.167   7.755  1.00  0.00    -0.252 NA
BRANCH  18  26
ATOM     26  C   UNL     1       1.230  -0.302   2.619  1.00  0.00     0.337 C 
ATOM     27  O   UNL     1       2.284  -0.869   2.436  1.00  0.00    -0.246 OA
BRANCH  26  28
ATOM     28  O   UNL     1       0.442   0.248   1.655  1.00  0.00    -0.465 OA
ATOM     29  C   UNL     1       0.896  -0.006   0.322  1.00  0.00     0.282 C 
ENDBRANCH  26  28
ENDBRANCH  18  26
ENDBRANCH   9  17
ENDBRANCH   7   8
ENDBRANCH   6   7
ENDBRANCH   3   6
ENDBRANCH   1   2
BRANCH   1  30
ATOM     30  C   UNL     1      -2.626  -0.613  10.713  1.00  0.00     0.023 C 
BRANCH  30  31
ATOM     31  C   UNL     1      -3.864  -1.270  10.064  1.00  0.00     0.023 C 
BRANCH  31  32
ATOM     32  C   UNL     1      -5.030  -0.346   9.720  1.00  0.00     0.116 C 
BRANCH  32  33
ATOM     33  N   UNL     1      -4.606   0.859   9.038  1.00  0.00    -0.352 N 
ATOM     34  C   UNL     1      -4.538   1.315   7.756  1.00  0.00     0.251 C 
ATOM     35  H   UNL     1      -4.276   1.533   9.675  1.00  0.00     0.163 HD
ATOM     36  O   UNL     1      -4.134   2.479   7.642  1.00  0.00    -0.269 OA
BRANCH  34  37
ATOM     37  C   UNL     1      -4.879   0.582   6.505  1.00  0.00     0.039 A 
ATOM     38  C   UNL     1      -4.907  -0.801   6.334  1.00  0.00     0.014 A 
ATOM     39  C   UNL     1      -5.031   1.401   5.362  1.00  0.00     0.014 A 
ATOM     40  C   UNL     1      -5.027  -1.335   5.037  1.00  0.00     0.010 A 
ATOM     41  C   UNL     1      -5.141   0.873   4.077  1.00  0.00     0.010 A 
ATOM     42  C   UNL     1      -5.108  -0.502   3.900  1.00  0.00    -0.014 A 
BRANCH  42  43
ATOM     43  C   UNL     1      -5.392  -1.092   2.577  1.00  0.00     0.031 A 
ATOM     44  C   UNL     1      -6.665  -1.862   2.577  1.00  0.00     0.074 A 
ATOM     45  C   UNL     1      -4.732  -0.872   1.412  1.00  0.00     0.049 A 
ATOM     46  N   UNL     1      -6.802  -3.145   2.527  1.00  0.00    -0.248 NA
ATOM     47  C   UNL     1      -7.923  -1.142   2.840  1.00  0.00     0.031 C 
ATOM     48  C   UNL     1      -3.654   0.092   1.174  1.00  0.00     0.029 A 
ATOM     49  N   UNL     1      -4.928  -1.404   0.157  1.00  0.00    -0.354 N 
ATOM     50  C   UNL     1      -8.174  -3.370   2.462  1.00  0.00     0.074 A 
ATOM     51  C   UNL     1      -8.804  -2.145   2.875  1.00  0.00     0.031 C 
ATOM     52  C   UNL     1      -3.443   0.233  -0.156  1.00  0.00     0.029 A 
ATOM     53  C   UNL     1      -4.261  -0.731  -0.874  1.00  0.00     0.049 A 
ATOM     54  H   UNL     1      -5.492  -2.194  -0.003  1.00  0.00     0.167 HD
ATOM     55  C   UNL     1      -8.661  -4.430   1.760  1.00  0.00     0.037 A 
ATOM     56  C   UNL     1      -4.358  -0.942  -2.216  1.00  0.00     0.037 A 
ATOM     57  C   UNL     1      -7.609  -5.362   1.449  1.00  0.00     0.049 A 
ATOM     58  C   UNL     1      -4.801  -2.340  -2.410  1.00  0.00     0.074 A 
ATOM     59  C   UNL     1      -6.873  -6.320   2.109  1.00  0.00     0.029 A 
ATOM     60  N   UNL     1      -6.936  -5.047   0.301  1.00  0.00    -0.354 N 
ATOM     61  N   UNL     1      -4.071  -3.374  -2.096  1.00  0.00    -0.248 NA
ATOM     62  C   UNL     1      -6.208  -2.619  -2.677  1.00  0.00     0.031 C 
ATOM     63  C   UNL     1      -5.662  -6.476   1.370  1.00  0.00     0.029 A 
ATOM     64  C   UNL     1      -5.707  -5.642   0.256  1.00  0.00     0.049 A 
ATOM     65  H   UNL     1      -7.294  -4.464  -0.407  1.00  0.00     0.167 HD
ATOM     66  C   UNL     1      -4.990  -4.320  -1.700  1.00  0.00     0.074 A 
ATOM     67  C   UNL     1      -6.268  -3.879  -2.243  1.00  0.00     0.031 C 
ATOM     68  C   UNL     1      -4.708  -5.173  -0.677  1.00  0.00     0.037 A 
BRANCH  55  69
ATOM     69  C   UNL     1      -9.914  -4.389   0.904  1.00  0.00     0.058 A 
ATOM     70  C   UNL     1     -10.385  -5.585   0.318  1.00  0.00     0.135 A 
ATOM     71  C   UNL     1     -10.472  -3.200   0.382  1.00  0.00     0.135 A 
ATOM     72  F   UNL     1      -9.905  -6.774   0.715  1.00  0.00    -0.206 F 
ATOM     73  C   UNL     1     -11.302  -5.593  -0.736  1.00  0.00     0.059 A 
ATOM     74  C   UNL     1     -11.424  -3.189  -0.632  1.00  0.00     0.059 A 
ATOM     75  F   UNL     1     -10.049  -1.988   0.757  1.00  0.00    -0.206 F 
ATOM     76  C   UNL     1     -11.811  -4.387  -1.208  1.00  0.00     0.060 A 
BRANCH  76  77
ATOM     77  S   UNL     1     -12.950  -4.387  -2.604  1.00  0.00     0.124 S 
ATOM     78  O   UNL     1     -12.088  -4.844  -3.687  1.00  0.00    -0.237 OA
ATOM     79  O   UNL     1     -13.972  -5.327  -2.156  1.00  0.00    -0.237 OA
ATOM     80  O   UNL     1     -13.382  -2.994  -2.683  1.00  0.00    -0.744 OA
ENDBRANCH  76  77
ENDBRANCH  55  69
BRANCH  56  81
ATOM     81  C   UNL     1      -4.300   0.005  -3.370  1.00  0.00     0.058 A 
ATOM     82  C   UNL     1      -4.221  -0.463  -4.701  1.00  0.00     0.135 A 
ATOM     83  C   UNL     1      -4.662   1.355  -3.218  1.00  0.00     0.135 A 
ATOM     84  F   UNL     1      -3.876  -1.735  -4.952  1.00  0.00    -0.206 F 
ATOM     85  C   UNL     1      -4.572   0.330  -5.801  1.00  0.00     0.059 A 
ATOM     86  C   UNL     1      -5.010   2.168  -4.301  1.00  0.00     0.059 A 
ATOM     87  F   UNL     1      -4.782   1.898  -1.997  1.00  0.00    -0.206 F 
ATOM     88  C   UNL     1      -5.000   1.637  -5.587  1.00  0.00     0.060 A 
BRANCH  88  89
ATOM     89  S   UNL     1      -5.666   2.592  -6.976  1.00  0.00     0.124 S 
ATOM     90  O   UNL     1      -4.479   2.801  -7.798  1.00  0.00    -0.237 OA
ATOM     91  O   UNL     1      -6.667   1.683  -7.523  1.00  0.00    -0.237 OA
ATOM     92  O   UNL     1      -6.199   3.792  -6.336  1.00  0.00    -0.744 OA
ENDBRANCH  88  89
ENDBRANCH  56  81
BRANCH  68  93
ATOM     93  C   UNL     1      -3.278  -5.540  -0.441  1.00  0.00     0.058 A 
ATOM     94  C   UNL     1      -2.281  -4.678   0.043  1.00  0.00     0.135 A 
ATOM     95  C   UNL     1      -2.930  -6.883  -0.655  1.00  0.00     0.135 A 
ATOM     96  F   UNL     1      -2.554  -3.397   0.332  1.00  0.00    -0.206 F 
ATOM     97  C   UNL     1      -0.984  -5.136   0.287  1.00  0.00     0.059 A 
ATOM     98  C   UNL     1      -1.656  -7.365  -0.392  1.00  0.00     0.059 A 
ATOM     99  F   UNL     1      -3.854  -7.756  -1.088  1.00  0.00    -0.206 F 
ATOM    100  C   UNL     1      -0.685  -6.484   0.071  1.00  0.00     0.060 A 
BRANCH 100 101
ATOM    101  S   UNL     1       0.970  -7.094   0.453  1.00  0.00     0.124 S 
ATOM    102  O   UNL     1       1.784  -6.422  -0.554  1.00  0.00    -0.237 OA
ATOM    103  O   UNL     1       1.157  -6.644   1.829  1.00  0.00    -0.237 OA
ATOM    104  O   UNL     1       0.847  -8.541   0.290  1.00  0.00    -0.744 OA
ENDBRANCH 100 101
ENDBRANCH  68  93
ENDBRANCH  42  43
ENDBRANCH  34  37
ENDBRANCH  32  33
ENDBRANCH  31  32
ENDBRANCH  30  31
ENDBRANCH   1  30
TORSDOF 19
