REMARK SMILES Cc1cc([C@@H]2[C@H](C(=O)NCCCCNC(=O)c3ccc(-c4c5nc(c(-c6c(F)cc(S(=O)(=O)[O-])cc6F)c6ccc([nH]6)c(-c6c(F)cc(S(=O)(=O)[O-])cc6F)c6nc(c(-c7c(F)cc(S(=O)(=O)[O-])cc7F)c7ccc4[nH]7)C=C6)C=C5)cc3)CCCC(=O)N2C)ccc1Br
REMARK SMILES IDX 11 1 10 2 9 3 7 4 8 5 6 7 5 8 4 9 1 10 2 11 3 12 92 13 91 14
REMARK SMILES IDX 93 15 90 16 88 17 89 18 86 19 87 20 85 21 83 23 84 24 12 26
REMARK SMILES IDX 13 27 14 28 15 29 16 31 17 32 18 33 82 34 19 35 81 36 20 37
REMARK SMILES IDX 21 38 22 39 75 40 23 41 80 42 74 43 76 44 24 45 79 46 73 47
REMARK SMILES IDX 72 48 25 50 59 51 38 52 58 53 39 54 42 55 57 56 77 57 40 58
REMARK SMILES IDX 41 59 56 61 78 62 43 63 26 64 27 65 36 66 28 67 29 68 35 69
REMARK SMILES IDX 37 70 30 71 31 72 32 73 33 74 34 75 60 76 61 77 70 78 62 79
REMARK SMILES IDX 63 80 69 81 71 82 64 83 65 84 66 85 67 86 68 87 44 88 45 89
REMARK SMILES IDX 54 90 46 91 47 92 53 93 55 94 48 95 49 96 50 97 51 98 52 99
REMARK H PARENT 9 6 14 30 76 49 42 60
REMARK Flexibility Score: 90.00
ROOT
ATOM      1  C   UNL     1       5.695  -2.752   2.268  1.00  0.00     0.023 C 
ENDROOT
BRANCH   1   2
ATOM      2  C   UNL     1       6.270  -2.686   0.859  1.00  0.00     0.116 C 
BRANCH   2   3
ATOM      3  N   UNL     1       5.302  -2.847  -0.202  1.00  0.00    -0.356 N 
ATOM      4  C   UNL     1       4.934  -2.042  -1.227  1.00  0.00     0.225 C 
ATOM      5  O   UNL     1       4.364  -2.610  -2.169  1.00  0.00    -0.275 OA
ATOM      6  H   UNL     1       4.818  -3.704  -0.174  1.00  0.00     0.163 HD
BRANCH   4   7
ATOM      7  C   UNL     1       5.134  -0.524  -1.300  1.00  0.00     0.105 C 
BRANCH   7   8
ATOM      8  C   UNL     1       4.582   0.387  -0.180  1.00  0.00     0.127 C 
BRANCH   8   9
ATOM      9  C   UNL     1       3.037   0.341  -0.126  1.00  0.00    -0.024 A 
ATOM     10  C   UNL     1       0.197  -2.220   0.035  1.00  0.00     0.045 C 
ATOM     11  C   UNL     1       0.900  -0.890  -0.017  1.00  0.00    -0.037 A 
ATOM     12  C   UNL     1       2.308  -0.861  -0.027  1.00  0.00     0.010 A 
ATOM     13  C   UNL     1       0.210   0.326  -0.061  1.00  0.00     0.020 A 
ATOM     14  C   UNL     1       0.911   1.532  -0.123  1.00  0.00     0.016 A 
ATOM     15  Br  UNL     1      -1.687   0.408  -0.032  1.00  0.00    -0.051 Br
ATOM     16  C   UNL     1       2.309   1.540  -0.161  1.00  0.00     0.007 A 
ENDBRANCH   8   9
BRANCH   8  17
ATOM     17  N   UNL     1       5.248   0.348   1.137  1.00  0.00    -0.338 N 
ATOM     18  C   UNL     1       4.394   0.334   2.333  1.00  0.00     0.147 C 
BRANCH  17  19
ATOM     19  C   UNL     1       6.586   0.649   1.362  1.00  0.00     0.222 C 
ATOM     20  O   UNL     1       7.003   0.847   2.510  1.00  0.00    -0.275 OA
BRANCH  19  21
ATOM     21  C   UNL     1       7.595   0.819   0.232  1.00  0.00     0.100 CG0
ATOM     22  G   UNL     1       7.671  -0.124  -0.957  1.00  0.00     0.000 G0
ENDBRANCH  19  21
ENDBRANCH  17  19
ENDBRANCH   8  17
ENDBRANCH   7   8
BRANCH   7  23
ATOM     23  C   UNL     1       6.478  -0.084  -1.881  1.00  0.00     0.016 C 
BRANCH  23  24
ATOM     24  C   UNL     1       7.671  -0.124  -0.957  1.00  0.00     0.011 CG0
ATOM     25  G   UNL     1       7.595   0.819   0.232  1.00  0.00     0.000 G0
ENDBRANCH  23  24
ENDBRANCH   7  23
ENDBRANCH   4   7
ENDBRANCH   2   3
ENDBRANCH   1   2
BRANCH   1  26
ATOM     26  C   UNL     1       6.073  -3.996   3.059  1.00  0.00     0.023 C 
BRANCH  26  27
ATOM     27  C   UNL     1       7.563  -4.303   3.151  1.00  0.00     0.116 C 
BRANCH  27  28
ATOM     28  N   UNL     1       8.366  -3.315   3.857  1.00  0.00    -0.352 N 
ATOM     29  C   UNL     1       9.425  -3.563   4.715  1.00  0.00     0.251 C 
ATOM     30  H   UNL     1       8.130  -2.371   3.710  1.00  0.00     0.163 HD
ATOM     31  O   UNL     1      10.024  -2.654   5.268  1.00  0.00    -0.269 OA
BRANCH  29  32
ATOM     32  C   UNL     1       9.773  -4.975   4.997  1.00  0.00     0.039 A 
ATOM     33  C   UNL     1       9.705  -5.433   6.314  1.00  0.00     0.014 A 
ATOM     34  C   UNL     1       9.995  -5.866   3.945  1.00  0.00     0.014 A 
ATOM     35  C   UNL     1       9.748  -6.806   6.564  1.00  0.00     0.010 A 
ATOM     36  C   UNL     1       9.936  -7.234   4.189  1.00  0.00     0.010 A 
ATOM     37  C   UNL     1       9.799  -7.722   5.499  1.00  0.00    -0.014 A 
BRANCH  37  38
ATOM     38  C   UNL     1       9.692  -9.188   5.728  1.00  0.00     0.031 A 
ATOM     39  C   UNL     1      10.807 -10.099   5.287  1.00  0.00     0.074 A 
ATOM     40  C   UNL     1       8.564  -9.712   6.252  1.00  0.00     0.049 A 
ATOM     41  N   UNL     1      10.865 -11.406   5.309  1.00  0.00    -0.248 NA
ATOM     42  C   UNL     1      11.997  -9.457   4.706  1.00  0.00     0.031 C 
ATOM     43  C   UNL     1       7.377  -8.950   6.652  1.00  0.00     0.029 A 
ATOM     44  N   UNL     1       8.225 -11.013   6.533  1.00  0.00    -0.354 N 
ATOM     45  C   UNL     1      12.078 -11.740   4.719  1.00  0.00     0.074 A 
ATOM     46  C   UNL     1      12.698 -10.503   4.297  1.00  0.00     0.031 C 
ATOM     47  C   UNL     1       6.459  -9.791   7.155  1.00  0.00     0.029 A 
ATOM     48  C   UNL     1       6.973 -11.155   7.085  1.00  0.00     0.049 A 
ATOM     49  H   UNL     1       8.823 -11.774   6.354  1.00  0.00     0.167 HD
ATOM     50  C   UNL     1      12.642 -12.962   4.570  1.00  0.00     0.037 A 
ATOM     51  C   UNL     1       6.314 -12.258   7.492  1.00  0.00     0.037 A 
ATOM     52  C   UNL     1      12.052 -14.184   5.044  1.00  0.00     0.049 A 
ATOM     53  C   UNL     1       6.984 -13.600   7.369  1.00  0.00     0.074 A 
ATOM     54  C   UNL     1      12.578 -15.464   5.011  1.00  0.00     0.029 A 
ATOM     55  N   UNL     1      10.808 -14.278   5.650  1.00  0.00    -0.354 N 
ATOM     56  N   UNL     1       8.161 -13.889   6.867  1.00  0.00    -0.248 NA
ATOM     57  C   UNL     1       6.243 -14.765   7.874  1.00  0.00     0.031 C 
ATOM     58  C   UNL     1      11.641 -16.336   5.576  1.00  0.00     0.029 A 
ATOM     59  C   UNL     1      10.546 -15.594   5.990  1.00  0.00     0.049 A 
ATOM     60  H   UNL     1      10.200 -13.520   5.813  1.00  0.00     0.167 HD
ATOM     61  C   UNL     1       8.311 -15.263   7.017  1.00  0.00     0.074 A 
ATOM     62  C   UNL     1       7.110 -15.747   7.666  1.00  0.00     0.031 C 
ATOM     63  C   UNL     1       9.350 -16.054   6.649  1.00  0.00     0.037 A 
BRANCH  50  64
ATOM     64  C   UNL     1      13.978 -13.026   3.884  1.00  0.00     0.058 A 
ATOM     65  C   UNL     1      15.143 -12.542   4.501  1.00  0.00     0.135 A 
ATOM     66  C   UNL     1      14.099 -13.585   2.602  1.00  0.00     0.135 A 
ATOM     67  F   UNL     1      15.081 -11.982   5.720  1.00  0.00    -0.206 F 
ATOM     68  C   UNL     1      16.374 -12.573   3.856  1.00  0.00     0.059 A 
ATOM     69  C   UNL     1      15.326 -13.652   1.949  1.00  0.00     0.059 A 
ATOM     70  F   UNL     1      13.017 -14.062   1.967  1.00  0.00    -0.206 F 
ATOM     71  C   UNL     1      16.455 -13.126   2.577  1.00  0.00     0.060 A 
BRANCH  71  72
ATOM     72  S   UNL     1      18.058 -13.152   1.747  1.00  0.00     0.124 S 
ATOM     73  O   UNL     1      18.189 -11.759   1.330  1.00  0.00    -0.237 OA
ATOM     74  O   UNL     1      18.957 -13.581   2.814  1.00  0.00    -0.237 OA
ATOM     75  O   UNL     1      17.865 -14.116   0.669  1.00  0.00    -0.744 OA
ENDBRANCH  71  72
ENDBRANCH  50  64
BRANCH  51  76
ATOM     76  C   UNL     1       4.959 -12.140   8.094  1.00  0.00     0.058 A 
ATOM     77  C   UNL     1       4.766 -12.329   9.471  1.00  0.00     0.135 A 
ATOM     78  C   UNL     1       3.835 -11.829   7.314  1.00  0.00     0.135 A 
ATOM     79  F   UNL     1       5.809 -12.635  10.258  1.00  0.00    -0.206 F 
ATOM     80  C   UNL     1       3.506 -12.231  10.052  1.00  0.00     0.059 A 
ATOM     81  C   UNL     1       2.568 -11.704   7.875  1.00  0.00     0.059 A 
ATOM     82  F   UNL     1       3.969 -11.622   5.995  1.00  0.00    -0.206 F 
ATOM     83  C   UNL     1       2.412 -11.917   9.245  1.00  0.00     0.060 A 
BRANCH  83  84
ATOM     84  S   UNL     1       0.787 -11.741  10.015  1.00  0.00     0.124 S 
ATOM     85  O   UNL     1       0.419 -13.133  10.245  1.00  0.00    -0.237 OA
ATOM     86  O   UNL     1       1.094 -10.956  11.207  1.00  0.00    -0.237 OA
ATOM     87  O   UNL     1       0.009 -11.041   8.997  1.00  0.00    -0.744 OA
ENDBRANCH  83  84
ENDBRANCH  51  76
BRANCH  63  88
ATOM     88  C   UNL     1       9.251 -17.518   6.968  1.00  0.00     0.058 A 
ATOM     89  C   UNL     1       8.428 -18.377   6.224  1.00  0.00     0.135 A 
ATOM     90  C   UNL     1      10.035 -18.076   7.990  1.00  0.00     0.135 A 
ATOM     91  F   UNL     1       7.655 -17.890   5.241  1.00  0.00    -0.206 F 
ATOM     92  C   UNL     1       8.373 -19.740   6.494  1.00  0.00     0.059 A 
ATOM     93  C   UNL     1      10.012 -19.440   8.262  1.00  0.00     0.059 A 
ATOM     94  F   UNL     1      10.845 -17.297   8.723  1.00  0.00    -0.206 F 
ATOM     95  C   UNL     1       9.171 -20.263   7.514  1.00  0.00     0.060 A 
BRANCH  95  96
ATOM     96  S   UNL     1       9.123 -22.040   7.829  1.00  0.00     0.124 S 
ATOM     97  O   UNL     1       7.863 -22.177   8.550  1.00  0.00    -0.237 OA
ATOM     98  O   UNL     1       9.146 -22.599   6.480  1.00  0.00    -0.237 OA
ATOM     99  O   UNL     1      10.329 -22.276   8.618  1.00  0.00    -0.744 OA
ENDBRANCH  95  96
ENDBRANCH  63  88
ENDBRANCH  37  38
ENDBRANCH  29  32
ENDBRANCH  27  28
ENDBRANCH  26  27
ENDBRANCH   1  26
TORSDOF 15
