REMARK SMILES COC(=O)[C@@H](CC(=O)NCCCCNC(=O)c1ccc(-c2c3nc(c(-c4c(F)cc(S(=O)(=O)[O-])cc4F)c4ccc([nH]4)c(-c4c(F)cc(S(=O)(=O)[O-])cc4F)c4nc(c(-c5c(F)cc(S(=O)(=O)[O-])cc5F)c5ccc2[nH]5)C=C4)C=C3)cc1)C1CCCCC1
REMARK SMILES IDX 11 1 10 2 9 3 7 4 8 5 6 7 5 8 3 9 4 10 2 11 1 12 83 13 84 14
REMARK SMILES IDX 88 15 85 16 87 17 86 18 12 19 13 20 14 21 15 22 16 24 17 25
REMARK SMILES IDX 18 26 82 27 19 28 81 29 20 30 21 31 22 32 75 33 23 34 80 35
REMARK SMILES IDX 74 36 76 37 24 38 79 39 73 40 72 41 25 43 59 44 38 45 58 46
REMARK SMILES IDX 39 47 42 48 57 49 77 50 40 51 41 52 56 54 78 55 43 56 26 57
REMARK SMILES IDX 27 58 36 59 28 60 29 61 35 62 37 63 30 64 31 65 32 66 33 67
REMARK SMILES IDX 34 68 60 69 61 70 70 71 62 72 63 73 69 74 71 75 64 76 65 77
REMARK SMILES IDX 66 78 67 79 68 80 44 81 45 82 54 83 46 84 47 85 53 86 55 87
REMARK SMILES IDX 48 88 49 89 50 90 51 91 52 92
REMARK H PARENT 9 6 14 23 76 42 42 53
REMARK Flexibility Score: inf
ROOT
ATOM      1  C   UNL     1       1.013   0.938   0.540  1.00  0.00     0.023 C 
ENDROOT
BRANCH   1   2
ATOM      2  C   UNL     1       1.902   1.610   1.579  1.00  0.00     0.116 C 
BRANCH   2   3
ATOM      3  N   UNL     1       1.119   2.187   2.649  1.00  0.00    -0.356 N 
ATOM      4  C   UNL     1       0.829   1.675   3.872  1.00  0.00     0.220 C 
ATOM      5  O   UNL     1       0.300   2.426   4.697  1.00  0.00    -0.275 OA
ATOM      6  H   UNL     1       0.743   3.077   2.464  1.00  0.00     0.163 HD
BRANCH   4   7
ATOM      7  C   UNL     1       1.191   0.251   4.250  1.00  0.00     0.115 C 
BRANCH   7   8
ATOM      8  C   UNL     1       0.374  -0.954   3.727  1.00  0.00     0.111 C 
BRANCH   8   9
ATOM      9  C   UNL     1       1.020  -1.552   2.469  1.00  0.00     0.309 C 
ATOM     10  O   UNL     1       2.233  -1.588   2.292  1.00  0.00    -0.252 OA
BRANCH   9  11
ATOM     11  O   UNL     1       0.110  -2.064   1.601  1.00  0.00    -0.469 OA
ATOM     12  C   UNL     1       0.591  -2.568   0.348  1.00  0.00     0.282 C 
ENDBRANCH   9  11
ENDBRANCH   8   9
BRANCH   8  13
ATOM     13  C   UNL     1      -1.197  -0.897   3.696  1.00  0.00     0.004 C 
ATOM     14  C   UNL     1      -1.743  -2.201   4.335  1.00  0.00     0.004 C 
ATOM     15  C   UNL     1      -1.860   0.324   4.349  1.00  0.00     0.004 C 
ATOM     16  C   UNL     1      -3.265  -2.268   4.388  1.00  0.00     0.000 C 
ATOM     17  C   UNL     1      -3.385   0.228   4.396  1.00  0.00     0.000 C 
ATOM     18  C   UNL     1      -3.849  -1.046   5.083  1.00  0.00     0.000 C 
ENDBRANCH   8  13
ENDBRANCH   7   8
ENDBRANCH   4   7
ENDBRANCH   2   3
ENDBRANCH   1   2
BRANCH   1  19
ATOM     19  C   UNL     1       0.528   1.842  -0.586  1.00  0.00     0.023 C 
BRANCH  19  20
ATOM     20  C   UNL     1       1.623   2.416  -1.477  1.00  0.00     0.116 C 
BRANCH  20  21
ATOM     21  N   UNL     1       2.525   1.416  -2.035  1.00  0.00    -0.352 N 
ATOM     22  C   UNL     1       3.048   1.327  -3.310  1.00  0.00     0.251 C 
ATOM     23  H   UNL     1       2.800   0.702  -1.415  1.00  0.00     0.163 HD
ATOM     24  O   UNL     1       3.738   0.376  -3.631  1.00  0.00    -0.269 OA
BRANCH  22  25
ATOM     25  C   UNL     1       2.708   2.379  -4.295  1.00  0.00     0.039 A 
ATOM     26  C   UNL     1       2.212   1.996  -5.543  1.00  0.00     0.014 A 
ATOM     27  C   UNL     1       2.787   3.729  -3.948  1.00  0.00     0.014 A 
ATOM     28  C   UNL     1       1.671   2.963  -6.392  1.00  0.00     0.010 A 
ATOM     29  C   UNL     1       2.172   4.678  -4.756  1.00  0.00     0.010 A 
ATOM     30  C   UNL     1       1.579   4.299  -5.971  1.00  0.00    -0.014 A 
BRANCH  30  31
ATOM     31  C   UNL     1       0.803   5.309  -6.735  1.00  0.00     0.031 A 
ATOM     32  C   UNL     1       1.476   6.548  -7.252  1.00  0.00     0.074 A 
ATOM     33  C   UNL     1      -0.534   5.167  -6.848  1.00  0.00     0.049 A 
ATOM     34  N   UNL     1       0.941   7.614  -7.788  1.00  0.00    -0.248 NA
ATOM     35  C   UNL     1       2.939   6.613  -7.113  1.00  0.00     0.031 C 
ATOM     36  C   UNL     1      -1.316   4.040  -6.329  1.00  0.00     0.029 A 
ATOM     37  N   UNL     1      -1.477   5.986  -7.416  1.00  0.00    -0.354 N 
ATOM     38  C   UNL     1       1.995   8.489  -8.020  1.00  0.00     0.074 A 
ATOM     39  C   UNL     1       3.196   7.844  -7.533  1.00  0.00     0.031 C 
ATOM     40  C   UNL     1      -2.613   4.231  -6.619  1.00  0.00     0.029 A 
ATOM     41  C   UNL     1      -2.763   5.510  -7.303  1.00  0.00     0.049 A 
ATOM     42  H   UNL     1      -1.255   6.834  -7.863  1.00  0.00     0.167 HD
ATOM     43  C   UNL     1       1.965   9.712  -8.600  1.00  0.00     0.037 A 
ATOM     44  C   UNL     1      -3.934   6.050  -7.690  1.00  0.00     0.037 A 
ATOM     45  C   UNL     1       0.777  10.329  -9.126  1.00  0.00     0.049 A 
ATOM     46  C   UNL     1      -3.938   7.395  -8.359  1.00  0.00     0.074 A 
ATOM     47  C   UNL     1       0.659  11.523  -9.816  1.00  0.00     0.029 A 
ATOM     48  N   UNL     1      -0.501   9.798  -9.024  1.00  0.00    -0.354 N 
ATOM     49  N   UNL     1      -2.923   8.183  -8.622  1.00  0.00    -0.248 NA
ATOM     50  C   UNL     1      -5.242   7.927  -8.776  1.00  0.00     0.031 C 
ATOM     51  C   UNL     1      -0.694  11.727 -10.108  1.00  0.00     0.029 A 
ATOM     52  C   UNL     1      -1.415  10.648  -9.624  1.00  0.00     0.049 A 
ATOM     53  H   UNL     1      -0.724   8.943  -8.590  1.00  0.00     0.167 HD
ATOM     54  C   UNL     1      -3.465   9.302  -9.242  1.00  0.00     0.074 A 
ATOM     55  C   UNL     1      -4.894   9.081  -9.330  1.00  0.00     0.031 C 
ATOM     56  C   UNL     1      -2.835  10.413  -9.695  1.00  0.00     0.037 A 
BRANCH  43  57
ATOM     57  C   UNL     1       3.265  10.457  -8.707  1.00  0.00     0.058 A 
ATOM     58  C   UNL     1       4.258  10.071  -9.621  1.00  0.00     0.135 A 
ATOM     59  C   UNL     1       3.515  11.577  -7.899  1.00  0.00     0.135 A 
ATOM     60  F   UNL     1       4.074   8.997 -10.405  1.00  0.00    -0.206 F 
ATOM     61  C   UNL     1       5.468  10.751  -9.710  1.00  0.00     0.059 A 
ATOM     62  C   UNL     1       4.710  12.286  -7.986  1.00  0.00     0.059 A 
ATOM     63  F   UNL     1       2.599  11.986  -7.007  1.00  0.00    -0.206 F 
ATOM     64  C   UNL     1       5.687  11.854  -8.883  1.00  0.00     0.060 A 
BRANCH  64  65
ATOM     65  S   UNL     1       7.264  12.724  -9.001  1.00  0.00     0.124 S 
ATOM     66  O   UNL     1       8.144  11.826  -8.259  1.00  0.00    -0.237 OA
ATOM     67  O   UNL     1       7.488  12.780 -10.442  1.00  0.00    -0.237 OA
ATOM     68  O   UNL     1       6.992  14.007  -8.363  1.00  0.00    -0.744 OA
ENDBRANCH  64  65
ENDBRANCH  43  57
BRANCH  44  69
ATOM     69  C   UNL     1      -5.202   5.309  -7.462  1.00  0.00     0.058 A 
ATOM     70  C   UNL     1      -5.864   4.682  -8.527  1.00  0.00     0.135 A 
ATOM     71  C   UNL     1      -5.759   5.190  -6.180  1.00  0.00     0.135 A 
ATOM     72  F   UNL     1      -5.370   4.775  -9.771  1.00  0.00    -0.206 F 
ATOM     73  C   UNL     1      -7.041   3.967  -8.332  1.00  0.00     0.059 A 
ATOM     74  C   UNL     1      -6.925   4.465  -5.957  1.00  0.00     0.059 A 
ATOM     75  F   UNL     1      -5.151   5.758  -5.127  1.00  0.00    -0.206 F 
ATOM     76  C   UNL     1      -7.563   3.863  -7.041  1.00  0.00     0.060 A 
BRANCH  76  77
ATOM     77  S   UNL     1      -9.056   2.879  -6.785  1.00  0.00     0.124 S 
ATOM     78  O   UNL     1     -10.093   3.794  -7.248  1.00  0.00    -0.237 OA
ATOM     79  O   UNL     1      -8.809   1.714  -7.628  1.00  0.00    -0.237 OA
ATOM     80  O   UNL     1      -9.038   2.616  -5.349  1.00  0.00    -0.744 OA
ENDBRANCH  76  77
ENDBRANCH  44  69
BRANCH  56  81
ATOM     81  C   UNL     1      -3.688  11.473 -10.328  1.00  0.00     0.058 A 
ATOM     82  C   UNL     1      -4.461  12.347  -9.548  1.00  0.00     0.135 A 
ATOM     83  C   UNL     1      -3.692  11.651 -11.720  1.00  0.00     0.135 A 
ATOM     84  F   UNL     1      -4.496  12.209  -8.213  1.00  0.00    -0.206 F 
ATOM     85  C   UNL     1      -5.220  13.356 -10.129  1.00  0.00     0.059 A 
ATOM     86  C   UNL     1      -4.429  12.666 -12.321  1.00  0.00     0.059 A 
ATOM     87  F   UNL     1      -2.963  10.843 -12.506  1.00  0.00    -0.206 F 
ATOM     88  C   UNL     1      -5.197  13.508 -11.517  1.00  0.00     0.060 A 
BRANCH  88  89
ATOM     89  S   UNL     1      -6.151  14.849 -12.260  1.00  0.00     0.124 S 
ATOM     90  O   UNL     1      -7.502  14.300 -12.227  1.00  0.00    -0.237 OA
ATOM     91  O   UNL     1      -5.896  15.961 -11.348  1.00  0.00    -0.237 OA
ATOM     92  O   UNL     1      -5.560  14.989 -13.587  1.00  0.00    -0.744 OA
ENDBRANCH  88  89
ENDBRANCH  56  81
ENDBRANCH  30  31
ENDBRANCH  22  25
ENDBRANCH  20  21
ENDBRANCH  19  20
ENDBRANCH   1  19
TORSDOF 18
