REMARK SMILES COC(=O)[C@H]1CCN(S(=O)(=O)N2CCC[C@H](C(=O)NCCCCNC(=O)c3ccc(-c4c5nc(c(-c6c(F)cc(S(=O)(=O)[O-])cc6F)c6ccc([nH]6)c(-c6c(F)cc(S(=O)(=O)[O-])cc6F)c6nc(c(-c7c(F)cc(S(=O)(=O)[O-])cc7F)c7ccc4[nH]7)C=C6)C=C5)cc3)C2)C1
REMARK SMILES IDX 21 1 20 2 19 3 17 4 18 5 16 7 12 8 13 9 93 10 14 11 15 12
REMARK SMILES IDX 9 13 10 14 11 15 8 16 5 17 6 18 94 19 7 20 3 21 4 22 2 23
REMARK SMILES IDX 1 24 22 25 23 26 24 27 25 28 26 30 27 31 28 32 92 33 29 34
REMARK SMILES IDX 91 35 30 36 31 37 32 38 85 39 33 40 90 41 84 42 86 43 34 44
REMARK SMILES IDX 89 45 83 46 82 47 35 49 69 50 48 51 68 52 49 53 52 54 67 55
REMARK SMILES IDX 87 56 50 57 51 58 66 60 88 61 53 62 36 63 37 64 46 65 38 66
REMARK SMILES IDX 39 67 45 68 47 69 40 70 41 71 42 72 43 73 44 74 70 75 71 76
REMARK SMILES IDX 80 77 72 78 73 79 79 80 81 81 74 82 75 83 76 84 77 85 78 86
REMARK SMILES IDX 54 87 55 88 64 89 56 90 57 91 63 92 65 93 58 94 59 95 60 96
REMARK SMILES IDX 61 97 62 98
REMARK H PARENT 19 6 24 29 86 48 52 59
REMARK Flexibility Score: inf
ROOT
ATOM      1  C   UNL     1      -4.725   8.189  -3.143  1.00  0.00     0.023 C 
ENDROOT
BRANCH   1   2
ATOM      2  C   UNL     1      -4.751   7.152  -2.026  1.00  0.00     0.116 C 
BRANCH   2   3
ATOM      3  N   UNL     1      -5.750   6.133  -2.241  1.00  0.00    -0.356 N 
ATOM      4  C   UNL     1      -5.640   4.824  -2.567  1.00  0.00     0.224 C 
ATOM      5  O   UNL     1      -6.696   4.178  -2.610  1.00  0.00    -0.275 OA
ATOM      6  H   UNL     1      -6.677   6.446  -2.131  1.00  0.00     0.163 HD
BRANCH   4   7
ATOM      7  C   UNL     1      -4.325   4.108  -2.885  1.00  0.00     0.094 C 
ATOM      8  N   UNL     1      -2.398   5.030  -1.613  1.00  0.00    -0.188 NA
ATOM      9  C   UNL     1      -1.593   5.291  -2.817  1.00  0.00     0.103 C 
ATOM     10  C   UNL     1      -3.377   3.938  -1.710  1.00  0.00     0.117 C 
ATOM     11  C   UNL     1      -2.486   5.505  -4.038  1.00  0.00     0.018 C 
ATOM     12  C   UNL     1      -3.621   4.498  -4.183  1.00  0.00     0.016 C 
BRANCH   8  13
ATOM     13  S   UNL     1      -1.745   5.421  -0.120  1.00  0.00     0.282 S 
ATOM     14  O   UNL     1      -2.679   5.068   0.917  1.00  0.00    -0.195 OA
ATOM     15  O   UNL     1      -1.206   6.760  -0.222  1.00  0.00    -0.195 OA
BRANCH  13  16
ATOM     16  N   UNL     1      -0.428   4.356  -0.028  1.00  0.00    -0.188 NA
ATOM     17  C   UNL     1       0.708   3.446   1.910  1.00  0.00     0.116 C 
ATOM     18  C   UNL     1      -0.511   2.606   1.586  1.00  0.00     0.033 C 
ATOM     19  C   UNL     1       0.527   4.710   1.079  1.00  0.00     0.118 C 
ATOM     20  C   UNL     1      -0.738   2.915   0.123  1.00  0.00     0.104 C 
BRANCH  17  21
ATOM     21  C   UNL     1       0.779   3.798   3.371  1.00  0.00     0.310 C 
ATOM     22  O   UNL     1      -0.169   4.165   4.049  1.00  0.00    -0.252 OA
BRANCH  21  23
ATOM     23  O   UNL     1       2.060   3.680   3.818  1.00  0.00    -0.469 OA
ATOM     24  C   UNL     1       2.229   4.075   5.180  1.00  0.00     0.282 C 
ENDBRANCH  21  23
ENDBRANCH  17  21
ENDBRANCH  13  16
ENDBRANCH   8  13
ENDBRANCH   4   7
ENDBRANCH   2   3
ENDBRANCH   1   2
BRANCH   1  25
ATOM     25  C   UNL     1      -5.668   9.360  -2.922  1.00  0.00     0.023 C 
BRANCH  25  26
ATOM     26  C   UNL     1      -5.426  10.129  -1.631  1.00  0.00     0.116 C 
BRANCH  26  27
ATOM     27  N   UNL     1      -4.072  10.657  -1.501  1.00  0.00    -0.352 N 
ATOM     28  C   UNL     1      -3.698  11.907  -1.060  1.00  0.00     0.251 C 
ATOM     29  H   UNL     1      -3.341  10.049  -1.758  1.00  0.00     0.163 HD
ATOM     30  O   UNL     1      -2.531  12.279  -1.113  1.00  0.00    -0.269 OA
BRANCH  28  31
ATOM     31  C   UNL     1      -4.757  12.808  -0.564  1.00  0.00     0.039 A 
ATOM     32  C   UNL     1      -4.902  14.070  -1.139  1.00  0.00     0.014 A 
ATOM     33  C   UNL     1      -5.685  12.332   0.366  1.00  0.00     0.014 A 
ATOM     34  C   UNL     1      -6.036  14.825  -0.840  1.00  0.00     0.010 A 
ATOM     35  C   UNL     1      -6.863  13.036   0.571  1.00  0.00     0.010 A 
ATOM     36  C   UNL     1      -7.051  14.292  -0.025  1.00  0.00    -0.014 A 
BRANCH  36  37
ATOM     37  C   UNL     1      -8.314  15.034   0.220  1.00  0.00     0.031 A 
ATOM     38  C   UNL     1      -8.696  15.416   1.625  1.00  0.00     0.074 A 
ATOM     39  C   UNL     1      -9.140  15.311  -0.810  1.00  0.00     0.049 A 
ATOM     40  N   UNL     1      -9.774  16.023   2.050  1.00  0.00    -0.248 NA
ATOM     41  C   UNL     1      -7.761  15.036   2.697  1.00  0.00     0.031 C 
ATOM     42  C   UNL     1      -8.909  14.936  -2.208  1.00  0.00     0.029 A 
ATOM     43  N   UNL     1     -10.345  15.968  -0.842  1.00  0.00    -0.354 N 
ATOM     44  C   UNL     1      -9.649  16.086   3.433  1.00  0.00     0.074 A 
ATOM     45  C   UNL     1      -8.431  15.392   3.782  1.00  0.00     0.031 C 
ATOM     46  C   UNL     1      -9.918  15.401  -2.962  1.00  0.00     0.029 A 
ATOM     47  C   UNL     1     -10.890  16.067  -2.101  1.00  0.00     0.049 A 
ATOM     48  H   UNL     1     -10.779  16.335  -0.038  1.00  0.00     0.167 HD
ATOM     49  C   UNL     1     -10.460  16.695   4.329  1.00  0.00     0.037 A 
ATOM     50  C   UNL     1     -12.044  16.627  -2.514  1.00  0.00     0.037 A 
ATOM     51  C   UNL     1     -11.660  17.404   3.969  1.00  0.00     0.049 A 
ATOM     52  C   UNL     1     -12.934  17.293  -1.498  1.00  0.00     0.074 A 
ATOM     53  C   UNL     1     -12.521  18.108   4.791  1.00  0.00     0.029 A 
ATOM     54  N   UNL     1     -12.171  17.494   2.682  1.00  0.00    -0.354 N 
ATOM     55  N   UNL     1     -12.761  17.412  -0.203  1.00  0.00    -0.248 NA
ATOM     56  C   UNL     1     -14.171  17.907  -1.999  1.00  0.00     0.031 C 
ATOM     57  C   UNL     1     -13.584  18.574   4.011  1.00  0.00     0.029 A 
ATOM     58  C   UNL     1     -13.352  18.218   2.692  1.00  0.00     0.049 A 
ATOM     59  H   UNL     1     -11.756  17.101   1.880  1.00  0.00     0.167 HD
ATOM     60  C   UNL     1     -13.852  18.139   0.262  1.00  0.00     0.074 A 
ATOM     61  C   UNL     1     -14.670  18.445  -0.894  1.00  0.00     0.031 C 
ATOM     62  C   UNL     1     -14.151  18.519   1.529  1.00  0.00     0.037 A 
BRANCH  49  63
ATOM     63  C   UNL     1     -10.073  16.627   5.782  1.00  0.00     0.058 A 
ATOM     64  C   UNL     1      -8.939  17.294   6.277  1.00  0.00     0.135 A 
ATOM     65  C   UNL     1     -10.861  15.913   6.698  1.00  0.00     0.135 A 
ATOM     66  F   UNL     1      -8.137  17.977   5.444  1.00  0.00    -0.206 F 
ATOM     67  C   UNL     1      -8.586  17.230   7.620  1.00  0.00     0.059 A 
ATOM     68  C   UNL     1     -10.546  15.864   8.053  1.00  0.00     0.059 A 
ATOM     69  F   UNL     1     -11.954  15.254   6.280  1.00  0.00    -0.206 F 
ATOM     70  C   UNL     1      -9.398  16.515   8.502  1.00  0.00     0.060 A 
BRANCH  70  71
ATOM     71  S   UNL     1      -8.933  16.458  10.245  1.00  0.00     0.124 S 
ATOM     72  O   UNL     1      -7.751  15.601  10.204  1.00  0.00    -0.237 OA
ATOM     73  O   UNL     1      -8.685  17.864  10.546  1.00  0.00    -0.237 OA
ATOM     74  O   UNL     1     -10.105  15.878  10.892  1.00  0.00    -0.744 OA
ENDBRANCH  70  71
ENDBRANCH  49  63
BRANCH  50  75
ATOM     75  C   UNL     1     -12.414  16.602  -3.957  1.00  0.00     0.058 A 
ATOM     76  C   UNL     1     -12.440  17.779  -4.720  1.00  0.00     0.135 A 
ATOM     77  C   UNL     1     -12.743  15.400  -4.605  1.00  0.00     0.135 A 
ATOM     78  F   UNL     1     -12.141  18.956  -4.147  1.00  0.00    -0.206 F 
ATOM     79  C   UNL     1     -12.797  17.771  -6.065  1.00  0.00     0.059 A 
ATOM     80  C   UNL     1     -13.074  15.362  -5.956  1.00  0.00     0.059 A 
ATOM     81  F   UNL     1     -12.718  14.242  -3.927  1.00  0.00    -0.206 F 
ATOM     82  C   UNL     1     -13.109  16.555  -6.675  1.00  0.00     0.060 A 
BRANCH  82  83
ATOM     83  S   UNL     1     -13.527  16.551  -8.432  1.00  0.00     0.124 S 
ATOM     84  O   UNL     1     -14.841  17.185  -8.424  1.00  0.00    -0.237 OA
ATOM     85  O   UNL     1     -12.441  17.340  -9.006  1.00  0.00    -0.237 OA
ATOM     86  O   UNL     1     -13.513  15.133  -8.778  1.00  0.00    -0.744 OA
ENDBRANCH  82  83
ENDBRANCH  50  75
BRANCH  62  87
ATOM     87  C   UNL     1     -15.395  19.341   1.733  1.00  0.00     0.058 A 
ATOM     88  C   UNL     1     -16.678  18.791   1.595  1.00  0.00     0.135 A 
ATOM     89  C   UNL     1     -15.297  20.687   2.127  1.00  0.00     0.135 A 
ATOM     90  F   UNL     1     -16.829  17.512   1.216  1.00  0.00    -0.206 F 
ATOM     91  C   UNL     1     -17.822  19.553   1.813  1.00  0.00     0.059 A 
ATOM     92  C   UNL     1     -16.427  21.457   2.383  1.00  0.00     0.059 A 
ATOM     93  F   UNL     1     -14.094  21.260   2.285  1.00  0.00    -0.206 F 
ATOM     94  C   UNL     1     -17.686  20.884   2.210  1.00  0.00     0.060 A 
BRANCH  94  95
ATOM     95  S   UNL     1     -19.178  21.851   2.521  1.00  0.00     0.124 S 
ATOM     96  O   UNL     1     -19.689  22.045   1.168  1.00  0.00    -0.237 OA
ATOM     97  O   UNL     1     -19.957  20.955   3.370  1.00  0.00    -0.237 OA
ATOM     98  O   UNL     1     -18.675  23.052   3.180  1.00  0.00    -0.744 OA
ENDBRANCH  94  95
ENDBRANCH  62  87
ENDBRANCH  36  37
ENDBRANCH  28  31
ENDBRANCH  26  27
ENDBRANCH  25  26
ENDBRANCH   1  25
TORSDOF 18
