REMARK SMILES CCc1ccnc(C(=O)c2[nH]c3ccc(OC(F)(F)F)cc3c2CC(=O)NCCCCNC(=O)c2ccc(-c3c4nc(c(-c5c(F)cc(S(=O)(=O)[O-])cc5F)c5ccc([nH]5)c(-c5c(F)cc(S(=O)(=O)[O-])cc5F)c5nc(c(-c6c(F)cc(S(=O)(=O)[O-])cc6F)c6ccc3[nH]6)C=C5)C=C4)cc2)c1
REMARK SMILES IDX 29 1 28 2 27 3 25 4 26 5 24 7 23 8 10 9 11 10 12 11 22 13
REMARK SMILES IDX 13 14 21 15 14 16 15 17 8 18 9 19 7 20 3 21 4 22 101 23 5 24
REMARK SMILES IDX 6 25 2 26 1 27 16 28 17 29 18 30 19 31 20 32 30 33 31 34
REMARK SMILES IDX 32 35 33 36 34 38 35 39 36 40 100 41 37 42 99 43 38 44 39 45
REMARK SMILES IDX 40 46 93 47 41 48 98 49 92 50 94 51 42 52 97 53 91 54 90 55
REMARK SMILES IDX 43 57 77 58 56 59 76 60 57 61 60 62 75 63 95 64 58 65 59 66
REMARK SMILES IDX 74 68 96 69 61 70 44 71 45 72 54 73 46 74 47 75 53 76 55 77
REMARK SMILES IDX 48 78 49 79 50 80 51 81 52 82 78 83 79 84 88 85 80 86 81 87
REMARK SMILES IDX 87 88 89 89 82 90 83 91 84 92 85 93 86 94 62 95 63 96 72 97
REMARK SMILES IDX 64 98 65 99 71 100 73 101 66 102 67 103 68 104 69 105 70 106
REMARK H PARENT 27 6 11 12 32 37 94 56 60 67
REMARK Flexibility Score: inf
ROOT
ATOM      1  C   UNL     1       0.588  10.332  -0.458  1.00  0.00     0.023 C 
ENDROOT
BRANCH   1   2
ATOM      2  C   UNL     1      -0.719  10.414  -1.246  1.00  0.00     0.116 C 
BRANCH   2   3
ATOM      3  N   UNL     1      -0.689   9.658  -2.481  1.00  0.00    -0.356 N 
ATOM      4  C   UNL     1      -1.197   8.419  -2.751  1.00  0.00     0.224 C 
ATOM      5  O   UNL     1      -1.211   8.035  -3.924  1.00  0.00    -0.275 OA
ATOM      6  H   UNL     1      -0.238  10.102  -3.236  1.00  0.00     0.163 HD
BRANCH   4   7
ATOM      7  C   UNL     1      -1.853   7.585  -1.661  1.00  0.00     0.138 C 
BRANCH   7   8
ATOM      8  C   UNL     1      -0.967   7.218  -0.503  1.00  0.00    -0.002 A 
ATOM      9  C   UNL     1       0.234   6.515  -0.542  1.00  0.00     0.093 A 
ATOM     10  N   UNL     1       0.744   6.501   0.737  1.00  0.00    -0.352 N 
ATOM     11  C   UNL     1      -0.128   7.095   1.616  1.00  0.00     0.046 A 
ATOM     12  H   UNL     1       1.615   6.117   0.987  1.00  0.00     0.167 HD
ATOM     13  C   UNL     1      -1.220   7.534   0.875  1.00  0.00     0.008 A 
ATOM     14  C   UNL     1      -0.017   7.304   2.994  1.00  0.00     0.030 A 
ATOM     15  C   UNL     1      -2.260   8.203   1.554  1.00  0.00     0.057 A 
ATOM     16  C   UNL     1      -1.057   7.986   3.640  1.00  0.00     0.049 A 
ATOM     17  C   UNL     1      -2.171   8.437   2.934  1.00  0.00     0.130 A 
BRANCH   9  18
ATOM     18  C   UNL     1       0.960   5.996  -1.691  1.00  0.00     0.227 C 
ATOM     19  O   UNL     1       1.419   6.757  -2.536  1.00  0.00    -0.285 OA
BRANCH  18  20
ATOM     20  C   UNL     1       1.173   4.506  -1.806  1.00  0.00     0.113 A 
ATOM     21  C   UNL     1       0.944   2.233  -1.006  1.00  0.00    -0.044 A 
ATOM     22  C   UNL     1       1.670   1.823  -2.125  1.00  0.00     0.024 A 
ATOM     23  C   UNL     1       0.672   3.604  -0.867  1.00  0.00     0.036 A 
ATOM     24  C   UNL     1       2.116   2.780  -3.022  1.00  0.00     0.112 A 
ATOM     25  N   UNL     1       1.897   4.101  -2.879  1.00  0.00    -0.253 NA
BRANCH  21  26
ATOM     26  C   UNL     1       0.419   1.285   0.046  1.00  0.00     0.032 C 
ATOM     27  C   UNL     1       0.960  -0.139   0.009  1.00  0.00     0.009 C 
ENDBRANCH  21  26
ENDBRANCH  18  20
ENDBRANCH   9  18
BRANCH  17  28
ATOM     28  O   UNL     1      -3.237   9.121   3.449  1.00  0.00    -0.406 OA
BRANCH  28  29
ATOM     29  C   UNL     1      -3.187   9.497   4.813  1.00  0.00     0.573 C 
ATOM     30  F   UNL     1      -3.155   8.410   5.615  1.00  0.00    -0.132 F 
ATOM     31  F   UNL     1      -2.117  10.278   5.070  1.00  0.00    -0.132 F 
ATOM     32  F   UNL     1      -4.303  10.200   5.110  1.00  0.00    -0.132 F 
ENDBRANCH  28  29
ENDBRANCH  17  28
ENDBRANCH   7   8
ENDBRANCH   4   7
ENDBRANCH   2   3
ENDBRANCH   1   2
BRANCH   1  33
ATOM     33  C   UNL     1       1.791  11.025  -1.100  1.00  0.00     0.023 C 
BRANCH  33  34
ATOM     34  C   UNL     1       1.624  12.515  -1.370  1.00  0.00     0.116 C 
BRANCH  34  35
ATOM     35  N   UNL     1       1.313  13.287  -0.177  1.00  0.00    -0.352 N 
ATOM     36  C   UNL     1       1.645  14.592   0.109  1.00  0.00     0.251 C 
ATOM     37  H   UNL     1       0.797  12.815   0.516  1.00  0.00     0.163 HD
ATOM     38  O   UNL     1       1.385  15.068   1.206  1.00  0.00    -0.269 OA
BRANCH  36  39
ATOM     39  C   UNL     1       2.360  15.399  -0.905  1.00  0.00     0.039 A 
ATOM     40  C   UNL     1       3.521  16.078  -0.525  1.00  0.00     0.014 A 
ATOM     41  C   UNL     1       1.905  15.460  -2.225  1.00  0.00     0.014 A 
ATOM     42  C   UNL     1       4.274  16.753  -1.488  1.00  0.00     0.010 A 
ATOM     43  C   UNL     1       2.680  16.096  -3.192  1.00  0.00     0.010 A 
ATOM     44  C   UNL     1       3.878  16.734  -2.834  1.00  0.00    -0.014 A 
BRANCH  44  45
ATOM     45  C   UNL     1       4.707  17.349  -3.898  1.00  0.00     0.031 A 
ATOM     46  C   UNL     1       4.206  18.556  -4.636  1.00  0.00     0.074 A 
ATOM     47  C   UNL     1       5.861  16.760  -4.265  1.00  0.00     0.049 A 
ATOM     48  N   UNL     1       4.695  19.134  -5.701  1.00  0.00    -0.248 NA
ATOM     49  C   UNL     1       2.977  19.180  -4.120  1.00  0.00     0.031 C 
ATOM     50  C   UNL     1       6.436  15.563  -3.647  1.00  0.00     0.029 A 
ATOM     51  N   UNL     1       6.745  17.076  -5.265  1.00  0.00    -0.354 N 
ATOM     52  C   UNL     1       3.817  20.164  -6.009  1.00  0.00     0.074 A 
ATOM     53  C   UNL     1       2.760  20.129  -5.020  1.00  0.00     0.031 C 
ATOM     54  C   UNL     1       7.579  15.248  -4.280  1.00  0.00     0.029 A 
ATOM     55  C   UNL     1       7.798  16.198  -5.367  1.00  0.00     0.049 A 
ATOM     56  H   UNL     1       6.636  17.857  -5.854  1.00  0.00     0.167 HD
ATOM     57  C   UNL     1       3.886  21.058  -7.023  1.00  0.00     0.037 A 
ATOM     58  C   UNL     1       8.816  16.154  -6.247  1.00  0.00     0.037 A 
ATOM     59  C   UNL     1       4.956  21.116  -7.982  1.00  0.00     0.049 A 
ATOM     60  C   UNL     1       8.898  17.186  -7.335  1.00  0.00     0.074 A 
ATOM     61  C   UNL     1       5.134  22.011  -9.023  1.00  0.00     0.029 A 
ATOM     62  N   UNL     1       6.037  20.248  -8.011  1.00  0.00    -0.354 N 
ATOM     63  N   UNL     1       8.066  18.164  -7.603  1.00  0.00    -0.248 NA
ATOM     64  C   UNL     1      10.053  17.110  -8.240  1.00  0.00     0.031 C 
ATOM     65  C   UNL     1       6.322  21.678  -9.687  1.00  0.00     0.029 A 
ATOM     66  C   UNL     1       6.889  20.587  -9.048  1.00  0.00     0.049 A 
ATOM     67  H   UNL     1       6.178  19.501  -7.385  1.00  0.00     0.167 HD
ATOM     68  C   UNL     1       8.603  18.827  -8.699  1.00  0.00     0.074 A 
ATOM     69  C   UNL     1       9.834  18.144  -9.043  1.00  0.00     0.031 C 
ATOM     70  C   UNL     1       8.117  19.904  -9.363  1.00  0.00     0.037 A 
BRANCH  57  71
ATOM     71  C   UNL     1       2.760  22.041  -7.144  1.00  0.00     0.058 A 
ATOM     72  C   UNL     1       2.670  23.158  -6.301  1.00  0.00     0.135 A 
ATOM     73  C   UNL     1       1.760  21.862  -8.112  1.00  0.00     0.135 A 
ATOM     74  F   UNL     1       3.594  23.360  -5.348  1.00  0.00    -0.206 F 
ATOM     75  C   UNL     1       1.609  24.052  -6.393  1.00  0.00     0.059 A 
ATOM     76  C   UNL     1       0.698  22.752  -8.232  1.00  0.00     0.059 A 
ATOM     77  F   UNL     1       1.800  20.805  -8.940  1.00  0.00    -0.206 F 
ATOM     78  C   UNL     1       0.621  23.834  -7.355  1.00  0.00     0.060 A 
BRANCH  78  79
ATOM     79  S   UNL     1      -0.768  24.982  -7.460  1.00  0.00     0.124 S 
ATOM     80  O   UNL     1      -1.654  24.458  -6.425  1.00  0.00    -0.237 OA
ATOM     81  O   UNL     1      -0.145  26.269  -7.165  1.00  0.00    -0.237 OA
ATOM     82  O   UNL     1      -1.236  24.818  -8.832  1.00  0.00    -0.744 OA
ENDBRANCH  78  79
ENDBRANCH  57  71
BRANCH  58  83
ATOM     83  C   UNL     1       9.849  15.097  -6.123  1.00  0.00     0.058 A 
ATOM     84  C   UNL     1      11.097  15.383  -5.554  1.00  0.00     0.135 A 
ATOM     85  C   UNL     1       9.598  13.780  -6.536  1.00  0.00     0.135 A 
ATOM     86  F   UNL     1      11.379  16.630  -5.148  1.00  0.00    -0.206 F 
ATOM     87  C   UNL     1      12.069  14.399  -5.401  1.00  0.00     0.059 A 
ATOM     88  C   UNL     1      10.549  12.776  -6.382  1.00  0.00     0.059 A 
ATOM     89  F   UNL     1       8.411  13.459  -7.073  1.00  0.00    -0.206 F 
ATOM     90  C   UNL     1      11.785  13.098  -5.819  1.00  0.00     0.060 A 
BRANCH  90  91
ATOM     91  S   UNL     1      13.022  11.807  -5.559  1.00  0.00     0.124 S 
ATOM     92  O   UNL     1      13.889  11.996  -6.716  1.00  0.00    -0.237 OA
ATOM     93  O   UNL     1      13.593  12.174  -4.267  1.00  0.00    -0.237 OA
ATOM     94  O   UNL     1      12.226  10.583  -5.556  1.00  0.00    -0.744 OA
ENDBRANCH  90  91
ENDBRANCH  58  83
BRANCH  70  95
ATOM     95  C   UNL     1       8.929  20.429 -10.507  1.00  0.00     0.058 A 
ATOM     96  C   UNL     1       8.850  19.850 -11.782  1.00  0.00     0.135 A 
ATOM     97  C   UNL     1       9.741  21.561 -10.342  1.00  0.00     0.135 A 
ATOM     98  F   UNL     1       8.091  18.762 -11.984  1.00  0.00    -0.206 F 
ATOM     99  C   UNL     1       9.554  20.377 -12.860  1.00  0.00     0.059 A 
ATOM    100  C   UNL     1      10.445  22.110 -11.408  1.00  0.00     0.059 A 
ATOM    101  F   UNL     1       9.844  22.149  -9.140  1.00  0.00    -0.206 F 
ATOM    102  C   UNL     1      10.349  21.508 -12.663  1.00  0.00     0.060 A 
BRANCH 102 103
ATOM    103  S   UNL     1      11.219  22.224 -14.074  1.00  0.00     0.124 S 
ATOM    104  O   UNL     1      12.408  21.383 -14.144  1.00  0.00    -0.237 OA
ATOM    105  O   UNL     1      10.259  22.055 -15.161  1.00  0.00    -0.237 OA
ATOM    106  O   UNL     1      11.447  23.606 -13.661  1.00  0.00    -0.744 OA
ENDBRANCH 102 103
ENDBRANCH  70  95
ENDBRANCH  44  45
ENDBRANCH  36  39
ENDBRANCH  34  35
ENDBRANCH  33  34
ENDBRANCH   1  33
TORSDOF 20
