REMARK SMILES CCC[C@@]1(C(=O)N[C@@](C)(C(=O)NCCCCNC(=O)c2ccc(-c3c4nc(c(-c5c(F)cc(S(=O)(=O)[O-])cc5F)c5ccc([nH]5)c(-c5c(F)cc(S(=O)(=O)[O-])cc5F)c5nc(c(-c6c(F)cc(S(=O)(=O)[O-])cc6F)c6ccc3[nH]6)C=C5)C=C4)cc2)C(F)(F)F)CC[NH2+]C1
REMARK SMILES IDX 14 1 13 2 12 3 10 4 11 5 8 7 9 8 7 9 5 10 6 11 4 13 90 14
REMARK SMILES IDX 93 15 91 16 92 17 3 20 2 21 1 22 86 23 87 24 88 25 89 26
REMARK SMILES IDX 15 27 16 28 17 29 18 30 19 32 20 33 21 34 85 35 22 36 84 37
REMARK SMILES IDX 23 38 24 39 25 40 78 41 26 42 83 43 77 44 79 45 27 46 82 47
REMARK SMILES IDX 76 48 75 49 28 51 62 52 41 53 61 54 42 55 45 56 60 57 80 58
REMARK SMILES IDX 43 59 44 60 59 62 81 63 46 64 29 65 30 66 39 67 31 68 32 69
REMARK SMILES IDX 38 70 40 71 33 72 34 73 35 74 36 75 37 76 63 77 64 78 73 79
REMARK SMILES IDX 65 80 66 81 72 82 74 83 67 84 68 85 69 86 70 87 71 88 47 89
REMARK SMILES IDX 48 90 57 91 49 92 50 93 56 94 58 95 51 96 52 97 53 98 54 99
REMARK SMILES IDX 55 100
REMARK H PARENT 12 6 7 12 92 18 92 19 17 31 79 50 45 61
REMARK Flexibility Score: inf
ROOT
ATOM      1  C   UNL     1       4.781   0.042  -3.663  1.00  0.00     0.023 C 
ENDROOT
BRANCH   1   2
ATOM      2  C   UNL     1       4.797  -1.483  -3.562  1.00  0.00     0.116 C 
BRANCH   2   3
ATOM      3  N   UNL     1       5.197  -1.924  -2.237  1.00  0.00    -0.354 N 
ATOM      4  C   UNL     1       4.718  -2.829  -1.341  1.00  0.00     0.254 C 
ATOM      5  O   UNL     1       5.339  -2.853  -0.274  1.00  0.00    -0.272 OA
ATOM      6  H   UNL     1       6.002  -1.461  -1.912  1.00  0.00     0.163 HD
BRANCH   4   7
ATOM      7  C   UNL     1       3.460  -3.696  -1.582  1.00  0.00     0.212 C 
ATOM      8  C   UNL     1       3.547  -4.484  -2.902  1.00  0.00     0.056 C 
BRANCH   7   9
ATOM      9  N   UNL     1       2.330  -2.699  -1.639  1.00  0.00    -0.334 N 
ATOM     10  C   UNL     1       0.975  -2.717  -1.612  1.00  0.00     0.233 C 
ATOM     11  O   UNL     1       0.474  -2.129  -2.582  1.00  0.00    -0.274 OA
ATOM     12  H   UNL     1       2.671  -1.779  -1.717  1.00  0.00     0.164 HD
BRANCH  10  13
ATOM     13  C   UNL     1       0.102  -3.058  -0.374  1.00  0.00     0.103 C 
ATOM     14  C   UNL     1       0.248  -4.439   0.253  1.00  0.00     0.084 C 
ATOM     15  C   UNL     1      -1.370  -3.227  -0.862  1.00  0.00     0.277 C 
ATOM     16  C   UNL     1      -0.365  -5.363  -0.775  1.00  0.00     0.261 C 
ATOM     17  N   UNL     1      -1.574  -4.656  -1.197  1.00  0.00    -0.345 N 
ATOM     18  H   UNL     1      -2.387  -5.021  -0.700  1.00  0.00     0.346 HD
ATOM     19  H   UNL     1      -1.742  -4.779  -2.196  1.00  0.00     0.346 HD
BRANCH  13  20
ATOM     20  C   UNL     1       0.158  -1.946   0.723  1.00  0.00     0.023 C 
BRANCH  20  21
ATOM     21  C   UNL     1       1.355  -0.989   0.789  1.00  0.00    -0.002 C 
ATOM     22  C   UNL     1       1.225   0.210  -0.143  1.00  0.00     0.004 C 
ENDBRANCH  20  21
ENDBRANCH  13  20
ENDBRANCH  10  13
ENDBRANCH   7   9
BRANCH   7  23
ATOM     23  C   UNL     1       3.508  -4.744  -0.455  1.00  0.00     0.420 C 
ATOM     24  F   UNL     1       3.283  -4.225   0.770  1.00  0.00    -0.168 F 
ATOM     25  F   UNL     1       2.578  -5.713  -0.673  1.00  0.00    -0.168 F 
ATOM     26  F   UNL     1       4.691  -5.407  -0.417  1.00  0.00    -0.168 F 
ENDBRANCH   7  23
ENDBRANCH   4   7
ENDBRANCH   2   3
ENDBRANCH   1   2
BRANCH   1  27
ATOM     27  C   UNL     1       6.105   0.736  -3.334  1.00  0.00     0.023 C 
BRANCH  27  28
ATOM     28  C   UNL     1       7.334   0.176  -4.041  1.00  0.00     0.116 C 
BRANCH  28  29
ATOM     29  N   UNL     1       7.211   0.198  -5.489  1.00  0.00    -0.352 N 
ATOM     30  C   UNL     1       8.115   0.646  -6.424  1.00  0.00     0.251 C 
ATOM     31  H   UNL     1       6.366  -0.157  -5.850  1.00  0.00     0.163 HD
ATOM     32  O   UNL     1       7.801   0.707  -7.604  1.00  0.00    -0.269 OA
BRANCH  30  33
ATOM     33  C   UNL     1       9.454   1.085  -5.977  1.00  0.00     0.039 A 
ATOM     34  C   UNL     1       9.926   2.333  -6.389  1.00  0.00     0.014 A 
ATOM     35  C   UNL     1      10.214   0.285  -5.120  1.00  0.00     0.014 A 
ATOM     36  C   UNL     1      11.137   2.809  -5.884  1.00  0.00     0.010 A 
ATOM     37  C   UNL     1      11.382   0.794  -4.562  1.00  0.00     0.010 A 
ATOM     38  C   UNL     1      11.857   2.060  -4.939  1.00  0.00    -0.014 A 
BRANCH  38  39
ATOM     39  C   UNL     1      13.107   2.583  -4.332  1.00  0.00     0.031 A 
ATOM     40  C   UNL     1      14.413   1.877  -4.571  1.00  0.00     0.074 A 
ATOM     41  C   UNL     1      13.054   3.653  -3.514  1.00  0.00     0.049 A 
ATOM     42  N   UNL     1      15.600   2.152  -4.095  1.00  0.00    -0.248 NA
ATOM     43  C   UNL     1      14.373   0.688  -5.436  1.00  0.00     0.031 C 
ATOM     44  C   UNL     1      11.839   4.395  -3.169  1.00  0.00     0.029 A 
ATOM     45  N   UNL     1      14.046   4.301  -2.822  1.00  0.00    -0.354 N 
ATOM     46  C   UNL     1      16.442   1.161  -4.585  1.00  0.00     0.074 A 
ATOM     47  C   UNL     1      15.619   0.248  -5.348  1.00  0.00     0.031 C 
ATOM     48  C   UNL     1      12.164   5.419  -2.363  1.00  0.00     0.029 A 
ATOM     49  C   UNL     1      13.600   5.384  -2.103  1.00  0.00     0.049 A 
ATOM     50  H   UNL     1      14.988   4.017  -2.840  1.00  0.00     0.167 HD
ATOM     51  C   UNL     1      17.782   1.034  -4.432  1.00  0.00     0.037 A 
ATOM     52  C   UNL     1      14.273   6.254  -1.324  1.00  0.00     0.037 A 
ATOM     53  C   UNL     1      18.596   1.961  -3.690  1.00  0.00     0.049 A 
ATOM     54  C   UNL     1      15.760   6.090  -1.161  1.00  0.00     0.074 A 
ATOM     55  C   UNL     1      19.971   1.967  -3.534  1.00  0.00     0.029 A 
ATOM     56  N   UNL     1      18.108   3.044  -2.972  1.00  0.00    -0.354 N 
ATOM     57  N   UNL     1      16.554   5.191  -1.691  1.00  0.00    -0.248 NA
ATOM     58  C   UNL     1      16.442   7.061  -0.295  1.00  0.00     0.031 C 
ATOM     59  C   UNL     1      20.309   3.024  -2.681  1.00  0.00     0.029 A 
ATOM     60  C   UNL     1      19.151   3.708  -2.347  1.00  0.00     0.049 A 
ATOM     61  H   UNL     1      17.160   3.302  -2.915  1.00  0.00     0.167 HD
ATOM     62  C   UNL     1      17.834   5.505  -1.248  1.00  0.00     0.074 A 
ATOM     63  C   UNL     1      17.707   6.681  -0.411  1.00  0.00     0.031 C 
ATOM     64  C   UNL     1      19.008   4.880  -1.516  1.00  0.00     0.037 A 
BRANCH  51  65
ATOM     65  C   UNL     1      18.439  -0.158  -5.074  1.00  0.00     0.058 A 
ATOM     66  C   UNL     1      18.532  -0.292  -6.469  1.00  0.00     0.135 A 
ATOM     67  C   UNL     1      18.970  -1.190  -4.283  1.00  0.00     0.135 A 
ATOM     68  F   UNL     1      18.030   0.658  -7.274  1.00  0.00    -0.206 F 
ATOM     69  C   UNL     1      19.074  -1.430  -7.057  1.00  0.00     0.059 A 
ATOM     70  C   UNL     1      19.548  -2.323  -4.850  1.00  0.00     0.059 A 
ATOM     71  F   UNL     1      18.915  -1.114  -2.944  1.00  0.00    -0.206 F 
ATOM     72  C   UNL     1      19.571  -2.445  -6.239  1.00  0.00     0.060 A 
BRANCH  72  73
ATOM     73  S   UNL     1      20.231  -3.935  -7.014  1.00  0.00     0.124 S 
ATOM     74  O   UNL     1      19.007  -4.607  -7.439  1.00  0.00    -0.237 OA
ATOM     75  O   UNL     1      21.059  -3.391  -8.086  1.00  0.00    -0.237 OA
ATOM     76  O   UNL     1      20.961  -4.587  -5.931  1.00  0.00    -0.744 OA
ENDBRANCH  72  73
ENDBRANCH  51  65
BRANCH  52  77
ATOM     77  C   UNL     1      13.553   7.388  -0.688  1.00  0.00     0.058 A 
ATOM     78  C   UNL     1      13.732   8.698  -1.156  1.00  0.00     0.135 A 
ATOM     79  C   UNL     1      12.648   7.188   0.366  1.00  0.00     0.135 A 
ATOM     80  F   UNL     1      14.593   8.940  -2.157  1.00  0.00    -0.206 F 
ATOM     81  C   UNL     1      13.044   9.771  -0.601  1.00  0.00     0.059 A 
ATOM     82  C   UNL     1      11.931   8.243   0.923  1.00  0.00     0.059 A 
ATOM     83  F   UNL     1      12.430   5.951   0.839  1.00  0.00    -0.206 F 
ATOM     84  C   UNL     1      12.139   9.532   0.434  1.00  0.00     0.060 A 
BRANCH  84  85
ATOM     85  S   UNL     1      11.198  10.925   1.096  1.00  0.00     0.124 S 
ATOM     86  O   UNL     1      12.224  11.647   1.839  1.00  0.00    -0.237 OA
ATOM     87  O   UNL     1      10.715  11.572  -0.120  1.00  0.00    -0.237 OA
ATOM     88  O   UNL     1      10.168  10.279   1.905  1.00  0.00    -0.744 OA
ENDBRANCH  84  85
ENDBRANCH  52  77
BRANCH  64  89
ATOM     89  C   UNL     1      20.257   5.472  -0.924  1.00  0.00     0.058 A 
ATOM     90  C   UNL     1      20.549   5.365   0.444  1.00  0.00     0.135 A 
ATOM     91  C   UNL     1      21.198   6.111  -1.748  1.00  0.00     0.135 A 
ATOM     92  F   UNL     1      19.680   4.771   1.276  1.00  0.00    -0.206 F 
ATOM     93  C   UNL     1      21.722   5.889   0.979  1.00  0.00     0.059 A 
ATOM     94  C   UNL     1      22.389   6.618  -1.240  1.00  0.00     0.059 A 
ATOM     95  F   UNL     1      20.971   6.232  -3.066  1.00  0.00    -0.206 F 
ATOM     96  C   UNL     1      22.637   6.511   0.128  1.00  0.00     0.060 A 
BRANCH  96  97
ATOM     97  S   UNL     1      24.173   7.154   0.828  1.00  0.00     0.124 S 
ATOM     98  O   UNL     1      23.703   8.351   1.517  1.00  0.00    -0.237 OA
ATOM     99  O   UNL     1      24.608   6.057   1.687  1.00  0.00    -0.237 OA
ATOM    100  O   UNL     1      25.008   7.391  -0.346  1.00  0.00    -0.744 OA
ENDBRANCH  96  97
ENDBRANCH  64  89
ENDBRANCH  38  39
ENDBRANCH  30  33
ENDBRANCH  28  29
ENDBRANCH  27  28
ENDBRANCH   1  27
TORSDOF 19
