REMARK SMILES O=C(NCCCCNC(=O)[C@@H]1CN(c2ncccn2)CCN1C(=O)C1CCOCC1)c1ccc(-c2c3nc(c(-c4c(F)cc(S(=O)(=O)[O-])cc4F)c4ccc([nH]4)c(-c4c(F)cc(S(=O)(=O)[O-])cc4F)c4nc(c(-c5c(F)cc(S(=O)(=O)[O-])cc5F)c5ccc2[nH]5)C=C4)C=C3)cc1
REMARK SMILES IDX 5 1 4 2 3 3 1 4 2 5 31 7 32 8 96 9 33 10 95 11 34 12 35 13
REMARK SMILES IDX 36 14 89 15 37 16 94 17 88 18 90 19 38 20 93 21 87 22 86 23
REMARK SMILES IDX 39 25 73 26 52 27 72 28 53 29 56 30 71 31 91 32 54 33 55 34
REMARK SMILES IDX 70 36 92 37 57 38 40 39 41 40 50 41 42 42 43 43 49 44 51 45
REMARK SMILES IDX 44 46 45 47 46 48 47 49 48 50 74 51 75 52 84 53 76 54 77 55
REMARK SMILES IDX 83 56 85 57 78 58 79 59 80 60 81 61 82 62 58 63 59 64 68 65
REMARK SMILES IDX 60 66 61 67 67 68 69 69 62 70 63 71 64 72 65 73 66 74 6 75
REMARK SMILES IDX 7 76 8 77 9 78 10 80 11 81 12 82 22 83 13 84 21 85 20 86
REMARK SMILES IDX 23 87 24 88 25 89 26 90 30 91 27 92 29 93 28 94 14 95 15 96
REMARK SMILES IDX 19 97 16 98 18 99 17 100
REMARK H PARENT 3 6 90 24 56 35 8 79
REMARK Flexibility Score: inf
ROOT
ATOM      1  C   UNL     1       4.640  -1.333  -2.334  1.00  0.00     0.023 C 
ENDROOT
BRANCH   1   2
ATOM      2  C   UNL     1       4.478  -0.301  -1.226  1.00  0.00     0.116 C 
BRANCH   2   3
ATOM      3  N   UNL     1       3.083   0.048  -1.000  1.00  0.00    -0.352 N 
ATOM      4  O   UNL     1       1.148   0.139   0.159  1.00  0.00    -0.269 OA
ATOM      5  C   UNL     1       2.367  -0.006   0.171  1.00  0.00     0.251 C 
ATOM      6  H   UNL     1       2.588   0.365  -1.790  1.00  0.00     0.163 HD
BRANCH   5   7
ATOM      7  C   UNL     1       3.080  -0.260   1.440  1.00  0.00     0.039 A 
ATOM      8  C   UNL     1       4.249   0.446   1.737  1.00  0.00     0.014 A 
ATOM      9  C   UNL     1       2.588  -1.220   2.327  1.00  0.00     0.014 A 
ATOM     10  C   UNL     1       4.996   0.098   2.856  1.00  0.00     0.010 A 
ATOM     11  C   UNL     1       3.298  -1.509   3.495  1.00  0.00     0.010 A 
ATOM     12  C   UNL     1       4.520  -0.870   3.756  1.00  0.00    -0.014 A 
BRANCH  12  13
ATOM     13  C   UNL     1       5.290  -1.138   4.997  1.00  0.00     0.031 A 
ATOM     14  C   UNL     1       5.936  -2.473   5.243  1.00  0.00     0.074 A 
ATOM     15  C   UNL     1       5.429  -0.138   5.889  1.00  0.00     0.049 A 
ATOM     16  N   UNL     1       6.654  -2.861   6.266  1.00  0.00    -0.248 NA
ATOM     17  C   UNL     1       5.751  -3.508   4.214  1.00  0.00     0.031 C 
ATOM     18  C   UNL     1       4.833   1.196   5.757  1.00  0.00     0.029 A 
ATOM     19  N   UNL     1       6.125  -0.073   7.067  1.00  0.00    -0.354 N 
ATOM     20  C   UNL     1       7.000  -4.183   6.013  1.00  0.00     0.074 A 
ATOM     21  C   UNL     1       6.387  -4.542   4.751  1.00  0.00     0.031 C 
ATOM     22  C   UNL     1       5.224   1.957   6.788  1.00  0.00     0.029 A 
ATOM     23  C   UNL     1       6.046   1.153   7.684  1.00  0.00     0.049 A 
ATOM     24  H   UNL     1       6.633  -0.831   7.437  1.00  0.00     0.167 HD
ATOM     25  C   UNL     1       7.767  -5.014   6.760  1.00  0.00     0.037 A 
ATOM     26  C   UNL     1       6.562   1.580   8.851  1.00  0.00     0.037 A 
ATOM     27  C   UNL     1       8.377  -4.642   8.013  1.00  0.00     0.049 A 
ATOM     28  C   UNL     1       7.391   0.632   9.668  1.00  0.00     0.074 A 
ATOM     29  C   UNL     1       9.175  -5.410   8.844  1.00  0.00     0.029 A 
ATOM     30  N   UNL     1       8.259  -3.397   8.615  1.00  0.00    -0.354 N 
ATOM     31  N   UNL     1       7.715  -0.611   9.405  1.00  0.00    -0.248 NA
ATOM     32  C   UNL     1       7.920   1.141  10.939  1.00  0.00     0.031 C 
ATOM     33  C   UNL     1       9.512  -4.640   9.964  1.00  0.00     0.029 A 
ATOM     34  C   UNL     1       8.959  -3.379   9.811  1.00  0.00     0.049 A 
ATOM     35  H   UNL     1       7.752  -2.638   8.246  1.00  0.00     0.167 HD
ATOM     36  C   UNL     1       8.498  -1.031  10.473  1.00  0.00     0.074 A 
ATOM     37  C   UNL     1       8.616   0.099  11.373  1.00  0.00     0.031 C 
ATOM     38  C   UNL     1       9.064  -2.243  10.692  1.00  0.00     0.037 A 
BRANCH  25  39
ATOM     39  C   UNL     1       7.989  -6.412   6.249  1.00  0.00     0.058 A 
ATOM     40  C   UNL     1       8.829  -6.670   5.155  1.00  0.00     0.135 A 
ATOM     41  C   UNL     1       7.394  -7.511   6.890  1.00  0.00     0.135 A 
ATOM     42  F   UNL     1       9.412  -5.656   4.496  1.00  0.00    -0.206 F 
ATOM     43  C   UNL     1       9.056  -7.966   4.701  1.00  0.00     0.059 A 
ATOM     44  C   UNL     1       7.625  -8.818   6.467  1.00  0.00     0.059 A 
ATOM     45  F   UNL     1       6.582  -7.323   7.942  1.00  0.00    -0.206 F 
ATOM     46  C   UNL     1       8.448  -9.034   5.363  1.00  0.00     0.060 A 
BRANCH  46  47
ATOM     47  S   UNL     1       8.757 -10.710   4.765  1.00  0.00     0.124 S 
ATOM     48  O   UNL     1       7.959 -10.735   3.543  1.00  0.00    -0.237 OA
ATOM     49  O   UNL     1      10.204 -10.714   4.576  1.00  0.00    -0.237 OA
ATOM     50  O   UNL     1       8.268 -11.555   5.851  1.00  0.00    -0.744 OA
ENDBRANCH  46  47
ENDBRANCH  25  39
BRANCH  26  51
ATOM     51  C   UNL     1       6.294   2.966   9.314  1.00  0.00     0.058 A 
ATOM     52  C   UNL     1       7.313   3.928   9.352  1.00  0.00     0.135 A 
ATOM     53  C   UNL     1       5.005   3.359   9.709  1.00  0.00     0.135 A 
ATOM     54  F   UNL     1       8.561   3.600   8.985  1.00  0.00    -0.206 F 
ATOM     55  C   UNL     1       7.069   5.228   9.786  1.00  0.00     0.059 A 
ATOM     56  C   UNL     1       4.731   4.659  10.119  1.00  0.00     0.059 A 
ATOM     57  F   UNL     1       3.992   2.480   9.669  1.00  0.00    -0.206 F 
ATOM     58  C   UNL     1       5.774   5.583  10.167  1.00  0.00     0.060 A 
BRANCH  58  59
ATOM     59  S   UNL     1       5.455   7.280  10.692  1.00  0.00     0.124 S 
ATOM     60  O   UNL     1       6.002   7.275  12.044  1.00  0.00    -0.237 OA
ATOM     61  O   UNL     1       6.201   8.055   9.705  1.00  0.00    -0.237 OA
ATOM     62  O   UNL     1       4.003   7.392  10.597  1.00  0.00    -0.744 OA
ENDBRANCH  58  59
ENDBRANCH  26  51
BRANCH  38  63
ATOM     63  C   UNL     1       9.881  -2.395  11.944  1.00  0.00     0.058 A 
ATOM     64  C   UNL     1       9.277  -2.486  13.208  1.00  0.00     0.135 A 
ATOM     65  C   UNL     1      11.280  -2.473  11.875  1.00  0.00     0.135 A 
ATOM     66  F   UNL     1       7.943  -2.408  13.327  1.00  0.00    -0.206 F 
ATOM     67  C   UNL     1      10.037  -2.620  14.365  1.00  0.00     0.059 A 
ATOM     68  C   UNL     1      12.058  -2.632  13.017  1.00  0.00     0.059 A 
ATOM     69  F   UNL     1      11.905  -2.399  10.689  1.00  0.00    -0.206 F 
ATOM     70  C   UNL     1      11.427  -2.690  14.260  1.00  0.00     0.060 A 
BRANCH  70  71
ATOM     71  S   UNL     1      12.402  -2.883  15.767  1.00  0.00     0.124 S 
ATOM     72  O   UNL     1      12.355  -1.535  16.321  1.00  0.00    -0.237 OA
ATOM     73  O   UNL     1      11.650  -3.897  16.500  1.00  0.00    -0.237 OA
ATOM     74  O   UNL     1      13.706  -3.315  15.273  1.00  0.00    -0.744 OA
ENDBRANCH  70  71
ENDBRANCH  38  63
ENDBRANCH  12  13
ENDBRANCH   5   7
ENDBRANCH   2   3
ENDBRANCH   1   2
BRANCH   1  75
ATOM     75  C   UNL     1       4.184  -0.859  -3.715  1.00  0.00     0.023 C 
BRANCH  75  76
ATOM     76  C   UNL     1       4.867   0.416  -4.202  1.00  0.00     0.116 C 
BRANCH  76  77
ATOM     77  N   UNL     1       6.301   0.219  -4.336  1.00  0.00    -0.354 N 
ATOM     78  C   UNL     1       7.101   0.331  -5.436  1.00  0.00     0.244 C 
ATOM     79  H   UNL     1       6.766  -0.034  -3.506  1.00  0.00     0.163 HD
ATOM     80  O   UNL     1       8.191  -0.240  -5.415  1.00  0.00    -0.273 OA
BRANCH  78  81
ATOM     81  C   UNL     1       6.589   1.093  -6.666  1.00  0.00     0.193 C 
ATOM     82  C   UNL     1       6.513  -0.080  -7.685  1.00  0.00     0.155 C 
ATOM     83  N   UNL     1       7.290   2.277  -7.287  1.00  0.00    -0.327 N 
ATOM     84  N   UNL     1       5.901   0.365  -8.928  1.00  0.00    -0.336 N 
ATOM     85  C   UNL     1       6.736   2.619  -8.626  1.00  0.00     0.142 C 
ATOM     86  C   UNL     1       6.595   1.440  -9.607  1.00  0.00     0.141 C 
BRANCH  83  87
ATOM     87  C   UNL     1       7.832   3.379  -6.625  1.00  0.00     0.226 C 
ATOM     88  O   UNL     1       7.797   4.501  -7.154  1.00  0.00    -0.275 OA
BRANCH  87  89
ATOM     89  C   UNL     1       8.533   3.297  -5.268  1.00  0.00     0.083 C 
ATOM     90  C   UNL     1       9.664   2.270  -5.217  1.00  0.00     0.042 C 
ATOM     91  C   UNL     1       7.539   3.331  -4.111  1.00  0.00     0.042 C 
ATOM     92  C   UNL     1       9.937   1.691  -3.832  1.00  0.00     0.161 C 
ATOM     93  C   UNL     1       8.142   2.823  -2.817  1.00  0.00     0.161 C 
ATOM     94  O   UNL     1       8.759   1.563  -3.038  1.00  0.00    -0.381 OA
ENDBRANCH  87  89
ENDBRANCH  83  87
BRANCH  84  95
ATOM     95  C   UNL     1       5.104  -0.528  -9.587  1.00  0.00     0.225 A 
ATOM     96  N   UNL     1       5.212  -0.670 -10.916  1.00  0.00    -0.221 NA
ATOM     97  N   UNL     1       4.210  -1.208  -8.847  1.00  0.00    -0.221 NA
ATOM     98  C   UNL     1       4.403  -1.575 -11.501  1.00  0.00     0.117 A 
ATOM     99  C   UNL     1       3.394  -2.067  -9.480  1.00  0.00     0.117 A 
ATOM    100  C   UNL     1       3.455  -2.303 -10.826  1.00  0.00     0.040 A 
ENDBRANCH  84  95
ENDBRANCH  78  81
ENDBRANCH  76  77
ENDBRANCH  75  76
ENDBRANCH   1  75
TORSDOF 17
