REMARK SMILES Cc1ccc(S(=O)(=O)Nc2ccc(N3CCNC3=O)cc2)cc1C(=O)NCCCCNC(=O)c1ccc(-c2c3nc(c(-c4c(F)cc(S(=O)(=O)[O-])cc4F)c4ccc([nH]4)c(-c4c(F)cc(S(=O)(=O)[O-])cc4F)c4nc(c(-c5c(F)cc(S(=O)(=O)[O-])cc5F)c5ccc2[nH]5)C=C4)C=C3)cc1
REMARK SMILES IDX 28 1 27 2 26 3 24 4 25 5 23 7 1 8 2 9 3 10 4 11 22 12 5 13
REMARK SMILES IDX 6 14 7 15 8 16 9 17 10 19 11 20 21 21 12 22 20 23 13 24
REMARK SMILES IDX 14 25 15 26 18 27 16 28 17 29 19 30 29 32 30 33 31 34 32 35
REMARK SMILES IDX 33 37 34 38 35 39 99 40 36 41 98 42 37 43 38 44 39 45 92 46
REMARK SMILES IDX 40 47 97 48 91 49 93 50 41 51 96 52 90 53 89 54 42 56 76 57
REMARK SMILES IDX 55 58 75 59 56 60 59 61 74 62 94 63 57 64 58 65 73 67 95 68
REMARK SMILES IDX 60 69 43 70 44 71 53 72 45 73 46 74 52 75 54 76 47 77 48 78
REMARK SMILES IDX 49 79 50 80 51 81 77 82 78 83 87 84 79 85 80 86 86 87 88 88
REMARK SMILES IDX 81 89 82 90 83 91 84 92 85 93 61 94 62 95 71 96 63 97 64 98
REMARK SMILES IDX 70 99 72 100 65 101 66 102 67 103 68 104 69 105
REMARK H PARENT 26 6 9 18 17 31 31 36 93 55 59 66
REMARK Flexibility Score: inf
ROOT
ATOM      1  C   UNL     1       4.310   1.007  -1.252  1.00  0.00     0.023 C 
ENDROOT
BRANCH   1   2
ATOM      2  C   UNL     1       3.720   1.265   0.143  1.00  0.00     0.116 C 
BRANCH   2   3
ATOM      3  N   UNL     1       2.504   2.051   0.101  1.00  0.00    -0.352 N 
ATOM      4  C   UNL     1       1.159   1.856   0.217  1.00  0.00     0.251 C 
ATOM      5  O   UNL     1       0.550   2.929   0.344  1.00  0.00    -0.269 OA
ATOM      6  H   UNL     1       2.708   3.001  -0.056  1.00  0.00     0.163 HD
BRANCH   4   7
ATOM      7  C   UNL     1       0.328   0.583   0.192  1.00  0.00     0.044 A 
ATOM      8  C   UNL     1       1.998  -1.265  -0.564  1.00  0.00     0.045 C 
ATOM      9  C   UNL     1       0.664  -0.749  -0.133  1.00  0.00    -0.038 A 
ATOM     10  C   UNL     1      -0.349  -1.741  -0.149  1.00  0.00     0.005 A 
ATOM     11  C   UNL     1      -1.692  -1.425  -0.008  1.00  0.00     0.022 A 
ATOM     12  C   UNL     1      -1.061   0.850   0.409  1.00  0.00     0.036 A 
ATOM     13  C   UNL     1      -2.060  -0.105   0.210  1.00  0.00     0.088 A 
BRANCH  13  14
ATOM     14  S   UNL     1      -3.792   0.243  -0.009  1.00  0.00     0.261 S 
ATOM     15  O   UNL     1      -4.045   0.159  -1.445  1.00  0.00    -0.201 OA
ATOM     16  O   UNL     1      -4.509  -0.625   0.886  1.00  0.00    -0.201 OA
BRANCH  14  17
ATOM     17  N   UNL     1      -4.211   1.805   0.454  1.00  0.00    -0.280 N 
ATOM     18  H   UNL     1      -5.014   1.928   1.011  1.00  0.00     0.180 HD
BRANCH  17  19
ATOM     19  C   UNL     1      -3.462   2.955   0.081  1.00  0.00     0.049 A 
ATOM     20  C   UNL     1      -3.358   3.929   1.070  1.00  0.00     0.029 A 
ATOM     21  C   UNL     1      -2.902   3.179  -1.173  1.00  0.00     0.029 A 
ATOM     22  C   UNL     1      -2.522   5.025   0.882  1.00  0.00     0.028 A 
ATOM     23  C   UNL     1      -2.068   4.293  -1.364  1.00  0.00     0.028 A 
ATOM     24  C   UNL     1      -1.816   5.189  -0.315  1.00  0.00     0.046 A 
BRANCH  24  25
ATOM     25  N   UNL     1      -0.806   6.172  -0.398  1.00  0.00    -0.293 N 
ATOM     26  C   UNL     1      -0.171   6.726   0.785  1.00  0.00     0.149 C 
ATOM     27  C   UNL     1      -0.186   6.665  -1.550  1.00  0.00     0.321 C 
ATOM     28  C   UNL     1       1.111   7.348   0.261  1.00  0.00     0.139 C 
ATOM     29  N   UNL     1       0.886   7.453  -1.151  1.00  0.00    -0.336 N 
ATOM     30  O   UNL     1      -0.483   6.496  -2.729  1.00  0.00    -0.248 OA
ATOM     31  H   UNL     1       1.422   8.012  -1.760  1.00  0.00     0.165 HD
ENDBRANCH  24  25
ENDBRANCH  17  19
ENDBRANCH  14  17
ENDBRANCH  13  14
ENDBRANCH   4   7
ENDBRANCH   2   3
ENDBRANCH   1   2
BRANCH   1  32
ATOM     32  C   UNL     1       4.994   2.206  -1.910  1.00  0.00     0.023 C 
BRANCH  32  33
ATOM     33  C   UNL     1       6.297   2.603  -1.237  1.00  0.00     0.116 C 
BRANCH  33  34
ATOM     34  N   UNL     1       7.507   2.128  -1.891  1.00  0.00    -0.352 N 
ATOM     35  C   UNL     1       8.816   2.376  -1.505  1.00  0.00     0.251 C 
ATOM     36  H   UNL     1       7.383   1.570  -2.692  1.00  0.00     0.163 HD
ATOM     37  O   UNL     1       9.765   2.168  -2.250  1.00  0.00    -0.269 OA
BRANCH  35  38
ATOM     38  C   UNL     1       9.035   2.801  -0.103  1.00  0.00     0.039 A 
ATOM     39  C   UNL     1       9.671   1.890   0.747  1.00  0.00     0.014 A 
ATOM     40  C   UNL     1       8.330   3.886   0.409  1.00  0.00     0.014 A 
ATOM     41  C   UNL     1       9.415   1.938   2.115  1.00  0.00     0.010 A 
ATOM     42  C   UNL     1       7.986   3.863   1.745  1.00  0.00     0.010 A 
ATOM     43  C   UNL     1       8.485   2.859   2.591  1.00  0.00    -0.014 A 
BRANCH  43  44
ATOM     44  C   UNL     1       7.893   2.808   3.926  1.00  0.00     0.031 A 
ATOM     45  C   UNL     1       8.162   3.897   4.894  1.00  0.00     0.074 A 
ATOM     46  C   UNL     1       7.000   1.842   4.235  1.00  0.00     0.049 A 
ATOM     47  N   UNL     1       7.893   3.853   6.155  1.00  0.00    -0.248 NA
ATOM     48  C   UNL     1       8.837   5.129   4.505  1.00  0.00     0.031 C 
ATOM     49  C   UNL     1       6.027   1.860   5.324  1.00  0.00     0.029 A 
ATOM     50  N   UNL     1       6.915   0.549   3.728  1.00  0.00    -0.354 N 
ATOM     51  C   UNL     1       8.071   5.118   6.676  1.00  0.00     0.074 A 
ATOM     52  C   UNL     1       8.748   5.842   5.629  1.00  0.00     0.031 C 
ATOM     53  C   UNL     1       5.606   0.608   5.558  1.00  0.00     0.029 A 
ATOM     54  C   UNL     1       6.411  -0.283   4.741  1.00  0.00     0.049 A 
ATOM     55  H   UNL     1       7.164   0.267   2.819  1.00  0.00     0.167 HD
ATOM     56  C   UNL     1       7.495   5.424   7.877  1.00  0.00     0.037 A 
ATOM     57  C   UNL     1       7.159  -1.311   5.245  1.00  0.00     0.037 A 
ATOM     58  C   UNL     1       6.986   4.209   8.526  1.00  0.00     0.049 A 
ATOM     59  C   UNL     1       7.537  -1.152   6.702  1.00  0.00     0.074 A 
ATOM     60  C   UNL     1       5.720   3.658   8.645  1.00  0.00     0.029 A 
ATOM     61  N   UNL     1       7.881   3.216   8.917  1.00  0.00    -0.354 N 
ATOM     62  N   UNL     1       7.401  -0.043   7.375  1.00  0.00    -0.248 NA
ATOM     63  C   UNL     1       8.116  -2.221   7.513  1.00  0.00     0.031 C 
ATOM     64  C   UNL     1       5.866   2.297   9.022  1.00  0.00     0.029 A 
ATOM     65  C   UNL     1       7.216   2.028   9.161  1.00  0.00     0.049 A 
ATOM     66  H   UNL     1       8.853   3.343   9.008  1.00  0.00     0.167 HD
ATOM     67  C   UNL     1       7.898  -0.204   8.642  1.00  0.00     0.074 A 
ATOM     68  C   UNL     1       8.300  -1.597   8.691  1.00  0.00     0.031 C 
ATOM     69  C   UNL     1       7.952   0.827   9.537  1.00  0.00     0.037 A 
BRANCH  56  70
ATOM     70  C   UNL     1       7.115   6.838   8.320  1.00  0.00     0.058 A 
ATOM     71  C   UNL     1       6.091   7.039   9.277  1.00  0.00     0.135 A 
ATOM     72  C   UNL     1       7.625   8.036   7.780  1.00  0.00     0.135 A 
ATOM     73  F   UNL     1       5.571   6.019   9.972  1.00  0.00    -0.206 F 
ATOM     74  C   UNL     1       5.540   8.295   9.564  1.00  0.00     0.059 A 
ATOM     75  C   UNL     1       7.068   9.296   8.018  1.00  0.00     0.059 A 
ATOM     76  F   UNL     1       8.728   8.065   7.030  1.00  0.00    -0.206 F 
ATOM     77  C   UNL     1       6.008   9.417   8.897  1.00  0.00     0.060 A 
BRANCH  77  78
ATOM     78  S   UNL     1       5.237  11.017   9.196  1.00  0.00     0.124 S 
ATOM     79  O   UNL     1       3.850  10.762   8.818  1.00  0.00    -0.237 OA
ATOM     80  O   UNL     1       5.484  11.216  10.619  1.00  0.00    -0.237 OA
ATOM     81  O   UNL     1       5.964  11.918   8.304  1.00  0.00    -0.744 OA
ENDBRANCH  77  78
ENDBRANCH  56  70
BRANCH  57  82
ATOM     82  C   UNL     1       7.968  -2.001   4.203  1.00  0.00     0.058 A 
ATOM     83  C   UNL     1       7.264  -2.748   3.240  1.00  0.00     0.135 A 
ATOM     84  C   UNL     1       9.255  -1.554   3.869  1.00  0.00     0.135 A 
ATOM     85  F   UNL     1       6.037  -3.218   3.521  1.00  0.00    -0.206 F 
ATOM     86  C   UNL     1       7.727  -2.875   1.937  1.00  0.00     0.059 A 
ATOM     87  C   UNL     1       9.744  -1.679   2.567  1.00  0.00     0.059 A 
ATOM     88  F   UNL     1       9.975  -0.844   4.750  1.00  0.00    -0.206 F 
ATOM     89  C   UNL     1       8.932  -2.266   1.595  1.00  0.00     0.060 A 
BRANCH  89  90
ATOM     90  S   UNL     1       9.290  -2.060  -0.166  1.00  0.00     0.124 S 
ATOM     91  O   UNL     1       9.250  -3.436  -0.649  1.00  0.00    -0.237 OA
ATOM     92  O   UNL     1       8.177  -1.209  -0.583  1.00  0.00    -0.237 OA
ATOM     93  O   UNL     1      10.604  -1.427  -0.166  1.00  0.00    -0.744 OA
ENDBRANCH  89  90
ENDBRANCH  57  82
BRANCH  69  94
ATOM     94  C   UNL     1       8.636   0.782  10.882  1.00  0.00     0.058 A 
ATOM     95  C   UNL     1       9.802   0.044  11.148  1.00  0.00     0.135 A 
ATOM     96  C   UNL     1       8.192   1.623  11.931  1.00  0.00     0.135 A 
ATOM     97  F   UNL     1      10.379  -0.708  10.199  1.00  0.00    -0.206 F 
ATOM     98  C   UNL     1      10.448   0.086  12.386  1.00  0.00     0.059 A 
ATOM     99  C   UNL     1       8.850   1.720  13.154  1.00  0.00     0.059 A 
ATOM    100  F   UNL     1       7.099   2.390  11.794  1.00  0.00    -0.206 F 
ATOM    101  C   UNL     1       9.965   0.927  13.384  1.00  0.00     0.060 A 
BRANCH 101 102
ATOM    102  S   UNL     1      10.824   1.040  14.965  1.00  0.00     0.124 S 
ATOM    103  O   UNL     1      10.095   0.059  15.762  1.00  0.00    -0.237 OA
ATOM    104  O   UNL     1      12.195   0.676  14.619  1.00  0.00    -0.237 OA
ATOM    105  O   UNL     1      10.632   2.436  15.345  1.00  0.00    -0.744 OA
ENDBRANCH 101 102
ENDBRANCH  69  94
ENDBRANCH  43  44
ENDBRANCH  35  38
ENDBRANCH  33  34
ENDBRANCH  32  33
ENDBRANCH   1  32
TORSDOF 18
