REMARK SMILES Cc1oc2c(C)c3oc(=O)c(CC(=O)N[C@@H](CC(C)C)C(=O)NCCCCNC(=O)c4ccc(-c5c6nc(c(-c7c(F)cc(S(=O)(=O)[O-])cc7F)c7ccc([nH]7)c(-c7c(F)cc(S(=O)(=O)[O-])cc7F)c7nc(c(-c8c(F)cc(S(=O)(=O)[O-])cc8F)c8ccc5[nH]8)C=C7)C=C6)cc4)c(C)c3cc2c1C
REMARK SMILES IDX 25 1 24 2 23 3 21 4 22 5 16 7 15 8 13 9 14 10 12 12 11 13
REMARK SMILES IDX 1 14 2 15 3 16 102 17 4 18 101 19 103 20 5 21 100 22 6 23
REMARK SMILES IDX 7 24 99 25 8 26 97 27 9 28 98 29 10 30 17 31 18 32 19 33
REMARK SMILES IDX 20 34 26 35 27 36 28 37 29 38 30 40 31 41 32 42 96 43 33 44
REMARK SMILES IDX 95 45 34 46 35 47 36 48 89 49 37 50 94 51 88 52 90 53 38 54
REMARK SMILES IDX 93 55 87 56 86 57 39 59 73 60 52 61 72 62 53 63 56 64 71 65
REMARK SMILES IDX 91 66 54 67 55 68 70 70 92 71 57 72 40 73 41 74 50 75 42 76
REMARK SMILES IDX 43 77 49 78 51 79 44 80 45 81 46 82 47 83 48 84 74 85 75 86
REMARK SMILES IDX 84 87 76 88 77 89 83 90 85 91 78 92 79 93 80 94 81 95 82 96
REMARK SMILES IDX 58 97 59 98 68 99 60 100 61 101 67 102 69 103 62 104 63 105
REMARK SMILES IDX 64 106 65 107 66 108
REMARK H PARENT 23 6 15 11 28 39 90 58 56 69
REMARK Flexibility Score: inf
ROOT
ATOM      1  C   UNL     1       0.981  12.670   6.216  1.00  0.00     0.023 C 
ENDROOT
BRANCH   1   2
ATOM      2  C   UNL     1       0.181  11.513   5.626  1.00  0.00     0.116 C 
BRANCH   2   3
ATOM      3  N   UNL     1      -0.848  11.941   4.695  1.00  0.00    -0.354 N 
ATOM      4  C   UNL     1      -1.519  11.283   3.706  1.00  0.00     0.242 C 
ATOM      5  O   UNL     1      -2.568  11.807   3.314  1.00  0.00    -0.273 OA
ATOM      6  H   UNL     1      -1.112  12.883   4.797  1.00  0.00     0.163 HD
BRANCH   4   7
ATOM      7  C   UNL     1      -1.067   9.936   3.099  1.00  0.00     0.171 C 
BRANCH   7   8
ATOM      8  N   UNL     1       0.339  10.004   2.693  1.00  0.00    -0.344 N 
ATOM      9  C   UNL     1       0.835  10.179   1.435  1.00  0.00     0.225 C 
ATOM     10  O   UNL     1       1.986  10.606   1.323  1.00  0.00    -0.275 OA
ATOM     11  H   UNL     1       1.003   9.911   3.414  1.00  0.00     0.164 HD
BRANCH   9  12
ATOM     12  C   UNL     1       0.011   9.785   0.212  1.00  0.00     0.143 C 
BRANCH  12  13
ATOM     13  C   UNL     1      -0.289   8.299   0.218  1.00  0.00     0.051 A 
ATOM     14  C   UNL     1       0.355  -0.114   0.124  1.00  0.00     0.088 C 
ATOM     15  C   UNL     1       0.365   1.349   0.329  1.00  0.00     0.105 A 
ATOM     16  O   UNL     1      -0.859   1.948   0.388  1.00  0.00    -0.461 OA
ATOM     17  C   UNL     1       1.373   2.289   0.440  1.00  0.00    -0.002 A 
ATOM     18  C   UNL     1      -0.652   3.295   0.466  1.00  0.00     0.141 A 
ATOM     19  C   UNL     1       0.710   3.549   0.495  1.00  0.00     0.025 A 
ATOM     20  C   UNL     1       2.842   2.088   0.430  1.00  0.00     0.049 C 
ATOM     21  C   UNL     1      -1.643   4.282   0.484  1.00  0.00     0.036 A 
ATOM     22  C   UNL     1       1.151   4.880   0.532  1.00  0.00     0.024 A 
ATOM     23  C   UNL     1      -3.102   3.952   0.513  1.00  0.00     0.052 C 
ATOM     24  C   UNL     1      -1.140   5.601   0.420  1.00  0.00     0.145 A 
ATOM     25  C   UNL     1       0.221   5.923   0.426  1.00  0.00     0.022 A 
ATOM     26  O   UNL     1      -2.092   6.637   0.308  1.00  0.00    -0.422 OA
ATOM     27  C   UNL     1       0.647   7.330   0.310  1.00  0.00    -0.029 A 
ATOM     28  C   UNL     1      -1.734   7.961   0.126  1.00  0.00     0.340 A 
ATOM     29  C   UNL     1       2.132   7.603   0.288  1.00  0.00     0.046 C 
ATOM     30  O   UNL     1      -2.585   8.816  -0.091  1.00  0.00    -0.246 OA
ENDBRANCH  12  13
ENDBRANCH   9  12
ENDBRANCH   7   8
BRANCH   7  31
ATOM     31  C   UNL     1      -1.437   8.615   3.807  1.00  0.00     0.038 C 
BRANCH  31  32
ATOM     32  C   UNL     1      -1.202   8.488   5.321  1.00  0.00    -0.015 C 
ATOM     33  C   UNL     1      -2.329   9.141   6.129  1.00  0.00     0.007 C 
ATOM     34  C   UNL     1      -1.110   7.016   5.742  1.00  0.00     0.007 C 
ENDBRANCH  31  32
ENDBRANCH   7  31
ENDBRANCH   4   7
ENDBRANCH   2   3
ENDBRANCH   1   2
BRANCH   1  35
ATOM     35  C   UNL     1       0.198  13.590   7.170  1.00  0.00     0.023 C 
BRANCH  35  36
ATOM     36  C   UNL     1      -0.421  12.921   8.409  1.00  0.00     0.116 C 
BRANCH  36  37
ATOM     37  N   UNL     1       0.589  12.251   9.208  1.00  0.00    -0.352 N 
ATOM     38  C   UNL     1       0.960  12.416  10.516  1.00  0.00     0.251 C 
ATOM     39  H   UNL     1       1.095  11.558   8.726  1.00  0.00     0.163 HD
ATOM     40  O   UNL     1       2.049  11.961  10.866  1.00  0.00    -0.269 OA
BRANCH  38  41
ATOM     41  C   UNL     1       0.110  13.104  11.514  1.00  0.00     0.039 A 
ATOM     42  C   UNL     1       0.752  13.907  12.466  1.00  0.00     0.014 A 
ATOM     43  C   UNL     1      -1.261  12.855  11.634  1.00  0.00     0.014 A 
ATOM     44  C   UNL     1       0.025  14.483  13.509  1.00  0.00     0.010 A 
ATOM     45  C   UNL     1      -1.989  13.436  12.682  1.00  0.00     0.010 A 
ATOM     46  C   UNL     1      -1.355  14.264  13.620  1.00  0.00    -0.014 A 
BRANCH  46  47
ATOM     47  C   UNL     1      -2.085  15.032  14.654  1.00  0.00     0.031 A 
ATOM     48  C   UNL     1      -3.346  15.692  14.192  1.00  0.00     0.074 A 
ATOM     49  C   UNL     1      -1.976  14.741  15.970  1.00  0.00     0.049 A 
ATOM     50  N   UNL     1      -4.483  15.067  14.096  1.00  0.00    -0.248 NA
ATOM     51  C   UNL     1      -3.349  17.013  13.563  1.00  0.00     0.031 C 
ATOM     52  C   UNL     1      -1.907  13.371  16.492  1.00  0.00     0.029 A 
ATOM     53  N   UNL     1      -2.161  15.524  17.089  1.00  0.00    -0.354 N 
ATOM     54  C   UNL     1      -5.345  15.879  13.377  1.00  0.00     0.074 A 
ATOM     55  C   UNL     1      -4.596  17.076  13.067  1.00  0.00     0.031 C 
ATOM     56  C   UNL     1      -2.207  13.396  17.808  1.00  0.00     0.029 A 
ATOM     57  C   UNL     1      -2.346  14.782  18.255  1.00  0.00     0.049 A 
ATOM     58  H   UNL     1      -2.162  16.509  17.068  1.00  0.00     0.167 HD
ATOM     59  C   UNL     1      -6.622  15.516  13.081  1.00  0.00     0.037 A 
ATOM     60  C   UNL     1      -3.103  15.175  19.319  1.00  0.00     0.037 A 
ATOM     61  C   UNL     1      -7.033  14.256  13.625  1.00  0.00     0.049 A 
ATOM     62  C   UNL     1      -4.491  15.006  18.758  1.00  0.00     0.074 A 
ATOM     63  C   UNL     1      -7.094  12.944  13.212  1.00  0.00     0.029 A 
ATOM     64  N   UNL     1      -7.426  14.234  14.943  1.00  0.00    -0.354 N 
ATOM     65  N   UNL     1      -5.127  13.870  18.645  1.00  0.00    -0.248 NA
ATOM     66  C   UNL     1      -5.035  16.091  17.938  1.00  0.00     0.031 C 
ATOM     67  C   UNL     1      -7.072  12.168  14.413  1.00  0.00     0.029 A 
ATOM     68  C   UNL     1      -6.964  13.060  15.479  1.00  0.00     0.049 A 
ATOM     69  H   UNL     1      -7.942  14.929  15.412  1.00  0.00     0.167 HD
ATOM     70  C   UNL     1      -5.944  14.016  17.523  1.00  0.00     0.074 A 
ATOM     71  C   UNL     1      -5.873  15.417  17.161  1.00  0.00     0.031 C 
ATOM     72  C   UNL     1      -6.464  12.962  16.831  1.00  0.00     0.037 A 
BRANCH  59  73
ATOM     73  C   UNL     1      -7.633  16.364  12.414  1.00  0.00     0.058 A 
ATOM     74  C   UNL     1      -8.635  16.945  13.209  1.00  0.00     0.135 A 
ATOM     75  C   UNL     1      -7.789  16.405  11.024  1.00  0.00     0.135 A 
ATOM     76  F   UNL     1      -8.525  16.919  14.549  1.00  0.00    -0.206 F 
ATOM     77  C   UNL     1      -9.783  17.491  12.654  1.00  0.00     0.059 A 
ATOM     78  C   UNL     1      -8.930  16.959  10.441  1.00  0.00     0.059 A 
ATOM     79  F   UNL     1      -6.864  15.854  10.223  1.00  0.00    -0.206 F 
ATOM     80  C   UNL     1      -9.933  17.473  11.268  1.00  0.00     0.060 A 
BRANCH  80  81
ATOM     81  S   UNL     1     -11.487  18.086  10.581  1.00  0.00     0.124 S 
ATOM     82  O   UNL     1     -12.455  17.149  11.142  1.00  0.00    -0.237 OA
ATOM     83  O   UNL     1     -11.535  19.444  11.112  1.00  0.00    -0.237 OA
ATOM     84  O   UNL     1     -11.283  17.988   9.138  1.00  0.00    -0.744 OA
ENDBRANCH  80  81
ENDBRANCH  59  73
BRANCH  60  85
ATOM     85  C   UNL     1      -2.621  16.389  20.050  1.00  0.00     0.058 A 
ATOM     86  C   UNL     1      -1.283  16.391  20.504  1.00  0.00     0.135 A 
ATOM     87  C   UNL     1      -3.363  17.546  20.331  1.00  0.00     0.135 A 
ATOM     88  F   UNL     1      -0.537  15.277  20.411  1.00  0.00    -0.206 F 
ATOM     89  C   UNL     1      -0.673  17.522  21.038  1.00  0.00     0.059 A 
ATOM     90  C   UNL     1      -2.770  18.703  20.844  1.00  0.00     0.059 A 
ATOM     91  F   UNL     1      -4.681  17.600  20.095  1.00  0.00    -0.206 F 
ATOM     92  C   UNL     1      -1.413  18.693  21.152  1.00  0.00     0.060 A 
BRANCH  92  93
ATOM     93  S   UNL     1      -0.555  20.208  21.627  1.00  0.00     0.124 S 
ATOM     94  O   UNL     1      -0.061  19.873  22.962  1.00  0.00    -0.237 OA
ATOM     95  O   UNL     1       0.464  20.308  20.583  1.00  0.00    -0.237 OA
ATOM     96  O   UNL     1      -1.597  21.221  21.578  1.00  0.00    -0.744 OA
ENDBRANCH  92  93
ENDBRANCH  60  85
BRANCH  72  97
ATOM     97  C   UNL     1      -6.262  11.616  17.439  1.00  0.00     0.058 A 
ATOM     98  C   UNL     1      -7.024  11.221  18.545  1.00  0.00     0.135 A 
ATOM     99  C   UNL     1      -5.377  10.680  16.878  1.00  0.00     0.135 A 
ATOM    100  F   UNL     1      -7.886  12.078  19.115  1.00  0.00    -0.206 F 
ATOM    101  C   UNL     1      -6.950   9.926  19.047  1.00  0.00     0.059 A 
ATOM    102  C   UNL     1      -5.303   9.373  17.351  1.00  0.00     0.059 A 
ATOM    103  F   UNL     1      -4.604  11.009  15.829  1.00  0.00    -0.206 F 
ATOM    104  C   UNL     1      -6.106   9.002  18.428  1.00  0.00     0.060 A 
BRANCH 104 105
ATOM    105  S   UNL     1      -6.144   7.290  18.994  1.00  0.00     0.124 S 
ATOM    106  O   UNL     1      -5.552   7.394  20.324  1.00  0.00    -0.237 OA
ATOM    107  O   UNL     1      -7.571   6.985  18.958  1.00  0.00    -0.237 OA
ATOM    108  O   UNL     1      -5.337   6.582  18.004  1.00  0.00    -0.744 OA
ENDBRANCH 104 105
ENDBRANCH  72  97
ENDBRANCH  46  47
ENDBRANCH  38  41
ENDBRANCH  36  37
ENDBRANCH  35  36
ENDBRANCH   1  35
TORSDOF 19
