REMARK SMILES C[C@H]1[C@H](C(=O)NCCCCNC(=O)c2ccc(-c3c4nc(c(-c5c(F)cc(S(=O)(=O)[O-])cc5F)c5ccc([nH]5)c(-c5c(F)cc(S(=O)(=O)[O-])cc5F)c5nc(c(-c6c(F)cc(S(=O)(=O)[O-])cc6F)c6ccc3[nH]6)C=C5)C=C4)cc2)CC[N@@H+]1Cc1cnn(-c2ccccc2)c1
REMARK SMILES IDX 8 1 7 2 6 3 4 4 5 5 3 7 1 8 2 9 82 10 80 11 81 12 83 14
REMARK SMILES IDX 84 15 85 16 94 17 86 18 87 19 88 20 89 21 93 22 90 23 92 24
REMARK SMILES IDX 91 25 9 26 10 27 11 28 12 29 13 31 14 32 15 33 79 34 16 35
REMARK SMILES IDX 78 36 17 37 18 38 19 39 72 40 20 41 77 42 71 43 73 44 21 45
REMARK SMILES IDX 76 46 70 47 69 48 22 50 56 51 35 52 55 53 36 54 39 55 54 56
REMARK SMILES IDX 74 57 37 58 38 59 53 61 75 62 40 63 23 64 24 65 33 66 25 67
REMARK SMILES IDX 26 68 32 69 34 70 27 71 28 72 29 73 30 74 31 75 57 76 58 77
REMARK SMILES IDX 67 78 59 79 60 80 66 81 68 82 61 83 62 84 63 85 64 86 65 87
REMARK SMILES IDX 41 88 42 89 51 90 43 91 44 92 50 93 52 94 45 95 46 96 47 97
REMARK SMILES IDX 48 98 49 99
REMARK H PARENT 6 6 82 13 11 30 73 49 39 60
REMARK Flexibility Score: inf
ROOT
ATOM      1  C   UNL     1       1.484  -0.062   4.398  1.00  0.00     0.023 C 
ENDROOT
BRANCH   1   2
ATOM      2  C   UNL     1       0.725   0.719   3.321  1.00  0.00     0.116 C 
BRANCH   2   3
ATOM      3  N   UNL     1       1.342   1.735   2.501  1.00  0.00    -0.356 N 
ATOM      4  C   UNL     1       0.907   2.117   1.251  1.00  0.00     0.229 C 
ATOM      5  O   UNL     1       0.989   3.318   0.970  1.00  0.00    -0.275 OA
ATOM      6  H   UNL     1       2.136   2.191   2.863  1.00  0.00     0.163 HD
BRANCH   4   7
ATOM      7  C   UNL     1       0.385   1.142   0.184  1.00  0.00     0.142 C 
ATOM      8  C   UNL     1       1.639  -0.778  -0.799  1.00  0.00     0.076 C 
ATOM      9  C   UNL     1       0.675  -0.359   0.335  1.00  0.00     0.193 C 
ATOM     10  N   UNL     1      -0.636  -1.051   0.227  1.00  0.00    -0.328 N 
ATOM     11  C   UNL     1      -1.106   1.230  -0.154  1.00  0.00     0.081 C 
ATOM     12  C   UNL     1      -1.462  -0.182  -0.607  1.00  0.00     0.263 C 
ATOM     13  H   UNL     1      -0.466  -1.967  -0.186  1.00  0.00     0.348 HD
BRANCH  10  14
ATOM     14  C   UNL     1      -1.312  -1.545   1.464  1.00  0.00     0.302 C 
BRANCH  14  15
ATOM     15  C   UNL     1      -2.178  -0.586   2.279  1.00  0.00     0.045 A 
ATOM     16  C   UNL     1      -3.449  -0.028   1.987  1.00  0.00     0.145 A 
ATOM     17  C   UNL     1      -2.028  -0.165   3.594  1.00  0.00     0.124 A 
ATOM     18  N   UNL     1      -3.913   0.808   2.928  1.00  0.00    -0.176 NA
ATOM     19  N   UNL     1      -2.899   0.893   3.821  1.00  0.00    -0.240 N 
BRANCH  19  20
ATOM     20  C   UNL     1      -2.848   1.915   4.834  1.00  0.00     0.065 A 
ATOM     21  C   UNL     1      -4.023   2.322   5.461  1.00  0.00     0.028 A 
ATOM     22  C   UNL     1      -1.654   2.540   5.248  1.00  0.00     0.028 A 
ATOM     23  C   UNL     1      -3.970   3.227   6.539  1.00  0.00     0.002 A 
ATOM     24  C   UNL     1      -1.593   3.416   6.336  1.00  0.00     0.002 A 
ATOM     25  C   UNL     1      -2.757   3.750   6.994  1.00  0.00     0.000 A 
ENDBRANCH  19  20
ENDBRANCH  14  15
ENDBRANCH  10  14
ENDBRANCH   4   7
ENDBRANCH   2   3
ENDBRANCH   1   2
BRANCH   1  26
ATOM     26  C   UNL     1       1.243   0.156   5.924  1.00  0.00     0.023 C 
BRANCH  26  27
ATOM     27  C   UNL     1      -0.095  -0.000   6.701  1.00  0.00     0.116 C 
BRANCH  27  28
ATOM     28  N   UNL     1      -0.723  -1.298   6.875  1.00  0.00    -0.352 N 
ATOM     29  C   UNL     1      -1.754  -1.586   7.773  1.00  0.00     0.251 C 
ATOM     30  H   UNL     1      -0.396  -2.036   6.312  1.00  0.00     0.163 HD
ATOM     31  O   UNL     1      -2.347  -2.660   7.713  1.00  0.00    -0.269 OA
BRANCH  29  32
ATOM     32  C   UNL     1      -2.126  -0.607   8.837  1.00  0.00     0.039 A 
ATOM     33  C   UNL     1      -1.632  -0.765  10.132  1.00  0.00     0.014 A 
ATOM     34  C   UNL     1      -2.980   0.462   8.577  1.00  0.00     0.014 A 
ATOM     35  C   UNL     1      -1.895   0.210  11.116  1.00  0.00     0.010 A 
ATOM     36  C   UNL     1      -3.183   1.469   9.547  1.00  0.00     0.010 A 
ATOM     37  C   UNL     1      -2.600   1.398  10.821  1.00  0.00    -0.014 A 
BRANCH  37  38
ATOM     38  C   UNL     1      -2.600   2.565  11.788  1.00  0.00     0.031 A 
ATOM     39  C   UNL     1      -3.854   3.306  12.229  1.00  0.00     0.074 A 
ATOM     40  C   UNL     1      -1.415   3.045  12.241  1.00  0.00     0.049 A 
ATOM     41  N   UNL     1      -3.967   4.309  13.074  1.00  0.00    -0.248 NA
ATOM     42  C   UNL     1      -5.130   2.912  11.620  1.00  0.00     0.031 C 
ATOM     43  C   UNL     1      -0.095   2.569  11.821  1.00  0.00     0.029 A 
ATOM     44  N   UNL     1      -1.119   4.033  13.159  1.00  0.00    -0.354 N 
ATOM     45  C   UNL     1      -5.312   4.675  13.080  1.00  0.00     0.074 A 
ATOM     46  C   UNL     1      -5.963   3.826  12.103  1.00  0.00     0.031 C 
ATOM     47  C   UNL     1       0.855   3.196  12.530  1.00  0.00     0.029 A 
ATOM     48  C   UNL     1       0.228   4.165  13.423  1.00  0.00     0.049 A 
ATOM     49  H   UNL     1      -1.807   4.593  13.586  1.00  0.00     0.167 HD
ATOM     50  C   UNL     1      -5.961   5.597  13.842  1.00  0.00     0.037 A 
ATOM     51  C   UNL     1       0.903   4.957  14.283  1.00  0.00     0.037 A 
ATOM     52  C   UNL     1      -5.342   6.416  14.859  1.00  0.00     0.049 A 
ATOM     53  C   UNL     1       0.161   5.916  15.174  1.00  0.00     0.074 A 
ATOM     54  C   UNL     1      -5.953   7.287  15.751  1.00  0.00     0.029 A 
ATOM     55  N   UNL     1      -3.984   6.475  15.125  1.00  0.00    -0.354 N 
ATOM     56  N   UNL     1      -1.127   6.145  15.245  1.00  0.00    -0.248 NA
ATOM     57  C   UNL     1       0.965   6.721  16.108  1.00  0.00     0.031 C 
ATOM     58  C   UNL     1      -4.962   7.903  16.523  1.00  0.00     0.029 A 
ATOM     59  C   UNL     1      -3.737   7.378  16.151  1.00  0.00     0.049 A 
ATOM     60  H   UNL     1      -3.294   5.954  14.655  1.00  0.00     0.167 HD
ATOM     61  C   UNL     1      -1.288   7.098  16.247  1.00  0.00     0.074 A 
ATOM     62  C   UNL     1       0.029   7.390  16.767  1.00  0.00     0.031 C 
ATOM     63  C   UNL     1      -2.432   7.674  16.689  1.00  0.00     0.037 A 
BRANCH  50  64
ATOM     64  C   UNL     1      -7.452   5.757  13.646  1.00  0.00     0.058 A 
ATOM     65  C   UNL     1      -8.354   4.744  14.013  1.00  0.00     0.135 A 
ATOM     66  C   UNL     1      -7.995   6.961  13.161  1.00  0.00     0.135 A 
ATOM     67  F   UNL     1      -7.898   3.575  14.491  1.00  0.00    -0.206 F 
ATOM     68  C   UNL     1      -9.728   4.897  13.862  1.00  0.00     0.059 A 
ATOM     69  C   UNL     1      -9.370   7.149  13.034  1.00  0.00     0.059 A 
ATOM     70  F   UNL     1      -7.188   7.976  12.816  1.00  0.00    -0.206 F 
ATOM     71  C   UNL     1     -10.228   6.103  13.368  1.00  0.00     0.060 A 
BRANCH  71  72
ATOM     72  S   UNL     1     -12.015   6.274  13.174  1.00  0.00     0.124 S 
ATOM     73  O   UNL     1     -12.266   5.416  12.022  1.00  0.00    -0.237 OA
ATOM     74  O   UNL     1     -12.518   5.785  14.451  1.00  0.00    -0.237 OA
ATOM     75  O   UNL     1     -12.196   7.707  12.940  1.00  0.00    -0.744 OA
ENDBRANCH  71  72
ENDBRANCH  50  64
BRANCH  51  76
ATOM     76  C   UNL     1       2.387   4.846  14.384  1.00  0.00     0.058 A 
ATOM     77  C   UNL     1       2.991   4.295  15.526  1.00  0.00     0.135 A 
ATOM     78  C   UNL     1       3.227   5.282  13.348  1.00  0.00     0.135 A 
ATOM     79  F   UNL     1       2.232   3.873  16.549  1.00  0.00    -0.206 F 
ATOM     80  C   UNL     1       4.373   4.199  15.646  1.00  0.00     0.059 A 
ATOM     81  C   UNL     1       4.611   5.167  13.432  1.00  0.00     0.059 A 
ATOM     82  F   UNL     1       2.700   5.798  12.227  1.00  0.00    -0.206 F 
ATOM     83  C   UNL     1       5.176   4.634  14.591  1.00  0.00     0.060 A 
BRANCH  83  84
ATOM     84  S   UNL     1       6.967   4.454  14.734  1.00  0.00     0.124 S 
ATOM     85  O   UNL     1       7.290   5.489  15.707  1.00  0.00    -0.237 OA
ATOM     86  O   UNL     1       7.099   3.076  15.197  1.00  0.00    -0.237 OA
ATOM     87  O   UNL     1       7.437   4.696  13.373  1.00  0.00    -0.744 OA
ENDBRANCH  83  84
ENDBRANCH  51  76
BRANCH  63  88
ATOM     88  C   UNL     1      -2.333   8.660  17.825  1.00  0.00     0.058 A 
ATOM     89  C   UNL     1      -1.765   9.934  17.656  1.00  0.00     0.135 A 
ATOM     90  C   UNL     1      -2.854   8.344  19.090  1.00  0.00     0.135 A 
ATOM     91  F   UNL     1      -1.243  10.290  16.472  1.00  0.00    -0.206 F 
ATOM     92  C   UNL     1      -1.700  10.849  18.705  1.00  0.00     0.059 A 
ATOM     93  C   UNL     1      -2.825   9.253  20.145  1.00  0.00     0.059 A 
ATOM     94  F   UNL     1      -3.414   7.144  19.310  1.00  0.00    -0.206 F 
ATOM     95  C   UNL     1      -2.236  10.500  19.946  1.00  0.00     0.060 A 
BRANCH  95  96
ATOM     96  S   UNL     1      -2.176  11.710  21.287  1.00  0.00     0.124 S 
ATOM     97  O   UNL     1      -0.759  11.696  21.634  1.00  0.00    -0.237 OA
ATOM     98  O   UNL     1      -2.657  12.923  20.634  1.00  0.00    -0.237 OA
ATOM     99  O   UNL     1      -3.073  11.148  22.292  1.00  0.00    -0.744 OA
ENDBRANCH  95  96
ENDBRANCH  63  88
ENDBRANCH  37  38
ENDBRANCH  29  32
ENDBRANCH  27  28
ENDBRANCH  26  27
ENDBRANCH   1  26
TORSDOF 17
