REMARK SMILES Cc1ccc(C)c(-n2nc(C)c(/C=C(/C#N)C(=O)NCCCCNC(=O)c3ccc(-c4c5nc(c(-c6c(F)cc(S(=O)(=O)[O-])cc6F)c6ccc([nH]6)c(-c6c(F)cc(S(=O)(=O)[O-])cc6F)c6nc(c(-c7c(F)cc(S(=O)(=O)[O-])cc7F)c7ccc4[nH]7)C=C6)C=C5)cc3)c2Cl)c1
REMARK SMILES IDX 22 1 21 2 20 3 19 4 17 5 18 6 14 8 13 9 12 10 8 11 9 12
REMARK SMILES IDX 93 13 10 14 94 15 11 16 7 17 1 18 2 19 3 20 95 21 4 22 5 23
REMARK SMILES IDX 6 24 15 25 16 26 23 27 24 28 25 29 26 31 27 32 28 33 92 34
REMARK SMILES IDX 29 35 91 36 30 37 31 38 32 39 85 40 33 41 90 42 84 43 86 44
REMARK SMILES IDX 34 45 89 46 83 47 82 48 35 50 69 51 48 52 68 53 49 54 52 55
REMARK SMILES IDX 67 56 87 57 50 58 51 59 66 61 88 62 53 63 36 64 37 65 46 66
REMARK SMILES IDX 38 67 39 68 45 69 47 70 40 71 41 72 42 73 43 74 44 75 70 76
REMARK SMILES IDX 71 77 80 78 72 79 73 80 79 81 81 82 74 83 75 84 76 85 77 86
REMARK SMILES IDX 78 87 54 88 55 89 64 90 56 91 57 92 63 93 65 94 58 95 59 96
REMARK SMILES IDX 60 97 61 98 62 99
REMARK H PARENT 19 7 24 30 86 49 52 60
REMARK Flexibility Score: inf
ROOT
ATOM      1  C   UNL     1      -7.669   9.332  -0.926  1.00  0.00     0.023 C 
ENDROOT
BRANCH   1   2
ATOM      2  C   UNL     1      -6.215   9.353  -1.440  1.00  0.00     0.023 C 
BRANCH   2   3
ATOM      3  C   UNL     1      -5.132   8.997  -0.401  1.00  0.00     0.116 C 
BRANCH   3   4
ATOM      4  N   UNL     1      -5.082   7.560  -0.188  1.00  0.00    -0.351 N 
ATOM      5  C   UNL     1      -4.361   6.565  -0.784  1.00  0.00     0.261 C 
ATOM      6  O   UNL     1      -4.866   5.442  -0.780  1.00  0.00    -0.268 OA
ATOM      7  H   UNL     1      -5.684   7.242   0.523  1.00  0.00     0.163 HD
BRANCH   5   8
ATOM      8  C   UNL     1      -3.024   6.816  -1.421  1.00  0.00     0.117 C 
ATOM      9  C   UNL     1      -1.993   5.959  -1.298  1.00  0.00     0.038 C 
BRANCH   9  10
ATOM     10  C   UNL     1      -1.927   4.708  -0.577  1.00  0.00     0.036 A 
ATOM     11  N   UNL     1      -1.399   2.577  -0.128  1.00  0.00    -0.221 N 
ATOM     12  N   UNL     1      -2.372   2.894   0.757  1.00  0.00    -0.171 NA
ATOM     13  C   UNL     1      -1.168   3.632  -0.989  1.00  0.00     0.140 A 
ATOM     14  C   UNL     1      -2.548   4.216   0.614  1.00  0.00     0.069 A 
ATOM     15  Cl  UNL     1      -0.211   3.433  -2.398  1.00  0.00    -0.061 Cl
ATOM     16  C   UNL     1      -3.344   4.901   1.667  1.00  0.00     0.069 C 
BRANCH  11  17
ATOM     17  C   UNL     1      -0.767   1.306  -0.081  1.00  0.00     0.069 A 
ATOM     18  C   UNL     1       2.839   0.067   0.046  1.00  0.00     0.044 C 
ATOM     19  C   UNL     1       1.341   0.077  -0.007  1.00  0.00    -0.049 A 
ATOM     20  C   UNL     1       0.623  -1.119   0.051  1.00  0.00     0.004 A 
ATOM     21  C   UNL     1       0.640   1.286  -0.075  1.00  0.00     0.032 A 
ATOM     22  C   UNL     1      -0.774  -1.105   0.067  1.00  0.00     0.006 A 
ATOM     23  C   UNL     1      -1.495   0.102   0.005  1.00  0.00    -0.025 A 
ATOM     24  C   UNL     1      -2.995   0.002   0.013  1.00  0.00     0.047 C 
ENDBRANCH  11  17
ENDBRANCH   9  10
BRANCH   8  25
ATOM     25  C   UNL     1      -3.058   7.979  -2.401  1.00  0.00     0.105 C 
ATOM     26  N   UNL     1      -3.086   8.943  -3.213  1.00  0.00    -0.192 NA
ENDBRANCH   8  25
ENDBRANCH   5   8
ENDBRANCH   3   4
ENDBRANCH   2   3
ENDBRANCH   1   2
BRANCH   1  27
ATOM     27  C   UNL     1      -8.158  10.554  -0.130  1.00  0.00     0.116 C 
BRANCH  27  28
ATOM     28  N   UNL     1      -8.052  11.831  -0.860  1.00  0.00    -0.352 N 
ATOM     29  C   UNL     1      -7.532  13.088  -0.548  1.00  0.00     0.251 C 
ATOM     30  H   UNL     1      -8.431  11.787  -1.767  1.00  0.00     0.163 HD
ATOM     31  O   UNL     1      -7.824  14.044  -1.241  1.00  0.00    -0.269 OA
BRANCH  29  32
ATOM     32  C   UNL     1      -6.601  13.271   0.593  1.00  0.00     0.039 A 
ATOM     33  C   UNL     1      -6.035  14.487   0.990  1.00  0.00     0.014 A 
ATOM     34  C   UNL     1      -6.115  12.133   1.177  1.00  0.00     0.014 A 
ATOM     35  C   UNL     1      -4.928  14.466   1.863  1.00  0.00     0.010 A 
ATOM     36  C   UNL     1      -5.400  12.177   2.325  1.00  0.00     0.010 A 
ATOM     37  C   UNL     1      -4.572  13.263   2.471  1.00  0.00    -0.014 A 
BRANCH  37  38
ATOM     38  C   UNL     1      -3.396  12.988   3.283  1.00  0.00     0.031 A 
ATOM     39  C   UNL     1      -3.609  13.113   4.745  1.00  0.00     0.074 A 
ATOM     40  C   UNL     1      -2.397  12.188   2.838  1.00  0.00     0.049 A 
ATOM     41  N   UNL     1      -3.271  14.090   5.519  1.00  0.00    -0.248 NA
ATOM     42  C   UNL     1      -4.500  12.128   5.388  1.00  0.00     0.031 C 
ATOM     43  C   UNL     1      -2.284  11.475   1.559  1.00  0.00     0.029 A 
ATOM     44  N   UNL     1      -1.309  11.743   3.524  1.00  0.00    -0.354 N 
ATOM     45  C   UNL     1      -3.724  13.714   6.781  1.00  0.00     0.074 A 
ATOM     46  C   UNL     1      -4.746  12.736   6.547  1.00  0.00     0.031 C 
ATOM     47  C   UNL     1      -1.289  10.557   1.642  1.00  0.00     0.029 A 
ATOM     48  C   UNL     1      -0.621  10.695   2.926  1.00  0.00     0.049 A 
ATOM     49  H   UNL     1      -1.030  12.135   4.383  1.00  0.00     0.167 HD
ATOM     50  C   UNL     1      -3.016  13.969   7.919  1.00  0.00     0.037 A 
ATOM     51  C   UNL     1       0.382   9.972   3.491  1.00  0.00     0.037 A 
ATOM     52  C   UNL     1      -1.903  14.847   7.635  1.00  0.00     0.049 A 
ATOM     53  C   UNL     1       0.867  10.743   4.673  1.00  0.00     0.074 A 
ATOM     54  C   UNL     1      -1.769  16.093   7.052  1.00  0.00     0.029 A 
ATOM     55  N   UNL     1      -0.646  14.285   7.602  1.00  0.00    -0.354 N 
ATOM     56  N   UNL     1       1.465  11.902   4.606  1.00  0.00    -0.248 NA
ATOM     57  C   UNL     1       0.294  10.420   5.973  1.00  0.00     0.031 C 
ATOM     58  C   UNL     1      -0.576  16.013   6.274  1.00  0.00     0.029 A 
ATOM     59  C   UNL     1      -0.014  14.750   6.477  1.00  0.00     0.049 A 
ATOM     60  H   UNL     1      -0.269  13.663   8.265  1.00  0.00     0.167 HD
ATOM     61  C   UNL     1       1.004  12.614   5.706  1.00  0.00     0.074 A 
ATOM     62  C   UNL     1       0.367  11.617   6.561  1.00  0.00     0.031 C 
ATOM     63  C   UNL     1       0.923  13.978   5.687  1.00  0.00     0.037 A 
BRANCH  50  64
ATOM     64  C   UNL     1      -3.075  13.146   9.198  1.00  0.00     0.058 A 
ATOM     65  C   UNL     1      -2.370  13.614  10.328  1.00  0.00     0.135 A 
ATOM     66  C   UNL     1      -3.572  11.827   9.313  1.00  0.00     0.135 A 
ATOM     67  F   UNL     1      -1.872  14.860  10.356  1.00  0.00    -0.206 F 
ATOM     68  C   UNL     1      -2.080  12.802  11.425  1.00  0.00     0.059 A 
ATOM     69  C   UNL     1      -3.350  11.022  10.424  1.00  0.00     0.059 A 
ATOM     70  F   UNL     1      -4.217  11.194   8.329  1.00  0.00    -0.206 F 
ATOM     71  C   UNL     1      -2.555  11.496  11.449  1.00  0.00     0.060 A 
BRANCH  71  72
ATOM     72  S   UNL     1      -2.058  10.389  12.777  1.00  0.00     0.124 S 
ATOM     73  O   UNL     1      -0.648  10.188  12.466  1.00  0.00    -0.237 OA
ATOM     74  O   UNL     1      -2.348  11.189  13.962  1.00  0.00    -0.237 OA
ATOM     75  O   UNL     1      -2.921   9.227  12.584  1.00  0.00    -0.744 OA
ENDBRANCH  71  72
ENDBRANCH  50  64
BRANCH  51  76
ATOM     76  C   UNL     1       0.759   8.549   3.266  1.00  0.00     0.058 A 
ATOM     77  C   UNL     1       1.996   8.042   3.710  1.00  0.00     0.135 A 
ATOM     78  C   UNL     1      -0.184   7.591   2.847  1.00  0.00     0.135 A 
ATOM     79  F   UNL     1       2.948   8.879   4.151  1.00  0.00    -0.206 F 
ATOM     80  C   UNL     1       2.268   6.670   3.772  1.00  0.00     0.059 A 
ATOM     81  C   UNL     1       0.069   6.220   2.891  1.00  0.00     0.059 A 
ATOM     82  F   UNL     1      -1.417   7.953   2.461  1.00  0.00    -0.206 F 
ATOM     83  C   UNL     1       1.290   5.764   3.369  1.00  0.00     0.060 A 
BRANCH  83  84
ATOM     84  S   UNL     1       1.557   3.987   3.588  1.00  0.00     0.124 S 
ATOM     85  O   UNL     1       2.410   3.675   2.446  1.00  0.00    -0.237 OA
ATOM     86  O   UNL     1       2.192   3.924   4.900  1.00  0.00    -0.237 OA
ATOM     87  O   UNL     1       0.204   3.444   3.528  1.00  0.00    -0.744 OA
ENDBRANCH  83  84
ENDBRANCH  51  76
BRANCH  63  88
ATOM     88  C   UNL     1       1.657  14.730   4.606  1.00  0.00     0.058 A 
ATOM     89  C   UNL     1       1.347  14.655   3.238  1.00  0.00     0.135 A 
ATOM     90  C   UNL     1       2.581  15.711   5.000  1.00  0.00     0.135 A 
ATOM     91  F   UNL     1       0.406  13.813   2.789  1.00  0.00    -0.206 F 
ATOM     92  C   UNL     1       1.940  15.504   2.301  1.00  0.00     0.059 A 
ATOM     93  C   UNL     1       3.161  16.589   4.089  1.00  0.00     0.059 A 
ATOM     94  F   UNL     1       2.877  15.871   6.301  1.00  0.00    -0.206 F 
ATOM     95  C   UNL     1       2.838  16.477   2.738  1.00  0.00     0.060 A 
BRANCH  95  96
ATOM     96  S   UNL     1       3.502  17.658   1.544  1.00  0.00     0.124 S 
ATOM     97  O   UNL     1       4.459  16.841   0.806  1.00  0.00    -0.237 OA
ATOM     98  O   UNL     1       2.311  18.065   0.804  1.00  0.00    -0.237 OA
ATOM     99  O   UNL     1       4.087  18.700   2.385  1.00  0.00    -0.744 OA
ENDBRANCH  95  96
ENDBRANCH  63  88
ENDBRANCH  37  38
ENDBRANCH  29  32
ENDBRANCH  27  28
ENDBRANCH   1  27
TORSDOF 17
