REMARK SMILES CN1C(=O)C[C@@H](C(=O)NCCCCNC(=O)c2ccc(-c3c4nc(c(-c5c(F)cc(S(=O)(=O)[O-])cc5F)c5ccc([nH]5)c(-c5c(F)cc(S(=O)(=O)[O-])cc5F)c5nc(c(-c6c(F)cc(S(=O)(=O)[O-])cc6F)c6ccc3[nH]6)C=C5)C=C4)cc2)C12CCN(S(=O)(=O)c1ccccc1F)CC2
REMARK SMILES IDX 12 1 11 2 10 3 9 4 7 5 8 6 6 8 1 9 2 10 3 11 83 12 4 13 5 14
REMARK SMILES IDX 84 15 98 16 85 17 97 18 86 19 87 20 88 21 89 22 90 23 91 24
REMARK SMILES IDX 95 25 92 26 94 27 96 28 93 29 13 30 14 31 15 32 16 34 17 35
REMARK SMILES IDX 18 36 82 37 19 38 81 39 20 40 21 41 22 42 75 43 23 44 80 45
REMARK SMILES IDX 74 46 76 47 24 48 79 49 73 50 72 51 25 53 59 54 38 55 58 56
REMARK SMILES IDX 39 57 42 58 57 59 77 60 40 61 41 62 56 64 78 65 43 66 26 67
REMARK SMILES IDX 27 68 36 69 28 70 29 71 35 72 37 73 30 74 31 75 32 76 33 77
REMARK SMILES IDX 34 78 60 79 61 80 70 81 62 82 63 83 69 84 71 85 64 86 65 87
REMARK SMILES IDX 66 88 67 89 68 90 44 91 45 92 54 93 46 94 47 95 53 96 55 97
REMARK SMILES IDX 48 98 49 99 50 100 51 101 52 102
REMARK H PARENT 9 7 14 33 76 52 42 63
REMARK Flexibility Score: inf
ROOT
ATOM      1  C   UNL     1      -3.659   1.541   0.709  1.00  0.00     0.023 C 
ENDROOT
BRANCH   1   2
ATOM      2  C   UNL     1      -2.164   1.290   0.909  1.00  0.00     0.023 C 
BRANCH   2   3
ATOM      3  C   UNL     1      -1.690   1.357   2.364  1.00  0.00     0.116 C 
BRANCH   3   4
ATOM      4  N   UNL     1      -2.173   0.270   3.204  1.00  0.00    -0.356 N 
ATOM      5  C   UNL     1      -1.617  -0.875   3.678  1.00  0.00     0.226 C 
ATOM      6  O   UNL     1      -2.337  -1.573   4.402  1.00  0.00    -0.275 OA
ATOM      7  H   UNL     1      -3.107   0.391   3.491  1.00  0.00     0.163 HD
BRANCH   5   8
ATOM      8  C   UNL     1      -0.211  -1.390   3.347  1.00  0.00     0.113 C 
ATOM      9  C   UNL     1       1.164  -0.283   0.043  1.00  0.00     0.147 C 
ATOM     10  N   UNL     1       0.795  -0.560   1.419  1.00  0.00    -0.339 N 
ATOM     11  C   UNL     1       1.391   0.143   2.460  1.00  0.00     0.223 C 
ATOM     12  C   UNL     1       0.084  -1.768   1.873  1.00  0.00     0.057 C 
ATOM     13  O   UNL     1       2.180   1.067   2.355  1.00  0.00    -0.275 OA
ATOM     14  C   UNL     1       0.886  -0.412   3.763  1.00  0.00     0.116 C 
ATOM     15  C   UNL     1      -1.201  -2.094   1.084  1.00  0.00     0.046 C 
ATOM     16  C   UNL     1       1.093  -2.958   1.773  1.00  0.00     0.046 C 
ATOM     17  C   UNL     1      -1.718  -3.499   1.331  1.00  0.00     0.105 C 
ATOM     18  C   UNL     1       0.477  -4.356   1.856  1.00  0.00     0.105 C 
ATOM     19  N   UNL     1      -0.702  -4.499   0.958  1.00  0.00    -0.198 NA
BRANCH  19  20
ATOM     20  S   UNL     1      -0.338  -4.752  -0.701  1.00  0.00     0.245 S 
ATOM     21  O   UNL     1       0.219  -3.539  -1.256  1.00  0.00    -0.207 OA
ATOM     22  O   UNL     1       0.444  -5.974  -0.755  1.00  0.00    -0.207 OA
BRANCH  20  23
ATOM     23  C   UNL     1      -1.875  -5.074  -1.515  1.00  0.00     0.118 A 
ATOM     24  C   UNL     1      -2.167  -6.363  -1.974  1.00  0.00     0.025 A 
ATOM     25  C   UNL     1      -2.743  -4.029  -1.822  1.00  0.00     0.143 A 
ATOM     26  C   UNL     1      -3.341  -6.596  -2.697  1.00  0.00     0.002 A 
ATOM     27  C   UNL     1      -3.928  -4.264  -2.515  1.00  0.00     0.041 A 
ATOM     28  F   UNL     1      -2.489  -2.769  -1.450  1.00  0.00    -0.206 F 
ATOM     29  C   UNL     1      -4.228  -5.550  -2.956  1.00  0.00     0.003 A 
ENDBRANCH  20  23
ENDBRANCH  19  20
ENDBRANCH   5   8
ENDBRANCH   3   4
ENDBRANCH   2   3
ENDBRANCH   1   2
BRANCH   1  30
ATOM     30  C   UNL     1      -4.124   2.924   1.145  1.00  0.00     0.116 C 
BRANCH  30  31
ATOM     31  N   UNL     1      -3.349   4.000   0.541  1.00  0.00    -0.352 N 
ATOM     32  C   UNL     1      -3.775   5.232   0.113  1.00  0.00     0.251 C 
ATOM     33  H   UNL     1      -2.388   3.818   0.425  1.00  0.00     0.163 HD
ATOM     34  O   UNL     1      -3.011   5.978  -0.489  1.00  0.00    -0.269 OA
BRANCH  32  35
ATOM     35  C   UNL     1      -5.173   5.627   0.358  1.00  0.00     0.039 A 
ATOM     36  C   UNL     1      -5.928   6.130  -0.703  1.00  0.00     0.014 A 
ATOM     37  C   UNL     1      -5.742   5.452   1.622  1.00  0.00     0.014 A 
ATOM     38  C   UNL     1      -7.283   6.397  -0.511  1.00  0.00     0.010 A 
ATOM     39  C   UNL     1      -7.106   5.646   1.790  1.00  0.00     0.010 A 
ATOM     40  C   UNL     1      -7.886   6.124   0.727  1.00  0.00    -0.014 A 
BRANCH  40  41
ATOM     41  C   UNL     1      -9.336   6.334   0.940  1.00  0.00     0.031 A 
ATOM     42  C   UNL     1      -9.803   7.353   1.939  1.00  0.00     0.074 A 
ATOM     43  C   UNL     1     -10.221   5.540   0.308  1.00  0.00     0.049 A 
ATOM     44  N   UNL     1     -11.018   7.619   2.341  1.00  0.00    -0.248 NA
ATOM     45  C   UNL     1      -8.759   8.150   2.604  1.00  0.00     0.031 C 
ATOM     46  C   UNL     1      -9.877   4.462  -0.622  1.00  0.00     0.029 A 
ATOM     47  N   UNL     1     -11.589   5.502   0.371  1.00  0.00    -0.354 N 
ATOM     48  C   UNL     1     -10.883   8.589   3.326  1.00  0.00     0.074 A 
ATOM     49  C   UNL     1      -9.466   8.827   3.496  1.00  0.00     0.031 C 
ATOM     50  C   UNL     1     -11.006   3.876  -1.051  1.00  0.00     0.029 A 
ATOM     51  C   UNL     1     -12.149   4.518  -0.408  1.00  0.00     0.049 A 
ATOM     52  H   UNL     1     -12.121   6.120   0.922  1.00  0.00     0.167 HD
ATOM     53  C   UNL     1     -11.854   9.240   4.011  1.00  0.00     0.037 A 
ATOM     54  C   UNL     1     -13.438   4.171  -0.581  1.00  0.00     0.037 A 
ATOM     55  C   UNL     1     -13.261   9.023   3.805  1.00  0.00     0.049 A 
ATOM     56  C   UNL     1     -14.505   4.951   0.132  1.00  0.00     0.074 A 
ATOM     57  C   UNL     1     -14.330   9.684   4.382  1.00  0.00     0.029 A 
ATOM     58  N   UNL     1     -13.793   8.068   2.950  1.00  0.00    -0.354 N 
ATOM     59  N   UNL     1     -14.367   5.923   1.002  1.00  0.00    -0.248 NA
ATOM     60  C   UNL     1     -15.898   4.600  -0.168  1.00  0.00     0.031 C 
ATOM     61  C   UNL     1     -15.511   9.111   3.894  1.00  0.00     0.029 A 
ATOM     62  C   UNL     1     -15.176   8.114   2.990  1.00  0.00     0.049 A 
ATOM     63  H   UNL     1     -13.265   7.449   2.396  1.00  0.00     0.167 HD
ATOM     64  C   UNL     1     -15.656   6.310   1.347  1.00  0.00     0.074 A 
ATOM     65  C   UNL     1     -16.560   5.476   0.579  1.00  0.00     0.031 C 
ATOM     66  C   UNL     1     -16.056   7.269   2.219  1.00  0.00     0.037 A 
BRANCH  53  67
ATOM     67  C   UNL     1     -11.408  10.242   5.038  1.00  0.00     0.058 A 
ATOM     68  C   UNL     1     -10.807  11.457   4.667  1.00  0.00     0.135 A 
ATOM     69  C   UNL     1     -11.545   9.970   6.408  1.00  0.00     0.135 A 
ATOM     70  F   UNL     1     -10.636  11.758   3.370  1.00  0.00    -0.206 F 
ATOM     71  C   UNL     1     -10.306  12.340   5.617  1.00  0.00     0.059 A 
ATOM     72  C   UNL     1     -11.076  10.853   7.377  1.00  0.00     0.059 A 
ATOM     73  F   UNL     1     -12.114   8.826   6.817  1.00  0.00    -0.206 F 
ATOM     74  C   UNL     1     -10.433  12.022   6.970  1.00  0.00     0.060 A 
BRANCH  74  75
ATOM     75  S   UNL     1      -9.735  13.149   8.196  1.00  0.00     0.124 S 
ATOM     76  O   UNL     1      -8.320  12.791   8.143  1.00  0.00    -0.237 OA
ATOM     77  O   UNL     1     -10.076  14.460   7.653  1.00  0.00    -0.237 OA
ATOM     78  O   UNL     1     -10.431  12.783   9.425  1.00  0.00    -0.744 OA
ENDBRANCH  74  75
ENDBRANCH  53  67
BRANCH  54  79
ATOM     79  C   UNL     1     -13.771   3.055  -1.502  1.00  0.00     0.058 A 
ATOM     80  C   UNL     1     -14.268   3.309  -2.788  1.00  0.00     0.135 A 
ATOM     81  C   UNL     1     -13.522   1.721  -1.145  1.00  0.00     0.135 A 
ATOM     82  F   UNL     1     -14.523   4.569  -3.171  1.00  0.00    -0.206 F 
ATOM     83  C   UNL     1     -14.499   2.280  -3.694  1.00  0.00     0.059 A 
ATOM     84  C   UNL     1     -13.730   0.676  -2.039  1.00  0.00     0.059 A 
ATOM     85  F   UNL     1     -13.027   1.431   0.068  1.00  0.00    -0.206 F 
ATOM     86  C   UNL     1     -14.218   0.966  -3.314  1.00  0.00     0.060 A 
BRANCH  86  87
ATOM     87  S   UNL     1     -14.419  -0.353  -4.532  1.00  0.00     0.124 S 
ATOM     88  O   UNL     1     -15.867  -0.524  -4.545  1.00  0.00    -0.237 OA
ATOM     89  O   UNL     1     -13.834   0.241  -5.730  1.00  0.00    -0.237 OA
ATOM     90  O   UNL     1     -13.656  -1.458  -3.956  1.00  0.00    -0.744 OA
ENDBRANCH  86  87
ENDBRANCH  54  79
BRANCH  66  91
ATOM     91  C   UNL     1     -17.534   7.474   2.383  1.00  0.00     0.058 A 
ATOM     92  C   UNL     1     -18.317   6.580   3.128  1.00  0.00     0.135 A 
ATOM     93  C   UNL     1     -18.161   8.604   1.836  1.00  0.00     0.135 A 
ATOM     94  F   UNL     1     -17.763   5.481   3.665  1.00  0.00    -0.206 F 
ATOM     95  C   UNL     1     -19.679   6.792   3.314  1.00  0.00     0.059 A 
ATOM     96  C   UNL     1     -19.517   8.846   2.026  1.00  0.00     0.059 A 
ATOM     97  F   UNL     1     -17.451   9.492   1.121  1.00  0.00    -0.206 F 
ATOM     98  C   UNL     1     -20.270   7.929   2.759  1.00  0.00     0.060 A 
BRANCH  98  99
ATOM     99  S   UNL     1     -22.030   8.216   3.037  1.00  0.00     0.124 S 
ATOM    100  O   UNL     1     -22.632   7.287   2.087  1.00  0.00    -0.237 OA
ATOM    101  O   UNL     1     -22.187   7.871   4.447  1.00  0.00    -0.237 OA
ATOM    102  O   UNL     1     -22.195   9.632   2.724  1.00  0.00    -0.744 OA
ENDBRANCH  98  99
ENDBRANCH  66  91
ENDBRANCH  40  41
ENDBRANCH  32  35
ENDBRANCH  30  31
ENDBRANCH   1  30
TORSDOF 16
