REMARK SMILES CCCC[C@@H](Sc1nc(OCCC2CCCCC2)cc(OCCC2CCCCC2)n1)C(=O)NCCCCNC(=O)c1ccc(-c2c3nc(c(-c4c(F)cc(S(=O)(=O)[O-])cc4F)c4ccc([nH]4)c(-c4c(F)cc(S(=O)(=O)[O-])cc4F)c4nc(c(-c5c(F)cc(S(=O)(=O)[O-])cc5F)c5ccc2[nH]5)C=C4)C=C3)cc1
REMARK SMILES IDX 34 1 33 2 31 3 32 4 5 6 4 7 3 8 2 9 1 10 6 11 7 12 8 13
REMARK SMILES IDX 30 14 9 15 20 16 19 17 10 18 11 19 12 20 13 21 14 22 18 23
REMARK SMILES IDX 15 24 17 25 16 26 21 27 22 28 23 29 24 30 25 31 29 32 26 33
REMARK SMILES IDX 28 34 27 35 35 36 36 37 37 38 38 39 39 40 40 42 41 43 42 44
REMARK SMILES IDX 106 45 43 46 105 47 44 48 45 49 46 50 99 51 47 52 104 53
REMARK SMILES IDX 98 54 100 55 48 56 103 57 97 58 96 59 49 61 83 62 62 63
REMARK SMILES IDX 82 64 63 65 66 66 81 67 101 68 64 69 65 70 80 72 102 73
REMARK SMILES IDX 67 74 50 75 51 76 60 77 52 78 53 79 59 80 61 81 54 82 55 83
REMARK SMILES IDX 56 84 57 85 58 86 84 87 85 88 94 89 86 90 87 91 93 92 95 93
REMARK SMILES IDX 88 94 89 95 90 96 91 97 92 98 68 99 69 100 78 101 70 102
REMARK SMILES IDX 71 103 77 104 79 105 72 106 73 107 74 108 75 109 76 110
REMARK H PARENT 33 5 38 41 100 60 66 71
REMARK Flexibility Score: inf
ROOT
ATOM      1  C   UNL     1      -0.608   5.070  -2.912  1.00  0.00     0.116 C 
ENDROOT
BRANCH   1   2
ATOM      2  N   UNL     1      -1.297   3.865  -3.355  1.00  0.00    -0.355 N 
ATOM      3  C   UNL     1      -1.626   2.727  -2.660  1.00  0.00     0.233 C 
ATOM      4  O   UNL     1      -2.231   1.834  -3.259  1.00  0.00    -0.274 OA
ATOM      5  H   UNL     1      -1.571   3.868  -4.301  1.00  0.00     0.163 HD
BRANCH   3   6
ATOM      6  C   UNL     1      -1.228   2.564  -1.176  1.00  0.00     0.144 C 
BRANCH   6   7
ATOM      7  C   UNL     1       0.328   2.600  -1.149  1.00  0.00     0.025 C 
BRANCH   7   8
ATOM      8  C   UNL     1       1.152   2.011  -0.008  1.00  0.00     0.001 C 
BRANCH   8   9
ATOM      9  C   UNL     1       0.834   0.582   0.426  1.00  0.00    -0.003 C 
ATOM     10  C   UNL     1       1.243  -0.465  -0.592  1.00  0.00     0.004 C 
ENDBRANCH   8   9
ENDBRANCH   7   8
ENDBRANCH   6   7
BRANCH   6  11
ATOM     11  S   UNL     1      -2.363   3.796  -0.314  1.00  0.00    -0.073 SA
BRANCH  11  12
ATOM     12  C   UNL     1      -2.071   3.547   1.399  1.00  0.00     0.195 A 
ATOM     13  N   UNL     1      -2.582   4.455   2.254  1.00  0.00    -0.187 NA
ATOM     14  N   UNL     1      -1.175   2.624   1.718  1.00  0.00    -0.187 NA
ATOM     15  C   UNL     1      -1.989   4.546   3.450  1.00  0.00     0.221 A 
ATOM     16  C   UNL     1      -0.576   2.777   2.891  1.00  0.00     0.221 A 
ATOM     17  C   UNL     1      -0.878   3.803   3.735  1.00  0.00     0.136 A 
BRANCH  15  18
ATOM     18  O   UNL     1      -2.595   5.393   4.346  1.00  0.00    -0.477 OA
BRANCH  18  19
ATOM     19  C   UNL     1      -1.824   5.917   5.433  1.00  0.00     0.231 C 
BRANCH  19  20
ATOM     20  C   UNL     1      -2.059   5.251   6.817  1.00  0.00     0.045 C 
BRANCH  20  21
ATOM     21  C   UNL     1      -2.040   3.715   6.840  1.00  0.00    -0.008 C 
ATOM     22  C   UNL     1      -1.371   3.091   8.073  1.00  0.00     0.004 C 
ATOM     23  C   UNL     1      -3.424   3.093   6.665  1.00  0.00     0.004 C 
ATOM     24  C   UNL     1      -1.181   1.582   7.857  1.00  0.00     0.000 C 
ATOM     25  C   UNL     1      -3.264   1.611   6.336  1.00  0.00     0.000 C 
ATOM     26  C   UNL     1      -2.445   0.859   7.388  1.00  0.00     0.000 C 
ENDBRANCH  20  21
ENDBRANCH  19  20
ENDBRANCH  18  19
ENDBRANCH  15  18
BRANCH  16  27
ATOM     27  O   UNL     1       0.547   2.021   3.039  1.00  0.00    -0.477 OA
BRANCH  27  28
ATOM     28  C   UNL     1       0.657   1.240   4.223  1.00  0.00     0.231 C 
BRANCH  28  29
ATOM     29  C   UNL     1       2.092   1.401   4.766  1.00  0.00     0.045 C 
BRANCH  29  30
ATOM     30  C   UNL     1       2.469   2.877   4.996  1.00  0.00    -0.008 C 
ATOM     31  C   UNL     1       1.692   3.484   6.162  1.00  0.00     0.004 C 
ATOM     32  C   UNL     1       3.955   3.132   5.273  1.00  0.00     0.004 C 
ATOM     33  C   UNL     1       1.824   4.999   6.110  1.00  0.00     0.000 C 
ATOM     34  C   UNL     1       4.224   4.645   5.364  1.00  0.00     0.000 C 
ATOM     35  C   UNL     1       3.277   5.395   6.309  1.00  0.00     0.000 C 
ENDBRANCH  29  30
ENDBRANCH  28  29
ENDBRANCH  27  28
ENDBRANCH  16  27
ENDBRANCH  11  12
ENDBRANCH   6  11
ENDBRANCH   3   6
ENDBRANCH   1   2
BRANCH   1  36
ATOM     36  C   UNL     1       0.786   5.179  -3.529  1.00  0.00     0.023 C 
BRANCH  36  37
ATOM     37  C   UNL     1       0.773   5.568  -5.004  1.00  0.00     0.023 C 
BRANCH  37  38
ATOM     38  C   UNL     1       0.059   6.880  -5.301  1.00  0.00     0.116 C 
BRANCH  38  39
ATOM     39  N   UNL     1       0.634   8.014  -4.590  1.00  0.00    -0.352 N 
ATOM     40  C   UNL     1       0.844   9.286  -5.067  1.00  0.00     0.251 C 
ATOM     41  H   UNL     1       0.905   7.850  -3.658  1.00  0.00     0.163 HD
ATOM     42  O   UNL     1       1.470  10.109  -4.406  1.00  0.00    -0.269 OA
BRANCH  40  43
ATOM     43  C   UNL     1       0.332   9.624  -6.409  1.00  0.00     0.039 A 
ATOM     44  C   UNL     1       1.206  10.160  -7.354  1.00  0.00     0.014 A 
ATOM     45  C   UNL     1      -0.990   9.320  -6.747  1.00  0.00     0.014 A 
ATOM     46  C   UNL     1       0.768  10.329  -8.668  1.00  0.00     0.010 A 
ATOM     47  C   UNL     1      -1.395   9.409  -8.072  1.00  0.00     0.010 A 
ATOM     48  C   UNL     1      -0.522   9.917  -9.046  1.00  0.00    -0.014 A 
BRANCH  48  49
ATOM     49  C   UNL     1      -0.979  10.008 -10.455  1.00  0.00     0.031 A 
ATOM     50  C   UNL     1      -2.143  10.891 -10.809  1.00  0.00     0.074 A 
ATOM     51  C   UNL     1      -0.388   9.249 -11.400  1.00  0.00     0.049 A 
ATOM     52  N   UNL     1      -2.732  11.058 -11.964  1.00  0.00    -0.248 NA
ATOM     53  C   UNL     1      -2.744  11.668  -9.712  1.00  0.00     0.031 C 
ATOM     54  C   UNL     1       0.719   8.317 -11.169  1.00  0.00     0.029 A 
ATOM     55  N   UNL     1      -0.640   9.135 -12.744  1.00  0.00    -0.354 N 
ATOM     56  C   UNL     1      -3.773  11.948 -11.732  1.00  0.00     0.074 A 
ATOM     57  C   UNL     1      -3.777  12.236 -10.315  1.00  0.00     0.031 C 
ATOM     58  C   UNL     1       1.068   7.751 -12.335  1.00  0.00     0.029 A 
ATOM     59  C   UNL     1       0.186   8.244 -13.388  1.00  0.00     0.049 A 
ATOM     60  H   UNL     1      -1.347   9.643 -13.204  1.00  0.00     0.167 HD
ATOM     61  C   UNL     1      -4.631  12.499 -12.624  1.00  0.00     0.037 A 
ATOM     62  C   UNL     1       0.224   7.864 -14.680  1.00  0.00     0.037 A 
ATOM     63  C   UNL     1      -4.609  12.219 -14.036  1.00  0.00     0.049 A 
ATOM     64  C   UNL     1      -0.753   8.474 -15.650  1.00  0.00     0.074 A 
ATOM     65  C   UNL     1      -5.402  12.760 -15.032  1.00  0.00     0.029 A 
ATOM     66  N   UNL     1      -3.752  11.318 -14.652  1.00  0.00    -0.354 N 
ATOM     67  N   UNL     1      -1.691   9.364 -15.425  1.00  0.00    -0.248 NA
ATOM     68  C   UNL     1      -0.664   8.033 -17.048  1.00  0.00     0.031 C 
ATOM     69  C   UNL     1      -5.058  12.150 -16.243  1.00  0.00     0.029 A 
ATOM     70  C   UNL     1      -4.012  11.271 -16.012  1.00  0.00     0.049 A 
ATOM     71  H   UNL     1      -3.061  10.790 -14.191  1.00  0.00     0.167 HD
ATOM     72  C   UNL     1      -2.283   9.612 -16.659  1.00  0.00     0.074 A 
ATOM     73  C   UNL     1      -1.590   8.786 -17.627  1.00  0.00     0.031 C 
ATOM     74  C   UNL     1      -3.306  10.448 -16.964  1.00  0.00     0.037 A 
BRANCH  61  75
ATOM     75  C   UNL     1      -5.659  13.462 -12.096  1.00  0.00     0.058 A 
ATOM     76  C   UNL     1      -5.298  14.724 -11.594  1.00  0.00     0.135 A 
ATOM     77  C   UNL     1      -7.024  13.132 -12.109  1.00  0.00     0.135 A 
ATOM     78  F   UNL     1      -4.006  15.087 -11.542  1.00  0.00    -0.206 F 
ATOM     79  C   UNL     1      -6.248  15.608 -11.093  1.00  0.00     0.059 A 
ATOM     80  C   UNL     1      -7.995  14.014 -11.642  1.00  0.00     0.059 A 
ATOM     81  F   UNL     1      -7.427  11.940 -12.576  1.00  0.00    -0.206 F 
ATOM     82  C   UNL     1      -7.594  15.243 -11.120  1.00  0.00     0.060 A 
BRANCH  82  83
ATOM     83  S   UNL     1      -8.813  16.402 -10.464  1.00  0.00     0.124 S 
ATOM     84  O   UNL     1      -8.559  16.309  -9.030  1.00  0.00    -0.237 OA
ATOM     85  O   UNL     1      -8.420  17.657 -11.097  1.00  0.00    -0.237 OA
ATOM     86  O   UNL     1     -10.086  15.848 -10.914  1.00  0.00    -0.744 OA
ENDBRANCH  82  83
ENDBRANCH  61  75
BRANCH  62  87
ATOM     87  C   UNL     1       1.238   6.876 -15.137  1.00  0.00     0.058 A 
ATOM     88  C   UNL     1       2.297   7.264 -15.972  1.00  0.00     0.135 A 
ATOM     89  C   UNL     1       1.180   5.530 -14.742  1.00  0.00     0.135 A 
ATOM     90  F   UNL     1       2.393   8.538 -16.383  1.00  0.00    -0.206 F 
ATOM     91  C   UNL     1       3.251   6.353 -16.413  1.00  0.00     0.059 A 
ATOM     92  C   UNL     1       2.138   4.605 -15.148  1.00  0.00     0.059 A 
ATOM     93  F   UNL     1       0.197   5.109 -13.931  1.00  0.00    -0.206 F 
ATOM     94  C   UNL     1       3.164   5.025 -15.993  1.00  0.00     0.060 A 
BRANCH  94  95
ATOM     95  S   UNL     1       4.436   3.862 -16.534  1.00  0.00     0.124 S 
ATOM     96  O   UNL     1       4.099   3.693 -17.943  1.00  0.00    -0.237 OA
ATOM     97  O   UNL     1       5.663   4.601 -16.255  1.00  0.00    -0.237 OA
ATOM     98  O   UNL     1       4.208   2.697 -15.685  1.00  0.00    -0.744 OA
ENDBRANCH  94  95
ENDBRANCH  62  87
BRANCH  74  99
ATOM     99  C   UNL     1      -3.717  10.546 -18.407  1.00  0.00     0.058 A 
ATOM    100  C   UNL     1      -4.403   9.507 -19.054  1.00  0.00     0.135 A 
ATOM    101  C   UNL     1      -3.470  11.722 -19.136  1.00  0.00     0.135 A 
ATOM    102  F   UNL     1      -4.658   8.359 -18.406  1.00  0.00    -0.206 F 
ATOM    103  C   UNL     1      -4.812   9.621 -20.379  1.00  0.00     0.059 A 
ATOM    104  C   UNL     1      -3.896  11.869 -20.452  1.00  0.00     0.059 A 
ATOM    105  F   UNL     1      -2.826  12.751 -18.562  1.00  0.00    -0.206 F 
ATOM    106  C   UNL     1      -4.557  10.808 -21.069  1.00  0.00     0.060 A 
BRANCH 106 107
ATOM    107  S   UNL     1      -5.129  10.957 -22.774  1.00  0.00     0.124 S 
ATOM    108  O   UNL     1      -4.193  10.084 -23.476  1.00  0.00    -0.237 OA
ATOM    109  O   UNL     1      -6.503  10.473 -22.686  1.00  0.00    -0.237 OA
ATOM    110  O   UNL     1      -4.989  12.382 -23.057  1.00  0.00    -0.744 OA
ENDBRANCH 106 107
ENDBRANCH  74  99
ENDBRANCH  48  49
ENDBRANCH  40  43
ENDBRANCH  38  39
ENDBRANCH  37  38
ENDBRANCH  36  37
ENDBRANCH   1  36
TORSDOF 27
