REMARK SMILES COc1ccc(O[C@H](F)C(=O)NCCCCNC(=O)c2ccc(-c3c4nc(c(-c5c(F)cc(S(=O)(=O)[O-])cc5F)c5ccc([nH]5)c(-c5c(F)cc(S(=O)(=O)[O-])cc5F)c5nc(c(-c6c(F)cc(S(=O)(=O)[O-])cc6F)c6ccc3[nH]6)C=C5)C=C4)cc2)c(C(C)(C)C)c1
REMARK SMILES IDX 14 1 13 2 12 3 10 4 11 5 8 7 9 8 7 9 6 10 3 11 4 12 91 13
REMARK SMILES IDX 5 14 86 15 2 16 1 17 87 18 88 19 89 20 90 21 15 22 16 23
REMARK SMILES IDX 17 24 18 25 19 27 20 28 21 29 85 30 22 31 84 32 23 33 24 34
REMARK SMILES IDX 25 35 78 36 26 37 83 38 77 39 79 40 27 41 82 42 76 43 75 44
REMARK SMILES IDX 28 46 62 47 41 48 61 49 42 50 45 51 60 52 80 53 43 54 44 55
REMARK SMILES IDX 59 57 81 58 46 59 29 60 30 61 39 62 31 63 32 64 38 65 40 66
REMARK SMILES IDX 33 67 34 68 35 69 36 70 37 71 63 72 64 73 73 74 65 75 66 76
REMARK SMILES IDX 72 77 74 78 67 79 68 80 69 81 70 82 71 83 47 84 48 85 57 86
REMARK SMILES IDX 49 87 50 88 56 89 58 90 51 91 52 92 53 93 54 94 55 95
REMARK H PARENT 12 6 17 26 79 45 45 56
REMARK Flexibility Score: inf
ROOT
ATOM      1  C   UNL     1       1.762  -3.847  -2.048  1.00  0.00     0.023 C 
ENDROOT
BRANCH   1   2
ATOM      2  C   UNL     1       2.162  -3.005  -3.259  1.00  0.00     0.116 C 
BRANCH   2   3
ATOM      3  N   UNL     1       3.105  -3.649  -4.156  1.00  0.00    -0.350 N 
ATOM      4  C   UNL     1       3.683  -3.117  -5.288  1.00  0.00     0.294 C 
ATOM      5  O   UNL     1       4.487  -3.826  -5.902  1.00  0.00    -0.267 OA
ATOM      6  H   UNL     1       3.360  -4.573  -3.929  1.00  0.00     0.163 HD
BRANCH   4   7
ATOM      7  C   UNL     1       3.355  -1.663  -5.758  1.00  0.00     0.440 C 
ATOM      8  F   UNL     1       2.320  -1.074  -5.085  1.00  0.00    -0.191 F 
BRANCH   7   9
ATOM      9  O   UNL     1       4.416  -0.714  -5.875  1.00  0.00    -0.451 OA
BRANCH   9  10
ATOM     10  C   UNL     1       4.854  -0.091  -4.736  1.00  0.00     0.127 A 
ATOM     11  C   UNL     1       5.748   1.157  -2.393  1.00  0.00     0.119 A 
ATOM     12  C   UNL     1       5.381  -0.170  -2.357  1.00  0.00     0.050 A 
ATOM     13  C   UNL     1       5.728   1.858  -3.598  1.00  0.00     0.054 A 
ATOM     14  C   UNL     1       4.953  -0.787  -3.525  1.00  0.00     0.051 A 
ATOM     15  C   UNL     1       5.311   1.250  -4.811  1.00  0.00     0.003 A 
BRANCH  11  16
ATOM     16  O   UNL     1       6.288   1.706  -1.266  1.00  0.00    -0.497 OA
ATOM     17  C   UNL     1       5.340   2.513  -0.573  1.00  0.00     0.278 C 
ENDBRANCH  11  16
BRANCH  15  18
ATOM     18  C   UNL     1       5.428   2.033  -6.143  1.00  0.00    -0.009 C 
ATOM     19  C   UNL     1       6.217   1.221  -7.197  1.00  0.00     0.016 C 
ATOM     20  C   UNL     1       4.030   2.374  -6.694  1.00  0.00     0.016 C 
ATOM     21  C   UNL     1       6.192   3.378  -5.997  1.00  0.00     0.016 C 
ENDBRANCH  15  18
ENDBRANCH   9  10
ENDBRANCH   7   9
ENDBRANCH   4   7
ENDBRANCH   2   3
ENDBRANCH   1   2
BRANCH   1  22
ATOM     22  C   UNL     1       2.875  -4.337  -1.114  1.00  0.00     0.023 C 
BRANCH  22  23
ATOM     23  C   UNL     1       3.870  -3.312  -0.571  1.00  0.00     0.116 C 
BRANCH  23  24
ATOM     24  N   UNL     1       3.266  -2.171   0.096  1.00  0.00    -0.352 N 
ATOM     25  C   UNL     1       3.534  -1.610   1.327  1.00  0.00     0.251 C 
ATOM     26  H   UNL     1       2.550  -1.727  -0.413  1.00  0.00     0.163 HD
ATOM     27  O   UNL     1       2.878  -0.646   1.702  1.00  0.00    -0.269 OA
BRANCH  25  28
ATOM     28  C   UNL     1       4.569  -2.186   2.223  1.00  0.00     0.039 A 
ATOM     29  C   UNL     1       4.225  -2.435   3.556  1.00  0.00     0.014 A 
ATOM     30  C   UNL     1       5.860  -2.479   1.776  1.00  0.00     0.014 A 
ATOM     31  C   UNL     1       5.135  -3.070   4.407  1.00  0.00     0.010 A 
ATOM     32  C   UNL     1       6.751  -3.162   2.613  1.00  0.00     0.010 A 
ATOM     33  C   UNL     1       6.388  -3.491   3.929  1.00  0.00    -0.014 A 
BRANCH  33  34
ATOM     34  C   UNL     1       7.266  -4.355   4.768  1.00  0.00     0.031 A 
ATOM     35  C   UNL     1       8.606  -3.880   5.258  1.00  0.00     0.074 A 
ATOM     36  C   UNL     1       6.863  -5.612   5.051  1.00  0.00     0.049 A 
ATOM     37  N   UNL     1       9.483  -4.510   5.998  1.00  0.00    -0.248 NA
ATOM     38  C   UNL     1       9.024  -2.531   4.849  1.00  0.00     0.031 C 
ATOM     39  C   UNL     1       5.614  -6.222   4.586  1.00  0.00     0.029 A 
ATOM     40  N   UNL     1       7.457  -6.605   5.791  1.00  0.00    -0.354 N 
ATOM     41  C   UNL     1      10.558  -3.640   6.146  1.00  0.00     0.074 A 
ATOM     42  C   UNL     1      10.239  -2.454   5.377  1.00  0.00     0.031 C 
ATOM     43  C   UNL     1       5.524  -7.470   5.073  1.00  0.00     0.029 A 
ATOM     44  C   UNL     1       6.718  -7.763   5.859  1.00  0.00     0.049 A 
ATOM     45  H   UNL     1       8.331  -6.498   6.232  1.00  0.00     0.167 HD
ATOM     46  C   UNL     1      11.694  -3.805   6.868  1.00  0.00     0.037 A 
ATOM     47  C   UNL     1       6.967  -8.931   6.482  1.00  0.00     0.037 A 
ATOM     48  C   UNL     1      12.008  -4.984   7.638  1.00  0.00     0.049 A 
ATOM     49  C   UNL     1       8.229  -9.086   7.284  1.00  0.00     0.074 A 
ATOM     50  C   UNL     1      13.109  -5.218   8.446  1.00  0.00     0.029 A 
ATOM     51  N   UNL     1      11.228  -6.131   7.692  1.00  0.00    -0.354 N 
ATOM     52  N   UNL     1       9.197  -8.222   7.472  1.00  0.00    -0.248 NA
ATOM     53  C   UNL     1       8.428 -10.372   7.966  1.00  0.00     0.031 C 
ATOM     54  C   UNL     1      13.015  -6.519   8.954  1.00  0.00     0.029 A 
ATOM     55  C   UNL     1      11.834  -7.081   8.501  1.00  0.00     0.049 A 
ATOM     56  H   UNL     1      10.371  -6.252   7.224  1.00  0.00     0.167 HD
ATOM     57  C   UNL     1      10.111  -8.852   8.309  1.00  0.00     0.074 A 
ATOM     58  C   UNL     1       9.569 -10.162   8.608  1.00  0.00     0.031 C 
ATOM     59  C   UNL     1      11.293  -8.387   8.786  1.00  0.00     0.037 A 
BRANCH  46  60
ATOM     60  C   UNL     1      12.688  -2.675   6.868  1.00  0.00     0.058 A 
ATOM     61  C   UNL     1      12.429  -1.468   7.538  1.00  0.00     0.135 A 
ATOM     62  C   UNL     1      13.931  -2.811   6.228  1.00  0.00     0.135 A 
ATOM     63  F   UNL     1      11.254  -1.280   8.159  1.00  0.00    -0.206 F 
ATOM     64  C   UNL     1      13.352  -0.427   7.549  1.00  0.00     0.059 A 
ATOM     65  C   UNL     1      14.880  -1.792   6.247  1.00  0.00     0.059 A 
ATOM     66  F   UNL     1      14.235  -3.945   5.576  1.00  0.00    -0.206 F 
ATOM     67  C   UNL     1      14.574  -0.598   6.897  1.00  0.00     0.060 A 
BRANCH  67  68
ATOM     68  S   UNL     1      15.761   0.764   6.920  1.00  0.00     0.124 S 
ATOM     69  O   UNL     1      15.147   1.700   5.983  1.00  0.00    -0.237 OA
ATOM     70  O   UNL     1      15.745   1.170   8.322  1.00  0.00    -0.237 OA
ATOM     71  O   UNL     1      17.000   0.143   6.465  1.00  0.00    -0.744 OA
ENDBRANCH  67  68
ENDBRANCH  46  60
BRANCH  47  72
ATOM     72  C   UNL     1       5.981 -10.042   6.397  1.00  0.00     0.058 A 
ATOM     73  C   UNL     1       5.212 -10.410   7.511  1.00  0.00     0.135 A 
ATOM     74  C   UNL     1       5.780 -10.748   5.201  1.00  0.00     0.135 A 
ATOM     75  F   UNL     1       5.374  -9.769   8.679  1.00  0.00    -0.206 F 
ATOM     76  C   UNL     1       4.290 -11.449   7.449  1.00  0.00     0.059 A 
ATOM     77  C   UNL     1       4.846 -11.775   5.107  1.00  0.00     0.059 A 
ATOM     78  F   UNL     1       6.479 -10.423   4.103  1.00  0.00    -0.206 F 
ATOM     79  C   UNL     1       4.112 -12.125   6.241  1.00  0.00     0.060 A 
BRANCH  79  80
ATOM     80  S   UNL     1       2.873 -13.436   6.154  1.00  0.00     0.124 S 
ATOM     81  O   UNL     1       3.541 -14.518   6.867  1.00  0.00    -0.237 OA
ATOM     82  O   UNL     1       1.734 -12.828   6.835  1.00  0.00    -0.237 OA
ATOM     83  O   UNL     1       2.699 -13.636   4.718  1.00  0.00    -0.744 OA
ENDBRANCH  79  80
ENDBRANCH  47  72
BRANCH  59  84
ATOM     84  C   UNL     1      12.069  -9.300   9.697  1.00  0.00     0.058 A 
ATOM     85  C   UNL     1      12.716 -10.449   9.214  1.00  0.00     0.135 A 
ATOM     86  C   UNL     1      12.174  -9.019  11.069  1.00  0.00     0.135 A 
ATOM     87  F   UNL     1      12.643 -10.767   7.912  1.00  0.00    -0.206 F 
ATOM     88  C   UNL     1      13.404 -11.309  10.064  1.00  0.00     0.059 A 
ATOM     89  C   UNL     1      12.880  -9.850  11.934  1.00  0.00     0.059 A 
ATOM     90  F   UNL     1      11.585  -7.928  11.583  1.00  0.00    -0.206 F 
ATOM     91  C   UNL     1      13.475 -11.004  11.425  1.00  0.00     0.060 A 
BRANCH  91  92
ATOM     92  S   UNL     1      14.367 -12.128  12.521  1.00  0.00     0.124 S 
ATOM     93  O   UNL     1      13.414 -13.224  12.655  1.00  0.00    -0.237 OA
ATOM     94  O   UNL     1      15.573 -12.426  11.753  1.00  0.00    -0.237 OA
ATOM     95  O   UNL     1      14.581 -11.329  13.724  1.00  0.00    -0.744 OA
ENDBRANCH  91  92
ENDBRANCH  59  84
ENDBRANCH  33  34
ENDBRANCH  25  28
ENDBRANCH  23  24
ENDBRANCH  22  23
ENDBRANCH   1  22
TORSDOF 18
