REMARK SMILES Cc1cc(Cl)cc2c1O[C@H](C(F)(F)F)C(C(=O)NCCCCNC(=O)c1ccc(-c3c4nc(c(-c5c(F)cc(S(=O)(=O)[O-])cc5F)c5ccc([nH]5)c(-c5c(F)cc(S(=O)(=O)[O-])cc5F)c5nc(c(-c6c(F)cc(S(=O)(=O)[O-])cc6F)c6ccc3[nH]6)C=C5)C=C4)cc1)=C2
REMARK SMILES IDX 21 1 20 2 19 3 18 4 16 5 17 6 15 8 1 9 2 10 3 11 8 12 4 13
REMARK SMILES IDX 7 14 9 15 5 16 6 17 92 18 10 19 11 20 12 21 13 22 14 23
REMARK SMILES IDX 22 24 23 25 24 26 25 28 26 29 27 30 91 31 28 32 90 33 29 34
REMARK SMILES IDX 30 35 31 36 84 37 32 38 89 39 83 40 85 41 33 42 88 43 82 44
REMARK SMILES IDX 81 45 34 47 68 48 47 49 67 50 48 51 51 52 66 53 86 54 49 55
REMARK SMILES IDX 50 56 65 58 87 59 52 60 35 61 36 62 45 63 37 64 38 65 44 66
REMARK SMILES IDX 46 67 39 68 40 69 41 70 42 71 43 72 69 73 70 74 79 75 71 76
REMARK SMILES IDX 72 77 78 78 80 79 73 80 74 81 75 82 76 83 77 84 53 85 54 86
REMARK SMILES IDX 63 87 55 88 56 89 62 90 64 91 57 92 58 93 59 94 60 95 61 96
REMARK H PARENT 18 7 23 27 85 46 51 57
REMARK Flexibility Score: inf
ROOT
ATOM      1  C   UNL     1      -1.211  -5.309   6.771  1.00  0.00     0.023 C 
ENDROOT
BRANCH   1   2
ATOM      2  C   UNL     1      -0.950  -4.416   5.556  1.00  0.00     0.023 C 
BRANCH   2   3
ATOM      3  C   UNL     1      -2.127  -3.523   5.176  1.00  0.00     0.116 C 
BRANCH   3   4
ATOM      4  N   UNL     1      -2.138  -2.285   5.934  1.00  0.00    -0.352 N 
ATOM      5  C   UNL     1      -1.786  -0.996   5.723  1.00  0.00     0.251 C 
ATOM      6  O   UNL     1      -1.967  -0.236   6.680  1.00  0.00    -0.270 OA
ATOM      7  H   UNL     1      -2.494  -2.420   6.842  1.00  0.00     0.163 HD
BRANCH   5   8
ATOM      8  C   UNL     1      -1.218  -0.453   4.454  1.00  0.00     0.067 C 
ATOM      9  C   UNL     1       0.998   0.345  -0.140  1.00  0.00     0.048 C 
ATOM     10  C   UNL     1       0.588   1.197   1.027  1.00  0.00    -0.007 A 
ATOM     11  C   UNL     1       0.793   2.583   0.973  1.00  0.00     0.027 A 
ATOM     12  C   UNL     1       0.045   0.644   2.195  1.00  0.00     0.131 A 
ATOM     13  C   UNL     1       0.449   3.390   2.058  1.00  0.00     0.042 A 
ATOM     14  C   UNL     1      -0.295   1.452   3.286  1.00  0.00     0.019 A 
ATOM     15  O   UNL     1      -0.095  -0.716   2.248  1.00  0.00    -0.475 OA
ATOM     16  Cl  UNL     1       0.708   5.089   1.970  1.00  0.00    -0.084 Cl
ATOM     17  C   UNL     1      -0.092   2.832   3.215  1.00  0.00     0.032 A 
ATOM     18  C   UNL     1      -0.826   0.834   4.496  1.00  0.00     0.025 C 
ATOM     19  C   UNL     1      -1.103  -1.222   3.169  1.00  0.00     0.314 C 
BRANCH  19  20
ATOM     20  C   UNL     1      -2.449  -1.352   2.430  1.00  0.00     0.429 C 
ATOM     21  F   UNL     1      -2.365  -2.293   1.456  1.00  0.00    -0.167 F 
ATOM     22  F   UNL     1      -3.457  -1.734   3.249  1.00  0.00    -0.167 F 
ATOM     23  F   UNL     1      -2.837  -0.197   1.843  1.00  0.00    -0.167 F 
ENDBRANCH  19  20
ENDBRANCH   5   8
ENDBRANCH   3   4
ENDBRANCH   2   3
ENDBRANCH   1   2
BRANCH   1  24
ATOM     24  C   UNL     1      -2.445  -6.204   6.676  1.00  0.00     0.116 C 
BRANCH  24  25
ATOM     25  N   UNL     1      -2.514  -6.984   5.447  1.00  0.00    -0.352 N 
ATOM     26  C   UNL     1      -3.053  -8.237   5.273  1.00  0.00     0.251 C 
ATOM     27  H   UNL     1      -2.129  -6.563   4.645  1.00  0.00     0.163 HD
ATOM     28  O   UNL     1      -2.980  -8.806   4.190  1.00  0.00    -0.269 OA
BRANCH  26  29
ATOM     29  C   UNL     1      -3.676  -8.898   6.434  1.00  0.00     0.039 A 
ATOM     30  C   UNL     1      -3.174 -10.131   6.854  1.00  0.00     0.014 A 
ATOM     31  C   UNL     1      -4.682  -8.248   7.155  1.00  0.00     0.014 A 
ATOM     32  C   UNL     1      -3.634 -10.681   8.049  1.00  0.00     0.010 A 
ATOM     33  C   UNL     1      -5.093  -8.769   8.376  1.00  0.00     0.010 A 
ATOM     34  C   UNL     1      -4.567  -9.986   8.836  1.00  0.00    -0.014 A 
BRANCH  34  35
ATOM     35  C   UNL     1      -5.000 -10.523  10.148  1.00  0.00     0.031 A 
ATOM     36  C   UNL     1      -6.415 -10.984  10.337  1.00  0.00     0.074 A 
ATOM     37  C   UNL     1      -4.126 -10.558  11.173  1.00  0.00     0.049 A 
ATOM     38  N   UNL     1      -6.983 -11.477  11.406  1.00  0.00    -0.248 NA
ATOM     39  C   UNL     1      -7.318 -10.852   9.181  1.00  0.00     0.031 C 
ATOM     40  C   UNL     1      -2.740 -10.086  11.121  1.00  0.00     0.029 A 
ATOM     41  N   UNL     1      -4.272 -11.013  12.459  1.00  0.00    -0.354 N 
ATOM     42  C   UNL     1      -8.306 -11.713  11.053  1.00  0.00     0.074 A 
ATOM     43  C   UNL     1      -8.473 -11.253   9.693  1.00  0.00     0.031 C 
ATOM     44  C   UNL     1      -2.153 -10.313  12.308  1.00  0.00     0.029 A 
ATOM     45  C   UNL     1      -3.125 -10.923  13.211  1.00  0.00     0.049 A 
ATOM     46  H   UNL     1      -5.119 -11.371  12.810  1.00  0.00     0.167 HD
ATOM     47  C   UNL     1      -9.283 -12.294  11.787  1.00  0.00     0.037 A 
ATOM     48  C   UNL     1      -2.882 -11.301  14.481  1.00  0.00     0.037 A 
ATOM     49  C   UNL     1      -9.102 -12.783  13.126  1.00  0.00     0.049 A 
ATOM     50  C   UNL     1      -3.986 -11.938  15.279  1.00  0.00     0.074 A 
ATOM     51  C   UNL     1     -10.010 -13.447  13.929  1.00  0.00     0.029 A 
ATOM     52  N   UNL     1      -7.930 -12.661  13.857  1.00  0.00    -0.354 N 
ATOM     53  N   UNL     1      -5.213 -12.215  14.908  1.00  0.00    -0.248 NA
ATOM     54  C   UNL     1      -3.677 -12.312  16.666  1.00  0.00     0.031 C 
ATOM     55  C   UNL     1      -9.395 -13.705  15.159  1.00  0.00     0.029 A 
ATOM     56  C   UNL     1      -8.096 -13.222  15.111  1.00  0.00     0.049 A 
ATOM     57  H   UNL     1      -7.102 -12.239  13.532  1.00  0.00     0.167 HD
ATOM     58  C   UNL     1      -5.819 -12.805  16.010  1.00  0.00     0.074 A 
ATOM     59  C   UNL     1      -4.822 -12.856  17.059  1.00  0.00     0.031 C 
ATOM     60  C   UNL     1      -7.088 -13.262  16.140  1.00  0.00     0.037 A 
BRANCH  47  61
ATOM     61  C   UNL     1     -10.626 -12.457  11.137  1.00  0.00     0.058 A 
ATOM     62  C   UNL     1     -10.835 -13.417  10.133  1.00  0.00     0.135 A 
ATOM     63  C   UNL     1     -11.715 -11.664  11.525  1.00  0.00     0.135 A 
ATOM     64  F   UNL     1      -9.819 -14.188   9.713  1.00  0.00    -0.206 F 
ATOM     65  C   UNL     1     -12.071 -13.564   9.516  1.00  0.00     0.059 A 
ATOM     66  C   UNL     1     -12.968 -11.809  10.936  1.00  0.00     0.059 A 
ATOM     67  F   UNL     1     -11.566 -10.729  12.477  1.00  0.00    -0.206 F 
ATOM     68  C   UNL     1     -13.131 -12.752   9.921  1.00  0.00     0.060 A 
BRANCH  68  69
ATOM     69  S   UNL     1     -14.728 -12.950   9.103  1.00  0.00     0.124 S 
ATOM     70  O   UNL     1     -14.475 -12.310   7.816  1.00  0.00    -0.237 OA
ATOM     71  O   UNL     1     -14.885 -14.401   9.069  1.00  0.00    -0.237 OA
ATOM     72  O   UNL     1     -15.651 -12.243   9.985  1.00  0.00    -0.744 OA
ENDBRANCH  68  69
ENDBRANCH  47  61
BRANCH  48  73
ATOM     73  C   UNL     1      -1.524 -11.129  15.057  1.00  0.00     0.058 A 
ATOM     74  C   UNL     1      -0.675 -12.232  15.225  1.00  0.00     0.135 A 
ATOM     75  C   UNL     1      -1.037  -9.864  15.419  1.00  0.00     0.135 A 
ATOM     76  F   UNL     1      -1.101 -13.461  14.896  1.00  0.00    -0.206 F 
ATOM     77  C   UNL     1       0.611 -12.091  15.734  1.00  0.00     0.059 A 
ATOM     78  C   UNL     1       0.252  -9.695  15.916  1.00  0.00     0.059 A 
ATOM     79  F   UNL     1      -1.807  -8.777  15.263  1.00  0.00    -0.206 F 
ATOM     80  C   UNL     1       1.067 -10.816  16.074  1.00  0.00     0.060 A 
BRANCH  80  81
ATOM     81  S   UNL     1       2.762 -10.636  16.674  1.00  0.00     0.124 S 
ATOM     82  O   UNL     1       2.654 -11.176  18.024  1.00  0.00    -0.237 OA
ATOM     83  O   UNL     1       3.513 -11.446  15.720  1.00  0.00    -0.237 OA
ATOM     84  O   UNL     1       2.997  -9.198  16.585  1.00  0.00    -0.744 OA
ENDBRANCH  80  81
ENDBRANCH  48  73
BRANCH  60  85
ATOM     85  C   UNL     1      -7.484 -13.853  17.461  1.00  0.00     0.058 A 
ATOM     86  C   UNL     1      -7.814 -13.033  18.549  1.00  0.00     0.135 A 
ATOM     87  C   UNL     1      -7.647 -15.240  17.603  1.00  0.00     0.135 A 
ATOM     88  F   UNL     1      -7.665 -11.701  18.462  1.00  0.00    -0.206 F 
ATOM     89  C   UNL     1      -8.303 -13.568  19.735  1.00  0.00     0.059 A 
ATOM     90  C   UNL     1      -8.151 -15.795  18.774  1.00  0.00     0.059 A 
ATOM     91  F   UNL     1      -7.350 -16.063  16.585  1.00  0.00    -0.206 F 
ATOM     92  C   UNL     1      -8.479 -14.950  19.834  1.00  0.00     0.060 A 
BRANCH  92  93
ATOM     93  S   UNL     1      -9.200 -15.621  21.347  1.00  0.00     0.124 S 
ATOM     94  O   UNL     1      -8.085 -15.506  22.281  1.00  0.00    -0.237 OA
ATOM     95  O   UNL     1     -10.322 -14.719  21.585  1.00  0.00    -0.237 OA
ATOM     96  O   UNL     1      -9.568 -16.983  20.972  1.00  0.00    -0.744 OA
ENDBRANCH  92  93
ENDBRANCH  60  85
ENDBRANCH  34  35
ENDBRANCH  26  29
ENDBRANCH  24  25
ENDBRANCH   1  24
TORSDOF 15
