REMARK SMILES NS(=O)(=O)c1ccc(N2N=C(C(=O)NCCCCNC(=O)c3ccc(-c4c5nc(c(-c6c(F)cc(S(=O)(=O)[O-])cc6F)c6ccc([nH]6)c(-c6c(F)cc(S(=O)(=O)[O-])cc6F)c6nc(c(-c7c(F)cc(S(=O)(=O)[O-])cc7F)c7ccc4[nH]7)C=C6)C=C5)cc3)C[C@H]2c2cccs2)cc1
REMARK SMILES IDX 16 1 15 2 14 3 12 4 13 5 11 7 9 8 10 9 89 10 88 11 8 12 5 13
REMARK SMILES IDX 6 14 96 15 7 16 95 17 2 18 3 19 4 20 1 21 90 24 91 25 94 26
REMARK SMILES IDX 92 27 93 28 17 29 18 30 19 31 20 32 21 34 22 35 23 36 87 37
REMARK SMILES IDX 24 38 86 39 25 40 26 41 27 42 80 43 28 44 85 45 79 46 81 47
REMARK SMILES IDX 29 48 84 49 78 50 77 51 30 53 64 54 43 55 63 56 44 57 47 58
REMARK SMILES IDX 62 59 82 60 45 61 46 62 61 64 83 65 48 66 31 67 32 68 41 69
REMARK SMILES IDX 33 70 34 71 40 72 42 73 35 74 36 75 37 76 38 77 39 78 65 79
REMARK SMILES IDX 66 80 75 81 67 82 68 83 74 84 76 85 69 86 70 87 71 88 72 89
REMARK SMILES IDX 73 90 49 91 50 92 59 93 51 94 52 95 58 96 60 97 53 98 54 99
REMARK SMILES IDX 55 100 56 101 57 102
REMARK H PARENT 14 6 1 22 1 23 19 33 81 52 47 63
REMARK Flexibility Score: inf
ROOT
ATOM      1  C   UNL     1       1.448   7.532   9.780  1.00  0.00     0.023 C 
ENDROOT
BRANCH   1   2
ATOM      2  C   UNL     1       2.063   7.968   8.454  1.00  0.00     0.116 C 
BRANCH   2   3
ATOM      3  N   UNL     1       3.144   7.092   8.049  1.00  0.00    -0.351 N 
ATOM      4  C   UNL     1       3.357   6.254   6.983  1.00  0.00     0.267 C 
ATOM      5  O   UNL     1       4.393   5.593   6.981  1.00  0.00    -0.268 OA
ATOM      6  H   UNL     1       3.897   7.099   8.683  1.00  0.00     0.163 HD
BRANCH   4   7
ATOM      7  C   UNL     1       2.416   6.117   5.793  1.00  0.00     0.128 C 
ATOM      8  N   UNL     1       1.756   5.521   3.846  1.00  0.00    -0.256 N 
ATOM      9  N   UNL     1       2.700   5.318   4.806  1.00  0.00    -0.171 NA
ATOM     10  C   UNL     1       0.707   6.460   4.246  1.00  0.00     0.154 C 
ATOM     11  C   UNL     1       1.113   6.832   5.674  1.00  0.00     0.097 C 
BRANCH   8  12
ATOM     12  C   UNL     1       1.504   4.552   2.875  1.00  0.00     0.060 A 
ATOM     13  C   UNL     1       0.862   2.630   0.926  1.00  0.00     0.082 A 
ATOM     14  C   UNL     1       1.182   2.222   2.222  1.00  0.00     0.024 A 
ATOM     15  C   UNL     1       0.897   3.980   0.582  1.00  0.00     0.024 A 
ATOM     16  C   UNL     1       1.515   3.184   3.183  1.00  0.00     0.029 A 
ATOM     17  C   UNL     1       1.213   4.928   1.556  1.00  0.00     0.029 A 
BRANCH  13  18
ATOM     18  S   UNL     1       0.437   1.456  -0.321  1.00  0.00     0.238 S 
ATOM     19  O   UNL     1       1.043   1.865  -1.573  1.00  0.00    -0.207 OA
ATOM     20  O   UNL     1      -0.965   1.152  -0.204  1.00  0.00    -0.207 OA
BRANCH  18  21
ATOM     21  N   UNL     1       1.258   0.061   0.121  1.00  0.00    -0.225 NA
ATOM     22  H   UNL     1       1.065  -0.677  -0.556  1.00  0.00     0.137 HD
ATOM     23  H   UNL     1       0.949  -0.237   1.046  1.00  0.00     0.137 HD
ENDBRANCH  18  21
ENDBRANCH  13  18
ENDBRANCH   8  12
BRANCH  10  24
ATOM     24  C   UNL     1       0.487   7.667   3.354  1.00  0.00     0.030 A 
ATOM     25  C   UNL     1      -0.542   7.856   2.447  1.00  0.00     0.017 A 
ATOM     26  S   UNL     1       1.573   8.999   3.330  1.00  0.00    -0.147 S 
ATOM     27  C   UNL     1      -0.464   9.111   1.781  1.00  0.00     0.012 A 
ATOM     28  C   UNL     1       0.614   9.852   2.205  1.00  0.00     0.065 A 
ENDBRANCH  10  24
ENDBRANCH   4   7
ENDBRANCH   2   3
ENDBRANCH   1   2
BRANCH   1  29
ATOM     29  C   UNL     1       2.294   7.846  11.011  1.00  0.00     0.023 C 
BRANCH  29  30
ATOM     30  C   UNL     1       2.691   9.311  11.179  1.00  0.00     0.116 C 
BRANCH  30  31
ATOM     31  N   UNL     1       1.560  10.228  11.131  1.00  0.00    -0.352 N 
ATOM     32  C   UNL     1       1.293  11.312  11.933  1.00  0.00     0.251 C 
ATOM     33  H   UNL     1       0.896  10.046  10.427  1.00  0.00     0.163 HD
ATOM     34  O   UNL     1       0.233  11.918  11.814  1.00  0.00    -0.269 OA
BRANCH  32  35
ATOM     35  C   UNL     1       2.275  11.712  12.962  1.00  0.00     0.039 A 
ATOM     36  C   UNL     1       1.836  11.910  14.273  1.00  0.00     0.014 A 
ATOM     37  C   UNL     1       3.628  11.842  12.641  1.00  0.00     0.014 A 
ATOM     38  C   UNL     1       2.769  12.162  15.281  1.00  0.00     0.010 A 
ATOM     39  C   UNL     1       4.562  12.022  13.657  1.00  0.00     0.010 A 
ATOM     40  C   UNL     1       4.143  12.178  14.987  1.00  0.00    -0.014 A 
BRANCH  40  41
ATOM     41  C   UNL     1       5.159  12.340  16.059  1.00  0.00     0.031 A 
ATOM     42  C   UNL     1       6.070  13.538  16.057  1.00  0.00     0.074 A 
ATOM     43  C   UNL     1       5.318  11.367  16.979  1.00  0.00     0.049 A 
ATOM     44  N   UNL     1       7.071  13.813  16.852  1.00  0.00    -0.248 NA
ATOM     45  C   UNL     1       5.847  14.544  15.005  1.00  0.00     0.031 C 
ATOM     46  C   UNL     1       4.543  10.125  17.043  1.00  0.00     0.029 A 
ATOM     47  N   UNL     1       6.198  11.259  18.026  1.00  0.00    -0.354 N 
ATOM     48  C   UNL     1       7.614  15.002  16.381  1.00  0.00     0.074 A 
ATOM     49  C   UNL     1       6.856  15.379  15.209  1.00  0.00     0.031 C 
ATOM     50  C   UNL     1       4.975   9.387  18.079  1.00  0.00     0.029 A 
ATOM     51  C   UNL     1       6.076  10.085  18.735  1.00  0.00     0.049 A 
ATOM     52  H   UNL     1       6.856  11.956  18.250  1.00  0.00     0.167 HD
ATOM     53  C   UNL     1       8.641  15.722  16.891  1.00  0.00     0.037 A 
ATOM     54  C   UNL     1       6.778   9.621  19.786  1.00  0.00     0.037 A 
ATOM     55  C   UNL     1       9.354  15.371  18.090  1.00  0.00     0.049 A 
ATOM     56  C   UNL     1       7.883  10.466  20.361  1.00  0.00     0.074 A 
ATOM     57  C   UNL     1      10.338  16.090  18.746  1.00  0.00     0.029 A 
ATOM     58  N   UNL     1       9.163  14.204  18.813  1.00  0.00    -0.354 N 
ATOM     59  N   UNL     1       8.319  11.636  19.958  1.00  0.00    -0.248 NA
ATOM     60  C   UNL     1       8.587   9.935  21.537  1.00  0.00     0.031 C 
ATOM     61  C   UNL     1      10.769  15.340  19.844  1.00  0.00     0.029 A 
ATOM     62  C   UNL     1      10.024  14.173  19.896  1.00  0.00     0.049 A 
ATOM     63  H   UNL     1       8.511  13.501  18.590  1.00  0.00     0.167 HD
ATOM     64  C   UNL     1       9.326  11.993  20.848  1.00  0.00     0.074 A 
ATOM     65  C   UNL     1       9.427  10.922  21.817  1.00  0.00     0.031 C 
ATOM     66  C   UNL     1      10.099  13.106  20.862  1.00  0.00     0.037 A 
BRANCH  53  67
ATOM     67  C   UNL     1       9.052  16.974  16.168  1.00  0.00     0.058 A 
ATOM     68  C   UNL     1       8.264  18.134  16.195  1.00  0.00     0.135 A 
ATOM     69  C   UNL     1      10.286  17.034  15.499  1.00  0.00     0.135 A 
ATOM     70  F   UNL     1       7.069  18.126  16.806  1.00  0.00    -0.206 F 
ATOM     71  C   UNL     1       8.677  19.308  15.572  1.00  0.00     0.059 A 
ATOM     72  C   UNL     1      10.730  18.204  14.890  1.00  0.00     0.059 A 
ATOM     73  F   UNL     1      11.076  15.951  15.441  1.00  0.00    -0.206 F 
ATOM     74  C   UNL     1       9.914  19.334  14.926  1.00  0.00     0.060 A 
BRANCH  74  75
ATOM     75  S   UNL     1      10.451  20.875  14.155  1.00  0.00     0.124 S 
ATOM     76  O   UNL     1       9.598  20.920  12.971  1.00  0.00    -0.237 OA
ATOM     77  O   UNL     1      10.153  21.862  15.188  1.00  0.00    -0.237 OA
ATOM     78  O   UNL     1      11.870  20.650  13.898  1.00  0.00    -0.744 OA
ENDBRANCH  74  75
ENDBRANCH  53  67
BRANCH  54  79
ATOM     79  C   UNL     1       6.457   8.294  20.377  1.00  0.00     0.058 A 
ATOM     80  C   UNL     1       5.872   8.191  21.648  1.00  0.00     0.135 A 
ATOM     81  C   UNL     1       6.748   7.103  19.694  1.00  0.00     0.135 A 
ATOM     82  F   UNL     1       5.578   9.302  22.342  1.00  0.00    -0.206 F 
ATOM     83  C   UNL     1       5.616   6.957  22.236  1.00  0.00     0.059 A 
ATOM     84  C   UNL     1       6.479   5.856  20.251  1.00  0.00     0.059 A 
ATOM     85  F   UNL     1       7.290   7.146  18.467  1.00  0.00    -0.206 F 
ATOM     86  C   UNL     1       5.928   5.794  21.530  1.00  0.00     0.060 A 
BRANCH  86  87
ATOM     87  S   UNL     1       5.579   4.194  22.293  1.00  0.00     0.124 S 
ATOM     88  O   UNL     1       6.667   4.086  23.257  1.00  0.00    -0.237 OA
ATOM     89  O   UNL     1       4.247   4.403  22.852  1.00  0.00    -0.237 OA
ATOM     90  O   UNL     1       5.637   3.268  21.165  1.00  0.00    -0.744 OA
ENDBRANCH  86  87
ENDBRANCH  54  79
BRANCH  66  91
ATOM     91  C   UNL     1      11.092  13.246  21.980  1.00  0.00     0.058 A 
ATOM     92  C   UNL     1      12.271  12.486  22.018  1.00  0.00     0.135 A 
ATOM     93  C   UNL     1      10.886  14.191  22.998  1.00  0.00     0.135 A 
ATOM     94  F   UNL     1      12.512  11.566  21.071  1.00  0.00    -0.206 F 
ATOM     95  C   UNL     1      13.202  12.642  23.040  1.00  0.00     0.059 A 
ATOM     96  C   UNL     1      11.815  14.381  24.015  1.00  0.00     0.059 A 
ATOM     97  F   UNL     1       9.778  14.950  23.001  1.00  0.00    -0.206 F 
ATOM     98  C   UNL     1      12.964  13.593  24.034  1.00  0.00     0.060 A 
BRANCH  98  99
ATOM     99  S   UNL     1      14.194  13.811  25.338  1.00  0.00     0.124 S 
ATOM    100  O   UNL     1      13.944  12.643  26.175  1.00  0.00    -0.237 OA
ATOM    101  O   UNL     1      15.449  13.800  24.592  1.00  0.00    -0.237 OA
ATOM    102  O   UNL     1      13.836  15.097  25.930  1.00  0.00    -0.744 OA
ENDBRANCH  98  99
ENDBRANCH  66  91
ENDBRANCH  40  41
ENDBRANCH  32  35
ENDBRANCH  30  31
ENDBRANCH  29  30
ENDBRANCH   1  29
TORSDOF 18
