REMARK SMILES Cc1cc(C(=O)NCCCCNC(=O)c2ccc(-c3c4nc(c(-c5c(F)cc(S(=O)(=O)[O-])cc5F)c5ccc([nH]5)c(-c5c(F)cc(S(=O)(=O)[O-])cc5F)c5nc(c(-c6c(F)cc(S(=O)(=O)[O-])cc6F)c6ccc3[nH]6)C=C5)C=C4)cc2)cc(S(=O)(=O)NNC(=O)c2c[nH]c3ccccc23)c1C
REMARK SMILES IDX 9 1 8 2 7 3 5 4 6 5 4 7 1 8 2 9 3 10 99 11 82 12 100 13
REMARK SMILES IDX 81 14 83 15 84 16 85 17 86 18 87 20 88 21 89 23 90 24 91 25
REMARK SMILES IDX 98 26 92 27 93 28 97 29 94 31 96 32 95 33 10 34 11 35 12 36
REMARK SMILES IDX 13 37 14 39 15 40 16 41 80 42 17 43 79 44 18 45 19 46 20 47
REMARK SMILES IDX 73 48 21 49 78 50 72 51 74 52 22 53 77 54 71 55 70 56 23 58
REMARK SMILES IDX 57 59 36 60 56 61 37 62 40 63 55 64 75 65 38 66 39 67 54 69
REMARK SMILES IDX 76 70 41 71 24 72 25 73 34 74 26 75 27 76 33 77 35 78 28 79
REMARK SMILES IDX 29 80 30 81 31 82 32 83 58 84 59 85 68 86 60 87 61 88 67 89
REMARK SMILES IDX 69 90 62 91 63 92 64 93 65 94 66 95 42 96 43 97 52 98 44 99
REMARK SMILES IDX 45 100 51 101 53 102 46 103 47 104 48 105 49 106 50 107
REMARK H PARENT 7 6 86 19 87 22 92 30 12 38 74 57 40 68
REMARK Flexibility Score: inf
ROOT
ATOM      1  C   UNL     1      -1.881   4.291  -0.741  1.00  0.00     0.023 C 
ENDROOT
BRANCH   1   2
ATOM      2  C   UNL     1      -2.332   3.493   0.487  1.00  0.00     0.116 C 
BRANCH   2   3
ATOM      3  N   UNL     1      -3.285   2.458   0.124  1.00  0.00    -0.352 N 
ATOM      4  C   UNL     1      -3.172   1.125  -0.179  1.00  0.00     0.251 C 
ATOM      5  O   UNL     1      -4.213   0.513  -0.426  1.00  0.00    -0.269 OA
ATOM      6  H   UNL     1      -4.213   2.784   0.086  1.00  0.00     0.163 HD
BRANCH   4   7
ATOM      7  C   UNL     1      -1.889   0.356  -0.208  1.00  0.00     0.041 A 
ATOM      8  C   UNL     1       1.876   0.878  -0.239  1.00  0.00     0.044 C 
ATOM      9  C   UNL     1       0.553   0.156  -0.251  1.00  0.00    -0.046 A 
ATOM     10  C   UNL     1      -0.621   0.930  -0.289  1.00  0.00     0.017 A 
ATOM     11  C   UNL     1       0.459  -1.250  -0.234  1.00  0.00    -0.028 A 
ATOM     12  C   UNL     1      -0.831  -1.839  -0.280  1.00  0.00     0.088 A 
ATOM     13  C   UNL     1       1.702  -2.106  -0.181  1.00  0.00     0.046 C 
ATOM     14  C   UNL     1      -1.983  -1.046  -0.218  1.00  0.00     0.036 A 
BRANCH  12  15
ATOM     15  S   UNL     1      -0.960  -3.589  -0.596  1.00  0.00     0.257 S 
ATOM     16  O   UNL     1      -0.437  -3.791  -1.948  1.00  0.00    -0.205 OA
ATOM     17  O   UNL     1      -0.398  -4.281   0.526  1.00  0.00    -0.205 OA
BRANCH  15  18
ATOM     18  N   UNL     1      -2.604  -4.030  -0.608  1.00  0.00    -0.123 NA
ATOM     19  H   UNL     1      -3.041  -3.545   0.176  1.00  0.00     0.167 HD
BRANCH  18  20
ATOM     20  N   UNL     1      -3.446  -3.768  -1.786  1.00  0.00    -0.273 N 
ATOM     21  C   UNL     1      -4.383  -4.708  -2.194  1.00  0.00     0.268 C 
ATOM     22  H   UNL     1      -3.345  -2.925  -2.284  1.00  0.00     0.186 HD
ATOM     23  O   UNL     1      -5.587  -4.524  -2.044  1.00  0.00    -0.268 OA
BRANCH  21  24
ATOM     24  C   UNL     1      -3.839  -5.730  -3.089  1.00  0.00     0.066 A 
ATOM     25  C   UNL     1      -2.504  -5.901  -3.414  1.00  0.00     0.097 A 
ATOM     26  C   UNL     1      -4.551  -6.609  -3.971  1.00  0.00     0.012 A 
ATOM     27  N   UNL     1      -2.473  -6.336  -4.710  1.00  0.00    -0.360 N 
ATOM     28  C   UNL     1      -3.716  -6.784  -5.077  1.00  0.00     0.046 A 
ATOM     29  C   UNL     1      -5.852  -7.150  -4.031  1.00  0.00     0.011 A 
ATOM     30  H   UNL     1      -1.678  -6.329  -5.291  1.00  0.00     0.166 HD
ATOM     31  C   UNL     1      -4.164  -7.295  -6.297  1.00  0.00     0.027 A 
ATOM     32  C   UNL     1      -6.272  -7.795  -5.203  1.00  0.00     0.001 A 
ATOM     33  C   UNL     1      -5.460  -7.811  -6.335  1.00  0.00     0.002 A 
ENDBRANCH  21  24
ENDBRANCH  18  20
ENDBRANCH  15  18
ENDBRANCH  12  15
ENDBRANCH   4   7
ENDBRANCH   2   3
ENDBRANCH   1   2
BRANCH   1  34
ATOM     34  C   UNL     1      -2.877   5.366  -1.195  1.00  0.00     0.023 C 
BRANCH  34  35
ATOM     35  C   UNL     1      -3.077   6.519  -0.214  1.00  0.00     0.116 C 
BRANCH  35  36
ATOM     36  N   UNL     1      -1.859   7.270   0.053  1.00  0.00    -0.352 N 
ATOM     37  C   UNL     1      -1.728   8.603   0.367  1.00  0.00     0.251 C 
ATOM     38  H   UNL     1      -1.020   6.757   0.001  1.00  0.00     0.163 HD
ATOM     39  O   UNL     1      -0.611   9.103   0.463  1.00  0.00    -0.269 OA
BRANCH  37  40
ATOM     40  C   UNL     1      -2.938   9.435   0.540  1.00  0.00     0.039 A 
ATOM     41  C   UNL     1      -3.018  10.657  -0.133  1.00  0.00     0.014 A 
ATOM     42  C   UNL     1      -4.000   9.001   1.337  1.00  0.00     0.014 A 
ATOM     43  C   UNL     1      -4.194  11.408  -0.067  1.00  0.00     0.010 A 
ATOM     44  C   UNL     1      -5.194   9.718   1.349  1.00  0.00     0.010 A 
ATOM     45  C   UNL     1      -5.305  10.925   0.643  1.00  0.00    -0.014 A 
BRANCH  45  46
ATOM     46  C   UNL     1      -6.598  11.658   0.644  1.00  0.00     0.031 A 
ATOM     47  C   UNL     1      -7.146  12.225   1.924  1.00  0.00     0.074 A 
ATOM     48  C   UNL     1      -7.314  11.742  -0.494  1.00  0.00     0.049 A 
ATOM     49  N   UNL     1      -8.287  12.827   2.138  1.00  0.00    -0.248 NA
ATOM     50  C   UNL     1      -6.314  12.068   3.127  1.00  0.00     0.031 C 
ATOM     51  C   UNL     1      -6.916  11.182  -1.788  1.00  0.00     0.029 A 
ATOM     52  N   UNL     1      -8.535  12.318  -0.744  1.00  0.00    -0.354 N 
ATOM     53  C   UNL     1      -8.319  13.107   3.499  1.00  0.00     0.074 A 
ATOM     54  C   UNL     1      -7.105  12.562   4.069  1.00  0.00     0.031 C 
ATOM     55  C   UNL     1      -7.865  11.457  -2.697  1.00  0.00     0.029 A 
ATOM     56  C   UNL     1      -8.953  12.182  -2.047  1.00  0.00     0.049 A 
ATOM     57  H   UNL     1      -9.061  12.784  -0.056  1.00  0.00     0.167 HD
ATOM     58  C   UNL     1      -9.262  13.775   4.206  1.00  0.00     0.037 A 
ATOM     59  C   UNL     1     -10.087  12.589  -2.650  1.00  0.00     0.037 A 
ATOM     60  C   UNL     1     -10.457  14.335   3.629  1.00  0.00     0.049 A 
ATOM     61  C   UNL     1     -11.114  13.343  -1.851  1.00  0.00     0.074 A 
ATOM     62  C   UNL     1     -11.443  15.083   4.247  1.00  0.00     0.029 A 
ATOM     63  N   UNL     1     -10.830  14.205   2.298  1.00  0.00    -0.354 N 
ATOM     64  N   UNL     1     -11.096  13.659  -0.578  1.00  0.00    -0.248 NA
ATOM     65  C   UNL     1     -12.309  13.803  -2.569  1.00  0.00     0.031 C 
ATOM     66  C   UNL     1     -12.431  15.374   3.299  1.00  0.00     0.029 A 
ATOM     67  C   UNL     1     -12.039  14.845   2.079  1.00  0.00     0.049 A 
ATOM     68  H   UNL     1     -10.311  13.729   1.611  1.00  0.00     0.167 HD
ATOM     69  C   UNL     1     -12.265  14.374  -0.347  1.00  0.00     0.074 A 
ATOM     70  C   UNL     1     -12.962  14.454  -1.615  1.00  0.00     0.031 C 
ATOM     71  C   UNL     1     -12.719  14.918   0.810  1.00  0.00     0.037 A 
BRANCH  58  72
ATOM     72  C   UNL     1      -9.033  13.936   5.684  1.00  0.00     0.058 A 
ATOM     73  C   UNL     1      -8.024  14.775   6.185  1.00  0.00     0.135 A 
ATOM     74  C   UNL     1      -9.833  13.250   6.611  1.00  0.00     0.135 A 
ATOM     75  F   UNL     1      -7.221  15.444   5.342  1.00  0.00    -0.206 F 
ATOM     76  C   UNL     1      -7.789  14.895   7.550  1.00  0.00     0.059 A 
ATOM     77  C   UNL     1      -9.634  13.377   7.983  1.00  0.00     0.059 A 
ATOM     78  F   UNL     1     -10.814  12.437   6.188  1.00  0.00    -0.206 F 
ATOM     79  C   UNL     1      -8.595  14.186   8.442  1.00  0.00     0.060 A 
BRANCH  79  80
ATOM     80  S   UNL     1      -8.262  14.333  10.210  1.00  0.00     0.124 S 
ATOM     81  O   UNL     1      -7.064  13.511  10.348  1.00  0.00    -0.237 OA
ATOM     82  O   UNL     1      -8.066  15.770  10.375  1.00  0.00    -0.237 OA
ATOM     83  O   UNL     1      -9.469  13.794  10.829  1.00  0.00    -0.744 OA
ENDBRANCH  79  80
ENDBRANCH  58  72
BRANCH  59  84
ATOM     84  C   UNL     1     -10.289  12.318  -4.097  1.00  0.00     0.058 A 
ATOM     85  C   UNL     1     -10.195  13.350  -5.042  1.00  0.00     0.135 A 
ATOM     86  C   UNL     1     -10.541  11.020  -4.568  1.00  0.00     0.135 A 
ATOM     87  F   UNL     1      -9.962  14.608  -4.639  1.00  0.00    -0.206 F 
ATOM     88  C   UNL     1     -10.349  13.108  -6.403  1.00  0.00     0.059 A 
ATOM     89  C   UNL     1     -10.676  10.749  -5.927  1.00  0.00     0.059 A 
ATOM     90  F   UNL     1     -10.623   9.995  -3.705  1.00  0.00    -0.206 F 
ATOM     91  C   UNL     1     -10.583  11.802  -6.836  1.00  0.00     0.060 A 
BRANCH  91  92
ATOM     92  S   UNL     1     -10.708  11.488  -8.611  1.00  0.00     0.124 S 
ATOM     93  O   UNL     1     -12.027  12.030  -8.913  1.00  0.00    -0.237 OA
ATOM     94  O   UNL     1      -9.572  12.240  -9.136  1.00  0.00    -0.237 OA
ATOM     95  O   UNL     1     -10.584  10.036  -8.703  1.00  0.00    -0.744 OA
ENDBRANCH  91  92
ENDBRANCH  59  84
BRANCH  71  96
ATOM     96  C   UNL     1     -14.018  15.672   0.756  1.00  0.00     0.058 A 
ATOM     97  C   UNL     1     -15.250  15.011   0.642  1.00  0.00     0.135 A 
ATOM     98  C   UNL     1     -14.032  17.072   0.875  1.00  0.00     0.135 A 
ATOM     99  F   UNL     1     -15.291  13.675   0.518  1.00  0.00    -0.206 F 
ATOM    100  C   UNL     1     -16.452  15.712   0.629  1.00  0.00     0.059 A 
ATOM    101  C   UNL     1     -15.223  17.791   0.888  1.00  0.00     0.059 A 
ATOM    102  F   UNL     1     -12.881  17.752   0.996  1.00  0.00    -0.206 F 
ATOM    103  C   UNL     1     -16.428  17.103   0.754  1.00  0.00     0.060 A 
BRANCH 103 104
ATOM    104  S   UNL     1     -17.995  17.999   0.774  1.00  0.00     0.124 S 
ATOM    105  O   UNL     1     -18.372  17.961  -0.635  1.00  0.00    -0.237 OA
ATOM    106  O   UNL     1     -18.810  17.186   1.671  1.00  0.00    -0.237 OA
ATOM    107  O   UNL     1     -17.627  19.314   1.290  1.00  0.00    -0.744 OA
ENDBRANCH 103 104
ENDBRANCH  71  96
ENDBRANCH  45  46
ENDBRANCH  37  40
ENDBRANCH  35  36
ENDBRANCH  34  35
ENDBRANCH   1  34
TORSDOF 18
