REMARK SMILES CN1C(=O)/C(=C\c2ccc(C(=O)Nc3ccc(O)cc3C(=O)NCCCCNC(=O)c3ccc(-c4c5nc(c(-c6c(F)cc(S(=O)(=O)[O-])cc6F)c6ccc([nH]6)c(-c6c(F)cc(S(=O)(=O)[O-])cc6F)c6nc(c(-c7c(F)cc(S(=O)(=O)[O-])cc7F)c7ccc4[nH]7)C=C6)C=C5)cc3)cc2)SC1=S
REMARK SMILES IDX 25 1 24 2 23 3 21 4 22 5 20 7 14 8 15 9 16 10 19 11 17 12
REMARK SMILES IDX 13 13 11 14 12 15 10 17 7 18 8 19 98 20 9 21 97 22 6 23 1 24
REMARK SMILES IDX 2 25 3 26 100 27 4 28 5 29 99 30 101 31 18 32 26 34 27 35
REMARK SMILES IDX 28 36 29 37 30 39 31 40 32 41 96 42 33 43 95 44 34 45 35 46
REMARK SMILES IDX 36 47 89 48 37 49 94 50 88 51 90 52 38 53 93 54 87 55 86 56
REMARK SMILES IDX 39 58 73 59 52 60 72 61 53 62 56 63 71 64 91 65 54 66 55 67
REMARK SMILES IDX 70 69 92 70 57 71 40 72 41 73 50 74 42 75 43 76 49 77 51 78
REMARK SMILES IDX 44 79 45 80 46 81 47 82 48 83 74 84 75 85 84 86 76 87 77 88
REMARK SMILES IDX 83 89 85 90 78 91 79 92 80 93 81 94 82 95 58 96 59 97 68 98
REMARK SMILES IDX 60 99 61 100 67 101 69 102 62 103 63 104 64 105 65 106
REMARK SMILES IDX 66 107
REMARK H PARENT 23 6 13 16 18 33 28 38 90 57 56 68
REMARK Flexibility Score: inf
ROOT
ATOM      1  C   UNL     1      -2.917 -10.054   2.999  1.00  0.00     0.023 C 
ENDROOT
BRANCH   1   2
ATOM      2  C   UNL     1      -1.799  -9.023   3.003  1.00  0.00     0.116 C 
BRANCH   2   3
ATOM      3  N   UNL     1      -1.906  -7.987   4.007  1.00  0.00    -0.352 N 
ATOM      4  C   UNL     1      -0.935  -7.181   4.554  1.00  0.00     0.253 C 
ATOM      5  O   UNL     1      -1.294  -6.343   5.386  1.00  0.00    -0.269 OA
ATOM      6  H   UNL     1      -2.815  -7.835   4.353  1.00  0.00     0.163 HD
BRANCH   4   7
ATOM      7  C   UNL     1       0.533  -7.317   4.266  1.00  0.00     0.067 A 
ATOM      8  C   UNL     1       1.156  -7.705   3.061  1.00  0.00     0.054 A 
ATOM      9  C   UNL     1       2.538  -7.979   3.057  1.00  0.00     0.031 A 
ATOM     10  C   UNL     1       3.334  -7.653   4.152  1.00  0.00     0.048 A 
ATOM     11  C   UNL     1       1.365  -6.958   5.352  1.00  0.00     0.062 A 
ATOM     12  C   UNL     1       2.748  -7.083   5.267  1.00  0.00     0.116 A 
BRANCH   8  13
ATOM     13  N   UNL     1       0.595  -7.706   1.766  1.00  0.00    -0.321 N 
ATOM     14  C   UNL     1      -0.312  -6.852   1.169  1.00  0.00     0.255 C 
ATOM     15  O   UNL     1      -0.766  -7.153   0.066  1.00  0.00    -0.269 OA
ATOM     16  H   UNL     1       0.902  -8.443   1.189  1.00  0.00     0.170 HD
BRANCH  14  17
ATOM     17  C   UNL     1      -0.716  -5.574   1.799  1.00  0.00     0.040 A 
ATOM     18  C   UNL     1      -1.486  -3.143   2.926  1.00  0.00    -0.024 A 
ATOM     19  C   UNL     1      -2.383  -3.845   2.114  1.00  0.00     0.009 A 
ATOM     20  C   UNL     1      -0.234  -3.686   3.220  1.00  0.00     0.009 A 
ATOM     21  C   UNL     1      -2.001  -5.071   1.561  1.00  0.00     0.014 A 
ATOM     22  C   UNL     1       0.180  -4.842   2.579  1.00  0.00     0.014 A 
BRANCH  18  23
ATOM     23  C   UNL     1      -1.739  -1.753   3.301  1.00  0.00     0.029 C 
ATOM     24  C   UNL     1       1.185   0.469   0.027  1.00  0.00     0.155 C 
ATOM     25  N   UNL     1       0.293   0.405   1.173  1.00  0.00    -0.296 N 
ATOM     26  C   UNL     1      -0.012  -0.845   1.666  1.00  0.00     0.265 C 
ATOM     27  C   UNL     1      -0.230   1.480   1.849  1.00  0.00     0.148 C 
ATOM     28  O   UNL     1       0.547  -1.865   1.296  1.00  0.00    -0.268 OA
ATOM     29  C   UNL     1      -1.059  -0.743   2.734  1.00  0.00     0.081 C 
ATOM     30  S   UNL     1      -1.317   0.917   3.118  1.00  0.00    -0.054 SA
ATOM     31  S   UNL     1       0.083   3.096   1.588  1.00  0.00    -0.052 S 
ENDBRANCH  18  23
ENDBRANCH  14  17
ENDBRANCH   8  13
BRANCH  12  32
ATOM     32  O   UNL     1       3.568  -6.638   6.259  1.00  0.00    -0.508 OA
ATOM     33  H   UNL     1       4.496  -6.733   6.178  1.00  0.00     0.293 HD
ENDBRANCH  12  32
ENDBRANCH   4   7
ENDBRANCH   2   3
ENDBRANCH   1   2
BRANCH   1  34
ATOM     34  C   UNL     1      -4.304  -9.545   2.600  1.00  0.00     0.023 C 
BRANCH  34  35
ATOM     35  C   UNL     1      -4.399  -8.675   1.346  1.00  0.00     0.116 C 
BRANCH  35  36
ATOM     36  N   UNL     1      -3.943  -9.324   0.124  1.00  0.00    -0.352 N 
ATOM     37  C   UNL     1      -4.645  -9.660  -1.014  1.00  0.00     0.251 C 
ATOM     38  H   UNL     1      -2.987  -9.559   0.108  1.00  0.00     0.163 HD
ATOM     39  O   UNL     1      -4.104 -10.302  -1.910  1.00  0.00    -0.269 OA
BRANCH  37  40
ATOM     40  C   UNL     1      -6.070  -9.281  -1.139  1.00  0.00     0.039 A 
ATOM     41  C   UNL     1      -7.006 -10.256  -1.492  1.00  0.00     0.014 A 
ATOM     42  C   UNL     1      -6.487  -7.976  -0.869  1.00  0.00     0.014 A 
ATOM     43  C   UNL     1      -8.370  -9.948  -1.462  1.00  0.00     0.010 A 
ATOM     44  C   UNL     1      -7.847  -7.696  -0.754  1.00  0.00     0.010 A 
ATOM     45  C   UNL     1      -8.805  -8.683  -1.033  1.00  0.00    -0.014 A 
BRANCH  45  46
ATOM     46  C   UNL     1     -10.251  -8.386  -0.837  1.00  0.00     0.031 A 
ATOM     47  C   UNL     1     -10.920  -7.294  -1.631  1.00  0.00     0.074 A 
ATOM     48  C   UNL     1     -10.946  -9.049   0.111  1.00  0.00     0.049 A 
ATOM     49  N   UNL     1     -12.148  -6.850  -1.551  1.00  0.00    -0.248 NA
ATOM     50  C   UNL     1     -10.093  -6.589  -2.623  1.00  0.00     0.031 C 
ATOM     51  C   UNL     1     -10.404 -10.092   0.987  1.00  0.00     0.029 A 
ATOM     52  N   UNL     1     -12.258  -8.942   0.506  1.00  0.00    -0.354 N 
ATOM     53  C   UNL     1     -12.236  -5.807  -2.466  1.00  0.00     0.074 A 
ATOM     54  C   UNL     1     -10.924  -5.650  -3.053  1.00  0.00     0.031 C 
ATOM     55  C   UNL     1     -11.379 -10.549   1.788  1.00  0.00     0.029 A 
ATOM     56  C   UNL     1     -12.606  -9.806   1.520  1.00  0.00     0.049 A 
ATOM     57  H   UNL     1     -12.891  -8.307   0.101  1.00  0.00     0.167 HD
ATOM     58  C   UNL     1     -13.316  -5.062  -2.801  1.00  0.00     0.037 A 
ATOM     59  C   UNL     1     -13.776  -9.976   2.167  1.00  0.00     0.037 A 
ATOM     60  C   UNL     1     -14.630  -5.245  -2.239  1.00  0.00     0.049 A 
ATOM     61  C   UNL     1     -14.960  -9.131   1.776  1.00  0.00     0.074 A 
ATOM     62  C   UNL     1     -15.804  -4.593  -2.572  1.00  0.00     0.029 A 
ATOM     63  N   UNL     1     -14.943  -6.138  -1.225  1.00  0.00    -0.354 N 
ATOM     64  N   UNL     1     -15.043  -8.206   0.850  1.00  0.00    -0.248 NA
ATOM     65  C   UNL     1     -16.212  -9.357   2.513  1.00  0.00     0.031 C 
ATOM     66  C   UNL     1     -16.816  -5.051  -1.722  1.00  0.00     0.029 A 
ATOM     67  C   UNL     1     -16.286  -6.032  -0.900  1.00  0.00     0.049 A 
ATOM     68  H   UNL     1     -14.306  -6.756  -0.799  1.00  0.00     0.167 HD
ATOM     69  C   UNL     1     -16.363  -7.765   0.871  1.00  0.00     0.074 A 
ATOM     70  C   UNL     1     -17.043  -8.532   1.892  1.00  0.00     0.031 C 
ATOM     71  C   UNL     1     -16.957  -6.812   0.110  1.00  0.00     0.037 A 
BRANCH  58  72
ATOM     72  C   UNL     1     -13.133  -3.977  -3.828  1.00  0.00     0.058 A 
ATOM     73  C   UNL     1     -12.901  -4.270  -5.181  1.00  0.00     0.135 A 
ATOM     74  C   UNL     1     -13.249  -2.625  -3.463  1.00  0.00     0.135 A 
ATOM     75  F   UNL     1     -12.767  -5.544  -5.585  1.00  0.00    -0.206 F 
ATOM     76  C   UNL     1     -12.769  -3.263  -6.132  1.00  0.00     0.059 A 
ATOM     77  C   UNL     1     -13.150  -1.603  -4.402  1.00  0.00     0.059 A 
ATOM     78  F   UNL     1     -13.470  -2.287  -2.183  1.00  0.00    -0.206 F 
ATOM     79  C   UNL     1     -12.899  -1.932  -5.733  1.00  0.00     0.060 A 
BRANCH  79  80
ATOM     80  S   UNL     1     -12.747  -0.639  -6.984  1.00  0.00     0.124 S 
ATOM     81  O   UNL     1     -11.317  -0.682  -7.274  1.00  0.00    -0.237 OA
ATOM     82  O   UNL     1     -13.623  -1.127  -8.043  1.00  0.00    -0.237 OA
ATOM     83  O   UNL     1     -13.210   0.560  -6.293  1.00  0.00    -0.744 OA
ENDBRANCH  79  80
ENDBRANCH  58  72
BRANCH  59  84
ATOM     84  C   UNL     1     -13.903 -11.004   3.238  1.00  0.00     0.058 A 
ATOM     85  C   UNL     1     -14.703 -12.142   3.053  1.00  0.00     0.135 A 
ATOM     86  C   UNL     1     -13.246 -10.864   4.471  1.00  0.00     0.135 A 
ATOM     87  F   UNL     1     -15.359 -12.319   1.896  1.00  0.00    -0.206 F 
ATOM     88  C   UNL     1     -14.871 -13.089   4.058  1.00  0.00     0.059 A 
ATOM     89  C   UNL     1     -13.374 -11.812   5.481  1.00  0.00     0.059 A 
ATOM     90  F   UNL     1     -12.456  -9.803   4.695  1.00  0.00    -0.206 F 
ATOM     91  C   UNL     1     -14.202 -12.915   5.270  1.00  0.00     0.060 A 
BRANCH  91  92
ATOM     92  S   UNL     1     -14.406 -14.163   6.559  1.00  0.00     0.124 S 
ATOM     93  O   UNL     1     -15.771 -13.906   7.004  1.00  0.00    -0.237 OA
ATOM     94  O   UNL     1     -14.198 -15.404   5.819  1.00  0.00    -0.237 OA
ATOM     95  O   UNL     1     -13.356 -13.831   7.518  1.00  0.00    -0.744 OA
ENDBRANCH  91  92
ENDBRANCH  59  84
BRANCH  71  96
ATOM     96  C   UNL     1     -18.428  -6.573   0.316  1.00  0.00     0.058 A 
ATOM     97  C   UNL     1     -18.923  -5.941   1.466  1.00  0.00     0.135 A 
ATOM     98  C   UNL     1     -19.350  -6.934  -0.681  1.00  0.00     0.135 A 
ATOM     99  F   UNL     1     -18.087  -5.581   2.453  1.00  0.00    -0.206 F 
ATOM    100  C   UNL     1     -20.283  -5.697   1.633  1.00  0.00     0.059 A 
ATOM    101  C   UNL     1     -20.710  -6.671  -0.550  1.00  0.00     0.059 A 
ATOM    102  F   UNL     1     -18.930  -7.532  -1.807  1.00  0.00    -0.206 F 
ATOM    103  C   UNL     1     -21.168  -6.063   0.617  1.00  0.00     0.060 A 
BRANCH 103 104
ATOM    104  S   UNL     1     -22.925  -5.707   0.831  1.00  0.00     0.124 S 
ATOM    105  O   UNL     1     -23.307  -6.699   1.830  1.00  0.00    -0.237 OA
ATOM    106  O   UNL     1     -22.909  -4.321   1.288  1.00  0.00    -0.237 OA
ATOM    107  O   UNL     1     -23.480  -5.914  -0.504  1.00  0.00    -0.744 OA
ENDBRANCH 103 104
ENDBRANCH  71  96
ENDBRANCH  45  46
ENDBRANCH  37  40
ENDBRANCH  35  36
ENDBRANCH  34  35
ENDBRANCH   1  34
TORSDOF 18
