REMARK SMILES CC[C@]1(C(=O)NCCCCNC(=O)c2ccc(-c3c4nc(c(-c5c(F)cc(S(=O)(=O)[O-])cc5F)c5ccc([nH]5)c(-c5c(F)cc(S(=O)(=O)[O-])cc5F)c5nc(c(-c6c(F)cc(S(=O)(=O)[O-])cc6F)c6ccc3[nH]6)C=C5)C=C4)cc2)CCC[N@@H+]([C@@H]2CCC[C@H](S(C)(=O)=O)C2)C1
REMARK SMILES IDX 9 1 8 2 7 3 6 4 4 5 5 6 3 8 80 9 94 10 81 11 83 12 82 13
REMARK SMILES IDX 2 15 1 16 84 17 85 18 93 19 86 20 88 21 87 22 89 23 90 24
REMARK SMILES IDX 91 25 92 26 10 27 11 28 12 29 13 31 14 32 15 33 79 34 16 35
REMARK SMILES IDX 78 36 17 37 18 38 19 39 72 40 20 41 77 42 71 43 73 44 21 45
REMARK SMILES IDX 76 46 70 47 69 48 22 50 56 51 35 52 55 53 36 54 39 55 54 56
REMARK SMILES IDX 74 57 37 58 38 59 53 61 75 62 40 63 23 64 24 65 33 66 25 67
REMARK SMILES IDX 26 68 32 69 34 70 27 71 28 72 29 73 30 74 31 75 57 76 58 77
REMARK SMILES IDX 67 78 59 79 60 80 66 81 68 82 61 83 62 84 63 85 64 86 65 87
REMARK SMILES IDX 41 88 42 89 51 90 43 91 44 92 50 93 52 94 45 95 46 96 47 97
REMARK SMILES IDX 48 98 49 99
REMARK H PARENT 6 7 83 14 11 30 73 49 39 60
REMARK Flexibility Score: inf
ROOT
ATOM      1  C   UNL     1       5.118  -4.874   2.423  1.00  0.00     0.023 C 
ENDROOT
BRANCH   1   2
ATOM      2  C   UNL     1       3.906  -5.127   1.528  1.00  0.00     0.023 C 
BRANCH   2   3
ATOM      3  C   UNL     1       2.674  -4.312   1.907  1.00  0.00     0.116 C 
BRANCH   3   4
ATOM      4  N   UNL     1       2.894  -2.888   1.703  1.00  0.00    -0.355 N 
ATOM      5  C   UNL     1       2.294  -1.969   0.890  1.00  0.00     0.231 C 
ATOM      6  O   UNL     1       2.823  -0.857   0.881  1.00  0.00    -0.274 OA
ATOM      7  H   UNL     1       3.615  -2.514   2.260  1.00  0.00     0.163 HD
BRANCH   5   8
ATOM      8  C   UNL     1       1.045  -2.318   0.039  1.00  0.00     0.098 C 
ATOM      9  C   UNL     1       1.480  -3.369  -1.015  1.00  0.00     0.028 C 
ATOM     10  C   UNL     1      -0.070  -2.841   1.009  1.00  0.00     0.279 C 
ATOM     11  C   UNL     1       0.296  -4.127  -1.581  1.00  0.00     0.063 C 
ATOM     12  N   UNL     1      -1.067  -3.795   0.470  1.00  0.00    -0.332 N 
ATOM     13  C   UNL     1      -0.501  -4.778  -0.461  1.00  0.00     0.262 C 
ATOM     14  H   UNL     1      -1.704  -3.244  -0.105  1.00  0.00     0.348 HD
BRANCH   8  15
ATOM     15  C   UNL     1       0.467  -1.105  -0.778  1.00  0.00     0.019 C 
ATOM     16  C   UNL     1       0.524   0.284  -0.153  1.00  0.00     0.005 C 
ENDBRANCH   8  15
BRANCH  12  17
ATOM     17  C   UNL     1      -1.900  -4.404   1.551  1.00  0.00     0.185 C 
ATOM     18  C   UNL     1      -1.143  -5.375   2.488  1.00  0.00     0.065 C 
ATOM     19  C   UNL     1      -3.155  -5.083   0.961  1.00  0.00     0.084 C 
ATOM     20  C   UNL     1      -2.058  -5.991   3.542  1.00  0.00     0.007 C 
ATOM     21  C   UNL     1      -4.042  -5.780   2.006  1.00  0.00     0.114 C 
ATOM     22  C   UNL     1      -3.228  -6.719   2.897  1.00  0.00     0.020 C 
BRANCH  21  23
ATOM     23  S   UNL     1      -5.363  -6.671   1.143  1.00  0.00     0.150 S 
ATOM     24  C   UNL     1      -6.306  -7.460   2.425  1.00  0.00     0.158 C 
ATOM     25  O   UNL     1      -6.235  -5.684   0.532  1.00  0.00    -0.229 OA
ATOM     26  O   UNL     1      -4.768  -7.722   0.342  1.00  0.00    -0.229 OA
ENDBRANCH  21  23
ENDBRANCH  12  17
ENDBRANCH   5   8
ENDBRANCH   3   4
ENDBRANCH   2   3
ENDBRANCH   1   2
BRANCH   1  27
ATOM     27  C   UNL     1       4.856  -5.050   3.913  1.00  0.00     0.116 C 
BRANCH  27  28
ATOM     28  N   UNL     1       4.375  -6.384   4.242  1.00  0.00    -0.352 N 
ATOM     29  C   UNL     1       4.828  -7.243   5.213  1.00  0.00     0.251 C 
ATOM     30  H   UNL     1       3.626  -6.715   3.695  1.00  0.00     0.163 HD
ATOM     31  O   UNL     1       4.423  -8.400   5.251  1.00  0.00    -0.269 OA
BRANCH  29  32
ATOM     32  C   UNL     1       5.824  -6.762   6.192  1.00  0.00     0.039 A 
ATOM     33  C   UNL     1       6.950  -7.543   6.456  1.00  0.00     0.014 A 
ATOM     34  C   UNL     1       5.659  -5.524   6.821  1.00  0.00     0.014 A 
ATOM     35  C   UNL     1       7.938  -7.057   7.313  1.00  0.00     0.010 A 
ATOM     36  C   UNL     1       6.684  -5.005   7.604  1.00  0.00     0.010 A 
ATOM     37  C   UNL     1       7.828  -5.771   7.870  1.00  0.00    -0.014 A 
BRANCH  37  38
ATOM     38  C   UNL     1       8.889  -5.221   8.752  1.00  0.00     0.031 A 
ATOM     39  C   UNL     1       8.574  -4.884  10.185  1.00  0.00     0.074 A 
ATOM     40  C   UNL     1      10.117  -4.978   8.252  1.00  0.00     0.049 A 
ATOM     41  N   UNL     1       9.346  -4.353  11.098  1.00  0.00    -0.248 NA
ATOM     42  C   UNL     1       7.201  -5.150  10.645  1.00  0.00     0.031 C 
ATOM     43  C   UNL     1      10.529  -5.212   6.866  1.00  0.00     0.029 A 
ATOM     44  N   UNL     1      11.244  -4.473   8.850  1.00  0.00    -0.354 N 
ATOM     45  C   UNL     1       8.552  -4.212  12.230  1.00  0.00     0.074 A 
ATOM     46  C   UNL     1       7.223  -4.652  11.872  1.00  0.00     0.031 C 
ATOM     47  C   UNL     1      11.822  -4.880   6.728  1.00  0.00     0.029 A 
ATOM     48  C   UNL     1      12.323  -4.372   8.002  1.00  0.00     0.049 A 
ATOM     49  H   UNL     1      11.278  -4.208   9.797  1.00  0.00     0.167 HD
ATOM     50  C   UNL     1       8.906  -3.784  13.466  1.00  0.00     0.037 A 
ATOM     51  C   UNL     1      13.571  -3.917   8.225  1.00  0.00     0.037 A 
ATOM     52  C   UNL     1      10.238  -3.370  13.820  1.00  0.00     0.049 A 
ATOM     53  C   UNL     1      13.941  -3.446   9.606  1.00  0.00     0.074 A 
ATOM     54  C   UNL     1      10.714  -2.970  15.057  1.00  0.00     0.029 A 
ATOM     55  N   UNL     1      11.308  -3.302  12.940  1.00  0.00    -0.354 N 
ATOM     56  N   UNL     1      13.195  -3.382  10.684  1.00  0.00    -0.248 NA
ATOM     57  C   UNL     1      15.325  -2.995   9.806  1.00  0.00     0.031 C 
ATOM     58  C   UNL     1      12.058  -2.611  14.912  1.00  0.00     0.029 A 
ATOM     59  C   UNL     1      12.437  -2.847  13.601  1.00  0.00     0.049 A 
ATOM     60  H   UNL     1      11.271  -3.542  11.986  1.00  0.00     0.167 HD
ATOM     61  C   UNL     1      14.027  -2.917  11.697  1.00  0.00     0.074 A 
ATOM     62  C   UNL     1      15.335  -2.727  11.104  1.00  0.00     0.031 C 
ATOM     63  C   UNL     1      13.736  -2.672  12.999  1.00  0.00     0.037 A 
BRANCH  50  64
ATOM     64  C   UNL     1       7.836  -3.745  14.524  1.00  0.00     0.058 A 
ATOM     65  C   UNL     1       7.270  -4.920  15.047  1.00  0.00     0.135 A 
ATOM     66  C   UNL     1       7.391  -2.519  15.046  1.00  0.00     0.135 A 
ATOM     67  F   UNL     1       7.644  -6.120  14.574  1.00  0.00    -0.206 F 
ATOM     68  C   UNL     1       6.281  -4.880  16.023  1.00  0.00     0.059 A 
ATOM     69  C   UNL     1       6.426  -2.457  16.047  1.00  0.00     0.059 A 
ATOM     70  F   UNL     1       7.895  -1.364  14.583  1.00  0.00    -0.206 F 
ATOM     71  C   UNL     1       5.865  -3.643  16.518  1.00  0.00     0.060 A 
BRANCH  71  72
ATOM     72  S   UNL     1       4.583  -3.611  17.788  1.00  0.00     0.124 S 
ATOM     73  O   UNL     1       3.402  -3.992  17.019  1.00  0.00    -0.237 OA
ATOM     74  O   UNL     1       5.065  -4.606  18.742  1.00  0.00    -0.237 OA
ATOM     75  O   UNL     1       4.606  -2.231  18.261  1.00  0.00    -0.744 OA
ENDBRANCH  71  72
ENDBRANCH  50  64
BRANCH  51  76
ATOM     76  C   UNL     1      14.571  -3.913   7.123  1.00  0.00     0.058 A 
ATOM     77  C   UNL     1      15.671  -4.785   7.140  1.00  0.00     0.135 A 
ATOM     78  C   UNL     1      14.445  -3.046   6.027  1.00  0.00     0.135 A 
ATOM     79  F   UNL     1      15.839  -5.631   8.168  1.00  0.00    -0.206 F 
ATOM     80  C   UNL     1      16.620  -4.783   6.123  1.00  0.00     0.059 A 
ATOM     81  C   UNL     1      15.366  -3.045   4.984  1.00  0.00     0.059 A 
ATOM     82  F   UNL     1      13.402  -2.204   5.952  1.00  0.00    -0.206 F 
ATOM     83  C   UNL     1      16.457  -3.910   5.047  1.00  0.00     0.060 A 
BRANCH  83  84
ATOM     84  S   UNL     1      17.672  -3.947   3.711  1.00  0.00     0.124 S 
ATOM     85  O   UNL     1      18.830  -3.335   4.350  1.00  0.00    -0.237 OA
ATOM     86  O   UNL     1      17.776  -5.377   3.433  1.00  0.00    -0.237 OA
ATOM     87  O   UNL     1      17.038  -3.157   2.659  1.00  0.00    -0.744 OA
ENDBRANCH  83  84
ENDBRANCH  51  76
BRANCH  63  88
ATOM     88  C   UNL     1      14.863  -2.219  13.888  1.00  0.00     0.058 A 
ATOM     89  C   UNL     1      15.428  -0.939  13.779  1.00  0.00     0.135 A 
ATOM     90  C   UNL     1      15.352  -3.067  14.896  1.00  0.00     0.135 A 
ATOM     91  F   UNL     1      15.001  -0.090  12.830  1.00  0.00    -0.206 F 
ATOM     92  C   UNL     1      16.460  -0.527  14.616  1.00  0.00     0.059 A 
ATOM     93  C   UNL     1      16.360  -2.664  15.765  1.00  0.00     0.059 A 
ATOM     94  F   UNL     1      14.838  -4.297  15.054  1.00  0.00    -0.206 F 
ATOM     95  C   UNL     1      16.918  -1.397  15.607  1.00  0.00     0.060 A 
BRANCH  95  96
ATOM     96  S   UNL     1      18.241  -0.841  16.702  1.00  0.00     0.124 S 
ATOM     97  O   UNL     1      19.397  -0.885  15.812  1.00  0.00    -0.237 OA
ATOM     98  O   UNL     1      17.788   0.492  17.087  1.00  0.00    -0.237 OA
ATOM     99  O   UNL     1      18.236  -1.832  17.774  1.00  0.00    -0.744 OA
ENDBRANCH  95  96
ENDBRANCH  63  88
ENDBRANCH  37  38
ENDBRANCH  29  32
ENDBRANCH  27  28
ENDBRANCH   1  27
TORSDOF 17
