REMARK SMILES O=C(Cc1csc(N2C(=O)C[C@H](Nc3cccc(F)c3)C2=O)n1)NCCCCNC(=O)c1ccc(-c2c3nc(c(-c4c(F)cc(S(=O)(=O)[O-])cc4F)c4ccc([nH]4)c(-c4c(F)cc(S(=O)(=O)[O-])cc4F)c4nc(c(-c5c(F)cc(S(=O)(=O)[O-])cc5F)c5ccc2[nH]5)C=C4)C=C3)cc1
REMARK SMILES IDX 26 1 25 2 24 3 1 4 2 5 3 7 4 8 5 9 23 10 6 11 7 12 8 13 9 14
REMARK SMILES IDX 21 15 10 16 11 17 12 18 22 19 13 20 14 22 15 23 20 24 16 25
REMARK SMILES IDX 18 26 17 27 19 28 27 29 28 30 29 31 30 32 31 34 32 35 33 36
REMARK SMILES IDX 97 37 34 38 96 39 35 40 36 41 37 42 90 43 38 44 95 45 89 46
REMARK SMILES IDX 91 47 39 48 94 49 88 50 87 51 40 53 74 54 53 55 73 56 54 57
REMARK SMILES IDX 57 58 72 59 92 60 55 61 56 62 71 64 93 65 58 66 41 67 42 68
REMARK SMILES IDX 51 69 43 70 44 71 50 72 52 73 45 74 46 75 47 76 48 77 49 78
REMARK SMILES IDX 75 79 76 80 85 81 77 82 78 83 84 84 86 85 79 86 80 87 81 88
REMARK SMILES IDX 82 89 83 90 59 91 60 92 69 93 61 94 62 95 68 96 70 97 63 98
REMARK SMILES IDX 64 99 65 100 66 101 67 102
REMARK H PARENT 24 6 13 21 29 33 91 52 57 63
REMARK Flexibility Score: inf
ROOT
ATOM      1  C   UNL     1       2.463  -3.406   0.675  1.00  0.00     0.023 C 
ENDROOT
BRANCH   1   2
ATOM      2  C   UNL     1       2.112  -2.040   1.262  1.00  0.00     0.116 C 
BRANCH   2   3
ATOM      3  N   UNL     1       2.798  -0.956   0.585  1.00  0.00    -0.356 N 
ATOM      4  O   UNL     1       0.964   0.417   0.444  1.00  0.00    -0.275 OA
ATOM      5  C   UNL     1       2.159   0.221   0.241  1.00  0.00     0.226 C 
ATOM      6  H   UNL     1       3.751  -1.063   0.362  1.00  0.00     0.163 HD
BRANCH   5   7
ATOM      7  C   UNL     1       3.037   1.224  -0.481  1.00  0.00     0.157 C 
BRANCH   7   8
ATOM      8  C   UNL     1       3.970   1.961   0.426  1.00  0.00     0.063 A 
ATOM      9  C   UNL     1       5.162   1.495   0.948  1.00  0.00     0.093 A 
ATOM     10  N   UNL     1       3.702   3.290   0.731  1.00  0.00    -0.224 NA
ATOM     11  S   UNL     1       5.985   2.756   1.756  1.00  0.00    -0.104 S 
ATOM     12  C   UNL     1       4.711   3.841   1.371  1.00  0.00     0.199 A 
BRANCH  12  13
ATOM     13  N   UNL     1       4.789   5.151   1.791  1.00  0.00    -0.223 N 
ATOM     14  C   UNL     1       3.665   5.886   2.048  1.00  0.00     0.238 C 
ATOM     15  C   UNL     1       5.952   5.869   1.899  1.00  0.00     0.258 C 
ATOM     16  O   UNL     1       2.489   5.561   2.009  1.00  0.00    -0.274 OA
ATOM     17  C   UNL     1       4.080   7.251   2.508  1.00  0.00     0.136 C 
ATOM     18  C   UNL     1       5.591   7.274   2.354  1.00  0.00     0.179 C 
ATOM     19  O   UNL     1       7.095   5.521   1.629  1.00  0.00    -0.272 OA
BRANCH  18  20
ATOM     20  N   UNL     1       5.973   8.305   1.384  1.00  0.00    -0.373 N 
ATOM     21  H   UNL     1       5.484   8.373   0.532  1.00  0.00     0.161 HD
BRANCH  20  22
ATOM     22  C   UNL     1       7.010   9.185   1.647  1.00  0.00     0.038 A 
ATOM     23  C   UNL     1       8.243   8.762   2.158  1.00  0.00     0.026 A 
ATOM     24  C   UNL     1       6.800  10.558   1.483  1.00  0.00     0.065 A 
ATOM     25  C   UNL     1       9.251   9.681   2.473  1.00  0.00     0.005 A 
ATOM     26  C   UNL     1       7.797  11.470   1.819  1.00  0.00     0.125 A 
ATOM     27  C   UNL     1       9.024  11.044   2.309  1.00  0.00     0.039 A 
ATOM     28  F   UNL     1       7.562  12.782   1.679  1.00  0.00    -0.207 F 
ENDBRANCH  20  22
ENDBRANCH  18  20
ENDBRANCH  12  13
ENDBRANCH   7   8
ENDBRANCH   5   7
ENDBRANCH   2   3
ENDBRANCH   1   2
BRANCH   1  29
ATOM     29  C   UNL     1       3.945  -3.791   0.737  1.00  0.00     0.023 C 
BRANCH  29  30
ATOM     30  C   UNL     1       4.576  -3.778   2.127  1.00  0.00     0.116 C 
BRANCH  30  31
ATOM     31  N   UNL     1       3.983  -4.754   3.026  1.00  0.00    -0.352 N 
ATOM     32  C   UNL     1       4.592  -5.697   3.820  1.00  0.00     0.251 C 
ATOM     33  H   UNL     1       3.000  -4.738   3.073  1.00  0.00     0.163 HD
ATOM     34  O   UNL     1       3.904  -6.529   4.406  1.00  0.00    -0.269 OA
BRANCH  32  35
ATOM     35  C   UNL     1       6.068  -5.737   3.950  1.00  0.00     0.039 A 
ATOM     36  C   UNL     1       6.714  -6.975   3.887  1.00  0.00     0.014 A 
ATOM     37  C   UNL     1       6.816  -4.572   4.148  1.00  0.00     0.014 A 
ATOM     38  C   UNL     1       8.110  -7.039   3.949  1.00  0.00     0.010 A 
ATOM     39  C   UNL     1       8.210  -4.631   4.148  1.00  0.00     0.010 A 
ATOM     40  C   UNL     1       8.872  -5.863   4.042  1.00  0.00    -0.014 A 
BRANCH  40  41
ATOM     41  C   UNL     1      10.359  -5.904   4.007  1.00  0.00     0.031 A 
ATOM     42  C   UNL     1      11.163  -5.467   5.201  1.00  0.00     0.074 A 
ATOM     43  C   UNL     1      10.989  -6.278   2.875  1.00  0.00     0.049 A 
ATOM     44  N   UNL     1      12.461  -5.357   5.326  1.00  0.00    -0.248 NA
ATOM     45  C   UNL     1      10.410  -5.085   6.406  1.00  0.00     0.031 C 
ATOM     46  C   UNL     1      10.326  -6.695   1.638  1.00  0.00     0.029 A 
ATOM     47  N   UNL     1      12.327  -6.364   2.579  1.00  0.00    -0.354 N 
ATOM     48  C   UNL     1      12.681  -4.884   6.613  1.00  0.00     0.074 A 
ATOM     49  C   UNL     1      11.380  -4.685   7.216  1.00  0.00     0.031 C 
ATOM     50  C   UNL     1      11.258  -7.017   0.726  1.00  0.00     0.029 A 
ATOM     51  C   UNL     1      12.583  -6.793   1.297  1.00  0.00     0.049 A 
ATOM     52  H   UNL     1      13.037  -6.141   3.224  1.00  0.00     0.167 HD
ATOM     53  C   UNL     1      13.858  -4.655   7.243  1.00  0.00     0.037 A 
ATOM     54  C   UNL     1      13.751  -6.980   0.650  1.00  0.00     0.037 A 
ATOM     55  C   UNL     1      15.152  -4.881   6.652  1.00  0.00     0.049 A 
ATOM     56  C   UNL     1      15.045  -6.709   1.365  1.00  0.00     0.074 A 
ATOM     57  C   UNL     1      16.399  -4.724   7.231  1.00  0.00     0.029 A 
ATOM     58  N   UNL     1      15.367  -5.314   5.352  1.00  0.00    -0.354 N 
ATOM     59  N   UNL     1      15.232  -6.293   2.594  1.00  0.00    -0.248 NA
ATOM     60  C   UNL     1      16.285  -6.931   0.608  1.00  0.00     0.031 C 
ATOM     61  C   UNL     1      17.369  -5.028   6.271  1.00  0.00     0.029 A 
ATOM     62  C   UNL     1      16.727  -5.413   5.106  1.00  0.00     0.049 A 
ATOM     63  H   UNL     1      14.658  -5.520   4.701  1.00  0.00     0.167 HD
ATOM     64  C   UNL     1      16.610  -6.221   2.764  1.00  0.00     0.074 A 
ATOM     65  C   UNL     1      17.209  -6.645   1.516  1.00  0.00     0.031 C 
ATOM     66  C   UNL     1      17.313  -5.838   3.858  1.00  0.00     0.037 A 
BRANCH  53  67
ATOM     67  C   UNL     1      13.807  -4.143   8.656  1.00  0.00     0.058 A 
ATOM     68  C   UNL     1      14.194  -2.828   8.955  1.00  0.00     0.135 A 
ATOM     69  C   UNL     1      13.423  -4.972   9.722  1.00  0.00     0.135 A 
ATOM     70  F   UNL     1      14.566  -1.992   7.973  1.00  0.00    -0.206 F 
ATOM     71  C   UNL     1      14.210  -2.353  10.262  1.00  0.00     0.059 A 
ATOM     72  C   UNL     1      13.408  -4.511  11.035  1.00  0.00     0.059 A 
ATOM     73  F   UNL     1      13.024  -6.232   9.488  1.00  0.00    -0.206 F 
ATOM     74  C   UNL     1      13.815  -3.204  11.297  1.00  0.00     0.060 A 
BRANCH  74  75
ATOM     75  S   UNL     1      13.793  -2.560  12.984  1.00  0.00     0.124 S 
ATOM     76  O   UNL     1      15.215  -2.490  13.297  1.00  0.00    -0.237 OA
ATOM     77  O   UNL     1      13.113  -1.279  12.815  1.00  0.00    -0.237 OA
ATOM     78  O   UNL     1      13.033  -3.568  13.718  1.00  0.00    -0.744 OA
ENDBRANCH  74  75
ENDBRANCH  53  67
BRANCH  54  79
ATOM     79  C   UNL     1      13.739  -7.481  -0.749  1.00  0.00     0.058 A 
ATOM     80  C   UNL     1      13.313  -6.671  -1.812  1.00  0.00     0.135 A 
ATOM     81  C   UNL     1      14.109  -8.803  -1.038  1.00  0.00     0.135 A 
ATOM     82  F   UNL     1      12.941  -5.402  -1.585  1.00  0.00    -0.206 F 
ATOM     83  C   UNL     1      13.224  -7.163  -3.110  1.00  0.00     0.059 A 
ATOM     84  C   UNL     1      14.049  -9.312  -2.332  1.00  0.00     0.059 A 
ATOM     85  F   UNL     1      14.536  -9.609  -0.054  1.00  0.00    -0.206 F 
ATOM     86  C   UNL     1      13.585  -8.489  -3.358  1.00  0.00     0.060 A 
BRANCH  86  87
ATOM     87  S   UNL     1      13.428  -9.120  -5.042  1.00  0.00     0.124 S 
ATOM     88  O   UNL     1      11.977  -9.187  -5.192  1.00  0.00    -0.237 OA
ATOM     89  O   UNL     1      14.100  -8.085  -5.821  1.00  0.00    -0.237 OA
ATOM     90  O   UNL     1      14.115 -10.406  -4.987  1.00  0.00    -0.744 OA
ENDBRANCH  86  87
ENDBRANCH  54  79
BRANCH  66  91
ATOM     91  C   UNL     1      18.813  -5.869   3.773  1.00  0.00     0.058 A 
ATOM     92  C   UNL     1      19.546  -6.843   4.468  1.00  0.00     0.135 A 
ATOM     93  C   UNL     1      19.527  -4.886   3.071  1.00  0.00     0.135 A 
ATOM     94  F   UNL     1      18.910  -7.805   5.157  1.00  0.00    -0.206 F 
ATOM     95  C   UNL     1      20.936  -6.829   4.490  1.00  0.00     0.059 A 
ATOM     96  C   UNL     1      20.919  -4.865   3.061  1.00  0.00     0.059 A 
ATOM     97  F   UNL     1      18.871  -3.940   2.380  1.00  0.00    -0.206 F 
ATOM     98  C   UNL     1      21.614  -5.831   3.789  1.00  0.00     0.060 A 
BRANCH  98  99
ATOM     99  S   UNL     1      23.419  -5.825   3.827  1.00  0.00     0.124 S 
ATOM    100  O   UNL     1      23.687  -5.374   5.188  1.00  0.00    -0.237 OA
ATOM    101  O   UNL     1      23.740  -7.221   3.546  1.00  0.00    -0.237 OA
ATOM    102  O   UNL     1      23.777  -4.883   2.770  1.00  0.00    -0.744 OA
ENDBRANCH  98  99
ENDBRANCH  66  91
ENDBRANCH  40  41
ENDBRANCH  32  35
ENDBRANCH  30  31
ENDBRANCH  29  30
ENDBRANCH   1  29
TORSDOF 18
