REMARK SMILES COc1cc(C(=O)NCCCCNC(=O)c2ccc(-c3c4nc(c(-c5c(F)cc(S(=O)(=O)[O-])cc5F)c5ccc([nH]5)c(-c5c(F)cc(S(=O)(=O)[O-])cc5F)c5nc(c(-c6c(F)cc(S(=O)(=O)[O-])cc6F)c6ccc3[nH]6)C=C5)C=C4)cc2)c([N+](=O)[O-])cc1O[C@H](C)[C@@H](C)O
REMARK SMILES IDX 10 1 9 2 8 3 6 4 7 5 5 7 3 8 4 9 87 10 86 11 82 12 2 13 1 14
REMARK SMILES IDX 88 15 89 16 90 17 91 18 92 19 93 20 83 22 84 23 85 24 11 25
REMARK SMILES IDX 12 26 13 27 14 28 15 30 16 31 17 32 81 33 18 34 80 35 19 36
REMARK SMILES IDX 20 37 21 38 74 39 22 40 79 41 73 42 75 43 23 44 78 45 72 46
REMARK SMILES IDX 71 47 24 49 58 50 37 51 57 52 38 53 41 54 56 55 76 56 39 57
REMARK SMILES IDX 40 58 55 60 77 61 42 62 25 63 26 64 35 65 27 66 28 67 34 68
REMARK SMILES IDX 36 69 29 70 30 71 31 72 32 73 33 74 59 75 60 76 69 77 61 78
REMARK SMILES IDX 62 79 68 80 70 81 63 82 64 83 65 84 66 85 67 86 43 87 44 88
REMARK SMILES IDX 53 89 45 90 46 91 52 92 54 93 47 94 48 95 49 96 50 97 51 98
REMARK H PARENT 8 6 93 21 13 29 75 48 41 59
REMARK Flexibility Score: inf
ROOT
ATOM      1  C   UNL     1      -1.813   4.583  -4.419  1.00  0.00     0.023 C 
ENDROOT
BRANCH   1   2
ATOM      2  C   UNL     1      -0.952   4.496  -3.167  1.00  0.00     0.116 C 
BRANCH   2   3
ATOM      3  N   UNL     1      -1.550   5.030  -1.955  1.00  0.00    -0.352 N 
ATOM      4  C   UNL     1      -1.308   4.711  -0.637  1.00  0.00     0.258 C 
ATOM      5  O   UNL     1      -1.925   5.279   0.260  1.00  0.00    -0.269 OA
ATOM      6  H   UNL     1      -2.233   5.726  -2.097  1.00  0.00     0.163 HD
BRANCH   4   7
ATOM      7  C   UNL     1      -0.373   3.620  -0.279  1.00  0.00     0.121 A 
ATOM      8  C   UNL     1      -0.007   1.548   0.954  1.00  0.00     0.162 A 
ATOM      9  C   UNL     1      -0.815   2.654   0.633  1.00  0.00     0.071 A 
ATOM     10  C   UNL     1       1.208   1.324   0.276  1.00  0.00     0.168 A 
ATOM     11  C   UNL     1       1.667   2.318  -0.580  1.00  0.00     0.136 A 
ATOM     12  C   UNL     1       0.914   3.485  -0.784  1.00  0.00     0.286 A 
BRANCH   8  13
ATOM     13  O   UNL     1      -0.532   0.728   1.922  1.00  0.00    -0.493 OA
ATOM     14  C   UNL     1       0.410   0.296   2.904  1.00  0.00     0.278 C 
ENDBRANCH   8  13
BRANCH  10  15
ATOM     15  O   UNL     1       1.907   0.194   0.582  1.00  0.00    -0.484 OA
BRANCH  15  16
ATOM     16  C   UNL     1       2.849  -0.446  -0.301  1.00  0.00     0.198 C 
ATOM     17  C   UNL     1       4.107   0.376  -0.581  1.00  0.00     0.056 C 
BRANCH  16  18
ATOM     18  C   UNL     1       2.176  -1.093  -1.538  1.00  0.00     0.151 C 
ATOM     19  C   UNL     1       3.169  -1.692  -2.531  1.00  0.00     0.042 C 
BRANCH  18  20
ATOM     20  O   UNL     1       1.301  -2.151  -1.120  1.00  0.00    -0.390 OA
ATOM     21  H   UNL     1       1.819  -2.846  -0.683  1.00  0.00     0.211 HD
ENDBRANCH  18  20
ENDBRANCH  16  18
ENDBRANCH  15  16
ENDBRANCH  10  15
BRANCH  12  22
ATOM     22  N   UNL     1       1.589   4.595  -1.431  1.00  0.00     0.063 N 
ATOM     23  O   UNL     1       1.492   5.710  -0.909  1.00  0.00    -0.258 OA
ATOM     24  O   UNL     1       2.255   4.330  -2.443  1.00  0.00    -0.258 OA
ENDBRANCH  12  22
ENDBRANCH   4   7
ENDBRANCH   2   3
ENDBRANCH   1   2
BRANCH   1  25
ATOM     25  C   UNL     1      -2.235   5.987  -4.850  1.00  0.00     0.023 C 
BRANCH  25  26
ATOM     26  C   UNL     1      -1.159   7.071  -4.806  1.00  0.00     0.116 C 
BRANCH  26  27
ATOM     27  N   UNL     1      -0.033   6.831  -5.701  1.00  0.00    -0.352 N 
ATOM     28  C   UNL     1       0.349   7.482  -6.852  1.00  0.00     0.251 C 
ATOM     29  H   UNL     1       0.548   6.081  -5.439  1.00  0.00     0.163 HD
ATOM     30  O   UNL     1       1.299   7.057  -7.506  1.00  0.00    -0.269 OA
BRANCH  28  31
ATOM     31  C   UNL     1      -0.409   8.657  -7.336  1.00  0.00     0.039 A 
ATOM     32  C   UNL     1      -0.810   8.695  -8.674  1.00  0.00     0.014 A 
ATOM     33  C   UNL     1      -0.758   9.698  -6.474  1.00  0.00     0.014 A 
ATOM     34  C   UNL     1      -1.669   9.707  -9.112  1.00  0.00     0.010 A 
ATOM     35  C   UNL     1      -1.682  10.654  -6.887  1.00  0.00     0.010 A 
ATOM     36  C   UNL     1      -2.169  10.653  -8.203  1.00  0.00    -0.014 A 
BRANCH  36  37
ATOM     37  C   UNL     1      -3.248  11.604  -8.582  1.00  0.00     0.031 A 
ATOM     38  C   UNL     1      -3.018  13.088  -8.516  1.00  0.00     0.074 A 
ATOM     39  C   UNL     1      -4.473  11.127  -8.885  1.00  0.00     0.049 A 
ATOM     40  N   UNL     1      -3.870  14.065  -8.697  1.00  0.00    -0.248 NA
ATOM     41  C   UNL     1      -1.659  13.533  -8.171  1.00  0.00     0.031 C 
ATOM     42  C   UNL     1      -4.843   9.710  -8.935  1.00  0.00     0.029 A 
ATOM     43  N   UNL     1      -5.640  11.782  -9.194  1.00  0.00    -0.354 N 
ATOM     44  C   UNL     1      -3.161  15.236  -8.458  1.00  0.00     0.074 A 
ATOM     45  C   UNL     1      -1.818  14.846  -8.084  1.00  0.00     0.031 C 
ATOM     46  C   UNL     1      -6.135   9.602  -9.286  1.00  0.00     0.029 A 
ATOM     47  C   UNL     1      -6.699  10.939  -9.439  1.00  0.00     0.049 A 
ATOM     48  H   UNL     1      -5.712  12.762  -9.237  1.00  0.00     0.167 HD
ATOM     49  C   UNL     1      -3.586  16.519  -8.557  1.00  0.00     0.037 A 
ATOM     50  C   UNL     1      -7.984  11.208  -9.742  1.00  0.00     0.037 A 
ATOM     51  C   UNL     1      -4.911  16.903  -8.968  1.00  0.00     0.049 A 
ATOM     52  C   UNL     1      -8.432  12.639  -9.844  1.00  0.00     0.074 A 
ATOM     53  C   UNL     1      -5.407  18.175  -9.193  1.00  0.00     0.029 A 
ATOM     54  N   UNL     1      -5.953  16.020  -9.210  1.00  0.00    -0.354 N 
ATOM     55  N   UNL     1      -7.729  13.735  -9.686  1.00  0.00    -0.248 NA
ATOM     56  C   UNL     1      -9.849  12.871 -10.157  1.00  0.00     0.031 C 
ATOM     57  C   UNL     1      -6.760  18.064  -9.532  1.00  0.00     0.029 A 
ATOM     58  C   UNL     1      -7.098  16.720  -9.554  1.00  0.00     0.049 A 
ATOM     59  H   UNL     1      -5.889  15.040  -9.146  1.00  0.00     0.167 HD
ATOM     60  C   UNL     1      -8.611  14.786  -9.903  1.00  0.00     0.074 A 
ATOM     61  C   UNL     1      -9.899  14.196 -10.208  1.00  0.00     0.031 C 
ATOM     62  C   UNL     1      -8.374  16.120  -9.855  1.00  0.00     0.037 A 
BRANCH  49  63
ATOM     63  C   UNL     1      -2.602  17.600  -8.209  1.00  0.00     0.058 A 
ATOM     64  C   UNL     1      -1.508  17.898  -9.037  1.00  0.00     0.135 A 
ATOM     65  C   UNL     1      -2.758  18.354  -7.035  1.00  0.00     0.135 A 
ATOM     66  F   UNL     1      -1.305  17.199 -10.166  1.00  0.00    -0.206 F 
ATOM     67  C   UNL     1      -0.580  18.875  -8.693  1.00  0.00     0.059 A 
ATOM     68  C   UNL     1      -1.856  19.354  -6.684  1.00  0.00     0.059 A 
ATOM     69  F   UNL     1      -3.789  18.114  -6.209  1.00  0.00    -0.206 F 
ATOM     70  C   UNL     1      -0.758  19.592  -7.509  1.00  0.00     0.060 A 
BRANCH  70  71
ATOM     71  S   UNL     1       0.468  20.840  -7.060  1.00  0.00     0.124 S 
ATOM     72  O   UNL     1       1.562  20.007  -6.572  1.00  0.00    -0.237 OA
ATOM     73  O   UNL     1       0.707  21.518  -8.330  1.00  0.00    -0.237 OA
ATOM     74  O   UNL     1      -0.216  21.637  -6.047  1.00  0.00    -0.744 OA
ENDBRANCH  70  71
ENDBRANCH  49  63
BRANCH  50  75
ATOM     75  C   UNL     1      -8.931  10.094 -10.005  1.00  0.00     0.058 A 
ATOM     76  C   UNL     1      -9.357   9.816 -11.313  1.00  0.00     0.135 A 
ATOM     77  C   UNL     1      -9.402   9.268  -8.973  1.00  0.00     0.135 A 
ATOM     78  F   UNL     1      -8.938  10.584 -12.330  1.00  0.00    -0.206 F 
ATOM     79  C   UNL     1     -10.219   8.761 -11.590  1.00  0.00     0.059 A 
ATOM     80  C   UNL     1     -10.250   8.194  -9.228  1.00  0.00     0.059 A 
ATOM     81  F   UNL     1      -9.012   9.484  -7.708  1.00  0.00    -0.206 F 
ATOM     82  C   UNL     1     -10.657   7.952 -10.540  1.00  0.00     0.060 A 
BRANCH  82  83
ATOM     83  S   UNL     1     -11.720   6.543 -10.920  1.00  0.00     0.124 S 
ATOM     84  O   UNL     1     -12.995   7.199 -11.185  1.00  0.00    -0.237 OA
ATOM     85  O   UNL     1     -11.052   5.956 -12.078  1.00  0.00    -0.237 OA
ATOM     86  O   UNL     1     -11.662   5.741  -9.701  1.00  0.00    -0.744 OA
ENDBRANCH  82  83
ENDBRANCH  50  75
BRANCH  62  87
ATOM     87  C   UNL     1      -9.523  17.037 -10.161  1.00  0.00     0.058 A 
ATOM     88  C   UNL     1     -10.548  17.265  -9.230  1.00  0.00     0.135 A 
ATOM     89  C   UNL     1      -9.570  17.740 -11.376  1.00  0.00     0.135 A 
ATOM     90  F   UNL     1     -10.555  16.609  -8.059  1.00  0.00    -0.206 F 
ATOM     91  C   UNL     1     -11.586  18.151  -9.497  1.00  0.00     0.059 A 
ATOM     92  C   UNL     1     -10.587  18.647 -11.655  1.00  0.00     0.059 A 
ATOM     93  F   UNL     1      -8.610  17.562 -12.297  1.00  0.00    -0.206 F 
ATOM     94  C   UNL     1     -11.595  18.841 -10.711  1.00  0.00     0.060 A 
BRANCH  94  95
ATOM     95  S   UNL     1     -12.921  20.025 -11.027  1.00  0.00     0.124 S 
ATOM     96  O   UNL     1     -14.036  19.140 -11.348  1.00  0.00    -0.237 OA
ATOM     97  O   UNL     1     -13.020  20.734  -9.755  1.00  0.00    -0.237 OA
ATOM     98  O   UNL     1     -12.408  20.819 -12.140  1.00  0.00    -0.744 OA
ENDBRANCH  94  95
ENDBRANCH  62  87
ENDBRANCH  36  37
ENDBRANCH  28  31
ENDBRANCH  26  27
ENDBRANCH  25  26
ENDBRANCH   1  25
TORSDOF 20
