REMARK SMILES CC(C)(C)c1nnsc1C(=O)N[C@](C)(C(=O)NCCCCNC(=O)c1ccc(-c2c3nc(c(-c4c(F)cc(S(=O)(=O)[O-])cc4F)c4ccc([nH]4)c(-c4c(F)cc(S(=O)(=O)[O-])cc4F)c4nc(c(-c5c(F)cc(S(=O)(=O)[O-])cc5F)c5ccc2[nH]5)C=C4)C=C3)cc1)C(F)(F)F
REMARK SMILES IDX 19 1 18 2 17 3 15 4 16 5 13 7 14 8 12 9 10 10 11 11 9 13
REMARK SMILES IDX 5 14 6 15 7 16 8 17 2 18 1 19 3 20 4 21 91 22 92 23 93 24
REMARK SMILES IDX 94 25 20 26 21 27 22 28 23 29 24 31 25 32 26 33 90 34 27 35
REMARK SMILES IDX 89 36 28 37 29 38 30 39 83 40 31 41 88 42 82 43 84 44 32 45
REMARK SMILES IDX 87 46 81 47 80 48 33 50 67 51 46 52 66 53 47 54 50 55 65 56
REMARK SMILES IDX 85 57 48 58 49 59 64 61 86 62 51 63 34 64 35 65 44 66 36 67
REMARK SMILES IDX 37 68 43 69 45 70 38 71 39 72 40 73 41 74 42 75 68 76 69 77
REMARK SMILES IDX 78 78 70 79 71 80 77 81 79 82 72 83 73 84 74 85 75 86 76 87
REMARK SMILES IDX 52 88 53 89 62 90 54 91 55 92 61 93 63 94 56 95 57 96 58 97
REMARK SMILES IDX 59 98 60 99
REMARK H PARENT 17 6 12 12 22 30 84 49 50 60
REMARK Flexibility Score: inf
ROOT
ATOM      1  C   UNL     1       4.437   3.360   4.363  1.00  0.00     0.023 C 
ENDROOT
BRANCH   1   2
ATOM      2  C   UNL     1       3.021   2.781   4.128  1.00  0.00     0.116 C 
BRANCH   2   3
ATOM      3  N   UNL     1       3.030   1.725   3.102  1.00  0.00    -0.354 N 
ATOM      4  C   UNL     1       2.067   0.932   2.501  1.00  0.00     0.254 C 
ATOM      5  O   UNL     1       2.203   0.486   1.364  1.00  0.00    -0.272 OA
ATOM      6  H   UNL     1       3.936   1.538   2.763  1.00  0.00     0.163 HD
BRANCH   4   7
ATOM      7  C   UNL     1       0.707   0.807   3.040  1.00  0.00     0.212 C 
ATOM      8  C   UNL     1       0.836   0.224   4.448  1.00  0.00     0.056 C 
BRANCH   7   9
ATOM      9  N   UNL     1       0.324   2.218   2.884  1.00  0.00    -0.330 N 
ATOM     10  C   UNL     1       0.545   3.070   1.782  1.00  0.00     0.266 C 
ATOM     11  O   UNL     1      -0.472   3.783   1.680  1.00  0.00    -0.268 OA
ATOM     12  H   UNL     1      -0.148   2.620   3.648  1.00  0.00     0.165 HD
BRANCH  10  13
ATOM     13  C   UNL     1       1.821   3.392   0.985  1.00  0.00     0.137 A 
ATOM     14  C   UNL     1       3.133   3.043   0.428  1.00  0.00     0.094 A 
ATOM     15  N   UNL     1       3.744   4.179  -0.185  1.00  0.00    -0.142 NA
ATOM     16  N   UNL     1       3.063   5.285  -0.182  1.00  0.00    -0.090 NA
ATOM     17  S   UNL     1       1.586   5.114   0.471  1.00  0.00    -0.006 S 
BRANCH  14  18
ATOM     18  C   UNL     1       4.217   1.794   0.068  1.00  0.00     0.008 C 
ATOM     19  C   UNL     1       3.834   1.321  -1.355  1.00  0.00     0.018 C 
ATOM     20  C   UNL     1       4.608   0.494   0.868  1.00  0.00     0.018 C 
ATOM     21  C   UNL     1       5.682   2.411  -0.008  1.00  0.00     0.018 C 
ENDBRANCH  14  18
ENDBRANCH  10  13
ENDBRANCH   7   9
BRANCH   7  22
ATOM     22  C   UNL     1      -0.138  -0.179   2.175  1.00  0.00     0.420 C 
ATOM     23  F   UNL     1       0.491  -1.348   1.917  1.00  0.00    -0.168 F 
ATOM     24  F   UNL     1      -1.280  -0.515   2.842  1.00  0.00    -0.168 F 
ATOM     25  F   UNL     1      -0.542   0.356   1.000  1.00  0.00    -0.168 F 
ENDBRANCH   7  22
ENDBRANCH   4   7
ENDBRANCH   2   3
ENDBRANCH   1   2
BRANCH   1  26
ATOM     26  C   UNL     1       5.117   4.130   3.212  1.00  0.00     0.023 C 
BRANCH  26  27
ATOM     27  C   UNL     1       4.770   5.598   2.938  1.00  0.00     0.116 C 
BRANCH  27  28
ATOM     28  N   UNL     1       5.142   6.501   4.012  1.00  0.00    -0.352 N 
ATOM     29  C   UNL     1       5.797   7.711   3.979  1.00  0.00     0.251 C 
ATOM     30  H   UNL     1       4.884   6.197   4.912  1.00  0.00     0.163 HD
ATOM     31  O   UNL     1       6.033   8.275   5.052  1.00  0.00    -0.269 OA
BRANCH  29  32
ATOM     32  C   UNL     1       6.265   8.343   2.715  1.00  0.00     0.039 A 
ATOM     33  C   UNL     1       7.543   8.921   2.700  1.00  0.00     0.014 A 
ATOM     34  C   UNL     1       5.463   8.445   1.575  1.00  0.00     0.014 A 
ATOM     35  C   UNL     1       8.036   9.539   1.542  1.00  0.00     0.010 A 
ATOM     36  C   UNL     1       5.973   9.029   0.404  1.00  0.00     0.010 A 
ATOM     37  C   UNL     1       7.268   9.576   0.368  1.00  0.00    -0.014 A 
BRANCH  37  38
ATOM     38  C   UNL     1       7.807  10.168  -0.894  1.00  0.00     0.031 A 
ATOM     39  C   UNL     1       7.192  11.412  -1.484  1.00  0.00     0.074 A 
ATOM     40  C   UNL     1       8.822   9.562  -1.546  1.00  0.00     0.049 A 
ATOM     41  N   UNL     1       7.465  12.017  -2.613  1.00  0.00    -0.248 NA
ATOM     42  C   UNL     1       6.122  12.053  -0.706  1.00  0.00     0.031 C 
ATOM     43  C   UNL     1       9.507   8.349  -1.098  1.00  0.00     0.029 A 
ATOM     44  N   UNL     1       9.445   9.871  -2.734  1.00  0.00    -0.354 N 
ATOM     45  C   UNL     1       6.593  13.098  -2.691  1.00  0.00     0.074 A 
ATOM     46  C   UNL     1       5.757  13.044  -1.510  1.00  0.00     0.031 C 
ATOM     47  C   UNL     1      10.452   8.019  -1.993  1.00  0.00     0.029 A 
ATOM     48  C   UNL     1      10.415   8.966  -3.104  1.00  0.00     0.049 A 
ATOM     49  H   UNL     1       9.219  10.666  -3.269  1.00  0.00     0.167 HD
ATOM     50  C   UNL     1       6.502  14.053  -3.650  1.00  0.00     0.037 A 
ATOM     51  C   UNL     1      11.173   8.888  -4.218  1.00  0.00     0.037 A 
ATOM     52  C   UNL     1       7.342  14.111  -4.820  1.00  0.00     0.049 A 
ATOM     53  C   UNL     1      11.025   9.935  -5.292  1.00  0.00     0.074 A 
ATOM     54  C   UNL     1       7.351  15.067  -5.823  1.00  0.00     0.029 A 
ATOM     55  N   UNL     1       8.311  13.177  -5.153  1.00  0.00    -0.354 N 
ATOM     56  N   UNL     1      10.229  10.977  -5.322  1.00  0.00    -0.248 NA
ATOM     57  C   UNL     1      11.877   9.800  -6.484  1.00  0.00     0.031 C 
ATOM     58  C   UNL     1       8.284  14.679  -6.790  1.00  0.00     0.029 A 
ATOM     59  C   UNL     1       8.904  13.518  -6.358  1.00  0.00     0.049 A 
ATOM     60  H   UNL     1       8.543  12.387  -4.614  1.00  0.00     0.167 HD
ATOM     61  C   UNL     1      10.510  11.639  -6.513  1.00  0.00     0.074 A 
ATOM     62  C   UNL     1      11.550  10.883  -7.178  1.00  0.00     0.031 C 
ATOM     63  C   UNL     1       9.958  12.775  -7.006  1.00  0.00     0.037 A 
BRANCH  50  64
ATOM     64  C   UNL     1       5.447  15.117  -3.487  1.00  0.00     0.058 A 
ATOM     65  C   UNL     1       5.538  16.103  -2.491  1.00  0.00     0.135 A 
ATOM     66  C   UNL     1       4.357  15.183  -4.372  1.00  0.00     0.135 A 
ATOM     67  F   UNL     1       6.553  16.086  -1.613  1.00  0.00    -0.206 F 
ATOM     68  C   UNL     1       4.571  17.095  -2.358  1.00  0.00     0.059 A 
ATOM     69  C   UNL     1       3.394  16.185  -4.276  1.00  0.00     0.059 A 
ATOM     70  F   UNL     1       4.222  14.272  -5.348  1.00  0.00    -0.206 F 
ATOM     71  C   UNL     1       3.502  17.128  -3.255  1.00  0.00     0.060 A 
BRANCH  71  72
ATOM     72  S   UNL     1       2.256  18.421  -3.069  1.00  0.00     0.124 S 
ATOM     73  O   UNL     1       1.575  17.995  -1.847  1.00  0.00    -0.237 OA
ATOM     74  O   UNL     1       3.077  19.626  -2.944  1.00  0.00    -0.237 OA
ATOM     75  O   UNL     1       1.473  18.323  -4.290  1.00  0.00    -0.744 OA
ENDBRANCH  71  72
ENDBRANCH  50  64
BRANCH  51  76
ATOM     76  C   UNL     1      12.146   7.771  -4.380  1.00  0.00     0.058 A 
ATOM     77  C   UNL     1      13.530   8.005  -4.360  1.00  0.00     0.135 A 
ATOM     78  C   UNL     1      11.714   6.446  -4.556  1.00  0.00     0.135 A 
ATOM     79  F   UNL     1      13.996   9.253  -4.208  1.00  0.00    -0.206 F 
ATOM     80  C   UNL     1      14.448   6.971  -4.521  1.00  0.00     0.059 A 
ATOM     81  C   UNL     1      12.613   5.392  -4.690  1.00  0.00     0.059 A 
ATOM     82  F   UNL     1      10.402   6.164  -4.574  1.00  0.00    -0.206 F 
ATOM     83  C   UNL     1      13.979   5.666  -4.681  1.00  0.00     0.060 A 
BRANCH  83  84
ATOM     84  S   UNL     1      15.180   4.326  -4.838  1.00  0.00     0.124 S 
ATOM     85  O   UNL     1      15.721   4.570  -6.172  1.00  0.00    -0.237 OA
ATOM     86  O   UNL     1      16.086   4.596  -3.725  1.00  0.00    -0.237 OA
ATOM     87  O   UNL     1      14.366   3.125  -4.697  1.00  0.00    -0.744 OA
ENDBRANCH  83  84
ENDBRANCH  51  76
BRANCH  63  88
ATOM     88  C   UNL     1      10.493  13.322  -8.303  1.00  0.00     0.058 A 
ATOM     89  C   UNL     1      10.204  12.723  -9.538  1.00  0.00     0.135 A 
ATOM     90  C   UNL     1      11.219  14.525  -8.313  1.00  0.00     0.135 A 
ATOM     91  F   UNL     1       9.524  11.567  -9.587  1.00  0.00    -0.206 F 
ATOM     92  C   UNL     1      10.615  13.298 -10.738  1.00  0.00     0.059 A 
ATOM     93  C   UNL     1      11.615  15.132  -9.501  1.00  0.00     0.059 A 
ATOM     94  F   UNL     1      11.518  15.144  -7.160  1.00  0.00    -0.206 F 
ATOM     95  C   UNL     1      11.309  14.510 -10.710  1.00  0.00     0.060 A 
BRANCH  95  96
ATOM     96  S   UNL     1      11.762  15.284 -12.277  1.00  0.00     0.124 S 
ATOM     97  O   UNL     1      12.821  14.399 -12.750  1.00  0.00    -0.237 OA
ATOM     98  O   UNL     1      10.509  15.231 -13.024  1.00  0.00    -0.237 OA
ATOM     99  O   UNL     1      12.193  16.623 -11.884  1.00  0.00    -0.744 OA
ENDBRANCH  95  96
ENDBRANCH  63  88
ENDBRANCH  37  38
ENDBRANCH  29  32
ENDBRANCH  27  28
ENDBRANCH  26  27
ENDBRANCH   1  26
TORSDOF 18
