REMARK SMILES Cc1ccc(-c2ncccc2C(=O)NCCCCNC(=O)c2ccc(-c3c4nc(c(-c5c(F)cc(S(=O)(=O)[O-])cc5F)c5ccc([nH]5)c(-c5c(F)cc(S(=O)(=O)[O-])cc5F)c5nc(c(-c6c(F)cc(S(=O)(=O)[O-])cc6F)c6ccc3[nH]6)C=C5)C=C4)cc2)c(C)c1
REMARK SMILES IDX 17 1 16 2 15 3 14 4 12 5 13 6 11 8 6 9 7 10 8 11 10 12 9 13
REMARK SMILES IDX 5 14 1 15 2 16 3 17 90 18 4 19 88 20 89 21 18 22 19 23 20 24
REMARK SMILES IDX 21 26 22 27 23 28 87 29 24 30 86 31 25 32 26 33 27 34 80 35
REMARK SMILES IDX 28 36 85 37 79 38 81 39 29 40 84 41 78 42 77 43 30 45 64 46
REMARK SMILES IDX 43 47 63 48 44 49 47 50 62 51 82 52 45 53 46 54 61 56 83 57
REMARK SMILES IDX 48 58 31 59 32 60 41 61 33 62 34 63 40 64 42 65 35 66 36 67
REMARK SMILES IDX 37 68 38 69 39 70 65 71 66 72 75 73 67 74 68 75 74 76 76 77
REMARK SMILES IDX 69 78 70 79 71 80 72 81 73 82 49 83 50 84 59 85 51 86 52 87
REMARK SMILES IDX 58 88 60 89 53 90 54 91 55 92 56 93 57 94
REMARK H PARENT 14 7 19 25 81 44 47 55
REMARK Flexibility Score: inf
ROOT
ATOM      1  C   UNL     1      -2.256  -6.518   4.231  1.00  0.00     0.023 C 
ENDROOT
BRANCH   1   2
ATOM      2  C   UNL     1      -3.229  -5.869   3.236  1.00  0.00     0.023 C 
BRANCH   2   3
ATOM      3  C   UNL     1      -3.562  -4.409   3.545  1.00  0.00     0.116 C 
BRANCH   3   4
ATOM      4  N   UNL     1      -2.453  -3.542   3.205  1.00  0.00    -0.352 N 
ATOM      5  C   UNL     1      -2.071  -2.808   2.112  1.00  0.00     0.253 C 
ATOM      6  O   UNL     1      -1.023  -2.189   2.290  1.00  0.00    -0.269 OA
ATOM      7  H   UNL     1      -1.811  -3.459   3.947  1.00  0.00     0.163 HD
BRANCH   5   8
ATOM      8  C   UNL     1      -2.827  -2.696   0.816  1.00  0.00     0.066 A 
ATOM      9  C   UNL     1      -2.443  -1.759  -0.171  1.00  0.00     0.083 A 
ATOM     10  N   UNL     1      -3.174  -1.536  -1.311  1.00  0.00    -0.255 NA
ATOM     11  C   UNL     1      -4.284  -2.264  -1.512  1.00  0.00     0.112 A 
ATOM     12  C   UNL     1      -3.947  -3.478   0.508  1.00  0.00     0.018 A 
ATOM     13  C   UNL     1      -4.696  -3.253  -0.649  1.00  0.00     0.021 A 
BRANCH   9  14
ATOM     14  C   UNL     1      -1.196  -0.966  -0.163  1.00  0.00     0.004 A 
ATOM     15  C   UNL     1       2.568   1.181  -0.064  1.00  0.00     0.044 C 
ATOM     16  C   UNL     1       1.270   0.433  -0.127  1.00  0.00    -0.051 A 
ATOM     17  C   UNL     1       1.250  -0.949  -0.305  1.00  0.00     0.004 A 
ATOM     18  C   UNL     1       0.055   1.119  -0.010  1.00  0.00     0.007 A 
ATOM     19  C   UNL     1       0.035  -1.633  -0.336  1.00  0.00     0.011 A 
ATOM     20  C   UNL     1      -1.178   0.438  -0.017  1.00  0.00    -0.041 A 
ATOM     21  C   UNL     1      -2.436   1.258   0.088  1.00  0.00     0.045 C 
ENDBRANCH   9  14
ENDBRANCH   5   8
ENDBRANCH   3   4
ENDBRANCH   2   3
ENDBRANCH   1   2
BRANCH   1  22
ATOM     22  C   UNL     1      -2.694  -6.491   5.694  1.00  0.00     0.116 C 
BRANCH  22  23
ATOM     23  N   UNL     1      -4.029  -7.029   5.905  1.00  0.00    -0.352 N 
ATOM     24  C   UNL     1      -4.535  -7.662   7.015  1.00  0.00     0.251 C 
ATOM     25  H   UNL     1      -4.654  -6.925   5.151  1.00  0.00     0.163 HD
ATOM     26  O   UNL     1      -5.660  -8.142   6.988  1.00  0.00    -0.269 OA
BRANCH  24  27
ATOM     27  C   UNL     1      -3.691  -7.793   8.221  1.00  0.00     0.039 A 
ATOM     28  C   UNL     1      -3.553  -9.053   8.809  1.00  0.00     0.014 A 
ATOM     29  C   UNL     1      -3.020  -6.688   8.750  1.00  0.00     0.014 A 
ATOM     30  C   UNL     1      -2.687  -9.218   9.891  1.00  0.00     0.010 A 
ATOM     31  C   UNL     1      -2.111  -6.866   9.789  1.00  0.00     0.010 A 
ATOM     32  C   UNL     1      -1.933  -8.132  10.366  1.00  0.00    -0.014 A 
BRANCH  32  33
ATOM     33  C   UNL     1      -0.944  -8.305  11.459  1.00  0.00     0.031 A 
ATOM     34  C   UNL     1      -1.157  -7.628  12.784  1.00  0.00     0.074 A 
ATOM     35  C   UNL     1       0.175  -9.020  11.234  1.00  0.00     0.049 A 
ATOM     36  N   UNL     1      -0.382  -7.613  13.837  1.00  0.00    -0.248 NA
ATOM     37  C   UNL     1      -2.393  -6.844  12.933  1.00  0.00     0.031 C 
ATOM     38  C   UNL     1       0.513  -9.688   9.976  1.00  0.00     0.029 A 
ATOM     39  N   UNL     1       1.238  -9.300  12.055  1.00  0.00    -0.354 N 
ATOM     40  C   UNL     1      -1.029  -6.811  14.770  1.00  0.00     0.074 A 
ATOM     41  C   UNL     1      -2.232  -6.314  14.137  1.00  0.00     0.031 C 
ATOM     42  C   UNL     1       1.686 -10.326  10.118  1.00  0.00     0.029 A 
ATOM     43  C   UNL     1       2.199 -10.085  11.463  1.00  0.00     0.049 A 
ATOM     44  H   UNL     1       1.306  -8.971  12.980  1.00  0.00     0.167 HD
ATOM     45  C   UNL     1      -0.667  -6.534  16.046  1.00  0.00     0.037 A 
ATOM     46  C   UNL     1       3.362 -10.557  11.951  1.00  0.00     0.037 A 
ATOM     47  C   UNL     1       0.524  -7.044  16.674  1.00  0.00     0.049 A 
ATOM     48  C   UNL     1       3.750 -10.230  13.367  1.00  0.00     0.074 A 
ATOM     49  C   UNL     1       0.961  -6.859  17.974  1.00  0.00     0.029 A 
ATOM     50  N   UNL     1       1.471  -7.840  16.045  1.00  0.00    -0.354 N 
ATOM     51  N   UNL     1       3.102  -9.512  14.253  1.00  0.00    -0.248 NA
ATOM     52  C   UNL     1       5.024 -10.779  13.849  1.00  0.00     0.031 C 
ATOM     53  C   UNL     1       2.189  -7.516  18.121  1.00  0.00     0.029 A 
ATOM     54  C   UNL     1       2.497  -8.143  16.924  1.00  0.00     0.049 A 
ATOM     55  H   UNL     1       1.420  -8.145  15.110  1.00  0.00     0.167 HD
ATOM     56  C   UNL     1       3.876  -9.545  15.407  1.00  0.00     0.074 A 
ATOM     57  C   UNL     1       5.037 -10.359  15.107  1.00  0.00     0.031 C 
ATOM     58  C   UNL     1       3.645  -8.958  16.608  1.00  0.00     0.037 A 
BRANCH  45  59
ATOM     59  C   UNL     1      -1.579  -5.637  16.837  1.00  0.00     0.058 A 
ATOM     60  C   UNL     1      -2.850  -6.065  17.252  1.00  0.00     0.135 A 
ATOM     61  C   UNL     1      -1.189  -4.330  17.169  1.00  0.00     0.135 A 
ATOM     62  F   UNL     1      -3.280  -7.301  16.949  1.00  0.00    -0.206 F 
ATOM     63  C   UNL     1      -3.722  -5.215  17.924  1.00  0.00     0.059 A 
ATOM     64  C   UNL     1      -2.034  -3.470  17.865  1.00  0.00     0.059 A 
ATOM     65  F   UNL     1       0.017  -3.869  16.800  1.00  0.00    -0.206 F 
ATOM     66  C   UNL     1      -3.309  -3.914  18.216  1.00  0.00     0.060 A 
BRANCH  66  67
ATOM     67  S   UNL     1      -4.464  -2.807  19.050  1.00  0.00     0.124 S 
ATOM     68  O   UNL     1      -5.362  -2.448  17.956  1.00  0.00    -0.237 OA
ATOM     69  O   UNL     1      -5.037  -3.667  20.081  1.00  0.00    -0.237 OA
ATOM     70  O   UNL     1      -3.609  -1.731  19.541  1.00  0.00    -0.744 OA
ENDBRANCH  66  67
ENDBRANCH  45  59
BRANCH  46  71
ATOM     71  C   UNL     1       4.215 -11.433  11.106  1.00  0.00     0.058 A 
ATOM     72  C   UNL     1       4.296 -12.809  11.361  1.00  0.00     0.135 A 
ATOM     73  C   UNL     1       4.931 -10.925  10.012  1.00  0.00     0.135 A 
ATOM     74  F   UNL     1       3.632 -13.339  12.400  1.00  0.00    -0.206 F 
ATOM     75  C   UNL     1       5.061 -13.654  10.564  1.00  0.00     0.059 A 
ATOM     76  C   UNL     1       5.687 -11.753   9.187  1.00  0.00     0.059 A 
ATOM     77  F   UNL     1       4.873  -9.617   9.718  1.00  0.00    -0.206 F 
ATOM     78  C   UNL     1       5.749 -13.117   9.475  1.00  0.00     0.060 A 
BRANCH  78  79
ATOM     79  S   UNL     1       6.681 -14.234   8.405  1.00  0.00     0.124 S 
ATOM     80  O   UNL     1       7.838 -14.541   9.237  1.00  0.00    -0.237 OA
ATOM     81  O   UNL     1       5.733 -15.325   8.201  1.00  0.00    -0.237 OA
ATOM     82  O   UNL     1       6.949 -13.420   7.223  1.00  0.00    -0.744 OA
ENDBRANCH  78  79
ENDBRANCH  46  71
BRANCH  58  83
ATOM     83  C   UNL     1       4.652  -9.199  17.697  1.00  0.00     0.058 A 
ATOM     84  C   UNL     1       5.906  -8.570  17.693  1.00  0.00     0.135 A 
ATOM     85  C   UNL     1       4.338 -10.034  18.781  1.00  0.00     0.135 A 
ATOM     86  F   UNL     1       6.257  -7.768  16.675  1.00  0.00    -0.206 F 
ATOM     87  C   UNL     1       6.824  -8.776  18.717  1.00  0.00     0.059 A 
ATOM     88  C   UNL     1       5.232 -10.236  19.828  1.00  0.00     0.059 A 
ATOM     89  F   UNL     1       3.148 -10.653  18.836  1.00  0.00    -0.206 F 
ATOM     90  C   UNL     1       6.478  -9.611  19.782  1.00  0.00     0.060 A 
BRANCH  90  91
ATOM     91  S   UNL     1       7.663  -9.844  21.123  1.00  0.00     0.124 S 
ATOM     92  O   UNL     1       8.621 -10.759  20.512  1.00  0.00    -0.237 OA
ATOM     93  O   UNL     1       8.143  -8.486  21.358  1.00  0.00    -0.237 OA
ATOM     94  O   UNL     1       6.851 -10.409  22.198  1.00  0.00    -0.744 OA
ENDBRANCH  90  91
ENDBRANCH  58  83
ENDBRANCH  32  33
ENDBRANCH  24  27
ENDBRANCH  22  23
ENDBRANCH   1  22
TORSDOF 15
