REMARK SMILES O=C(NCCCCNC(=O)c1nnn(-c2cccc(OC(F)(F)F)c2)c1-c1ccncc1)c1ccc(-c2c3nc(c(-c4c(F)cc(S(=O)(=O)[O-])cc4F)c4ccc([nH]4)c(-c4c(F)cc(S(=O)(=O)[O-])cc4F)c4nc(c(-c5c(F)cc(S(=O)(=O)[O-])cc5F)c5ccc2[nH]5)C=C4)C=C3)cc1
REMARK SMILES IDX 5 1 4 2 3 3 1 4 2 5 33 7 34 8 98 9 35 10 97 11 36 12 37 13
REMARK SMILES IDX 38 14 91 15 39 16 96 17 90 18 92 19 40 20 95 21 89 22 88 23
REMARK SMILES IDX 41 25 75 26 54 27 74 28 55 29 58 30 73 31 93 32 56 33 57 34
REMARK SMILES IDX 72 36 94 37 59 38 42 39 43 40 52 41 44 42 45 43 51 44 53 45
REMARK SMILES IDX 46 46 47 47 48 48 49 49 50 50 76 51 77 52 86 53 78 54 79 55
REMARK SMILES IDX 85 56 87 57 80 58 81 59 82 60 83 61 84 62 60 63 61 64 70 65
REMARK SMILES IDX 62 66 63 67 69 68 71 69 64 70 65 71 66 72 67 73 68 74 6 75
REMARK SMILES IDX 7 76 8 77 9 78 10 80 11 81 12 82 26 83 13 84 14 85 27 86
REMARK SMILES IDX 28 87 32 88 29 89 31 90 30 91 15 92 16 93 25 94 17 95 19 96
REMARK SMILES IDX 18 97 20 98 21 99 22 100 23 101 24 102
REMARK H PARENT 3 6 92 24 58 35 8 79
REMARK Flexibility Score: inf
ROOT
ATOM      1  C   UNL     1       5.219   0.112  -2.183  1.00  0.00     0.023 C 
ENDROOT
BRANCH   1   2
ATOM      2  C   UNL     1       4.896   0.696  -0.802  1.00  0.00     0.116 C 
BRANCH   2   3
ATOM      3  N   UNL     1       3.502   1.007  -0.557  1.00  0.00    -0.352 N 
ATOM      4  O   UNL     1       1.397   0.931   0.109  1.00  0.00    -0.269 OA
ATOM      5  C   UNL     1       2.406   0.279  -0.172  1.00  0.00     0.251 C 
ATOM      6  H   UNL     1       3.294   1.959  -0.700  1.00  0.00     0.163 HD
BRANCH   5   7
ATOM      7  C   UNL     1       2.336  -1.210  -0.122  1.00  0.00     0.039 A 
ATOM      8  C   UNL     1       3.410  -2.075  -0.322  1.00  0.00     0.014 A 
ATOM      9  C   UNL     1       1.066  -1.774   0.109  1.00  0.00     0.014 A 
ATOM     10  C   UNL     1       3.214  -3.450  -0.412  1.00  0.00     0.010 A 
ATOM     11  C   UNL     1       0.871  -3.154   0.067  1.00  0.00     0.010 A 
ATOM     12  C   UNL     1       1.941  -3.992  -0.238  1.00  0.00    -0.014 A 
BRANCH  12  13
ATOM     13  C   UNL     1       1.817  -5.450  -0.292  1.00  0.00     0.031 A 
ATOM     14  C   UNL     1       2.554  -6.216   0.759  1.00  0.00     0.074 A 
ATOM     15  C   UNL     1       0.981  -6.096  -1.129  1.00  0.00     0.049 A 
ATOM     16  N   UNL     1       3.418  -7.171   0.620  1.00  0.00    -0.248 NA
ATOM     17  C   UNL     1       2.327  -5.817   2.157  1.00  0.00     0.031 C 
ATOM     18  C   UNL     1      -0.043  -5.510  -1.996  1.00  0.00     0.029 A 
ATOM     19  N   UNL     1       0.793  -7.439  -1.284  1.00  0.00    -0.354 N 
ATOM     20  C   UNL     1       3.701  -7.628   1.909  1.00  0.00     0.074 A 
ATOM     21  C   UNL     1       3.096  -6.684   2.814  1.00  0.00     0.031 C 
ATOM     22  C   UNL     1      -0.884  -6.485  -2.405  1.00  0.00     0.029 A 
ATOM     23  C   UNL     1      -0.387  -7.767  -1.934  1.00  0.00     0.049 A 
ATOM     24  H   UNL     1       1.436  -8.113  -0.965  1.00  0.00     0.167 HD
ATOM     25  C   UNL     1       4.255  -8.849   2.154  1.00  0.00     0.037 A 
ATOM     26  C   UNL     1      -0.965  -8.991  -2.004  1.00  0.00     0.037 A 
ATOM     27  C   UNL     1       4.926  -9.378   0.997  1.00  0.00     0.049 A 
ATOM     28  C   UNL     1       0.074 -10.011  -1.720  1.00  0.00     0.074 A 
ATOM     29  C   UNL     1       5.969  -8.959   0.194  1.00  0.00     0.029 A 
ATOM     30  N   UNL     1       4.348 -10.427   0.327  1.00  0.00    -0.354 N 
ATOM     31  N   UNL     1       1.084 -10.281  -2.500  1.00  0.00    -0.248 NA
ATOM     32  C   UNL     1       0.188 -10.519  -0.361  1.00  0.00     0.031 C 
ATOM     33  C   UNL     1       5.665  -9.456  -1.108  1.00  0.00     0.029 A 
ATOM     34  C   UNL     1       4.462 -10.155  -1.012  1.00  0.00     0.049 A 
ATOM     35  H   UNL     1       3.931 -11.223   0.731  1.00  0.00     0.167 HD
ATOM     36  C   UNL     1       2.115 -10.631  -1.643  1.00  0.00     0.074 A 
ATOM     37  C   UNL     1       1.472 -10.880  -0.359  1.00  0.00     0.031 C 
ATOM     38  C   UNL     1       3.422 -10.422  -1.981  1.00  0.00     0.037 A 
BRANCH  25  39
ATOM     39  C   UNL     1       3.912  -9.716   3.350  1.00  0.00     0.058 A 
ATOM     40  C   UNL     1       4.646 -10.899   3.587  1.00  0.00     0.135 A 
ATOM     41  C   UNL     1       2.711  -9.592   4.084  1.00  0.00     0.135 A 
ATOM     42  F   UNL     1       5.809 -11.122   2.953  1.00  0.00    -0.206 F 
ATOM     43  C   UNL     1       4.170 -11.925   4.404  1.00  0.00     0.059 A 
ATOM     44  C   UNL     1       2.245 -10.580   4.946  1.00  0.00     0.059 A 
ATOM     45  F   UNL     1       1.879  -8.556   3.923  1.00  0.00    -0.206 F 
ATOM     46  C   UNL     1       2.951 -11.766   5.055  1.00  0.00     0.060 A 
BRANCH  46  47
ATOM     47  S   UNL     1       2.243 -13.151   5.966  1.00  0.00     0.124 S 
ATOM     48  O   UNL     1       1.832 -14.028   4.876  1.00  0.00    -0.237 OA
ATOM     49  O   UNL     1       3.378 -13.607   6.762  1.00  0.00    -0.237 OA
ATOM     50  O   UNL     1       1.161 -12.532   6.725  1.00  0.00    -0.744 OA
ENDBRANCH  46  47
ENDBRANCH  25  39
BRANCH  26  51
ATOM     51  C   UNL     1      -2.417  -9.303  -1.999  1.00  0.00     0.058 A 
ATOM     52  C   UNL     1      -2.895 -10.569  -2.376  1.00  0.00     0.135 A 
ATOM     53  C   UNL     1      -3.348  -8.446  -1.375  1.00  0.00     0.135 A 
ATOM     54  F   UNL     1      -2.069 -11.460  -2.945  1.00  0.00    -0.206 F 
ATOM     55  C   UNL     1      -4.210 -10.973  -2.123  1.00  0.00     0.059 A 
ATOM     56  C   UNL     1      -4.666  -8.819  -1.130  1.00  0.00     0.059 A 
ATOM     57  F   UNL     1      -2.979  -7.247  -0.901  1.00  0.00    -0.206 F 
ATOM     58  C   UNL     1      -5.085 -10.094  -1.485  1.00  0.00     0.060 A 
BRANCH  58  59
ATOM     59  S   UNL     1      -6.735 -10.662  -1.015  1.00  0.00     0.124 S 
ATOM     60  O   UNL     1      -7.392 -10.783  -2.312  1.00  0.00    -0.237 OA
ATOM     61  O   UNL     1      -6.445 -11.916  -0.327  1.00  0.00    -0.237 OA
ATOM     62  O   UNL     1      -7.233  -9.587  -0.161  1.00  0.00    -0.744 OA
ENDBRANCH  58  59
ENDBRANCH  26  51
BRANCH  38  63
ATOM     63  C   UNL     1       3.755 -10.151  -3.423  1.00  0.00     0.058 A 
ATOM     64  C   UNL     1       3.318  -9.017  -4.128  1.00  0.00     0.135 A 
ATOM     65  C   UNL     1       4.680 -10.990  -4.064  1.00  0.00     0.135 A 
ATOM     66  F   UNL     1       2.522  -8.108  -3.547  1.00  0.00    -0.206 F 
ATOM     67  C   UNL     1       3.749  -8.751  -5.428  1.00  0.00     0.059 A 
ATOM     68  C   UNL     1       5.148 -10.727  -5.350  1.00  0.00     0.059 A 
ATOM     69  F   UNL     1       5.186 -12.054  -3.418  1.00  0.00    -0.206 F 
ATOM     70  C   UNL     1       4.668  -9.610  -6.031  1.00  0.00     0.060 A 
BRANCH  70  71
ATOM     71  S   UNL     1       5.304  -9.201  -7.671  1.00  0.00     0.124 S 
ATOM     72  O   UNL     1       4.179  -9.547  -8.532  1.00  0.00    -0.237 OA
ATOM     73  O   UNL     1       5.598  -7.775  -7.553  1.00  0.00    -0.237 OA
ATOM     74  O   UNL     1       6.480 -10.059  -7.803  1.00  0.00    -0.744 OA
ENDBRANCH  70  71
ENDBRANCH  38  63
ENDBRANCH  12  13
ENDBRANCH   5   7
ENDBRANCH   2   3
ENDBRANCH   1   2
BRANCH   1  75
ATOM     75  C   UNL     1       4.702   0.892  -3.391  1.00  0.00     0.023 C 
BRANCH  75  76
ATOM     76  C   UNL     1       5.070   2.364  -3.416  1.00  0.00     0.116 C 
BRANCH  76  77
ATOM     77  N   UNL     1       6.492   2.617  -3.545  1.00  0.00    -0.351 N 
ATOM     78  C   UNL     1       7.110   3.674  -4.177  1.00  0.00     0.274 C 
ATOM     79  H   UNL     1       7.088   1.952  -3.130  1.00  0.00     0.163 HD
ATOM     80  O   UNL     1       8.339   3.728  -4.184  1.00  0.00    -0.267 OA
BRANCH  78  81
ATOM     81  C   UNL     1       6.292   4.699  -4.808  1.00  0.00     0.178 A 
ATOM     82  N   UNL     1       6.349   4.943  -6.158  1.00  0.00    -0.124 NA
ATOM     83  C   UNL     1       5.330   5.521  -4.234  1.00  0.00     0.108 A 
ATOM     84  N   UNL     1       5.407   5.824  -6.463  1.00  0.00    -0.061 NA
ATOM     85  N   UNL     1       4.866   6.268  -5.310  1.00  0.00    -0.212 N 
BRANCH  83  86
ATOM     86  C   UNL     1       4.742   5.524  -2.893  1.00  0.00     0.006 A 
ATOM     87  C   UNL     1       5.529   5.718  -1.761  1.00  0.00     0.030 A 
ATOM     88  C   UNL     1       3.374   5.261  -2.732  1.00  0.00     0.030 A 
ATOM     89  C   UNL     1       4.915   5.640  -0.521  1.00  0.00     0.111 A 
ATOM     90  C   UNL     1       2.856   5.194  -1.452  1.00  0.00     0.111 A 
ATOM     91  N   UNL     1       3.602   5.376  -0.344  1.00  0.00    -0.265 NA
ENDBRANCH  83  86
BRANCH  85  92
ATOM     92  C   UNL     1       3.918   7.316  -5.287  1.00  0.00     0.071 A 
ATOM     93  C   UNL     1       2.924   7.372  -6.266  1.00  0.00     0.029 A 
ATOM     94  C   UNL     1       3.934   8.235  -4.225  1.00  0.00     0.075 A 
ATOM     95  C   UNL     1       1.889   8.293  -6.120  1.00  0.00     0.006 A 
ATOM     96  C   UNL     1       2.915   9.173  -4.096  1.00  0.00     0.131 A 
ATOM     97  C   UNL     1       1.881   9.178  -5.036  1.00  0.00     0.047 A 
BRANCH  96  98
ATOM     98  O   UNL     1       2.805  10.106  -3.104  1.00  0.00    -0.406 OA
BRANCH  98  99
ATOM     99  C   UNL     1       3.882  10.221  -2.186  1.00  0.00     0.573 C 
ATOM    100  F   UNL     1       4.053   9.082  -1.483  1.00  0.00    -0.132 F 
ATOM    101  F   UNL     1       5.033  10.529  -2.824  1.00  0.00    -0.132 F 
ATOM    102  F   UNL     1       3.609  11.217  -1.314  1.00  0.00    -0.132 F 
ENDBRANCH  98  99
ENDBRANCH  96  98
ENDBRANCH  85  92
ENDBRANCH  78  81
ENDBRANCH  76  77
ENDBRANCH  75  76
ENDBRANCH   1  75
TORSDOF 18
