REMARK SMILES CC1(C)CSC[C@](Nc2ccccc2Cl)(C(=O)NCCCCNC(=O)c2ccc(-c3c4nc(c(-c5c(F)cc(S(=O)(=O)[O-])cc5F)c5ccc([nH]5)c(-c5c(F)cc(S(=O)(=O)[O-])cc5F)c5nc(c(-c6c(F)cc(S(=O)(=O)[O-])cc6F)c6ccc3[nH]6)C=C5)C=C4)cc2)C1
REMARK SMILES IDX 21 1 20 2 19 3 18 4 16 5 17 6 7 8 1 9 2 10 3 11 4 12 92 13
REMARK SMILES IDX 5 14 6 15 8 16 9 18 10 19 14 20 11 21 13 22 15 23 12 24
REMARK SMILES IDX 22 25 23 26 24 27 25 29 26 30 27 31 91 32 28 33 90 34 29 35
REMARK SMILES IDX 30 36 31 37 84 38 32 39 89 40 83 41 85 42 33 43 88 44 82 45
REMARK SMILES IDX 81 46 34 48 68 49 47 50 67 51 48 52 51 53 66 54 86 55 49 56
REMARK SMILES IDX 50 57 65 59 87 60 52 61 35 62 36 63 45 64 37 65 38 66 44 67
REMARK SMILES IDX 46 68 39 69 40 70 41 71 42 72 43 73 69 74 70 75 79 76 71 77
REMARK SMILES IDX 72 78 78 79 80 80 73 81 74 82 75 83 76 84 77 85 53 86 54 87
REMARK SMILES IDX 63 88 55 89 56 90 62 91 64 92 57 93 58 94 59 95 60 96 61 97
REMARK H PARENT 18 7 8 17 23 28 85 47 51 58
REMARK Flexibility Score: inf
ROOT
ATOM      1  C   UNL     1      -0.468  -6.426   1.567  1.00  0.00     0.023 C 
ENDROOT
BRANCH   1   2
ATOM      2  C   UNL     1       0.040  -5.008   1.305  1.00  0.00     0.023 C 
BRANCH   2   3
ATOM      3  C   UNL     1      -0.821  -4.215   0.329  1.00  0.00     0.116 C 
BRANCH   3   4
ATOM      4  N   UNL     1      -2.043  -3.734   0.945  1.00  0.00    -0.354 N 
ATOM      5  C   UNL     1      -2.533  -2.464   1.087  1.00  0.00     0.246 C 
ATOM      6  O   UNL     1      -3.635  -2.365   1.641  1.00  0.00    -0.272 OA
ATOM      7  H   UNL     1      -2.616  -4.439   1.325  1.00  0.00     0.163 HD
BRANCH   5   8
ATOM      8  C   UNL     1      -1.727  -1.194   0.637  1.00  0.00     0.126 C 
ATOM      9  C   UNL     1       1.248   0.141   0.029  1.00  0.00     0.012 C 
ATOM     10  C   UNL     1       0.530   0.059   1.393  1.00  0.00    -0.024 C 
ATOM     11  C   UNL     1       1.630  -0.143   2.465  1.00  0.00     0.012 C 
ATOM     12  C   UNL     1      -0.213   1.366   1.717  1.00  0.00     0.076 C 
ATOM     13  C   UNL     1      -0.407  -1.173   1.470  1.00  0.00     0.046 C 
ATOM     14  S   UNL     1      -1.686   1.643   0.693  1.00  0.00    -0.158 SA
ATOM     15  C   UNL     1      -2.546   0.064   1.048  1.00  0.00     0.108 C 
BRANCH   8  16
ATOM     16  N   UNL     1      -1.453  -1.146  -0.836  1.00  0.00    -0.369 N 
ATOM     17  H   UNL     1      -0.877  -0.419  -1.167  1.00  0.00     0.161 HD
BRANCH  16  18
ATOM     18  C   UNL     1      -1.950  -2.050  -1.774  1.00  0.00     0.054 A 
ATOM     19  C   UNL     1      -1.004  -2.756  -2.539  1.00  0.00     0.027 A 
ATOM     20  C   UNL     1      -3.305  -2.262  -2.090  1.00  0.00     0.064 A 
ATOM     21  C   UNL     1      -1.382  -3.764  -3.433  1.00  0.00     0.002 A 
ATOM     22  C   UNL     1      -3.688  -3.271  -2.985  1.00  0.00     0.023 A 
ATOM     23  Cl  UNL     1      -4.576  -1.278  -1.464  1.00  0.00    -0.082 Cl
ATOM     24  C   UNL     1      -2.728  -4.042  -3.633  1.00  0.00     0.002 A 
ENDBRANCH  16  18
ENDBRANCH   8  16
ENDBRANCH   5   8
ENDBRANCH   3   4
ENDBRANCH   2   3
ENDBRANCH   1   2
BRANCH   1  25
ATOM     25  C   UNL     1      -0.629  -7.296   0.324  1.00  0.00     0.116 C 
BRANCH  25  26
ATOM     26  N   UNL     1       0.594  -7.422  -0.456  1.00  0.00    -0.352 N 
ATOM     27  C   UNL     1       1.090  -8.541  -1.083  1.00  0.00     0.251 C 
ATOM     28  H   UNL     1       1.134  -6.604  -0.546  1.00  0.00     0.163 HD
ATOM     29  O   UNL     1       2.196  -8.521  -1.613  1.00  0.00    -0.269 OA
BRANCH  27  30
ATOM     30  C   UNL     1       0.281  -9.777  -1.077  1.00  0.00     0.039 A 
ATOM     31  C   UNL     1       0.855 -10.961  -0.611  1.00  0.00     0.014 A 
ATOM     32  C   UNL     1      -1.060  -9.741  -1.470  1.00  0.00     0.014 A 
ATOM     33  C   UNL     1       0.060 -12.100  -0.472  1.00  0.00     0.010 A 
ATOM     34  C   UNL     1      -1.864 -10.857  -1.266  1.00  0.00     0.010 A 
ATOM     35  C   UNL     1      -1.314 -12.046  -0.762  1.00  0.00    -0.014 A 
BRANCH  35  36
ATOM     36  C   UNL     1      -2.195 -13.220  -0.540  1.00  0.00     0.031 A 
ATOM     37  C   UNL     1      -2.877 -13.878  -1.707  1.00  0.00     0.074 A 
ATOM     38  C   UNL     1      -2.437 -13.646   0.716  1.00  0.00     0.049 A 
ATOM     39  N   UNL     1      -3.742 -14.859  -1.712  1.00  0.00    -0.248 NA
ATOM     40  C   UNL     1      -2.569 -13.342  -3.043  1.00  0.00     0.031 C 
ATOM     41  C   UNL     1      -1.876 -13.056   1.934  1.00  0.00     0.029 A 
ATOM     42  N   UNL     1      -3.228 -14.668   1.178  1.00  0.00    -0.354 N 
ATOM     43  C   UNL     1      -4.092 -15.048  -3.044  1.00  0.00     0.074 A 
ATOM     44  C   UNL     1      -3.386 -14.046  -3.813  1.00  0.00     0.031 C 
ATOM     45  C   UNL     1      -2.326 -13.737   3.001  1.00  0.00     0.029 A 
ATOM     46  C   UNL     1      -3.231 -14.789   2.548  1.00  0.00     0.049 A 
ATOM     47  H   UNL     1      -3.744 -15.260   0.585  1.00  0.00     0.167 HD
ATOM     48  C   UNL     1      -4.909 -15.986  -3.579  1.00  0.00     0.037 A 
ATOM     49  C   UNL     1      -3.895 -15.645   3.349  1.00  0.00     0.037 A 
ATOM     50  C   UNL     1      -5.584 -16.999  -2.812  1.00  0.00     0.049 A 
ATOM     51  C   UNL     1      -4.787 -16.687   2.729  1.00  0.00     0.074 A 
ATOM     52  C   UNL     1      -6.384 -18.032  -3.267  1.00  0.00     0.029 A 
ATOM     53  N   UNL     1      -5.538 -17.108  -1.430  1.00  0.00    -0.354 N 
ATOM     54  N   UNL     1      -5.057 -16.892   1.462  1.00  0.00    -0.248 NA
ATOM     55  C   UNL     1      -5.459 -17.618   3.646  1.00  0.00     0.031 C 
ATOM     56  C   UNL     1      -6.851 -18.745  -2.157  1.00  0.00     0.029 A 
ATOM     57  C   UNL     1      -6.307 -18.182  -1.014  1.00  0.00     0.049 A 
ATOM     58  H   UNL     1      -5.032 -16.511  -0.833  1.00  0.00     0.167 HD
ATOM     59  C   UNL     1      -5.908 -17.990   1.427  1.00  0.00     0.074 A 
ATOM     60  C   UNL     1      -6.099 -18.413   2.800  1.00  0.00     0.031 C 
ATOM     61  C   UNL     1      -6.479 -18.595   0.356  1.00  0.00     0.037 A 
BRANCH  48  62
ATOM     62  C   UNL     1      -5.109 -15.964  -5.069  1.00  0.00     0.058 A 
ATOM     63  C   UNL     1      -4.084 -16.337  -5.954  1.00  0.00     0.135 A 
ATOM     64  C   UNL     1      -6.347 -15.596  -5.620  1.00  0.00     0.135 A 
ATOM     65  F   UNL     1      -2.875 -16.681  -5.481  1.00  0.00    -0.206 F 
ATOM     66  C   UNL     1      -4.269 -16.316  -7.332  1.00  0.00     0.059 A 
ATOM     67  C   UNL     1      -6.563 -15.595  -6.995  1.00  0.00     0.059 A 
ATOM     68  F   UNL     1      -7.361 -15.230  -4.820  1.00  0.00    -0.206 F 
ATOM     69  C   UNL     1      -5.512 -15.942  -7.843  1.00  0.00     0.060 A 
BRANCH  69  70
ATOM     70  S   UNL     1      -5.737 -15.923  -9.634  1.00  0.00     0.124 S 
ATOM     71  O   UNL     1      -4.993 -14.723 -10.007  1.00  0.00    -0.237 OA
ATOM     72  O   UNL     1      -5.138 -17.191 -10.039  1.00  0.00    -0.237 OA
ATOM     73  O   UNL     1      -7.185 -15.838  -9.794  1.00  0.00    -0.744 OA
ENDBRANCH  69  70
ENDBRANCH  48  62
BRANCH  49  74
ATOM     74  C   UNL     1      -3.720 -15.572   4.824  1.00  0.00     0.058 A 
ATOM     75  C   UNL     1      -3.007 -16.563   5.515  1.00  0.00     0.135 A 
ATOM     76  C   UNL     1      -4.250 -14.508   5.570  1.00  0.00     0.135 A 
ATOM     77  F   UNL     1      -2.487 -17.603   4.846  1.00  0.00    -0.206 F 
ATOM     78  C   UNL     1      -2.840 -16.513   6.895  1.00  0.00     0.059 A 
ATOM     79  C   UNL     1      -4.075 -14.423   6.948  1.00  0.00     0.059 A 
ATOM     80  F   UNL     1      -4.924 -13.524   4.954  1.00  0.00    -0.206 F 
ATOM     81  C   UNL     1      -3.377 -15.437   7.603  1.00  0.00     0.060 A 
BRANCH  81  82
ATOM     82  S   UNL     1      -3.113 -15.355   9.388  1.00  0.00     0.124 S 
ATOM     83  O   UNL     1      -4.038 -16.375   9.868  1.00  0.00    -0.237 OA
ATOM     84  O   UNL     1      -1.693 -15.675   9.503  1.00  0.00    -0.237 OA
ATOM     85  O   UNL     1      -3.465 -13.977   9.715  1.00  0.00    -0.744 OA
ENDBRANCH  81  82
ENDBRANCH  49  74
BRANCH  61  86
ATOM     86  C   UNL     1      -7.337 -19.801   0.619  1.00  0.00     0.058 A 
ATOM     87  C   UNL     1      -8.620 -19.686   1.176  1.00  0.00     0.135 A 
ATOM     88  C   UNL     1      -6.890 -21.082   0.256  1.00  0.00     0.135 A 
ATOM     89  F   UNL     1      -9.090 -18.484   1.545  1.00  0.00    -0.206 F 
ATOM     90  C   UNL     1      -9.423 -20.802   1.384  1.00  0.00     0.059 A 
ATOM     91  C   UNL     1      -7.687 -22.209   0.431  1.00  0.00     0.059 A 
ATOM     92  F   UNL     1      -5.675 -21.245  -0.290  1.00  0.00    -0.206 F 
ATOM     93  C   UNL     1      -8.948 -22.060   1.006  1.00  0.00     0.060 A 
BRANCH  93  94
ATOM     94  S   UNL     1     -10.014 -23.497   1.247  1.00  0.00     0.124 S 
ATOM     95  O   UNL     1      -9.915 -23.698   2.688  1.00  0.00    -0.237 OA
ATOM     96  O   UNL     1     -11.304 -23.015   0.762  1.00  0.00    -0.237 OA
ATOM     97  O   UNL     1      -9.387 -24.526   0.423  1.00  0.00    -0.744 OA
ENDBRANCH  93  94
ENDBRANCH  61  86
ENDBRANCH  35  36
ENDBRANCH  27  30
ENDBRANCH  25  26
ENDBRANCH   1  25
TORSDOF 16
