REMARK SMILES COCc1cc(OCC(=O)NCCCCNC(=O)c2ccc(-c3c4nc(c(-c5c(F)cc(S(=O)(=O)[O-])cc5F)c5ccc([nH]5)c(-c5c(F)cc(S(=O)(=O)[O-])cc5F)c5nc(c(-c6c(F)cc(S(=O)(=O)[O-])cc6F)c6ccc3[nH]6)C=C5)C=C4)cc2)nc(Nc2cccc(C)c2C)n1
REMARK SMILES IDX 13 1 12 2 11 3 9 4 10 5 8 7 7 8 6 9 4 10 5 11 96 12 86 13
REMARK SMILES IDX 85 14 3 15 2 16 1 17 87 18 88 20 89 21 94 22 90 23 92 24
REMARK SMILES IDX 95 25 91 26 93 27 14 28 15 29 16 30 17 31 18 33 19 34 20 35
REMARK SMILES IDX 84 36 21 37 83 38 22 39 23 40 24 41 77 42 25 43 82 44 76 45
REMARK SMILES IDX 78 46 26 47 81 48 75 49 74 50 27 52 61 53 40 54 60 55 41 56
REMARK SMILES IDX 44 57 59 58 79 59 42 60 43 61 58 63 80 64 45 65 28 66 29 67
REMARK SMILES IDX 38 68 30 69 31 70 37 71 39 72 32 73 33 74 34 75 35 76 36 77
REMARK SMILES IDX 62 78 63 79 72 80 64 81 65 82 71 83 73 84 66 85 67 86 68 87
REMARK SMILES IDX 69 88 70 89 46 90 47 91 56 92 48 93 49 94 55 95 57 96 50 97
REMARK SMILES IDX 51 98 52 99 53 100 54 101
REMARK H PARENT 11 6 87 19 16 32 78 51 44 62
REMARK Flexibility Score: inf
ROOT
ATOM      1  C   UNL     1      -4.248   4.777  -0.442  1.00  0.00     0.023 C 
ENDROOT
BRANCH   1   2
ATOM      2  C   UNL     1      -4.542   3.959   0.814  1.00  0.00     0.116 C 
BRANCH   2   3
ATOM      3  N   UNL     1      -4.264   2.547   0.643  1.00  0.00    -0.353 N 
ATOM      4  C   UNL     1      -3.188   1.841   1.095  1.00  0.00     0.258 C 
ATOM      5  O   UNL     1      -3.146   0.624   0.908  1.00  0.00    -0.271 OA
ATOM      6  H   UNL     1      -4.935   2.033   0.138  1.00  0.00     0.163 HD
BRANCH   4   7
ATOM      7  C   UNL     1      -2.072   2.565   1.854  1.00  0.00     0.331 C 
BRANCH   7   8
ATOM      8  O   UNL     1      -1.490   3.675   1.195  1.00  0.00    -0.467 OA
BRANCH   8   9
ATOM      9  C   UNL     1      -0.633   3.434   0.160  1.00  0.00     0.218 A 
ATOM     10  C   UNL     1       0.562   2.152  -1.390  1.00  0.00     0.076 A 
ATOM     11  C   UNL     1      -0.375   2.198  -0.383  1.00  0.00     0.095 A 
ATOM     12  N   UNL     1       1.131   3.271  -1.873  1.00  0.00    -0.215 NA
ATOM     13  C   UNL     1       0.779   4.447  -1.334  1.00  0.00     0.230 A 
ATOM     14  N   UNL     1      -0.057   4.560  -0.295  1.00  0.00    -0.177 NA
BRANCH  10  15
ATOM     15  C   UNL     1       0.981   0.848  -2.030  1.00  0.00     0.216 C 
BRANCH  15  16
ATOM     16  O   UNL     1       0.652  -0.314  -1.259  1.00  0.00    -0.378 OA
ATOM     17  C   UNL     1       1.549  -0.545  -0.181  1.00  0.00     0.195 C 
ENDBRANCH  15  16
ENDBRANCH  10  15
BRANCH  13  18
ATOM     18  N   UNL     1       1.298   5.628  -1.853  1.00  0.00    -0.324 N 
ATOM     19  H   UNL     1       1.181   6.427  -1.290  1.00  0.00     0.170 HD
BRANCH  18  20
ATOM     20  C   UNL     1       1.964   5.837  -3.069  1.00  0.00     0.044 A 
ATOM     21  C   UNL     1       3.213   6.477  -3.024  1.00  0.00     0.026 A 
ATOM     22  C   UNL     1       1.453   5.405  -4.318  1.00  0.00    -0.025 A 
ATOM     23  C   UNL     1       3.983   6.630  -4.174  1.00  0.00     0.002 A 
ATOM     24  C   UNL     1       2.259   5.519  -5.478  1.00  0.00    -0.046 A 
ATOM     25  C   UNL     1       0.056   4.841  -4.433  1.00  0.00     0.047 C 
ATOM     26  C   UNL     1       3.515   6.139  -5.388  1.00  0.00     0.004 A 
ATOM     27  C   UNL     1       1.833   5.014  -6.832  1.00  0.00     0.044 C 
ENDBRANCH  18  20
ENDBRANCH  13  18
ENDBRANCH   8   9
ENDBRANCH   7   8
ENDBRANCH   4   7
ENDBRANCH   2   3
ENDBRANCH   1   2
BRANCH   1  28
ATOM     28  C   UNL     1      -5.068   4.396  -1.677  1.00  0.00     0.023 C 
BRANCH  28  29
ATOM     29  C   UNL     1      -6.578   4.330  -1.474  1.00  0.00     0.116 C 
BRANCH  29  30
ATOM     30  N   UNL     1      -7.150   5.575  -0.984  1.00  0.00    -0.352 N 
ATOM     31  C   UNL     1      -8.328   6.181  -1.352  1.00  0.00     0.251 C 
ATOM     32  H   UNL     1      -6.624   6.046  -0.297  1.00  0.00     0.163 HD
ATOM     33  O   UNL     1      -8.621   7.286  -0.904  1.00  0.00    -0.269 OA
BRANCH  31  34
ATOM     34  C   UNL     1      -9.217   5.509  -2.323  1.00  0.00     0.039 A 
ATOM     35  C   UNL     1      -9.660   6.221  -3.441  1.00  0.00     0.014 A 
ATOM     36  C   UNL     1      -9.575   4.169  -2.150  1.00  0.00     0.014 A 
ATOM     37  C   UNL     1     -10.399   5.566  -4.430  1.00  0.00     0.010 A 
ATOM     38  C   UNL     1     -10.259   3.505  -3.163  1.00  0.00     0.010 A 
ATOM     39  C   UNL     1     -10.669   4.193  -4.317  1.00  0.00    -0.014 A 
BRANCH  39  40
ATOM     40  C   UNL     1     -11.377   3.441  -5.384  1.00  0.00     0.031 A 
ATOM     41  C   UNL     1     -12.712   2.816  -5.091  1.00  0.00     0.074 A 
ATOM     42  C   UNL     1     -10.775   3.230  -6.572  1.00  0.00     0.049 A 
ATOM     43  N   UNL     1     -13.406   1.974  -5.811  1.00  0.00    -0.248 NA
ATOM     44  C   UNL     1     -13.332   3.162  -3.802  1.00  0.00     0.031 C 
ATOM     45  C   UNL     1      -9.468   3.760  -6.966  1.00  0.00     0.029 A 
ATOM     46  N   UNL     1     -11.173   2.491  -7.658  1.00  0.00    -0.354 N 
ATOM     47  C   UNL     1     -14.528   1.664  -5.051  1.00  0.00     0.074 A 
ATOM     48  C   UNL     1     -14.405   2.384  -3.802  1.00  0.00     0.031 C 
ATOM     49  C   UNL     1      -9.175   3.331  -8.205  1.00  0.00     0.029 A 
ATOM     50  C   UNL     1     -10.248   2.461  -8.676  1.00  0.00     0.049 A 
ATOM     51  H   UNL     1     -12.040   2.025  -7.704  1.00  0.00     0.167 HD
ATOM     52  C   UNL     1     -15.570   0.862  -5.372  1.00  0.00     0.037 A 
ATOM     53  C   UNL     1     -10.254   1.792  -9.845  1.00  0.00     0.037 A 
ATOM     54  C   UNL     1     -15.704   0.178  -6.631  1.00  0.00     0.049 A 
ATOM     55  C   UNL     1     -11.428   0.913 -10.185  1.00  0.00     0.074 A 
ATOM     56  C   UNL     1     -16.746  -0.618  -7.071  1.00  0.00     0.029 A 
ATOM     57  N   UNL     1     -14.768   0.216  -7.654  1.00  0.00    -0.354 N 
ATOM     58  N   UNL     1     -12.497   0.658  -9.470  1.00  0.00    -0.248 NA
ATOM     59  C   UNL     1     -11.400   0.233 -11.488  1.00  0.00     0.031 C 
ATOM     60  C   UNL     1     -16.428  -1.086  -8.350  1.00  0.00     0.029 A 
ATOM     61  C   UNL     1     -15.206  -0.548  -8.722  1.00  0.00     0.049 A 
ATOM     62  H   UNL     1     -13.919   0.713  -7.625  1.00  0.00     0.167 HD
ATOM     63  C   UNL     1     -13.283  -0.184 -10.248  1.00  0.00     0.074 A 
ATOM     64  C   UNL     1     -12.567  -0.399 -11.488  1.00  0.00     0.031 C 
ATOM     65  C   UNL     1     -14.492  -0.726  -9.961  1.00  0.00     0.037 A 
BRANCH  52  66
ATOM     66  C   UNL     1     -16.649   0.680  -4.342  1.00  0.00     0.058 A 
ATOM     67  C   UNL     1     -17.549   1.711  -4.029  1.00  0.00     0.135 A 
ATOM     68  C   UNL     1     -16.800  -0.547  -3.676  1.00  0.00     0.135 A 
ATOM     69  F   UNL     1     -17.439   2.909  -4.625  1.00  0.00    -0.206 F 
ATOM     70  C   UNL     1     -18.540   1.544  -3.068  1.00  0.00     0.059 A 
ATOM     71  C   UNL     1     -17.801  -0.745  -2.729  1.00  0.00     0.059 A 
ATOM     72  F   UNL     1     -15.967  -1.566  -3.938  1.00  0.00    -0.206 F 
ATOM     73  C   UNL     1     -18.656   0.312  -2.420  1.00  0.00     0.060 A 
BRANCH  73  74
ATOM     74  S   UNL     1     -19.941   0.111  -1.169  1.00  0.00     0.124 S 
ATOM     75  O   UNL     1     -19.366   0.842  -0.044  1.00  0.00    -0.237 OA
ATOM     76  O   UNL     1     -21.098   0.735  -1.804  1.00  0.00    -0.237 OA
ATOM     77  O   UNL     1     -20.027  -1.336  -1.000  1.00  0.00    -0.744 OA
ENDBRANCH  73  74
ENDBRANCH  52  66
BRANCH  53  78
ATOM     78  C   UNL     1      -9.115   1.939 -10.789  1.00  0.00     0.058 A 
ATOM     79  C   UNL     1      -9.257   2.671 -11.977  1.00  0.00     0.135 A 
ATOM     80  C   UNL     1      -7.860   1.374 -10.515  1.00  0.00     0.135 A 
ATOM     81  F   UNL     1     -10.440   3.224 -12.286  1.00  0.00    -0.206 F 
ATOM     82  C   UNL     1      -8.200   2.828 -12.868  1.00  0.00     0.059 A 
ATOM     83  C   UNL     1      -6.782   1.535 -11.379  1.00  0.00     0.059 A 
ATOM     84  F   UNL     1      -7.668   0.679  -9.383  1.00  0.00    -0.206 F 
ATOM     85  C   UNL     1      -6.964   2.257 -12.558  1.00  0.00     0.060 A 
BRANCH  85  86
ATOM     86  S   UNL     1      -5.583   2.513 -13.694  1.00  0.00     0.124 S 
ATOM     87  O   UNL     1      -5.924   1.601 -14.780  1.00  0.00    -0.237 OA
ATOM     88  O   UNL     1      -5.693   3.937 -13.997  1.00  0.00    -0.237 OA
ATOM     89  O   UNL     1      -4.420   2.139 -12.895  1.00  0.00    -0.744 OA
ENDBRANCH  85  86
ENDBRANCH  53  78
BRANCH  65  90
ATOM     90  C   UNL     1     -15.155  -1.561 -11.019  1.00  0.00     0.058 A 
ATOM     91  C   UNL     1     -14.761  -2.882 -11.271  1.00  0.00     0.135 A 
ATOM     92  C   UNL     1     -16.269  -1.061 -11.714  1.00  0.00     0.135 A 
ATOM     93  F   UNL     1     -13.697  -3.402 -10.637  1.00  0.00    -0.206 F 
ATOM     94  C   UNL     1     -15.450  -3.684 -12.175  1.00  0.00     0.059 A 
ATOM     95  C   UNL     1     -16.985  -1.850 -12.607  1.00  0.00     0.059 A 
ATOM     96  F   UNL     1     -16.688   0.197 -11.502  1.00  0.00    -0.206 F 
ATOM     97  C   UNL     1     -16.567  -3.162 -12.831  1.00  0.00     0.060 A 
BRANCH  97  98
ATOM     98  S   UNL     1     -17.504  -4.237 -13.939  1.00  0.00     0.124 S 
ATOM     99  O   UNL     1     -16.635  -4.282 -15.110  1.00  0.00    -0.237 OA
ATOM    100  O   UNL     1     -17.597  -5.474 -13.171  1.00  0.00    -0.237 OA
ATOM    101  O   UNL     1     -18.765  -3.523 -14.119  1.00  0.00    -0.744 OA
ENDBRANCH  97  98
ENDBRANCH  65  90
ENDBRANCH  39  40
ENDBRANCH  31  34
ENDBRANCH  29  30
ENDBRANCH  28  29
ENDBRANCH   1  28
TORSDOF 20
