REMARK SMILES NC(=O)C[C@@H](NC(=O)c1ccc(CO)cc1)C(=O)NCCCCNC(=O)c1ccc(-c2c3nc(c(-c4c(F)cc(S(=O)(=O)[O-])cc4F)c4ccc([nH]4)c(-c4c(F)cc(S(=O)(=O)[O-])cc4F)c4nc(c(-c5c(F)cc(S(=O)(=O)[O-])cc5F)c5ccc2[nH]5)C=C4)C=C3)cc1
REMARK SMILES IDX 21 1 20 2 19 3 17 4 18 5 5 7 4 8 2 9 1 10 3 13 6 14 7 15
REMARK SMILES IDX 8 17 9 18 10 19 16 20 11 21 15 22 12 23 13 24 14 25 22 27
REMARK SMILES IDX 23 28 24 29 25 30 26 32 27 33 28 34 92 35 29 36 91 37 30 38
REMARK SMILES IDX 31 39 32 40 85 41 33 42 90 43 84 44 86 45 34 46 89 47 83 48
REMARK SMILES IDX 82 49 35 51 69 52 48 53 68 54 49 55 52 56 67 57 87 58 50 59
REMARK SMILES IDX 51 60 66 62 88 63 53 64 36 65 37 66 46 67 38 68 39 69 45 70
REMARK SMILES IDX 47 71 40 72 41 73 42 74 43 75 44 76 70 77 71 78 80 79 72 80
REMARK SMILES IDX 73 81 79 82 81 83 74 84 75 85 76 86 77 87 78 88 54 89 55 90
REMARK SMILES IDX 64 91 56 92 57 93 63 94 65 95 58 96 59 97 60 98 61 99 62 100
REMARK H PARENT 19 6 1 11 1 12 6 16 14 26 24 31 86 50 52 61
REMARK Flexibility Score: inf
ROOT
ATOM      1  C   UNL     1       3.212   4.718   1.471  1.00  0.00     0.023 C 
ENDROOT
BRANCH   1   2
ATOM      2  C   UNL     1       3.539   3.293   1.897  1.00  0.00     0.116 C 
BRANCH   2   3
ATOM      3  N   UNL     1       3.057   3.050   3.243  1.00  0.00    -0.354 N 
ATOM      4  C   UNL     1       2.317   2.016   3.729  1.00  0.00     0.243 C 
ATOM      5  O   UNL     1       1.854   2.116   4.869  1.00  0.00    -0.273 OA
ATOM      6  H   UNL     1       3.302   3.736   3.905  1.00  0.00     0.163 HD
BRANCH   4   7
ATOM      7  C   UNL     1       1.949   0.819   2.840  1.00  0.00     0.180 C 
BRANCH   7   8
ATOM      8  C   UNL     1       0.786   1.330   1.966  1.00  0.00     0.134 C 
BRANCH   8   9
ATOM      9  C   UNL     1       0.192   0.296   1.053  1.00  0.00     0.220 C 
ATOM     10  N   UNL     1       0.913   0.030  -0.075  1.00  0.00    -0.370 N 
ATOM     11  H   UNL     1       0.587  -0.637  -0.722  1.00  0.00     0.159 HD
ATOM     12  H   UNL     1       1.759   0.505  -0.242  1.00  0.00     0.159 HD
ATOM     13  O   UNL     1      -0.875  -0.262   1.269  1.00  0.00    -0.275 OA
ENDBRANCH   8   9
ENDBRANCH   7   8
BRANCH   7  14
ATOM     14  N   UNL     1       3.060   0.240   2.053  1.00  0.00    -0.340 N 
ATOM     15  C   UNL     1       4.354  -0.089   2.393  1.00  0.00     0.251 C 
ATOM     16  H   UNL     1       2.832   0.056   1.113  1.00  0.00     0.164 HD
ATOM     17  O   UNL     1       5.001  -0.799   1.626  1.00  0.00    -0.269 OA
BRANCH  15  18
ATOM     18  C   UNL     1       5.032   0.520   3.558  1.00  0.00     0.039 A 
ATOM     19  C   UNL     1       6.162   1.313   3.313  1.00  0.00     0.014 A 
ATOM     20  C   UNL     1       4.553   0.379   4.859  1.00  0.00     0.014 A 
ATOM     21  C   UNL     1       6.723   2.071   4.343  1.00  0.00     0.007 A 
ATOM     22  C   UNL     1       5.112   1.145   5.888  1.00  0.00     0.007 A 
ATOM     23  C   UNL     1       6.171   2.029   5.630  1.00  0.00    -0.023 A 
BRANCH  23  24
ATOM     24  C   UNL     1       6.707   2.932   6.712  1.00  0.00     0.191 C 
BRANCH  24  25
ATOM     25  O   UNL     1       8.000   2.518   7.119  1.00  0.00    -0.392 OA
ATOM     26  H   UNL     1       7.954   1.616   7.473  1.00  0.00     0.211 HD
ENDBRANCH  24  25
ENDBRANCH  23  24
ENDBRANCH  15  18
ENDBRANCH   7  14
ENDBRANCH   4   7
ENDBRANCH   2   3
ENDBRANCH   1   2
BRANCH   1  27
ATOM     27  C   UNL     1       4.016   5.776   2.227  1.00  0.00     0.023 C 
BRANCH  27  28
ATOM     28  C   UNL     1       5.528   5.619   2.113  1.00  0.00     0.116 C 
BRANCH  28  29
ATOM     29  N   UNL     1       5.980   5.659   0.731  1.00  0.00    -0.352 N 
ATOM     30  C   UNL     1       6.972   6.430   0.182  1.00  0.00     0.251 C 
ATOM     31  H   UNL     1       5.513   5.054   0.110  1.00  0.00     0.163 HD
ATOM     32  O   UNL     1       7.089   6.502  -1.040  1.00  0.00    -0.269 OA
BRANCH  30  33
ATOM     33  C   UNL     1       7.880   7.179   1.071  1.00  0.00     0.039 A 
ATOM     34  C   UNL     1       8.170   8.513   0.779  1.00  0.00     0.014 A 
ATOM     35  C   UNL     1       8.432   6.564   2.199  1.00  0.00     0.014 A 
ATOM     36  C   UNL     1       8.991   9.240   1.642  1.00  0.00     0.010 A 
ATOM     37  C   UNL     1       9.175   7.315   3.102  1.00  0.00     0.010 A 
ATOM     38  C   UNL     1       9.483   8.654   2.821  1.00  0.00    -0.014 A 
BRANCH  38  39
ATOM     39  C   UNL     1      10.364   9.415   3.743  1.00  0.00     0.031 A 
ATOM     40  C   UNL     1      11.781   8.957   3.971  1.00  0.00     0.074 A 
ATOM     41  C   UNL     1       9.883  10.491   4.395  1.00  0.00     0.049 A 
ATOM     42  N   UNL     1      12.698   9.467   4.752  1.00  0.00    -0.248 NA
ATOM     43  C   UNL     1      12.217   7.752   3.246  1.00  0.00     0.031 C 
ATOM     44  C   UNL     1       8.514  11.002   4.293  1.00  0.00     0.029 A 
ATOM     45  N   UNL     1      10.491  11.349   5.276  1.00  0.00    -0.354 N 
ATOM     46  C   UNL     1      13.809   8.643   4.620  1.00  0.00     0.074 A 
ATOM     47  C   UNL     1      13.431   7.561   3.738  1.00  0.00     0.031 C 
ATOM     48  C   UNL     1       8.398  12.102   5.054  1.00  0.00     0.029 A 
ATOM     49  C   UNL     1       9.668  12.354   5.727  1.00  0.00     0.049 A 
ATOM     50  H   UNL     1      11.430  11.254   5.559  1.00  0.00     0.167 HD
ATOM     51  C   UNL     1      15.044   8.789   5.157  1.00  0.00     0.037 A 
ATOM     52  C   UNL     1       9.911  13.363   6.587  1.00  0.00     0.037 A 
ATOM     53  C   UNL     1      15.418   9.881   6.017  1.00  0.00     0.049 A 
ATOM     54  C   UNL     1      11.290  13.503   7.176  1.00  0.00     0.074 A 
ATOM     55  C   UNL     1      16.653  10.148   6.581  1.00  0.00     0.029 A 
ATOM     56  N   UNL     1      14.560  10.888   6.438  1.00  0.00    -0.354 N 
ATOM     57  N   UNL     1      12.347  12.748   6.993  1.00  0.00    -0.248 NA
ATOM     58  C   UNL     1      11.513  14.641   8.077  1.00  0.00     0.031 C 
ATOM     59  C   UNL     1      16.530  11.288   7.382  1.00  0.00     0.029 A 
ATOM     60  C   UNL     1      15.235  11.768   7.267  1.00  0.00     0.049 A 
ATOM     61  H   UNL     1      13.612  10.964   6.185  1.00  0.00     0.167 HD
ATOM     62  C   UNL     1      13.371  13.342   7.724  1.00  0.00     0.074 A 
ATOM     63  C   UNL     1      12.806  14.523   8.344  1.00  0.00     0.031 C 
ATOM     64  C   UNL     1      14.662  12.949   7.865  1.00  0.00     0.037 A 
BRANCH  51  65
ATOM     65  C   UNL     1      16.078   7.747   4.825  1.00  0.00     0.058 A 
ATOM     66  C   UNL     1      16.606   7.616   3.529  1.00  0.00     0.135 A 
ATOM     67  C   UNL     1      16.573   6.888   5.819  1.00  0.00     0.135 A 
ATOM     68  F   UNL     1      16.158   8.399   2.534  1.00  0.00    -0.206 F 
ATOM     69  C   UNL     1      17.559   6.651   3.224  1.00  0.00     0.059 A 
ATOM     70  C   UNL     1      17.551   5.936   5.544  1.00  0.00     0.059 A 
ATOM     71  F   UNL     1      16.105   6.966   7.075  1.00  0.00    -0.206 F 
ATOM     72  C   UNL     1      18.027   5.816   4.240  1.00  0.00     0.060 A 
BRANCH  72  73
ATOM     73  S   UNL     1      19.271   4.575   3.828  1.00  0.00     0.124 S 
ATOM     74  O   UNL     1      18.486   3.623   3.047  1.00  0.00    -0.237 OA
ATOM     75  O   UNL     1      20.251   5.354   3.077  1.00  0.00    -0.237 OA
ATOM     76  O   UNL     1      19.720   4.096   5.131  1.00  0.00    -0.744 OA
ENDBRANCH  72  73
ENDBRANCH  51  65
BRANCH  52  77
ATOM     77  C   UNL     1       8.836  14.338   6.916  1.00  0.00     0.058 A 
ATOM     78  C   UNL     1       8.910  15.671   6.484  1.00  0.00     0.135 A 
ATOM     79  C   UNL     1       7.712  13.958   7.667  1.00  0.00     0.135 A 
ATOM     80  F   UNL     1       9.966  16.085   5.767  1.00  0.00    -0.206 F 
ATOM     81  C   UNL     1       7.924  16.598   6.804  1.00  0.00     0.059 A 
ATOM     82  C   UNL     1       6.698  14.860   7.974  1.00  0.00     0.059 A 
ATOM     83  F   UNL     1       7.582  12.691   8.088  1.00  0.00    -0.206 F 
ATOM     84  C   UNL     1       6.819  16.182   7.548  1.00  0.00     0.060 A 
BRANCH  84  85
ATOM     85  S   UNL     1       5.526  17.384   7.924  1.00  0.00     0.124 S 
ATOM     86  O   UNL     1       6.188  18.230   8.911  1.00  0.00    -0.237 OA
ATOM     87  O   UNL     1       5.285  17.992   6.619  1.00  0.00    -0.237 OA
ATOM     88  O   UNL     1       4.435  16.556   8.431  1.00  0.00    -0.744 OA
ENDBRANCH  84  85
ENDBRANCH  52  77
BRANCH  64  89
ATOM     89  C   UNL     1      15.572  13.835   8.673  1.00  0.00     0.058 A 
ATOM     90  C   UNL     1      15.455  13.953  10.066  1.00  0.00     0.135 A 
ATOM     91  C   UNL     1      16.607  14.545   8.040  1.00  0.00     0.135 A 
ATOM     92  F   UNL     1      14.482  13.299  10.721  1.00  0.00    -0.206 F 
ATOM     93  C   UNL     1      16.307  14.773  10.800  1.00  0.00     0.059 A 
ATOM     94  C   UNL     1      17.491  15.343   8.758  1.00  0.00     0.059 A 
ATOM     95  F   UNL     1      16.774  14.457   6.711  1.00  0.00    -0.206 F 
ATOM     96  C   UNL     1      17.323  15.464  10.136  1.00  0.00     0.060 A 
BRANCH  96  97
ATOM     97  S   UNL     1      18.432  16.510  11.101  1.00  0.00     0.124 S 
ATOM     98  O   UNL     1      17.565  17.638  11.424  1.00  0.00    -0.237 OA
ATOM     99  O   UNL     1      18.786  15.642  12.219  1.00  0.00    -0.237 OA
ATOM    100  O   UNL     1      19.520  16.801  10.172  1.00  0.00    -0.744 OA
ENDBRANCH  96  97
ENDBRANCH  64  89
ENDBRANCH  38  39
ENDBRANCH  30  33
ENDBRANCH  28  29
ENDBRANCH  27  28
ENDBRANCH   1  27
TORSDOF 20
