REMARK SMILES Cc1ccc(-c2cc(Cl)cc3c2O[C@@H](C(F)(F)F)C(C(=O)NCCCCNC(=O)c2ccc(-c4c5nc(c(-c6c(F)cc(S(=O)(=O)[O-])cc6F)c6ccc([nH]6)c(-c6c(F)cc(S(=O)(=O)[O-])cc6F)c6nc(c(-c7c(F)cc(S(=O)(=O)[O-])cc7F)c7ccc4[nH]7)C=C6)C=C5)cc2)=C3)cc1
REMARK SMILES IDX 25 1 24 2 23 3 22 4 20 5 21 6 19 8 6 9 7 10 12 11 8 12 11 13
REMARK SMILES IDX 13 14 9 15 10 16 96 17 14 18 5 19 1 20 2 21 3 22 98 23 4 24
REMARK SMILES IDX 97 25 15 26 16 27 17 28 18 29 26 30 27 31 28 32 29 34 30 35
REMARK SMILES IDX 31 36 95 37 32 38 94 39 33 40 34 41 35 42 88 43 36 44 93 45
REMARK SMILES IDX 87 46 89 47 37 48 92 49 86 50 85 51 38 53 72 54 51 55 71 56
REMARK SMILES IDX 52 57 55 58 70 59 90 60 53 61 54 62 69 64 91 65 56 66 39 67
REMARK SMILES IDX 40 68 49 69 41 70 42 71 48 72 50 73 43 74 44 75 45 76 46 77
REMARK SMILES IDX 47 78 73 79 74 80 83 81 75 82 76 83 82 84 84 85 77 86 78 87
REMARK SMILES IDX 79 88 80 89 81 90 57 91 58 92 67 93 59 94 60 95 66 96 68 97
REMARK SMILES IDX 61 98 62 99 63 100 64 101 65 102
REMARK H PARENT 22 7 27 33 89 52 55 63
REMARK Flexibility Score: inf
ROOT
ATOM      1  C   UNL     1      -2.111  -4.746   4.919  1.00  0.00     0.023 C 
ENDROOT
BRANCH   1   2
ATOM      2  C   UNL     1      -3.559  -4.248   4.930  1.00  0.00     0.023 C 
BRANCH   2   3
ATOM      3  C   UNL     1      -3.832  -2.835   5.477  1.00  0.00     0.116 C 
BRANCH   3   4
ATOM      4  N   UNL     1      -3.366  -1.731   4.647  1.00  0.00    -0.352 N 
ATOM      5  C   UNL     1      -3.964  -0.581   4.207  1.00  0.00     0.251 C 
ATOM      6  O   UNL     1      -3.223   0.394   4.042  1.00  0.00    -0.270 OA
ATOM      7  H   UNL     1      -2.436  -1.833   4.341  1.00  0.00     0.163 HD
BRANCH   5   8
ATOM      8  C   UNL     1      -5.434  -0.481   3.782  1.00  0.00     0.067 C 
ATOM      9  C   UNL     1      -3.886  -1.220   0.175  1.00  0.00     0.026 A 
ATOM     10  C   UNL     1      -4.375  -0.581  -0.982  1.00  0.00     0.033 A 
ATOM     11  C   UNL     1      -4.682  -1.064   1.308  1.00  0.00     0.135 A 
ATOM     12  C   UNL     1      -5.325   0.442  -0.872  1.00  0.00     0.042 A 
ATOM     13  C   UNL     1      -5.355   0.166   1.510  1.00  0.00     0.019 A 
ATOM     14  O   UNL     1      -4.957  -2.156   2.163  1.00  0.00    -0.475 OA
ATOM     15  Cl  UNL     1      -5.854   1.257  -2.292  1.00  0.00    -0.084 Cl
ATOM     16  C   UNL     1      -5.737   0.891   0.386  1.00  0.00     0.032 A 
ATOM     17  C   UNL     1      -5.663   0.560   2.933  1.00  0.00     0.025 C 
ATOM     18  C   UNL     1      -5.983  -1.731   3.120  1.00  0.00     0.314 C 
BRANCH   9  19
ATOM     19  C   UNL     1      -2.401  -1.107   0.325  1.00  0.00    -0.015 A 
ATOM     20  C   UNL     1       1.878  -0.367   0.172  1.00  0.00     0.044 C 
ATOM     21  C   UNL     1       0.403  -0.630   0.274  1.00  0.00    -0.051 A 
ATOM     22  C   UNL     1      -0.118  -1.931   0.175  1.00  0.00     0.004 A 
ATOM     23  C   UNL     1      -0.479   0.428   0.469  1.00  0.00     0.004 A 
ATOM     24  C   UNL     1      -1.507  -2.170   0.197  1.00  0.00     0.009 A 
ATOM     25  C   UNL     1      -1.852   0.188   0.502  1.00  0.00     0.009 A 
ENDBRANCH   9  19
BRANCH  18  26
ATOM     26  C   UNL     1      -6.761  -2.693   4.029  1.00  0.00     0.429 C 
ATOM     27  F   UNL     1      -8.060  -2.764   3.614  1.00  0.00    -0.167 F 
ATOM     28  F   UNL     1      -6.288  -3.950   4.029  1.00  0.00    -0.167 F 
ATOM     29  F   UNL     1      -6.835  -2.250   5.307  1.00  0.00    -0.167 F 
ENDBRANCH  18  26
ENDBRANCH   5   8
ENDBRANCH   3   4
ENDBRANCH   2   3
ENDBRANCH   1   2
BRANCH   1  30
ATOM     30  C   UNL     1      -1.339  -4.588   6.221  1.00  0.00     0.116 C 
BRANCH  30  31
ATOM     31  N   UNL     1      -1.326  -5.717   7.134  1.00  0.00    -0.352 N 
ATOM     32  C   UNL     1      -0.550  -5.841   8.288  1.00  0.00     0.251 C 
ATOM     33  H   UNL     1      -1.924  -6.468   6.919  1.00  0.00     0.163 HD
ATOM     34  O   UNL     1      -0.300  -6.917   8.794  1.00  0.00    -0.269 OA
BRANCH  32  35
ATOM     35  C   UNL     1      -0.154  -4.580   8.969  1.00  0.00     0.039 A 
ATOM     36  C   UNL     1      -0.682  -4.341  10.245  1.00  0.00     0.014 A 
ATOM     37  C   UNL     1       0.453  -3.555   8.253  1.00  0.00     0.014 A 
ATOM     38  C   UNL     1      -0.787  -3.030  10.709  1.00  0.00     0.010 A 
ATOM     39  C   UNL     1       0.221  -2.255   8.647  1.00  0.00     0.010 A 
ATOM     40  C   UNL     1      -0.428  -1.987   9.859  1.00  0.00    -0.014 A 
BRANCH  40  41
ATOM     41  C   UNL     1      -0.723  -0.581  10.107  1.00  0.00     0.031 A 
ATOM     42  C   UNL     1       0.381   0.351  10.432  1.00  0.00     0.074 A 
ATOM     43  C   UNL     1      -1.971  -0.107   9.894  1.00  0.00     0.049 A 
ATOM     44  N   UNL     1       0.229   1.499  10.999  1.00  0.00    -0.248 NA
ATOM     45  C   UNL     1       1.778   0.035  10.156  1.00  0.00     0.031 C 
ATOM     46  C   UNL     1      -2.373   1.290   9.757  1.00  0.00     0.029 A 
ATOM     47  N   UNL     1      -3.177  -0.811   9.942  1.00  0.00    -0.354 N 
ATOM     48  C   UNL     1       1.426   2.178  10.910  1.00  0.00     0.074 A 
ATOM     49  C   UNL     1       2.370   1.202  10.419  1.00  0.00     0.031 C 
ATOM     50  C   UNL     1      -3.691   1.389   9.987  1.00  0.00     0.029 A 
ATOM     51  C   UNL     1      -4.153   0.084  10.426  1.00  0.00     0.049 A 
ATOM     52  H   UNL     1      -3.319  -1.751   9.687  1.00  0.00     0.167 HD
ATOM     53  C   UNL     1       1.452   3.524  11.139  1.00  0.00     0.037 A 
ATOM     54  C   UNL     1      -4.785  -0.151  11.615  1.00  0.00     0.037 A 
ATOM     55  C   UNL     1       0.130   4.003  11.543  1.00  0.00     0.049 A 
ATOM     56  C   UNL     1      -4.504   0.893  12.672  1.00  0.00     0.074 A 
ATOM     57  C   UNL     1      -0.902   4.602  10.837  1.00  0.00     0.029 A 
ATOM     58  N   UNL     1      -0.412   3.595  12.758  1.00  0.00    -0.354 N 
ATOM     59  N   UNL     1      -3.523   1.752  12.614  1.00  0.00    -0.248 NA
ATOM     60  C   UNL     1      -5.310   1.056  13.879  1.00  0.00     0.031 C 
ATOM     61  C   UNL     1      -2.086   4.489  11.607  1.00  0.00     0.029 A 
ATOM     62  C   UNL     1      -1.772   3.843  12.791  1.00  0.00     0.049 A 
ATOM     63  H   UNL     1       0.101   3.186  13.492  1.00  0.00     0.167 HD
ATOM     64  C   UNL     1      -3.526   2.540  13.738  1.00  0.00     0.074 A 
ATOM     65  C   UNL     1      -4.685   2.083  14.483  1.00  0.00     0.031 C 
ATOM     66  C   UNL     1      -2.573   3.496  13.958  1.00  0.00     0.037 A 
BRANCH  53  67
ATOM     67  C   UNL     1       2.587   4.436  10.706  1.00  0.00     0.058 A 
ATOM     68  C   UNL     1       2.337   5.778  10.338  1.00  0.00     0.135 A 
ATOM     69  C   UNL     1       3.933   4.042  10.576  1.00  0.00     0.135 A 
ATOM     70  F   UNL     1       1.133   6.340  10.507  1.00  0.00    -0.206 F 
ATOM     71  C   UNL     1       3.307   6.610   9.772  1.00  0.00     0.059 A 
ATOM     72  C   UNL     1       4.910   4.833   9.958  1.00  0.00     0.059 A 
ATOM     73  F   UNL     1       4.375   2.890  11.098  1.00  0.00    -0.206 F 
ATOM     74  C   UNL     1       4.584   6.116   9.547  1.00  0.00     0.060 A 
BRANCH  74  75
ATOM     75  S   UNL     1       5.799   7.174   8.738  1.00  0.00     0.124 S 
ATOM     76  O   UNL     1       5.107   7.559   7.512  1.00  0.00    -0.237 OA
ATOM     77  O   UNL     1       5.983   8.234   9.723  1.00  0.00    -0.237 OA
ATOM     78  O   UNL     1       6.947   6.291   8.549  1.00  0.00    -0.744 OA
ENDBRANCH  74  75
ENDBRANCH  53  67
BRANCH  54  79
ATOM     79  C   UNL     1      -5.048  -1.599  11.850  1.00  0.00     0.058 A 
ATOM     80  C   UNL     1      -5.996  -2.221  11.013  1.00  0.00     0.135 A 
ATOM     81  C   UNL     1      -4.099  -2.419  12.474  1.00  0.00     0.135 A 
ATOM     82  F   UNL     1      -6.946  -1.485  10.414  1.00  0.00    -0.206 F 
ATOM     83  C   UNL     1      -5.890  -3.562  10.658  1.00  0.00     0.059 A 
ATOM     84  C   UNL     1      -3.981  -3.771  12.138  1.00  0.00     0.059 A 
ATOM     85  F   UNL     1      -3.176  -1.886  13.288  1.00  0.00    -0.206 F 
ATOM     86  C   UNL     1      -4.829  -4.306  11.166  1.00  0.00     0.060 A 
BRANCH  86  87
ATOM     87  S   UNL     1      -4.476  -5.908  10.402  1.00  0.00     0.124 S 
ATOM     88  O   UNL     1      -5.757  -6.595  10.526  1.00  0.00    -0.237 OA
ATOM     89  O   UNL     1      -4.103  -5.511   9.043  1.00  0.00    -0.237 OA
ATOM     90  O   UNL     1      -3.395  -6.438  11.224  1.00  0.00    -0.744 OA
ENDBRANCH  86  87
ENDBRANCH  54  79
BRANCH  66  91
ATOM     91  C   UNL     1      -2.356   4.274  15.242  1.00  0.00     0.058 A 
ATOM     92  C   UNL     1      -2.711   3.812  16.520  1.00  0.00     0.135 A 
ATOM     93  C   UNL     1      -1.638   5.498  15.223  1.00  0.00     0.135 A 
ATOM     94  F   UNL     1      -3.283   2.613  16.697  1.00  0.00    -0.206 F 
ATOM     95  C   UNL     1      -2.447   4.540  17.684  1.00  0.00     0.059 A 
ATOM     96  C   UNL     1      -1.310   6.209  16.376  1.00  0.00     0.059 A 
ATOM     97  F   UNL     1      -1.211   6.046  14.076  1.00  0.00    -0.206 F 
ATOM     98  C   UNL     1      -1.746   5.738  17.603  1.00  0.00     0.060 A 
BRANCH  98  99
ATOM     99  S   UNL     1      -1.346   6.651  19.104  1.00  0.00     0.124 S 
ATOM    100  O   UNL     1      -2.508   7.524  19.232  1.00  0.00    -0.237 OA
ATOM    101  O   UNL     1      -1.239   5.595  20.107  1.00  0.00    -0.237 OA
ATOM    102  O   UNL     1      -0.090   7.313  18.767  1.00  0.00    -0.744 OA
ENDBRANCH  98  99
ENDBRANCH  66  91
ENDBRANCH  40  41
ENDBRANCH  32  35
ENDBRANCH  30  31
ENDBRANCH   1  30
TORSDOF 16
