REMARK SMILES O=C(NCCCCNC(=O)[C@H]1CC[C@@H]2CCCC[C@H]2N1C(=O)Cn1cnnn1)c1ccc(-c2c3nc(c(-c4c(F)cc(S(=O)(=O)[O-])cc4F)c4ccc([nH]4)c(-c4c(F)cc(S(=O)(=O)[O-])cc4F)c4nc(c(-c5c(F)cc(S(=O)(=O)[O-])cc5F)c5ccc2[nH]5)C=C4)C=C3)cc1
REMARK SMILES IDX 5 1 4 2 3 3 1 4 2 5 29 7 30 8 94 9 31 10 93 11 32 12 33 13
REMARK SMILES IDX 34 14 87 15 35 16 92 17 86 18 88 19 36 20 91 21 85 22 84 23
REMARK SMILES IDX 37 25 71 26 50 27 70 28 51 29 54 30 69 31 89 32 52 33 53 34
REMARK SMILES IDX 68 36 90 37 55 38 38 39 39 40 48 41 40 42 41 43 47 44 49 45
REMARK SMILES IDX 42 46 43 47 44 48 45 49 46 50 72 51 73 52 82 53 74 54 75 55
REMARK SMILES IDX 81 56 83 57 76 58 77 59 78 60 79 61 80 62 56 63 57 64 66 65
REMARK SMILES IDX 58 66 59 67 65 68 67 69 60 70 61 71 62 72 63 73 64 74 6 75
REMARK SMILES IDX 7 76 8 77 9 78 10 80 11 81 12 82 20 83 13 84 19 85 14 86
REMARK SMILES IDX 18 87 15 88 17 89 16 90 21 91 22 92 23 93 24 94 25 95 28 96
REMARK SMILES IDX 26 97 27 98
REMARK H PARENT 3 6 88 24 54 35 8 79
REMARK Flexibility Score: inf
ROOT
ATOM      1  C   UNL     1       5.560  -5.592   2.115  1.00  0.00     0.023 C 
ENDROOT
BRANCH   1   2
ATOM      2  C   UNL     1       4.274  -5.028   1.515  1.00  0.00     0.116 C 
BRANCH   2   3
ATOM      3  N   UNL     1       4.466  -4.276   0.297  1.00  0.00    -0.352 N 
ATOM      4  O   UNL     1       4.607  -3.636  -1.802  1.00  0.00    -0.269 OA
ATOM      5  C   UNL     1       4.579  -4.597  -1.027  1.00  0.00     0.251 C 
ATOM      6  H   UNL     1       4.531  -3.307   0.458  1.00  0.00     0.163 HD
BRANCH   5   7
ATOM      7  C   UNL     1       4.722  -5.974  -1.582  1.00  0.00     0.039 A 
ATOM      8  C   UNL     1       4.454  -7.167  -0.910  1.00  0.00     0.014 A 
ATOM      9  C   UNL     1       5.164  -6.046  -2.919  1.00  0.00     0.014 A 
ATOM     10  C   UNL     1       4.673  -8.395  -1.541  1.00  0.00     0.010 A 
ATOM     11  C   UNL     1       5.380  -7.268  -3.553  1.00  0.00     0.010 A 
ATOM     12  C   UNL     1       5.152  -8.448  -2.856  1.00  0.00    -0.014 A 
BRANCH  12  13
ATOM     13  C   UNL     1       5.208  -9.750  -3.524  1.00  0.00     0.031 A 
ATOM     14  C   UNL     1       3.876 -10.381  -3.745  1.00  0.00     0.074 A 
ATOM     15  C   UNL     1       6.313 -10.322  -4.045  1.00  0.00     0.049 A 
ATOM     16  N   UNL     1       3.396 -11.437  -3.176  1.00  0.00    -0.248 NA
ATOM     17  C   UNL     1       2.918  -9.687  -4.618  1.00  0.00     0.031 C 
ATOM     18  C   UNL     1       7.644  -9.736  -4.207  1.00  0.00     0.029 A 
ATOM     19  N   UNL     1       6.447 -11.552  -4.628  1.00  0.00    -0.354 N 
ATOM     20  C   UNL     1       2.156 -11.667  -3.768  1.00  0.00     0.074 A 
ATOM     21  C   UNL     1       1.848 -10.479  -4.523  1.00  0.00     0.031 C 
ATOM     22  C   UNL     1       8.384 -10.525  -5.022  1.00  0.00     0.029 A 
ATOM     23  C   UNL     1       7.635 -11.734  -5.329  1.00  0.00     0.049 A 
ATOM     24  H   UNL     1       5.758 -12.252  -4.558  1.00  0.00     0.167 HD
ATOM     25  C   UNL     1       1.575 -12.899  -3.759  1.00  0.00     0.037 A 
ATOM     26  C   UNL     1       7.960 -12.781  -6.134  1.00  0.00     0.037 A 
ATOM     27  C   UNL     1       2.204 -13.768  -2.797  1.00  0.00     0.049 A 
ATOM     28  C   UNL     1       7.096 -13.925  -5.746  1.00  0.00     0.074 A 
ATOM     29  C   UNL     1       2.402 -13.734  -1.431  1.00  0.00     0.029 A 
ATOM     30  N   UNL     1       3.060 -14.729  -3.275  1.00  0.00    -0.354 N 
ATOM     31  N   UNL     1       7.191 -14.563  -4.613  1.00  0.00    -0.248 NA
ATOM     32  C   UNL     1       5.845 -14.112  -6.463  1.00  0.00     0.031 C 
ATOM     33  C   UNL     1       3.690 -14.312  -1.231  1.00  0.00     0.029 A 
ATOM     34  C   UNL     1       4.172 -14.716  -2.476  1.00  0.00     0.049 A 
ATOM     35  H   UNL     1       2.904 -15.318  -4.048  1.00  0.00     0.167 HD
ATOM     36  C   UNL     1       5.883 -14.857  -4.266  1.00  0.00     0.074 A 
ATOM     37  C   UNL     1       5.111 -14.653  -5.488  1.00  0.00     0.031 C 
ATOM     38  C   UNL     1       5.511 -14.972  -2.958  1.00  0.00     0.037 A 
BRANCH  25  39
ATOM     39  C   UNL     1       0.680 -13.444  -4.849  1.00  0.00     0.058 A 
ATOM     40  C   UNL     1       0.010 -14.670  -4.645  1.00  0.00     0.135 A 
ATOM     41  C   UNL     1       0.687 -12.971  -6.179  1.00  0.00     0.135 A 
ATOM     42  F   UNL     1      -0.054 -15.220  -3.421  1.00  0.00    -0.206 F 
ATOM     43  C   UNL     1      -0.540 -15.408  -5.694  1.00  0.00     0.059 A 
ATOM     44  C   UNL     1       0.097 -13.663  -7.231  1.00  0.00     0.059 A 
ATOM     45  F   UNL     1       1.351 -11.866  -6.539  1.00  0.00    -0.206 F 
ATOM     46  C   UNL     1      -0.476 -14.901  -6.988  1.00  0.00     0.060 A 
BRANCH  46  47
ATOM     47  S   UNL     1      -1.094 -15.895  -8.357  1.00  0.00     0.124 S 
ATOM     48  O   UNL     1      -0.106 -16.967  -8.405  1.00  0.00    -0.237 OA
ATOM     49  O   UNL     1      -2.422 -16.270  -7.883  1.00  0.00    -0.237 OA
ATOM     50  O   UNL     1      -1.075 -14.965  -9.481  1.00  0.00    -0.744 OA
ENDBRANCH  46  47
ENDBRANCH  25  39
BRANCH  26  51
ATOM     51  C   UNL     1       8.753 -12.796  -7.395  1.00  0.00     0.058 A 
ATOM     52  C   UNL     1       9.167 -14.007  -7.985  1.00  0.00     0.135 A 
ATOM     53  C   UNL     1       8.855 -11.649  -8.206  1.00  0.00     0.135 A 
ATOM     54  F   UNL     1       9.092 -15.155  -7.295  1.00  0.00    -0.206 F 
ATOM     55  C   UNL     1       9.593 -14.085  -9.316  1.00  0.00     0.059 A 
ATOM     56  C   UNL     1       9.286 -11.701  -9.531  1.00  0.00     0.059 A 
ATOM     57  F   UNL     1       8.443 -10.452  -7.763  1.00  0.00    -0.206 F 
ATOM     58  C   UNL     1       9.625 -12.927 -10.091  1.00  0.00     0.060 A 
BRANCH  58  59
ATOM     59  S   UNL     1       9.981 -13.049 -11.861  1.00  0.00     0.124 S 
ATOM     60  O   UNL     1      11.403 -13.377 -11.862  1.00  0.00    -0.237 OA
ATOM     61  O   UNL     1       9.081 -14.115 -12.286  1.00  0.00    -0.237 OA
ATOM     62  O   UNL     1       9.647 -11.719 -12.365  1.00  0.00    -0.744 OA
ENDBRANCH  58  59
ENDBRANCH  26  51
BRANCH  38  63
ATOM     63  C   UNL     1       6.583 -15.152  -1.917  1.00  0.00     0.058 A 
ATOM     64  C   UNL     1       7.604 -14.225  -1.640  1.00  0.00     0.135 A 
ATOM     65  C   UNL     1       6.482 -16.266  -1.068  1.00  0.00     0.135 A 
ATOM     66  F   UNL     1       7.709 -13.081  -2.332  1.00  0.00    -0.206 F 
ATOM     67  C   UNL     1       8.508 -14.424  -0.594  1.00  0.00     0.059 A 
ATOM     68  C   UNL     1       7.348 -16.465   0.001  1.00  0.00     0.059 A 
ATOM     69  F   UNL     1       5.493 -17.159  -1.245  1.00  0.00    -0.206 F 
ATOM     70  C   UNL     1       8.370 -15.546   0.224  1.00  0.00     0.060 A 
BRANCH  70  71
ATOM     71  S   UNL     1       9.491 -15.759   1.623  1.00  0.00     0.124 S 
ATOM     72  O   UNL     1      10.742 -16.110   0.964  1.00  0.00    -0.237 OA
ATOM     73  O   UNL     1       9.453 -14.448   2.262  1.00  0.00    -0.237 OA
ATOM     74  O   UNL     1       8.869 -16.835   2.396  1.00  0.00    -0.744 OA
ENDBRANCH  70  71
ENDBRANCH  38  63
ENDBRANCH  12  13
ENDBRANCH   5   7
ENDBRANCH   2   3
ENDBRANCH   1   2
BRANCH   1  75
ATOM     75  C   UNL     1       6.654  -4.562   2.470  1.00  0.00     0.023 C 
BRANCH  75  76
ATOM     76  C   UNL     1       6.199  -3.330   3.267  1.00  0.00     0.116 C 
BRANCH  76  77
ATOM     77  N   UNL     1       5.444  -3.744   4.428  1.00  0.00    -0.354 N 
ATOM     78  C   UNL     1       5.764  -3.721   5.747  1.00  0.00     0.242 C 
ATOM     79  H   UNL     1       4.549  -4.104   4.229  1.00  0.00     0.163 HD
ATOM     80  O   UNL     1       5.288  -4.663   6.374  1.00  0.00    -0.273 OA
BRANCH  78  81
ATOM     81  C   UNL     1       6.422  -2.469   6.397  1.00  0.00     0.174 C 
ATOM     82  C   UNL     1       5.252  -1.470   6.549  1.00  0.00     0.036 C 
ATOM     83  N   UNL     1       7.285  -2.406   7.642  1.00  0.00    -0.326 N 
ATOM     84  C   UNL     1       5.745  -0.055   6.795  1.00  0.00     0.008 C 
ATOM     85  C   UNL     1       7.827  -1.012   7.892  1.00  0.00     0.089 C 
ATOM     86  C   UNL     1       6.656   0.002   8.021  1.00  0.00     0.012 C 
ATOM     87  C   UNL     1       8.805  -0.797   9.074  1.00  0.00     0.025 C 
ATOM     88  C   UNL     1       7.138   1.450   8.210  1.00  0.00     0.006 C 
ATOM     89  C   UNL     1       9.268   0.650   9.237  1.00  0.00     0.002 C 
ATOM     90  C   UNL     1       8.083   1.589   9.393  1.00  0.00     0.000 C 
BRANCH  83  91
ATOM     91  C   UNL     1       7.491  -3.409   8.598  1.00  0.00     0.245 C 
ATOM     92  O   UNL     1       8.284  -3.265   9.539  1.00  0.00    -0.273 OA
BRANCH  91  93
ATOM     93  C   UNL     1       6.859  -4.774   8.536  1.00  0.00     0.248 C 
BRANCH  93  94
ATOM     94  N   UNL     1       5.479  -4.816   8.953  1.00  0.00    -0.223 N 
ATOM     95  C   UNL     1       4.634  -5.883   8.887  1.00  0.00     0.246 A 
ATOM     96  N   UNL     1       4.815  -3.747   9.428  1.00  0.00    -0.045 NA
ATOM     97  N   UNL     1       3.444  -5.497   9.287  1.00  0.00    -0.117 NA
ATOM     98  N   UNL     1       3.570  -4.166   9.608  1.00  0.00    -0.024 NA
ENDBRANCH  93  94
ENDBRANCH  91  93
ENDBRANCH  83  91
ENDBRANCH  78  81
ENDBRANCH  76  77
ENDBRANCH  75  76
ENDBRANCH   1  75
TORSDOF 17
