REMARK SMILES Cc1cc(N2CC[NH+]([C@@H](C(=O)NCCCCNC(=O)c3ccc(-c4c5nc(c(-c6c(F)cc(S(=O)(=O)[O-])cc6F)c6ccc([nH]6)c(-c6c(F)cc(S(=O)(=O)[O-])cc6F)c6nc(c(-c7c(F)cc(S(=O)(=O)[O-])cc7F)c7ccc4[nH]7)C=C6)C=C5)cc3)c3c[nH]c4ccccc34)CC2)nc2ccccc12
REMARK SMILES IDX 15 1 14 2 13 3 12 4 10 5 11 6 9 8 8 9 5 10 6 11 96 12 7 13
REMARK SMILES IDX 95 14 4 16 1 17 2 18 3 19 103 20 98 21 102 22 97 23 99 24
REMARK SMILES IDX 101 25 100 26 86 27 87 28 94 29 88 30 89 31 93 32 90 34
REMARK SMILES IDX 92 35 91 36 16 37 17 38 18 39 19 41 20 42 21 43 85 44 22 45
REMARK SMILES IDX 84 46 23 47 24 48 25 49 78 50 26 51 83 52 77 53 79 54 27 55
REMARK SMILES IDX 82 56 76 57 75 58 28 60 62 61 41 62 61 63 42 64 45 65 60 66
REMARK SMILES IDX 80 67 43 68 44 69 59 71 81 72 46 73 29 74 30 75 39 76 31 77
REMARK SMILES IDX 32 78 38 79 40 80 33 81 34 82 35 83 36 84 37 85 63 86 64 87
REMARK SMILES IDX 73 88 65 89 66 90 72 91 74 92 67 93 68 94 69 95 70 96 71 97
REMARK SMILES IDX 47 98 48 99 57 100 49 101 50 102 56 103 58 104 51 105 52 106
REMARK SMILES IDX 53 107 54 108 55 109
REMARK H PARENT 12 7 8 15 88 33 17 40 79 59 45 70
REMARK Flexibility Score: inf
ROOT
ATOM      1  C   UNL     1      -3.087  -1.805  -3.225  1.00  0.00     0.023 C 
ENDROOT
BRANCH   1   2
ATOM      2  C   UNL     1      -4.469  -2.465  -3.118  1.00  0.00     0.023 C 
BRANCH   2   3
ATOM      3  C   UNL     1      -4.516  -3.996  -2.831  1.00  0.00     0.116 C 
BRANCH   3   4
ATOM      4  N   UNL     1      -3.454  -4.567  -1.985  1.00  0.00    -0.351 N 
ATOM      5  C   UNL     1      -3.308  -5.107  -0.720  1.00  0.00     0.283 C 
ATOM      6  O   UNL     1      -2.203  -5.638  -0.540  1.00  0.00    -0.268 OA
ATOM      7  H   UNL     1      -2.592  -4.562  -2.461  1.00  0.00     0.163 HD
BRANCH   5   8
ATOM      8  C   UNL     1      -4.424  -5.156   0.376  1.00  0.00     0.307 C 
BRANCH   8   9
ATOM      9  N   UNL     1      -4.883  -3.871   1.034  1.00  0.00    -0.318 N 
ATOM     10  N   UNL     1      -2.903  -1.706   1.156  1.00  0.00    -0.345 N 
ATOM     11  C   UNL     1      -2.773  -2.845   2.054  1.00  0.00     0.179 C 
ATOM     12  C   UNL     1      -3.607  -1.998  -0.091  1.00  0.00     0.179 C 
ATOM     13  C   UNL     1      -4.209  -3.358   2.249  1.00  0.00     0.284 C 
ATOM     14  C   UNL     1      -4.959  -2.715   0.146  1.00  0.00     0.284 C 
ATOM     15  H   UNL     1      -5.788  -4.243   1.321  1.00  0.00     0.349 HD
BRANCH  10  16
ATOM     16  C   UNL     1      -1.806  -0.883   0.941  1.00  0.00     0.129 A 
ATOM     17  C   UNL     1      -1.462   2.743   0.004  1.00  0.00     0.045 C 
ATOM     18  C   UNL     1      -1.079   1.326   0.311  1.00  0.00    -0.038 A 
ATOM     19  C   UNL     1      -2.086   0.455   0.699  1.00  0.00     0.051 A 
ATOM     20  C   UNL     1       0.234   0.828   0.225  1.00  0.00     0.003 A 
ATOM     21  C   UNL     1       0.435  -0.552   0.480  1.00  0.00     0.073 A 
ATOM     22  C   UNL     1       1.338   1.642  -0.106  1.00  0.00     0.010 A 
ATOM     23  N   UNL     1      -0.564  -1.384   0.839  1.00  0.00    -0.231 NA
ATOM     24  C   UNL     1       1.719  -1.065   0.334  1.00  0.00     0.029 A 
ATOM     25  C   UNL     1       2.617   1.104  -0.215  1.00  0.00     0.001 A 
ATOM     26  C   UNL     1       2.806  -0.256  -0.011  1.00  0.00     0.002 A 
ENDBRANCH  10  16
ENDBRANCH   8   9
BRANCH   8  27
ATOM     27  C   UNL     1      -4.245  -6.265   1.470  1.00  0.00     0.044 A 
ATOM     28  C   UNL     1      -5.336  -6.869   2.104  1.00  0.00     0.094 A 
ATOM     29  C   UNL     1      -3.222  -6.390   2.493  1.00  0.00     0.009 A 
ATOM     30  N   UNL     1      -5.259  -6.274   3.358  1.00  0.00    -0.361 N 
ATOM     31  C   UNL     1      -3.924  -6.161   3.688  1.00  0.00     0.046 A 
ATOM     32  C   UNL     1      -1.814  -6.424   2.568  1.00  0.00     0.011 A 
ATOM     33  H   UNL     1      -6.020  -5.985   3.911  1.00  0.00     0.166 HD
ATOM     34  C   UNL     1      -3.308  -5.709   4.863  1.00  0.00     0.026 A 
ATOM     35  C   UNL     1      -1.179  -6.134   3.789  1.00  0.00     0.001 A 
ATOM     36  C   UNL     1      -1.914  -5.699   4.890  1.00  0.00     0.002 A 
ENDBRANCH   8  27
ENDBRANCH   5   8
ENDBRANCH   3   4
ENDBRANCH   2   3
ENDBRANCH   1   2
BRANCH   1  37
ATOM     37  C   UNL     1      -2.673  -1.466  -4.641  1.00  0.00     0.116 C 
BRANCH  37  38
ATOM     38  N   UNL     1      -3.440  -0.354  -5.185  1.00  0.00    -0.352 N 
ATOM     39  C   UNL     1      -2.998   0.720  -5.927  1.00  0.00     0.251 C 
ATOM     40  H   UNL     1      -4.406  -0.372  -4.997  1.00  0.00     0.163 HD
ATOM     41  O   UNL     1      -3.747   1.659  -6.144  1.00  0.00    -0.269 OA
BRANCH  39  42
ATOM     42  C   UNL     1      -1.604   0.736  -6.435  1.00  0.00     0.039 A 
ATOM     43  C   UNL     1      -0.896   1.941  -6.451  1.00  0.00     0.014 A 
ATOM     44  C   UNL     1      -0.996  -0.436  -6.891  1.00  0.00     0.014 A 
ATOM     45  C   UNL     1       0.433   1.955  -6.880  1.00  0.00     0.010 A 
ATOM     46  C   UNL     1       0.354  -0.442  -7.206  1.00  0.00     0.010 A 
ATOM     47  C   UNL     1       1.076   0.758  -7.234  1.00  0.00    -0.014 A 
BRANCH  47  48
ATOM     48  C   UNL     1       2.488   0.735  -7.684  1.00  0.00     0.031 A 
ATOM     49  C   UNL     1       2.815   0.239  -9.070  1.00  0.00     0.074 A 
ATOM     50  C   UNL     1       3.466   1.091  -6.829  1.00  0.00     0.049 A 
ATOM     51  N   UNL     1       3.983   0.059  -9.627  1.00  0.00    -0.248 NA
ATOM     52  C   UNL     1       1.681  -0.141  -9.931  1.00  0.00     0.031 C 
ATOM     53  C   UNL     1       3.264   1.522  -5.442  1.00  0.00     0.029 A 
ATOM     54  N   UNL     1       4.827   1.137  -6.992  1.00  0.00    -0.354 N 
ATOM     55  C   UNL     1       3.724  -0.473 -10.885  1.00  0.00     0.074 A 
ATOM     56  C   UNL     1       2.295  -0.645 -10.991  1.00  0.00     0.031 C 
ATOM     57  C   UNL     1       4.454   1.814  -4.893  1.00  0.00     0.029 A 
ATOM     58  C   UNL     1       5.505   1.549  -5.869  1.00  0.00     0.049 A 
ATOM     59  H   UNL     1       5.276   0.897  -7.835  1.00  0.00     0.167 HD
ATOM     60  C   UNL     1       4.601  -0.765 -11.874  1.00  0.00     0.037 A 
ATOM     61  C   UNL     1       6.828   1.685  -5.652  1.00  0.00     0.037 A 
ATOM     62  C   UNL     1       6.018  -0.542 -11.770  1.00  0.00     0.049 A 
ATOM     63  C   UNL     1       7.779   1.375  -6.779  1.00  0.00     0.074 A 
ATOM     64  C   UNL     1       6.989  -0.725 -12.737  1.00  0.00     0.029 A 
ATOM     65  N   UNL     1       6.664  -0.082 -10.632  1.00  0.00    -0.354 N 
ATOM     66  N   UNL     1       7.509   0.950  -7.991  1.00  0.00    -0.248 NA
ATOM     67  C   UNL     1       9.210   1.570  -6.515  1.00  0.00     0.031 C 
ATOM     68  C   UNL     1       8.230  -0.428 -12.167  1.00  0.00     0.029 A 
ATOM     69  C   UNL     1       8.025   0.002 -10.864  1.00  0.00     0.049 A 
ATOM     70  H   UNL     1       6.220   0.151  -9.784  1.00  0.00     0.167 HD
ATOM     71  C   UNL     1       8.734   0.858  -8.643  1.00  0.00     0.074 A 
ATOM     72  C   UNL     1       9.742   1.288  -7.696  1.00  0.00     0.031 C 
ATOM     73  C   UNL     1       9.004   0.452  -9.908  1.00  0.00     0.037 A 
BRANCH  60  74
ATOM     74  C   UNL     1       4.063  -1.338 -13.157  1.00  0.00     0.058 A 
ATOM     75  C   UNL     1       3.303  -0.567 -14.050  1.00  0.00     0.135 A 
ATOM     76  C   UNL     1       4.377  -2.654 -13.534  1.00  0.00     0.135 A 
ATOM     77  F   UNL     1       2.954   0.690 -13.732  1.00  0.00    -0.206 F 
ATOM     78  C   UNL     1       2.866  -1.081 -15.267  1.00  0.00     0.059 A 
ATOM     79  C   UNL     1       3.977  -3.179 -14.759  1.00  0.00     0.059 A 
ATOM     80  F   UNL     1       5.094  -3.439 -12.715  1.00  0.00    -0.206 F 
ATOM     81  C   UNL     1       3.218  -2.385 -15.618  1.00  0.00     0.060 A 
BRANCH  81  82
ATOM     82  S   UNL     1       2.691  -3.014 -17.225  1.00  0.00     0.124 S 
ATOM     83  O   UNL     1       1.252  -3.161 -17.024  1.00  0.00    -0.237 OA
ATOM     84  O   UNL     1       3.098  -1.941 -18.126  1.00  0.00    -0.237 OA
ATOM     85  O   UNL     1       3.434  -4.263 -17.364  1.00  0.00    -0.744 OA
ENDBRANCH  81  82
ENDBRANCH  60  74
BRANCH  61  86
ATOM     86  C   UNL     1       7.333   2.141  -4.328  1.00  0.00     0.058 A 
ATOM     87  C   UNL     1       7.973   3.382  -4.182  1.00  0.00     0.135 A 
ATOM     88  C   UNL     1       7.204   1.338  -3.183  1.00  0.00     0.135 A 
ATOM     89  F   UNL     1       8.120   4.188  -5.245  1.00  0.00    -0.206 F 
ATOM     90  C   UNL     1       8.502   3.793  -2.963  1.00  0.00     0.059 A 
ATOM     91  C   UNL     1       7.696   1.742  -1.946  1.00  0.00     0.059 A 
ATOM     92  F   UNL     1       6.579   0.153  -3.257  1.00  0.00    -0.206 F 
ATOM     93  C   UNL     1       8.361   2.962  -1.850  1.00  0.00     0.060 A 
BRANCH  93  94
ATOM     94  S   UNL     1       9.043   3.508  -0.270  1.00  0.00     0.124 S 
ATOM     95  O   UNL     1      10.475   3.350  -0.499  1.00  0.00    -0.237 OA
ATOM     96  O   UNL     1       8.556   4.881  -0.184  1.00  0.00    -0.237 OA
ATOM     97  O   UNL     1       8.450   2.579   0.688  1.00  0.00    -0.744 OA
ENDBRANCH  93  94
ENDBRANCH  61  86
BRANCH  73  98
ATOM     98  C   UNL     1      10.438   0.499 -10.358  1.00  0.00     0.058 A 
ATOM     99  C   UNL     1      11.395  -0.406  -9.876  1.00  0.00     0.135 A 
ATOM    100  C   UNL     1      10.842   1.428 -11.332  1.00  0.00     0.135 A 
ATOM    101  F   UNL     1      11.060  -1.310  -8.941  1.00  0.00    -0.206 F 
ATOM    102  C   UNL     1      12.710  -0.375 -10.323  1.00  0.00     0.059 A 
ATOM    103  C   UNL     1      12.143   1.454 -11.818  1.00  0.00     0.059 A 
ATOM    104  F   UNL     1       9.961   2.307 -11.836  1.00  0.00    -0.206 F 
ATOM    105  C   UNL     1      13.074   0.556 -11.298  1.00  0.00     0.060 A 
BRANCH 105 106
ATOM    106  S   UNL     1      14.777   0.562 -11.894  1.00  0.00     0.124 S 
ATOM    107  O   UNL     1      15.486   1.129 -10.752  1.00  0.00    -0.237 OA
ATOM    108  O   UNL     1      15.021  -0.854 -12.153  1.00  0.00    -0.237 OA
ATOM    109  O   UNL     1      14.720   1.410 -13.081  1.00  0.00    -0.744 OA
ENDBRANCH 105 106
ENDBRANCH  73  98
ENDBRANCH  47  48
ENDBRANCH  39  42
ENDBRANCH  37  38
ENDBRANCH   1  37
TORSDOF 17
