REMARK SMILES O=C(NCCCCNC(=O)[C@H]1C[C@@H](O)CN1C(=O)C[C@@H]1CSCC[NH2+]1)c1ccc(-c2c3nc(c(-c4c(F)cc(S(=O)(=O)[O-])cc4F)c4ccc([nH]4)c(-c4c(F)cc(S(=O)(=O)[O-])cc4F)c4nc(c(-c5c(F)cc(S(=O)(=O)[O-])cc5F)c5ccc2[nH]5)C=C4)C=C3)cc1
REMARK SMILES IDX 5 1 4 2 3 3 1 4 2 5 26 7 27 8 91 9 28 10 90 11 29 12 30 13
REMARK SMILES IDX 31 14 84 15 32 16 89 17 83 18 85 19 33 20 88 21 82 22 81 23
REMARK SMILES IDX 34 25 68 26 47 27 67 28 48 29 51 30 66 31 86 32 49 33 50 34
REMARK SMILES IDX 65 36 87 37 52 38 35 39 36 40 45 41 37 42 38 43 44 44 46 45
REMARK SMILES IDX 39 46 40 47 41 48 42 49 43 50 69 51 70 52 79 53 71 54 72 55
REMARK SMILES IDX 78 56 80 57 73 58 74 59 75 60 76 61 77 62 53 63 54 64 63 65
REMARK SMILES IDX 55 66 56 67 62 68 64 69 57 70 58 71 59 72 60 73 61 74 6 75
REMARK SMILES IDX 7 76 8 77 9 78 10 80 11 81 12 82 16 83 13 84 15 85 17 86
REMARK SMILES IDX 18 87 19 88 20 89 21 90 25 91 22 92 24 93 23 96 14 97
REMARK H PARENT 3 6 85 24 51 35 8 79 25 94 25 95 14 98
REMARK Flexibility Score: inf
ROOT
ATOM      1  C   UNL     1       4.972  -1.857  -1.664  1.00  0.00     0.023 C 
ENDROOT
BRANCH   1   2
ATOM      2  C   UNL     1       4.595  -0.416  -1.333  1.00  0.00     0.116 C 
BRANCH   2   3
ATOM      3  N   UNL     1       3.161  -0.214  -1.194  1.00  0.00    -0.352 N 
ATOM      4  O   UNL     1       1.180   0.024  -0.153  1.00  0.00    -0.269 OA
ATOM      5  C   UNL     1       2.399   0.022  -0.069  1.00  0.00     0.251 C 
ATOM      6  H   UNL     1       2.654  -0.251  -2.037  1.00  0.00     0.163 HD
BRANCH   5   7
ATOM      7  C   UNL     1       3.056   0.238   1.242  1.00  0.00     0.039 A 
ATOM      8  C   UNL     1       4.154   1.090   1.362  1.00  0.00     0.014 A 
ATOM      9  C   UNL     1       2.556  -0.417   2.372  1.00  0.00     0.014 A 
ATOM     10  C   UNL     1       4.859   1.145   2.560  1.00  0.00     0.010 A 
ATOM     11  C   UNL     1       3.210  -0.282   3.603  1.00  0.00     0.010 A 
ATOM     12  C   UNL     1       4.392   0.467   3.698  1.00  0.00    -0.014 A 
BRANCH  12  13
ATOM     13  C   UNL     1       5.133   0.606   4.980  1.00  0.00     0.031 A 
ATOM     14  C   UNL     1       5.787  -0.579   5.639  1.00  0.00     0.074 A 
ATOM     15  C   UNL     1       5.244   1.831   5.531  1.00  0.00     0.049 A 
ATOM     16  N   UNL     1       6.488  -0.621   6.744  1.00  0.00    -0.248 NA
ATOM     17  C   UNL     1       5.628  -1.887   4.984  1.00  0.00     0.031 C 
ATOM     18  C   UNL     1       4.637   3.052   4.994  1.00  0.00     0.029 A 
ATOM     19  N   UNL     1       5.917   2.260   6.646  1.00  0.00    -0.354 N 
ATOM     20  C   UNL     1       6.834  -1.955   6.930  1.00  0.00     0.074 A 
ATOM     21  C   UNL     1       6.249  -2.696   5.833  1.00  0.00     0.031 C 
ATOM     22  C   UNL     1       5.003   4.096   5.750  1.00  0.00     0.029 A 
ATOM     23  C   UNL     1       5.818   3.615   6.859  1.00  0.00     0.049 A 
ATOM     24  H   UNL     1       6.421   1.656   7.237  1.00  0.00     0.167 HD
ATOM     25  C   UNL     1       7.576  -2.507   7.922  1.00  0.00     0.037 A 
ATOM     26  C   UNL     1       6.312   4.387   7.845  1.00  0.00     0.037 A 
ATOM     27  C   UNL     1       8.176  -1.758   8.997  1.00  0.00     0.049 A 
ATOM     28  C   UNL     1       7.137   3.751   8.925  1.00  0.00     0.074 A 
ATOM     29  C   UNL     1       8.979  -2.222  10.025  1.00  0.00     0.029 A 
ATOM     30  N   UNL     1       8.041  -0.390   9.186  1.00  0.00    -0.354 N 
ATOM     31  N   UNL     1       7.474   2.492   9.068  1.00  0.00    -0.248 NA
ATOM     32  C   UNL     1       7.645   4.637   9.980  1.00  0.00     0.031 C 
ATOM     33  C   UNL     1       9.297  -1.142  10.856  1.00  0.00     0.029 A 
ATOM     34  C   UNL     1       8.729   0.003  10.323  1.00  0.00     0.049 A 
ATOM     35  H   UNL     1       7.531   0.213   8.598  1.00  0.00     0.167 HD
ATOM     36  C   UNL     1       8.239   2.434  10.225  1.00  0.00     0.074 A 
ATOM     37  C   UNL     1       8.335   3.789  10.731  1.00  0.00     0.031 C 
ATOM     38  C   UNL     1       8.808   1.355  10.817  1.00  0.00     0.037 A 
BRANCH  25  39
ATOM     39  C   UNL     1       7.772  -3.999   7.906  1.00  0.00     0.058 A 
ATOM     40  C   UNL     1       8.630  -4.624   6.988  1.00  0.00     0.135 A 
ATOM     41  C   UNL     1       7.136  -4.810   8.861  1.00  0.00     0.135 A 
ATOM     42  F   UNL     1       9.254  -3.899   6.045  1.00  0.00    -0.206 F 
ATOM     43  C   UNL     1       8.836  -6.000   7.004  1.00  0.00     0.059 A 
ATOM     44  C   UNL     1       7.344  -6.185   8.910  1.00  0.00     0.059 A 
ATOM     45  F   UNL     1       6.305  -4.264   9.764  1.00  0.00    -0.206 F 
ATOM     46  C   UNL     1       8.187  -6.774   7.969  1.00  0.00     0.060 A 
BRANCH  46  47
ATOM     47  S   UNL     1       8.470  -8.557   7.983  1.00  0.00     0.124 S 
ATOM     48  O   UNL     1       7.689  -8.984   6.825  1.00  0.00    -0.237 OA
ATOM     49  O   UNL     1       9.919  -8.646   7.836  1.00  0.00    -0.237 OA
ATOM     50  O   UNL     1       7.948  -8.975   9.280  1.00  0.00    -0.744 OA
ENDBRANCH  46  47
ENDBRANCH  25  39
BRANCH  26  51
ATOM     51  C   UNL     1       6.024   5.844   7.846  1.00  0.00     0.058 A 
ATOM     52  C   UNL     1       7.024   6.781   7.553  1.00  0.00     0.135 A 
ATOM     53  C   UNL     1       4.727   6.322   8.092  1.00  0.00     0.135 A 
ATOM     54  F   UNL     1       8.279   6.372   7.315  1.00  0.00    -0.206 F 
ATOM     55  C   UNL     1       6.751   8.144   7.506  1.00  0.00     0.059 A 
ATOM     56  C   UNL     1       4.424   7.677   8.025  1.00  0.00     0.059 A 
ATOM     57  F   UNL     1       3.732   5.462   8.358  1.00  0.00    -0.206 F 
ATOM     58  C   UNL     1       5.445   8.582   7.739  1.00  0.00     0.060 A 
BRANCH  58  59
ATOM     59  S   UNL     1       5.081  10.346   7.606  1.00  0.00     0.124 S 
ATOM     60  O   UNL     1       5.621  10.851   8.863  1.00  0.00    -0.237 OA
ATOM     61  O   UNL     1       5.811  10.722   6.400  1.00  0.00    -0.237 OA
ATOM     62  O   UNL     1       3.627  10.378   7.484  1.00  0.00    -0.744 OA
ENDBRANCH  58  59
ENDBRANCH  26  51
BRANCH  38  63
ATOM     63  C   UNL     1       9.596   1.601  12.072  1.00  0.00     0.058 A 
ATOM     64  C   UNL     1       8.962   1.879  13.293  1.00  0.00     0.135 A 
ATOM     65  C   UNL     1      10.997   1.527  12.059  1.00  0.00     0.135 A 
ATOM     66  F   UNL     1       7.624   1.969  13.354  1.00  0.00    -0.206 F 
ATOM     67  C   UNL     1       9.692   2.100  14.455  1.00  0.00     0.059 A 
ATOM     68  C   UNL     1      11.747   1.722  13.215  1.00  0.00     0.059 A 
ATOM     69  F   UNL     1      11.650   1.257  10.918  1.00  0.00    -0.206 F 
ATOM     70  C   UNL     1      11.085   2.021  14.406  1.00  0.00     0.060 A 
BRANCH  70  71
ATOM     71  S   UNL     1      12.024   2.286  15.925  1.00  0.00     0.124 S 
ATOM     72  O   UNL     1      11.961   3.738  16.058  1.00  0.00    -0.237 OA
ATOM     73  O   UNL     1      11.256   1.526  16.907  1.00  0.00    -0.237 OA
ATOM     74  O   UNL     1      13.340   1.740  15.610  1.00  0.00    -0.744 OA
ENDBRANCH  70  71
ENDBRANCH  38  63
ENDBRANCH  12  13
ENDBRANCH   5   7
ENDBRANCH   2   3
ENDBRANCH   1   2
BRANCH   1  75
ATOM     75  C   UNL     1       4.518  -2.373  -3.031  1.00  0.00     0.023 C 
BRANCH  75  76
ATOM     76  C   UNL     1       4.795  -1.454  -4.214  1.00  0.00     0.116 C 
BRANCH  76  77
ATOM     77  N   UNL     1       6.186  -1.073  -4.377  1.00  0.00    -0.354 N 
ATOM     78  C   UNL     1       6.773  -0.521  -5.486  1.00  0.00     0.242 C 
ATOM     79  H   UNL     1       6.774  -1.228  -3.603  1.00  0.00     0.163 HD
ATOM     80  O   UNL     1       7.862   0.046  -5.348  1.00  0.00    -0.273 OA
BRANCH  78  81
ATOM     81  C   UNL     1       6.031  -0.544  -6.846  1.00  0.00     0.177 C 
ATOM     82  C   UNL     1       4.832   0.409  -6.839  1.00  0.00     0.069 C 
ATOM     83  N   UNL     1       6.873   0.008  -7.926  1.00  0.00    -0.328 N 
ATOM     84  C   UNL     1       5.457   1.754  -7.189  1.00  0.00     0.136 C 
ATOM     85  C   UNL     1       6.481   1.372  -8.246  1.00  0.00     0.152 C 
BRANCH  83  86
ATOM     86  C   UNL     1       7.826  -0.745  -8.572  1.00  0.00     0.229 C 
ATOM     87  O   UNL     1       7.938  -1.955  -8.371  1.00  0.00    -0.275 OA
BRANCH  86  88
ATOM     88  C   UNL     1       8.752  -0.041  -9.559  1.00  0.00     0.166 C 
BRANCH  88  89
ATOM     89  C   UNL     1       8.221  -0.022 -11.013  1.00  0.00     0.201 C 
ATOM     90  C   UNL     1       9.330  -0.367 -12.036  1.00  0.00     0.135 C 
ATOM     91  N   UNL     1       7.536   1.216 -11.450  1.00  0.00    -0.342 N 
ATOM     92  S   UNL     1      10.628   0.915 -12.162  1.00  0.00    -0.150 SA
ATOM     93  C   UNL     1       8.384   2.412 -11.442  1.00  0.00     0.271 C 
ATOM     94  H   UNL     1       6.746   1.382 -10.826  1.00  0.00     0.346 HD
ATOM     95  H   UNL     1       7.253   1.067 -12.418  1.00  0.00     0.346 HD
ATOM     96  C   UNL     1       9.536   2.345 -12.447  1.00  0.00     0.131 C 
ENDBRANCH  88  89
ENDBRANCH  86  88
ENDBRANCH  83  86
BRANCH  84  97
ATOM     97  O   UNL     1       6.067   2.349  -6.050  1.00  0.00    -0.391 OA
ATOM     98  H   UNL     1       6.726   1.740  -5.681  1.00  0.00     0.211 HD
ENDBRANCH  84  97
ENDBRANCH  78  81
ENDBRANCH  76  77
ENDBRANCH  75  76
ENDBRANCH   1  75
TORSDOF 18
