REMARK SMILES COc1ccc(CCN2C(=O)CC[C@@H](C(=O)NCCCCNC(=O)c3ccc(-c4c5nc(c(-c6c(F)cc(S(=O)(=O)[O-])cc6F)c6ccc([nH]6)c(-c6c(F)cc(S(=O)(=O)[O-])cc6F)c6nc(c(-c7c(F)cc(S(=O)(=O)[O-])cc7F)c7ccc4[nH]7)C=C6)C=C5)cc3)[C@@H]2c2ccc(Cl)cc2)cc1OC
REMARK SMILES IDX 19 1 18 2 17 3 15 4 16 5 14 7 9 8 10 9 91 10 11 11 12 12
REMARK SMILES IDX 13 13 8 14 7 15 6 16 3 17 4 18 100 19 5 20 99 21 2 22 1 23
REMARK SMILES IDX 101 24 102 25 92 26 93 27 98 28 94 29 97 30 95 31 96 32
REMARK SMILES IDX 20 33 21 34 22 35 23 36 24 38 25 39 26 40 90 41 27 42 89 43
REMARK SMILES IDX 28 44 29 45 30 46 83 47 31 48 88 49 82 50 84 51 32 52 87 53
REMARK SMILES IDX 81 54 80 55 33 57 67 58 46 59 66 60 47 61 50 62 65 63 85 64
REMARK SMILES IDX 48 65 49 66 64 68 86 69 51 70 34 71 35 72 44 73 36 74 37 75
REMARK SMILES IDX 43 76 45 77 38 78 39 79 40 80 41 81 42 82 68 83 69 84 78 85
REMARK SMILES IDX 70 86 71 87 77 88 79 89 72 90 73 91 74 92 75 93 76 94 52 95
REMARK SMILES IDX 53 96 62 97 54 98 55 99 61 100 63 101 56 102 57 103 58 104
REMARK SMILES IDX 59 105 60 106
REMARK H PARENT 17 6 22 37 84 56 50 67
REMARK Flexibility Score: inf
ROOT
ATOM      1  C   UNL     1       1.660   4.911   1.142  1.00  0.00     0.023 C 
ENDROOT
BRANCH   1   2
ATOM      2  C   UNL     1       0.856   6.204   1.259  1.00  0.00     0.116 C 
BRANCH   2   3
ATOM      3  N   UNL     1      -0.573   5.955   1.145  1.00  0.00    -0.356 N 
ATOM      4  C   UNL     1      -1.615   5.821   1.993  1.00  0.00     0.225 C 
ATOM      5  O   UNL     1      -2.691   5.526   1.449  1.00  0.00    -0.275 OA
ATOM      6  H   UNL     1      -0.853   5.860   0.206  1.00  0.00     0.163 HD
BRANCH   4   7
ATOM      7  C   UNL     1      -1.626   6.048   3.511  1.00  0.00     0.106 C 
ATOM      8  N   UNL     1       0.701   6.010   4.496  1.00  0.00    -0.335 N 
ATOM      9  C   UNL     1       0.760   7.404   4.531  1.00  0.00     0.223 C 
ATOM     10  C   UNL     1      -0.575   5.311   4.339  1.00  0.00     0.128 C 
ATOM     11  O   UNL     1       1.771   8.005   4.900  1.00  0.00    -0.275 OA
ATOM     12  C   UNL     1      -0.407   8.199   3.962  1.00  0.00     0.101 C 
ATOM     13  C   UNL     1      -1.746   7.502   3.916  1.00  0.00     0.026 C 
BRANCH   8  14
ATOM     14  C   UNL     1       1.944   5.262   4.837  1.00  0.00     0.125 C 
BRANCH  14  15
ATOM     15  C   UNL     1       1.944   3.730   5.126  1.00  0.00     0.057 C 
BRANCH  15  16
ATOM     16  C   UNL     1       1.813   2.767   3.962  1.00  0.00    -0.042 A 
ATOM     17  C   UNL     1       1.505   1.163   1.640  1.00  0.00     0.160 A 
ATOM     18  C   UNL     1       0.413   1.449   2.459  1.00  0.00     0.051 A 
ATOM     19  C   UNL     1       2.780   1.592   2.043  1.00  0.00     0.160 A 
ATOM     20  C   UNL     1       0.584   2.187   3.633  1.00  0.00     0.008 A 
ATOM     21  C   UNL     1       2.919   2.412   3.180  1.00  0.00     0.054 A 
BRANCH  17  22
ATOM     22  O   UNL     1       1.377   0.551   0.424  1.00  0.00    -0.493 OA
ATOM     23  C   UNL     1       0.227  -0.253   0.203  1.00  0.00     0.278 C 
ENDBRANCH  17  22
BRANCH  19  24
ATOM     24  O   UNL     1       3.971   1.330   1.414  1.00  0.00    -0.493 OA
ATOM     25  C   UNL     1       4.018   0.186   0.566  1.00  0.00     0.278 C 
ENDBRANCH  19  24
ENDBRANCH  15  16
ENDBRANCH  14  15
ENDBRANCH   8  14
BRANCH  10  26
ATOM     26  C   UNL     1      -1.106   4.852   5.715  1.00  0.00    -0.025 A 
ATOM     27  C   UNL     1      -0.643   5.411   6.924  1.00  0.00     0.007 A 
ATOM     28  C   UNL     1      -1.977   3.751   5.794  1.00  0.00     0.007 A 
ATOM     29  C   UNL     1      -0.932   4.813   8.154  1.00  0.00     0.021 A 
ATOM     30  C   UNL     1      -2.270   3.155   7.026  1.00  0.00     0.021 A 
ATOM     31  C   UNL     1      -1.723   3.672   8.197  1.00  0.00     0.041 A 
ATOM     32  Cl  UNL     1      -2.000   2.879   9.698  1.00  0.00    -0.084 Cl
ENDBRANCH  10  26
ENDBRANCH   4   7
ENDBRANCH   2   3
ENDBRANCH   1   2
BRANCH   1  33
ATOM     33  C   UNL     1       2.621   4.845  -0.041  1.00  0.00     0.023 C 
BRANCH  33  34
ATOM     34  C   UNL     1       3.763   5.853  -0.003  1.00  0.00     0.116 C 
BRANCH  34  35
ATOM     35  N   UNL     1       4.731   5.640   1.066  1.00  0.00    -0.352 N 
ATOM     36  C   UNL     1       6.112   5.727   1.012  1.00  0.00     0.251 C 
ATOM     37  H   UNL     1       4.353   5.402   1.944  1.00  0.00     0.163 HD
ATOM     38  O   UNL     1       6.792   5.474   1.993  1.00  0.00    -0.269 OA
BRANCH  36  39
ATOM     39  C   UNL     1       6.754   6.077  -0.279  1.00  0.00     0.039 A 
ATOM     40  C   UNL     1       7.774   5.261  -0.775  1.00  0.00     0.014 A 
ATOM     41  C   UNL     1       6.267   7.135  -1.046  1.00  0.00     0.014 A 
ATOM     42  C   UNL     1       8.217   5.434  -2.090  1.00  0.00     0.010 A 
ATOM     43  C   UNL     1       6.627   7.232  -2.384  1.00  0.00     0.010 A 
ATOM     44  C   UNL     1       7.598   6.376  -2.929  1.00  0.00    -0.014 A 
BRANCH  44  45
ATOM     45  C   UNL     1       7.929   6.486  -4.376  1.00  0.00     0.031 A 
ATOM     46  C   UNL     1       8.408   7.799  -4.938  1.00  0.00     0.074 A 
ATOM     47  C   UNL     1       7.704   5.444  -5.204  1.00  0.00     0.049 A 
ATOM     48  N   UNL     1       8.609   8.144  -6.183  1.00  0.00    -0.248 NA
ATOM     49  C   UNL     1       8.644   8.884  -3.971  1.00  0.00     0.031 C 
ATOM     50  C   UNL     1       7.176   4.136  -4.804  1.00  0.00     0.029 A 
ATOM     51  N   UNL     1       7.880   5.323  -6.561  1.00  0.00    -0.354 N 
ATOM     52  C   UNL     1       8.958   9.489  -6.151  1.00  0.00     0.074 A 
ATOM     53  C   UNL     1       8.879   9.913  -4.770  1.00  0.00     0.031 C 
ATOM     54  C   UNL     1       7.108   3.337  -5.882  1.00  0.00     0.029 A 
ATOM     55  C   UNL     1       7.546   4.083  -7.057  1.00  0.00     0.049 A 
ATOM     56  H   UNL     1       8.213   6.056  -7.127  1.00  0.00     0.167 HD
ATOM     57  C   UNL     1       9.344  10.293  -7.170  1.00  0.00     0.037 A 
ATOM     58  C   UNL     1       7.588   3.602  -8.315  1.00  0.00     0.037 A 
ATOM     59  C   UNL     1       9.481   9.853  -8.532  1.00  0.00     0.049 A 
ATOM     60  C   UNL     1       8.062   4.499  -9.426  1.00  0.00     0.074 A 
ATOM     61  C   UNL     1       9.931  10.568  -9.628  1.00  0.00     0.029 A 
ATOM     62  N   UNL     1       9.183   8.575  -8.982  1.00  0.00    -0.354 N 
ATOM     63  N   UNL     1       8.436   5.755  -9.368  1.00  0.00    -0.248 NA
ATOM     64  C   UNL     1       8.124   3.913 -10.773  1.00  0.00     0.031 C 
ATOM     65  C   UNL     1       9.883   9.727 -10.746  1.00  0.00     0.029 A 
ATOM     66  C   UNL     1       9.437   8.480 -10.340  1.00  0.00     0.049 A 
ATOM     67  H   UNL     1       8.842   7.843  -8.419  1.00  0.00     0.167 HD
ATOM     68  C   UNL     1       8.803   6.102 -10.664  1.00  0.00     0.074 A 
ATOM     69  C   UNL     1       8.615   4.921 -11.482  1.00  0.00     0.031 C 
ATOM     70  C   UNL     1       9.256   7.291 -11.133  1.00  0.00     0.037 A 
BRANCH  57  71
ATOM     71  C   UNL     1       9.666  11.724  -6.835  1.00  0.00     0.058 A 
ATOM     72  C   UNL     1      10.803  12.064  -6.084  1.00  0.00     0.135 A 
ATOM     73  C   UNL     1       8.830  12.767  -7.264  1.00  0.00     0.135 A 
ATOM     74  F   UNL     1      11.628  11.105  -5.634  1.00  0.00    -0.206 F 
ATOM     75  C   UNL     1      11.074  13.380  -5.729  1.00  0.00     0.059 A 
ATOM     76  C   UNL     1       9.098  14.095  -6.946  1.00  0.00     0.059 A 
ATOM     77  F   UNL     1       7.731  12.500  -7.987  1.00  0.00    -0.206 F 
ATOM     78  C   UNL     1      10.212  14.389  -6.159  1.00  0.00     0.060 A 
BRANCH  78  79
ATOM     79  S   UNL     1      10.565  16.092  -5.675  1.00  0.00     0.124 S 
ATOM     80  O   UNL     1      10.131  16.092  -4.281  1.00  0.00    -0.237 OA
ATOM     81  O   UNL     1      12.005  16.188  -5.889  1.00  0.00    -0.237 OA
ATOM     82  O   UNL     1       9.745  16.881  -6.588  1.00  0.00    -0.744 OA
ENDBRANCH  78  79
ENDBRANCH  57  71
BRANCH  58  83
ATOM     83  C   UNL     1       7.213   2.188  -8.586  1.00  0.00     0.058 A 
ATOM     84  C   UNL     1       8.196   1.237  -8.901  1.00  0.00     0.135 A 
ATOM     85  C   UNL     1       5.881   1.754  -8.526  1.00  0.00     0.135 A 
ATOM     86  F   UNL     1       9.484   1.605  -8.979  1.00  0.00    -0.206 F 
ATOM     87  C   UNL     1       7.872  -0.091  -9.160  1.00  0.00     0.059 A 
ATOM     88  C   UNL     1       5.533   0.425  -8.759  1.00  0.00     0.059 A 
ATOM     89  F   UNL     1       4.905   2.620  -8.213  1.00  0.00    -0.206 F 
ATOM     90  C   UNL     1       6.536  -0.488  -9.084  1.00  0.00     0.060 A 
BRANCH  90  91
ATOM     91  S   UNL     1       6.131  -2.226  -9.369  1.00  0.00     0.124 S 
ATOM     92  O   UNL     1       6.262  -2.324 -10.818  1.00  0.00    -0.237 OA
ATOM     93  O   UNL     1       7.154  -2.913  -8.586  1.00  0.00    -0.237 OA
ATOM     94  O   UNL     1       4.772  -2.341  -8.847  1.00  0.00    -0.744 OA
ENDBRANCH  90  91
ENDBRANCH  58  83
BRANCH  70  95
ATOM     95  C   UNL     1       9.614   7.366 -12.590  1.00  0.00     0.058 A 
ATOM     96  C   UNL     1       8.629   7.425 -13.587  1.00  0.00     0.135 A 
ATOM     97  C   UNL     1      10.959   7.441 -12.986  1.00  0.00     0.135 A 
ATOM     98  F   UNL     1       7.329   7.351 -13.259  1.00  0.00    -0.206 F 
ATOM     99  C   UNL     1       8.966   7.537 -14.932  1.00  0.00     0.059 A 
ATOM    100  C   UNL     1      11.317   7.577 -14.323  1.00  0.00     0.059 A 
ATOM    101  F   UNL     1      11.938   7.399 -12.069  1.00  0.00    -0.206 F 
ATOM    102  C   UNL     1      10.313   7.614 -15.290  1.00  0.00     0.060 A 
BRANCH 102 103
ATOM    103  S   UNL     1      10.737   7.802 -17.035  1.00  0.00     0.124 S 
ATOM    104  O   UNL     1      10.522   6.449 -17.536  1.00  0.00    -0.237 OA
ATOM    105  O   UNL     1       9.777   8.806 -17.485  1.00  0.00    -0.237 OA
ATOM    106  O   UNL     1      12.127   8.246 -17.000  1.00  0.00    -0.744 OA
ENDBRANCH 102 103
ENDBRANCH  70  95
ENDBRANCH  44  45
ENDBRANCH  36  39
ENDBRANCH  34  35
ENDBRANCH  33  34
ENDBRANCH   1  33
TORSDOF 20
