REMARK SMILES COc1ccc(-c2ccc3n(c2=O)C[C@H]2C[C@@H]3CN(C(=O)CCCC(=O)NCCCCNC(=O)c3ccc(-c4c5nc(c(-c6c(F)cc(S(=O)(=O)[O-])cc6F)c6ccc([nH]6)c(-c6c(F)cc(S(=O)(=O)[O-])cc6F)c6nc(c(-c7c(F)cc(S(=O)(=O)[O-])cc7F)c7ccc4[nH]7)C=C6)C=C5)cc3)C2)cc1
REMARK SMILES IDX 28 1 27 2 25 3 26 4 24 6 23 7 22 8 20 9 21 10 19 11 7 12
REMARK SMILES IDX 8 13 12 14 9 15 11 16 13 17 10 18 14 19 17 20 15 21 16 22
REMARK SMILES IDX 18 23 101 24 6 25 3 26 4 27 103 28 5 29 102 30 2 31 1 32
REMARK SMILES IDX 29 33 30 34 31 35 32 36 33 37 34 39 35 40 36 41 100 42 37 43
REMARK SMILES IDX 99 44 38 45 39 46 40 47 93 48 41 49 98 50 92 51 94 52 42 53
REMARK SMILES IDX 97 54 91 55 90 56 43 58 77 59 56 60 76 61 57 62 60 63 75 64
REMARK SMILES IDX 95 65 58 66 59 67 74 69 96 70 61 71 44 72 45 73 54 74 46 75
REMARK SMILES IDX 47 76 53 77 55 78 48 79 49 80 50 81 51 82 52 83 78 84 79 85
REMARK SMILES IDX 88 86 80 87 81 88 87 89 89 90 82 91 83 92 84 93 85 94 86 95
REMARK SMILES IDX 62 96 63 97 72 98 64 99 65 100 71 101 73 102 66 103 67 104
REMARK SMILES IDX 68 105 69 106 70 107
REMARK H PARENT 27 5 32 38 94 57 60 68
REMARK Flexibility Score: inf
ROOT
ATOM      1  C   UNL     1      -1.756  10.121   8.649  1.00  0.00     0.116 C 
ENDROOT
BRANCH   1   2
ATOM      2  N   UNL     1      -2.844   9.205   8.404  1.00  0.00    -0.356 N 
ATOM      3  C   UNL     1      -3.022   8.179   7.538  1.00  0.00     0.220 C 
ATOM      4  O   UNL     1      -4.011   7.466   7.753  1.00  0.00    -0.275 OA
ATOM      5  H   UNL     1      -3.621   9.359   8.989  1.00  0.00     0.163 HD
BRANCH   3   6
ATOM      6  C   UNL     1      -2.075   7.803   6.400  1.00  0.00     0.100 C 
BRANCH   6   7
ATOM      7  C   UNL     1      -1.733   8.811   5.311  1.00  0.00     0.020 C 
BRANCH   7   8
ATOM      8  C   UNL     1      -0.572   9.791   5.468  1.00  0.00     0.101 C 
BRANCH   8   9
ATOM      9  C   UNL     1       0.881   9.320   5.398  1.00  0.00     0.222 C 
ATOM     10  O   UNL     1       1.454   9.407   4.304  1.00  0.00    -0.275 OA
BRANCH   9  11
ATOM     11  N   UNL     1       1.589   8.968   6.543  1.00  0.00    -0.342 N 
ATOM     12  C   UNL     1       2.348   4.763   4.030  1.00  0.00     0.047 A 
ATOM     13  C   UNL     1       3.421   5.537   3.797  1.00  0.00     0.016 A 
ATOM     14  C   UNL     1       1.642   4.889   5.353  1.00  0.00     0.258 A 
ATOM     15  C   UNL     1       3.896   6.475   4.774  1.00  0.00     0.023 A 
ATOM     16  N   UNL     1       2.143   5.851   6.243  1.00  0.00    -0.311 N 
ATOM     17  O   UNL     1       0.679   4.169   5.620  1.00  0.00    -0.269 OA
ATOM     18  C   UNL     1       3.265   6.628   5.949  1.00  0.00     0.026 A 
ATOM     19  C   UNL     1       1.469   5.951   7.536  1.00  0.00     0.131 C 
ATOM     20  C   UNL     1       3.704   7.715   6.915  1.00  0.00     0.056 C 
ATOM     21  C   UNL     1       1.783   7.210   8.353  1.00  0.00     0.029 C 
ATOM     22  C   UNL     1       3.291   7.402   8.354  1.00  0.00     0.019 C 
ATOM     23  C   UNL     1       3.053   9.046   6.495  1.00  0.00     0.129 C 
ATOM     24  C   UNL     1       1.074   8.473   7.818  1.00  0.00     0.125 C 
BRANCH  12  25
ATOM     25  C   UNL     1       1.881   3.826   2.995  1.00  0.00    -0.013 A 
ATOM     26  C   UNL     1       0.988   2.013   1.038  1.00  0.00     0.118 A 
ATOM     27  C   UNL     1       0.136   3.006   1.522  1.00  0.00     0.047 A 
ATOM     28  C   UNL     1       2.297   1.940   1.514  1.00  0.00     0.047 A 
ATOM     29  C   UNL     1       0.574   3.903   2.500  1.00  0.00     0.013 A 
ATOM     30  C   UNL     1       2.739   2.840   2.488  1.00  0.00     0.013 A 
BRANCH  26  31
ATOM     31  O   UNL     1       0.447   1.188   0.089  1.00  0.00    -0.497 OA
ATOM     32  C   UNL     1       1.047  -0.098  -0.019  1.00  0.00     0.278 C 
ENDBRANCH  26  31
ENDBRANCH  12  25
ENDBRANCH   9  11
ENDBRANCH   8   9
ENDBRANCH   7   8
ENDBRANCH   6   7
ENDBRANCH   3   6
ENDBRANCH   1   2
BRANCH   1  33
ATOM     33  C   UNL     1      -2.132  11.587   8.447  1.00  0.00     0.023 C 
BRANCH  33  34
ATOM     34  C   UNL     1      -2.242  12.360   9.758  1.00  0.00     0.023 C 
BRANCH  34  35
ATOM     35  C   UNL     1      -0.942  12.468  10.553  1.00  0.00     0.116 C 
BRANCH  35  36
ATOM     36  N   UNL     1       0.085  13.280   9.911  1.00  0.00    -0.352 N 
ATOM     37  C   UNL     1       0.891  14.233  10.493  1.00  0.00     0.251 C 
ATOM     38  H   UNL     1       0.217  13.128   8.947  1.00  0.00     0.163 HD
ATOM     39  O   UNL     1       1.679  14.887   9.819  1.00  0.00    -0.269 OA
BRANCH  37  40
ATOM     40  C   UNL     1       0.751  14.486  11.943  1.00  0.00     0.039 A 
ATOM     41  C   UNL     1       0.413  15.770  12.376  1.00  0.00     0.014 A 
ATOM     42  C   UNL     1       0.832  13.426  12.850  1.00  0.00     0.014 A 
ATOM     43  C   UNL     1       0.062  15.970  13.713  1.00  0.00     0.010 A 
ATOM     44  C   UNL     1       0.406  13.614  14.161  1.00  0.00     0.010 A 
ATOM     45  C   UNL     1       0.006  14.885  14.604  1.00  0.00    -0.014 A 
BRANCH  45  46
ATOM     46  C   UNL     1      -0.487  15.053  15.996  1.00  0.00     0.031 A 
ATOM     47  C   UNL     1       0.426  14.771  17.158  1.00  0.00     0.074 A 
ATOM     48  C   UNL     1      -1.776  15.386  16.216  1.00  0.00     0.049 A 
ATOM     49  N   UNL     1       0.163  14.789  18.439  1.00  0.00    -0.248 NA
ATOM     50  C   UNL     1       1.809  14.385  16.834  1.00  0.00     0.031 C 
ATOM     51  C   UNL     1      -2.781  15.623  15.177  1.00  0.00     0.029 A 
ATOM     52  N   UNL     1      -2.466  15.574  17.389  1.00  0.00    -0.354 N 
ATOM     53  C   UNL     1       1.338  14.401  19.071  1.00  0.00     0.074 A 
ATOM     54  C   UNL     1       2.297  14.098  18.031  1.00  0.00     0.031 C 
ATOM     55  C   UNL     1      -3.948  15.951  15.757  1.00  0.00     0.029 A 
ATOM     56  C   UNL     1      -3.785  15.917  17.207  1.00  0.00     0.049 A 
ATOM     57  H   UNL     1      -2.054  15.473  18.277  1.00  0.00     0.167 HD
ATOM     58  C   UNL     1       1.604  14.330  20.397  1.00  0.00     0.037 A 
ATOM     59  C   UNL     1      -4.755  16.176  18.107  1.00  0.00     0.037 A 
ATOM     60  C   UNL     1       0.660  14.668  21.429  1.00  0.00     0.049 A 
ATOM     61  C   UNL     1      -4.428  16.119  19.575  1.00  0.00     0.074 A 
ATOM     62  C   UNL     1       0.852  14.690  22.799  1.00  0.00     0.029 A 
ATOM     63  N   UNL     1      -0.655  15.049  21.203  1.00  0.00    -0.354 N 
ATOM     64  N   UNL     1      -3.292  15.811  20.154  1.00  0.00    -0.248 NA
ATOM     65  C   UNL     1      -5.511  16.451  20.511  1.00  0.00     0.031 C 
ATOM     66  C   UNL     1      -0.356  15.054  23.404  1.00  0.00     0.029 A 
ATOM     67  C   UNL     1      -1.289  15.298  22.409  1.00  0.00     0.049 A 
ATOM     68  H   UNL     1      -1.075  15.131  20.317  1.00  0.00     0.167 HD
ATOM     69  C   UNL     1      -3.515  15.939  21.520  1.00  0.00     0.074 A 
ATOM     70  C   UNL     1      -4.892  16.362  21.680  1.00  0.00     0.031 C 
ATOM     71  C   UNL     1      -2.658  15.726  22.549  1.00  0.00     0.037 A 
BRANCH  58  72
ATOM     72  C   UNL     1       2.981  13.881  20.802  1.00  0.00     0.058 A 
ATOM     73  C   UNL     1       4.108  14.693  20.597  1.00  0.00     0.135 A 
ATOM     74  C   UNL     1       3.176  12.633  21.414  1.00  0.00     0.135 A 
ATOM     75  F   UNL     1       3.980  15.889  20.000  1.00  0.00    -0.206 F 
ATOM     76  C   UNL     1       5.385  14.269  20.949  1.00  0.00     0.059 A 
ATOM     77  C   UNL     1       4.441  12.199  21.801  1.00  0.00     0.059 A 
ATOM     78  F   UNL     1       2.134  11.816  21.634  1.00  0.00    -0.206 F 
ATOM     79  C   UNL     1       5.542  13.018  21.547  1.00  0.00     0.060 A 
BRANCH  79  80
ATOM     80  S   UNL     1       7.206  12.476  21.988  1.00  0.00     0.124 S 
ATOM     81  O   UNL     1       7.752  12.128  20.680  1.00  0.00    -0.237 OA
ATOM     82  O   UNL     1       7.769  13.668  22.613  1.00  0.00    -0.237 OA
ATOM     83  O   UNL     1       6.969  11.352  22.888  1.00  0.00    -0.744 OA
ENDBRANCH  79  80
ENDBRANCH  58  72
BRANCH  59  84
ATOM     84  C   UNL     1      -6.118  16.551  17.646  1.00  0.00     0.058 A 
ATOM     85  C   UNL     1      -6.585  17.867  17.778  1.00  0.00     0.135 A 
ATOM     86  C   UNL     1      -6.976  15.610  17.055  1.00  0.00     0.135 A 
ATOM     87  F   UNL     1      -5.804  18.801  18.342  1.00  0.00    -0.206 F 
ATOM     88  C   UNL     1      -7.858  18.236  17.356  1.00  0.00     0.059 A 
ATOM     89  C   UNL     1      -8.245  15.960  16.605  1.00  0.00     0.059 A 
ATOM     90  F   UNL     1      -6.570  14.341  16.890  1.00  0.00    -0.206 F 
ATOM     91  C   UNL     1      -8.681  17.274  16.768  1.00  0.00     0.060 A 
BRANCH  91  92
ATOM     92  S   UNL     1     -10.312  17.775  16.175  1.00  0.00     0.124 S 
ATOM     93  O   UNL     1     -11.052  17.904  17.425  1.00  0.00    -0.237 OA
ATOM     94  O   UNL     1     -10.015  19.022  15.476  1.00  0.00    -0.237 OA
ATOM     95  O   UNL     1     -10.710  16.664  15.316  1.00  0.00    -0.744 OA
ENDBRANCH  91  92
ENDBRANCH  59  84
BRANCH  71  96
ATOM     96  C   UNL     1      -3.172  15.979  23.939  1.00  0.00     0.058 A 
ATOM     97  C   UNL     1      -4.065  15.098  24.566  1.00  0.00     0.135 A 
ATOM     98  C   UNL     1      -2.724  17.093  24.669  1.00  0.00     0.135 A 
ATOM     99  F   UNL     1      -4.527  14.022  23.909  1.00  0.00    -0.206 F 
ATOM    100  C   UNL     1      -4.516  15.323  25.863  1.00  0.00     0.059 A 
ATOM    101  C   UNL     1      -3.143  17.324  25.975  1.00  0.00     0.059 A 
ATOM    102  F   UNL     1      -1.861  17.960  24.118  1.00  0.00    -0.206 F 
ATOM    103  C   UNL     1      -4.049  16.439  26.559  1.00  0.00     0.060 A 
BRANCH 103 104
ATOM    104  S   UNL     1      -4.616  16.705  28.253  1.00  0.00     0.124 S 
ATOM    105  O   UNL     1      -5.967  17.210  28.033  1.00  0.00    -0.237 OA
ATOM    106  O   UNL     1      -4.525  15.367  28.828  1.00  0.00    -0.237 OA
ATOM    107  O   UNL     1      -3.660  17.674  28.782  1.00  0.00    -0.744 OA
ENDBRANCH 103 104
ENDBRANCH  71  96
ENDBRANCH  45  46
ENDBRANCH  37  40
ENDBRANCH  35  36
ENDBRANCH  34  35
ENDBRANCH  33  34
ENDBRANCH   1  33
TORSDOF 20
