REMARK SMILES O=C1[NH+]=C(Nc2ccc(C(=O)NCCCCNC(=O)c3ccc(-c4c5nc(c(-c6c(F)cc(S(=O)(=O)[O-])cc6F)c6ccc([nH]6)c(-c6c(F)cc(S(=O)(=O)[O-])cc6F)c6nc(c(-c7c(F)cc(S(=O)(=O)[O-])cc7F)c7ccc4[nH]7)C=C6)C=C5)cc3)c(O)c2)S/C1=C\c1ccncc1
REMARK SMILES IDX 15 1 14 2 13 3 12 4 10 5 11 6 9 8 6 9 7 10 88 11 8 12 86 13
REMARK SMILES IDX 5 14 1 15 2 16 3 17 90 18 4 19 89 21 91 22 92 24 93 25 97 26
REMARK SMILES IDX 94 27 96 28 95 29 87 30 16 32 17 33 18 34 19 36 20 37 21 38
REMARK SMILES IDX 85 39 22 40 84 41 23 42 24 43 25 44 78 45 26 46 83 47 77 48
REMARK SMILES IDX 79 49 27 50 82 51 76 52 75 53 28 55 62 56 41 57 61 58 42 59
REMARK SMILES IDX 45 60 60 61 80 62 43 63 44 64 59 66 81 67 46 68 29 69 30 70
REMARK SMILES IDX 39 71 31 72 32 73 38 74 40 75 33 76 34 77 35 78 36 79 37 80
REMARK SMILES IDX 63 81 64 82 73 83 65 84 66 85 72 86 74 87 67 88 68 89 69 90
REMARK SMILES IDX 70 91 71 92 47 93 48 94 57 95 49 96 50 97 56 98 58 99 51 100
REMARK SMILES IDX 52 101 53 102 54 103 55 104
REMARK H PARENT 12 7 3 20 5 23 87 31 17 35 79 54 45 65
REMARK Flexibility Score: inf
ROOT
ATOM      1  C   UNL     1      -1.555   9.983  -3.757  1.00  0.00     0.023 C 
ENDROOT
BRANCH   1   2
ATOM      2  C   UNL     1      -1.259   8.491  -3.626  1.00  0.00     0.023 C 
BRANCH   2   3
ATOM      3  C   UNL     1      -0.330   8.078  -2.488  1.00  0.00     0.116 C 
BRANCH   3   4
ATOM      4  N   UNL     1      -0.778   8.459  -1.158  1.00  0.00    -0.352 N 
ATOM      5  C   UNL     1      -0.611   7.818   0.049  1.00  0.00     0.255 C 
ATOM      6  O   UNL     1      -1.075   8.325   1.067  1.00  0.00    -0.269 OA
ATOM      7  H   UNL     1      -1.278   9.305  -1.114  1.00  0.00     0.163 HD
BRANCH   5   8
ATOM      8  C   UNL     1       0.063   6.499   0.146  1.00  0.00     0.081 A 
ATOM      9  C   UNL     1       1.035   3.847   0.246  1.00  0.00     0.129 A 
ATOM     10  C   UNL     1      -0.082   4.227   0.996  1.00  0.00     0.053 A 
ATOM     11  C   UNL     1       1.705   4.832  -0.489  1.00  0.00     0.098 A 
ATOM     12  C   UNL     1      -0.562   5.539   0.952  1.00  0.00     0.022 A 
ATOM     13  C   UNL     1       1.250   6.152  -0.502  1.00  0.00     0.132 A 
BRANCH   9  14
ATOM     14  N   UNL     1       1.448   2.514   0.131  1.00  0.00    -0.234 N 
ATOM     15  O   UNL     1      -2.291  -0.282   0.103  1.00  0.00    -0.240 OA
ATOM     16  C   UNL     1      -1.110   0.040   0.112  1.00  0.00     0.346 C 
ATOM     17  N   UNL     1      -0.640   1.330   0.180  1.00  0.00    -0.199 N 
ATOM     18  C   UNL     1       0.004  -0.948   0.059  1.00  0.00     0.110 C 
ATOM     19  C   UNL     1       0.647   1.412   0.133  1.00  0.00     0.322 C 
ATOM     20  H   UNL     1      -1.229   2.115   0.258  1.00  0.00     0.316 HD
ATOM     21  S   UNL     1       1.504  -0.112   0.014  1.00  0.00     0.006 SA
ATOM     22  C   UNL     1      -0.203  -2.272   0.056  1.00  0.00     0.032 C 
ATOM     23  H   UNL     1       2.416   2.357   0.038  1.00  0.00     0.313 HD
BRANCH  22  24
ATOM     24  C   UNL     1       0.856  -3.285   0.059  1.00  0.00    -0.021 A 
ATOM     25  C   UNL     1       1.749  -3.384   1.127  1.00  0.00     0.028 A 
ATOM     26  C   UNL     1       0.979  -4.168  -1.012  1.00  0.00     0.028 A 
ATOM     27  C   UNL     1       2.747  -4.340   1.063  1.00  0.00     0.111 A 
ATOM     28  C   UNL     1       2.009  -5.094  -0.979  1.00  0.00     0.111 A 
ATOM     29  N   UNL     1       2.898  -5.198   0.033  1.00  0.00    -0.265 NA
ENDBRANCH  22  24
ENDBRANCH   9  14
BRANCH  13  30
ATOM     30  O   UNL     1       2.050   7.043  -1.162  1.00  0.00    -0.507 OA
ATOM     31  H   UNL     1       1.805   7.946  -1.211  1.00  0.00     0.293 HD
ENDBRANCH  13  30
ENDBRANCH   5   8
ENDBRANCH   3   4
ENDBRANCH   2   3
ENDBRANCH   1   2
BRANCH   1  32
ATOM     32  C   UNL     1      -0.354  10.919  -3.689  1.00  0.00     0.116 C 
BRANCH  32  33
ATOM     33  N   UNL     1       0.625  10.693  -4.744  1.00  0.00    -0.352 N 
ATOM     34  C   UNL     1       1.052  11.533  -5.749  1.00  0.00     0.251 C 
ATOM     35  H   UNL     1       1.046   9.804  -4.737  1.00  0.00     0.163 HD
ATOM     36  O   UNL     1       1.815  11.110  -6.613  1.00  0.00    -0.269 OA
BRANCH  34  37
ATOM     37  C   UNL     1       0.561  12.928  -5.811  1.00  0.00     0.039 A 
ATOM     38  C   UNL     1       0.101  13.431  -7.030  1.00  0.00     0.014 A 
ATOM     39  C   UNL     1       0.522  13.726  -4.666  1.00  0.00     0.014 A 
ATOM     40  C   UNL     1      -0.488  14.698  -7.077  1.00  0.00     0.010 A 
ATOM     41  C   UNL     1      -0.153  14.943  -4.696  1.00  0.00     0.010 A 
ATOM     42  C   UNL     1      -0.671  15.443  -5.900  1.00  0.00    -0.014 A 
BRANCH  42  43
ATOM     43  C   UNL     1      -1.408  16.736  -5.904  1.00  0.00     0.031 A 
ATOM     44  C   UNL     1      -0.723  18.000  -5.457  1.00  0.00     0.074 A 
ATOM     45  C   UNL     1      -2.715  16.760  -6.238  1.00  0.00     0.049 A 
ATOM     46  N   UNL     1      -1.218  19.204  -5.321  1.00  0.00    -0.248 NA
ATOM     47  C   UNL     1       0.697  17.892  -5.085  1.00  0.00     0.031 C 
ATOM     48  C   UNL     1      -3.510  15.594  -6.634  1.00  0.00     0.029 A 
ATOM     49  N   UNL     1      -3.612  17.799  -6.287  1.00  0.00    -0.354 N 
ATOM     50  C   UNL     1      -0.179  19.989  -4.834  1.00  0.00     0.074 A 
ATOM     51  C   UNL     1       0.956  19.113  -4.641  1.00  0.00     0.031 C 
ATOM     52  C   UNL     1      -4.764  15.987  -6.909  1.00  0.00     0.029 A 
ATOM     53  C   UNL     1      -4.880  17.421  -6.665  1.00  0.00     0.049 A 
ATOM     54  H   UNL     1      -3.370  18.729  -6.070  1.00  0.00     0.167 HD
ATOM     55  C   UNL     1      -0.163  21.322  -4.594  1.00  0.00     0.037 A 
ATOM     56  C   UNL     1      -6.012  18.142  -6.790  1.00  0.00     0.037 A 
ATOM     57  C   UNL     1      -1.291  22.191  -4.809  1.00  0.00     0.049 A 
ATOM     58  C   UNL     1      -5.972  19.622  -6.512  1.00  0.00     0.074 A 
ATOM     59  C   UNL     1      -1.357  23.565  -4.657  1.00  0.00     0.029 A 
ATOM     60  N   UNL     1      -2.550  21.773  -5.213  1.00  0.00    -0.354 N 
ATOM     61  N   UNL     1      -4.959  20.360  -6.124  1.00  0.00    -0.248 NA
ATOM     62  C   UNL     1      -7.224  20.368  -6.694  1.00  0.00     0.031 C 
ATOM     63  C   UNL     1      -2.671  23.969  -4.910  1.00  0.00     0.029 A 
ATOM     64  C   UNL     1      -3.408  22.858  -5.288  1.00  0.00     0.049 A 
ATOM     65  H   UNL     1      -2.798  20.842  -5.417  1.00  0.00     0.167 HD
ATOM     66  C   UNL     1      -5.444  21.662  -6.047  1.00  0.00     0.074 A 
ATOM     67  C   UNL     1      -6.838  21.610  -6.439  1.00  0.00     0.031 C 
ATOM     68  C   UNL     1      -4.793  22.796  -5.687  1.00  0.00     0.037 A 
BRANCH  55  69
ATOM     69  C   UNL     1       1.114  21.924  -4.069  1.00  0.00     0.058 A 
ATOM     70  C   UNL     1       2.275  22.005  -4.856  1.00  0.00     0.135 A 
ATOM     71  C   UNL     1       1.168  22.461  -2.772  1.00  0.00     0.135 A 
ATOM     72  F   UNL     1       2.287  21.495  -6.098  1.00  0.00    -0.206 F 
ATOM     73  C   UNL     1       3.450  22.564  -4.366  1.00  0.00     0.059 A 
ATOM     74  C   UNL     1       2.323  23.056  -2.273  1.00  0.00     0.059 A 
ATOM     75  F   UNL     1       0.089  22.412  -1.974  1.00  0.00    -0.206 F 
ATOM     76  C   UNL     1       3.464  23.089  -3.073  1.00  0.00     0.060 A 
BRANCH  76  77
ATOM     77  S   UNL     1       4.997  23.815  -2.456  1.00  0.00     0.124 S 
ATOM     78  O   UNL     1       5.830  22.630  -2.280  1.00  0.00    -0.237 OA
ATOM     79  O   UNL     1       5.381  24.703  -3.548  1.00  0.00    -0.237 OA
ATOM     80  O   UNL     1       4.587  24.481  -1.224  1.00  0.00    -0.744 OA
ENDBRANCH  76  77
ENDBRANCH  55  69
BRANCH  56  81
ATOM     81  C   UNL     1      -7.275  17.477  -7.215  1.00  0.00     0.058 A 
ATOM     82  C   UNL     1      -7.844  17.737  -8.471  1.00  0.00     0.135 A 
ATOM     83  C   UNL     1      -7.930  16.558  -6.381  1.00  0.00     0.135 A 
ATOM     84  F   UNL     1      -7.262  18.614  -9.303  1.00  0.00    -0.206 F 
ATOM     85  C   UNL     1      -9.024  17.122  -8.879  1.00  0.00     0.059 A 
ATOM     86  C   UNL     1      -9.095  15.908  -6.779  1.00  0.00     0.059 A 
ATOM     87  F   UNL     1      -7.420  16.261  -5.175  1.00  0.00    -0.206 F 
ATOM     88  C   UNL     1      -9.639  16.204  -8.027  1.00  0.00     0.060 A 
BRANCH  88  89
ATOM     89  S   UNL     1     -11.140  15.372  -8.590  1.00  0.00     0.124 S 
ATOM     90  O   UNL     1     -12.111  16.459  -8.551  1.00  0.00    -0.237 OA
ATOM     91  O   UNL     1     -10.752  14.909  -9.919  1.00  0.00    -0.237 OA
ATOM     92  O   UNL     1     -11.332  14.318  -7.599  1.00  0.00    -0.744 OA
ENDBRANCH  88  89
ENDBRANCH  56  81
BRANCH  68  93
ATOM     93  C   UNL     1      -5.562  24.089  -5.740  1.00  0.00     0.058 A 
ATOM     94  C   UNL     1      -6.578  24.389  -4.819  1.00  0.00     0.135 A 
ATOM     95  C   UNL     1      -5.234  25.068  -6.693  1.00  0.00     0.135 A 
ATOM     96  F   UNL     1      -6.937  23.488  -3.891  1.00  0.00    -0.206 F 
ATOM     97  C   UNL     1      -7.256  25.603  -4.855  1.00  0.00     0.059 A 
ATOM     98  C   UNL     1      -5.875  26.302  -6.726  1.00  0.00     0.059 A 
ATOM     99  F   UNL     1      -4.263  24.839  -7.591  1.00  0.00    -0.206 F 
ATOM    100  C   UNL     1      -6.894  26.556  -5.810  1.00  0.00     0.060 A 
BRANCH 100 101
ATOM    101  S   UNL     1      -7.756  28.142  -5.820  1.00  0.00     0.124 S 
ATOM    102  O   UNL     1      -9.069  27.760  -6.331  1.00  0.00    -0.237 OA
ATOM    103  O   UNL     1      -7.711  28.529  -4.414  1.00  0.00    -0.237 OA
ATOM    104  O   UNL     1      -6.949  28.963  -6.717  1.00  0.00    -0.744 OA
ENDBRANCH 100 101
ENDBRANCH  68  93
ENDBRANCH  42  43
ENDBRANCH  34  37
ENDBRANCH  32  33
ENDBRANCH   1  32
TORSDOF 17
