REMARK SMILES O=C(NCCCCNC(=O)c1cncc(Oc2cc(F)ccc2F)n1)c1ccc(-c2c3nc(c(-c4c(F)cc(S(=O)(=O)[O-])cc4F)c4ccc([nH]4)c(-c4c(F)cc(S(=O)(=O)[O-])cc4F)c4nc(c(-c5c(F)cc(S(=O)(=O)[O-])cc5F)c5ccc2[nH]5)C=C4)C=C3)cc1
REMARK SMILES IDX 5 1 4 2 3 3 1 4 2 5 26 7 27 8 91 9 28 10 90 11 29 12 30 13
REMARK SMILES IDX 31 14 84 15 32 16 89 17 83 18 85 19 33 20 88 21 82 22 81 23
REMARK SMILES IDX 34 25 68 26 47 27 67 28 48 29 51 30 66 31 86 32 49 33 50 34
REMARK SMILES IDX 65 36 87 37 52 38 35 39 36 40 45 41 37 42 38 43 44 44 46 45
REMARK SMILES IDX 39 46 40 47 41 48 42 49 43 50 69 51 70 52 79 53 71 54 72 55
REMARK SMILES IDX 78 56 80 57 73 58 74 59 75 60 76 61 77 62 53 63 54 64 63 65
REMARK SMILES IDX 55 66 56 67 62 68 64 69 57 70 58 71 59 72 60 73 61 74 6 75
REMARK SMILES IDX 7 76 8 77 9 78 10 80 11 81 12 82 25 83 13 84 15 85 14 86
REMARK SMILES IDX 16 87 17 88 18 89 23 90 19 91 22 92 24 93 20 94 21 95
REMARK H PARENT 3 6 85 24 51 35 8 79
REMARK Flexibility Score: inf
ROOT
ATOM      1  C   UNL     1       5.010   2.709   0.510  1.00  0.00     0.023 C 
ENDROOT
BRANCH   1   2
ATOM      2  C   UNL     1       4.647   1.237   0.664  1.00  0.00     0.116 C 
BRANCH   2   3
ATOM      3  N   UNL     1       3.211   1.010   0.670  1.00  0.00    -0.352 N 
ATOM      4  O   UNL     1       1.247   0.191  -0.070  1.00  0.00    -0.269 OA
ATOM      5  C   UNL     1       2.474   0.144  -0.101  1.00  0.00     0.251 C 
ATOM      6  H   UNL     1       2.697   1.549   1.315  1.00  0.00     0.163 HD
BRANCH   5   7
ATOM      7  C   UNL     1       3.162  -0.827  -0.978  1.00  0.00     0.039 A 
ATOM      8  C   UNL     1       4.235  -1.584  -0.498  1.00  0.00     0.014 A 
ATOM      9  C   UNL     1       2.717  -0.995  -2.293  1.00  0.00     0.014 A 
ATOM     10  C   UNL     1       4.931  -2.425  -1.360  1.00  0.00     0.010 A 
ATOM     11  C   UNL     1       3.371  -1.897  -3.137  1.00  0.00     0.010 A 
ATOM     12  C   UNL     1       4.489  -2.610  -2.680  1.00  0.00    -0.014 A 
BRANCH  12  13
ATOM     13  C   UNL     1       5.132  -3.649  -3.522  1.00  0.00     0.031 A 
ATOM     14  C   UNL     1       5.907  -3.290  -4.757  1.00  0.00     0.074 A 
ATOM     15  C   UNL     1       4.986  -4.938  -3.155  1.00  0.00     0.049 A 
ATOM     16  N   UNL     1       6.499  -4.085  -5.611  1.00  0.00    -0.248 NA
ATOM     17  C   UNL     1       6.033  -1.861  -5.084  1.00  0.00     0.031 C 
ATOM     18  C   UNL     1       4.227  -5.399  -1.987  1.00  0.00     0.029 A 
ATOM     19  N   UNL     1       5.458  -6.096  -3.717  1.00  0.00    -0.354 N 
ATOM     20  C   UNL     1       7.047  -3.262  -6.587  1.00  0.00     0.074 A 
ATOM     21  C   UNL     1       6.712  -1.901  -6.225  1.00  0.00     0.031 C 
ATOM     22  C   UNL     1       4.297  -6.735  -1.913  1.00  0.00     0.029 A 
ATOM     23  C   UNL     1       5.053  -7.231  -3.056  1.00  0.00     0.049 A 
ATOM     24  H   UNL     1       6.032  -6.112  -4.517  1.00  0.00     0.167 HD
ATOM     25  C   UNL     1       7.763  -3.618  -7.680  1.00  0.00     0.037 A 
ATOM     26  C   UNL     1       5.232  -8.531  -3.356  1.00  0.00     0.037 A 
ATOM     27  C   UNL     1       8.114  -4.978  -8.008  1.00  0.00     0.049 A 
ATOM     28  C   UNL     1       6.012  -8.891  -4.586  1.00  0.00     0.074 A 
ATOM     29  C   UNL     1       8.920  -5.430  -9.039  1.00  0.00     0.029 A 
ATOM     30  N   UNL     1       7.670  -6.101  -7.327  1.00  0.00    -0.354 N 
ATOM     31  N   UNL     1       6.592  -8.094  -5.452  1.00  0.00    -0.248 NA
ATOM     32  C   UNL     1       6.152 -10.320  -4.891  1.00  0.00     0.031 C 
ATOM     33  C   UNL     1       8.919  -6.829  -9.014  1.00  0.00     0.029 A 
ATOM     34  C   UNL     1       8.148  -7.247  -7.942  1.00  0.00     0.049 A 
ATOM     35  H   UNL     1       7.099  -6.086  -6.525  1.00  0.00     0.167 HD
ATOM     36  C   UNL     1       7.166  -8.926  -6.404  1.00  0.00     0.074 A 
ATOM     37  C   UNL     1       6.889 -10.288  -5.993  1.00  0.00     0.031 C 
ATOM     38  C   UNL     1       7.852  -8.593  -7.524  1.00  0.00     0.037 A 
BRANCH  25  39
ATOM     39  C   UNL     1       8.220  -2.540  -8.623  1.00  0.00     0.058 A 
ATOM     40  C   UNL     1       9.307  -1.706  -8.321  1.00  0.00     0.135 A 
ATOM     41  C   UNL     1       7.636  -2.422  -9.895  1.00  0.00     0.135 A 
ATOM     42  F   UNL     1       9.894  -1.770  -7.116  1.00  0.00    -0.206 F 
ATOM     43  C   UNL     1       9.801  -0.795  -9.249  1.00  0.00     0.059 A 
ATOM     44  C   UNL     1       8.125  -1.530 -10.845  1.00  0.00     0.059 A 
ATOM     45  F   UNL     1       6.592  -3.196 -10.233  1.00  0.00    -0.206 F 
ATOM     46  C   UNL     1       9.209  -0.720 -10.512  1.00  0.00     0.060 A 
BRANCH  46  47
ATOM     47  S   UNL     1       9.899   0.429 -11.723  1.00  0.00     0.124 S 
ATOM     48  O   UNL     1       9.465   1.715 -11.186  1.00  0.00    -0.237 OA
ATOM     49  O   UNL     1      11.330   0.155 -11.632  1.00  0.00    -0.237 OA
ATOM     50  O   UNL     1       9.266   0.026 -12.975  1.00  0.00    -0.744 OA
ENDBRANCH  46  47
ENDBRANCH  25  39
BRANCH  26  51
ATOM     51  C   UNL     1       4.615  -9.580  -2.504  1.00  0.00     0.058 A 
ATOM     52  C   UNL     1       5.399 -10.431  -1.714  1.00  0.00     0.135 A 
ATOM     53  C   UNL     1       3.221  -9.747  -2.465  1.00  0.00     0.135 A 
ATOM     54  F   UNL     1       6.735 -10.311  -1.720  1.00  0.00    -0.206 F 
ATOM     55  C   UNL     1       4.825 -11.428  -0.931  1.00  0.00     0.059 A 
ATOM     56  C   UNL     1       2.623 -10.717  -1.670  1.00  0.00     0.059 A 
ATOM     57  F   UNL     1       2.426  -8.944  -3.189  1.00  0.00    -0.206 F 
ATOM     58  C   UNL     1       3.436 -11.565  -0.919  1.00  0.00     0.060 A 
BRANCH  58  59
ATOM     59  S   UNL     1       2.694 -12.845   0.116  1.00  0.00     0.124 S 
ATOM     60  O   UNL     1       2.934 -14.040  -0.683  1.00  0.00    -0.237 OA
ATOM     61  O   UNL     1       3.468 -12.734   1.349  1.00  0.00    -0.237 OA
ATOM     62  O   UNL     1       1.301 -12.422   0.222  1.00  0.00    -0.744 OA
ENDBRANCH  58  59
ENDBRANCH  26  51
BRANCH  38  63
ATOM     63  C   UNL     1       8.342  -9.720  -8.386  1.00  0.00     0.058 A 
ATOM     64  C   UNL     1       7.462 -10.446  -9.202  1.00  0.00     0.135 A 
ATOM     65  C   UNL     1       9.707 -10.044  -8.434  1.00  0.00     0.135 A 
ATOM     66  F   UNL     1       6.146 -10.181  -9.181  1.00  0.00    -0.206 F 
ATOM     67  C   UNL     1       7.917 -11.467 -10.029  1.00  0.00     0.059 A 
ATOM     68  C   UNL     1      10.187 -11.045  -9.272  1.00  0.00     0.059 A 
ATOM     69  F   UNL     1      10.589  -9.374  -7.675  1.00  0.00    -0.206 F 
ATOM     70  C   UNL     1       9.282 -11.757 -10.059  1.00  0.00     0.060 A 
BRANCH  70  71
ATOM     71  S   UNL     1       9.866 -13.054 -11.170  1.00  0.00     0.124 S 
ATOM     72  O   UNL     1       9.439 -14.258 -10.466  1.00  0.00    -0.237 OA
ATOM     73  O   UNL     1       9.149 -12.755 -12.406  1.00  0.00    -0.237 OA
ATOM     74  O   UNL     1      11.308 -12.834 -11.221  1.00  0.00    -0.744 OA
ENDBRANCH  70  71
ENDBRANCH  38  63
ENDBRANCH  12  13
ENDBRANCH   5   7
ENDBRANCH   2   3
ENDBRANCH   1   2
BRANCH   1  75
ATOM     75  C   UNL     1       4.510   3.627   1.625  1.00  0.00     0.023 C 
BRANCH  75  76
ATOM     76  C   UNL     1       4.882   3.192   3.040  1.00  0.00     0.116 C 
BRANCH  76  77
ATOM     77  N   UNL     1       6.320   3.131   3.248  1.00  0.00    -0.351 N 
ATOM     78  C   UNL     1       7.085   3.811   4.168  1.00  0.00     0.271 C 
ATOM     79  H   UNL     1       6.811   2.521   2.651  1.00  0.00     0.163 HD
ATOM     80  O   UNL     1       8.305   3.681   4.182  1.00  0.00    -0.267 OA
BRANCH  78  81
ATOM     81  C   UNL     1       6.418   4.683   5.158  1.00  0.00     0.150 A 
ATOM     82  C   UNL     1       5.595   4.117   6.123  1.00  0.00     0.145 A 
ATOM     83  N   UNL     1       6.605   6.021   5.034  1.00  0.00    -0.205 NA
ATOM     84  N   UNL     1       4.881   4.872   6.994  1.00  0.00    -0.257 NA
ATOM     85  C   UNL     1       5.917   6.772   5.922  1.00  0.00     0.238 A 
ATOM     86  C   UNL     1       5.061   6.212   6.866  1.00  0.00     0.179 A 
BRANCH  85  87
ATOM     87  O   UNL     1       5.994   8.158   5.889  1.00  0.00    -0.434 OA
BRANCH  87  88
ATOM     88  C   UNL     1       7.099   8.694   5.274  1.00  0.00     0.168 A 
ATOM     89  C   UNL     1       7.205   8.737   3.884  1.00  0.00     0.089 A 
ATOM     90  C   UNL     1       8.077   9.296   6.067  1.00  0.00     0.166 A 
ATOM     91  C   UNL     1       8.315   9.351   3.312  1.00  0.00     0.127 A 
ATOM     92  C   UNL     1       9.182   9.916   5.488  1.00  0.00     0.046 A 
ATOM     93  F   UNL     1       7.955   9.296   7.403  1.00  0.00    -0.203 F 
ATOM     94  F   UNL     1       8.429   9.392   1.978  1.00  0.00    -0.207 F 
ATOM     95  C   UNL     1       9.303   9.940   4.099  1.00  0.00     0.042 A 
ENDBRANCH  87  88
ENDBRANCH  85  87
ENDBRANCH  78  81
ENDBRANCH  76  77
ENDBRANCH  75  76
ENDBRANCH   1  75
TORSDOF 16
