REMARK SMILES COc1cccc(-c2cc(OCC(=O)NCCCCNC(=O)c3ccc(-c4c5nc(c(-c6c(F)cc(S(=O)(=O)[O-])cc6F)c6ccc([nH]6)c(-c6c(F)cc(S(=O)(=O)[O-])cc6F)c6nc(c(-c7c(F)cc(S(=O)(=O)[O-])cc7F)c7ccc4[nH]7)C=C6)C=C5)cc3)nc(Nc3ccccc3Br)n2)c1
REMARK SMILES IDX 17 1 16 2 15 3 13 4 14 5 12 7 11 8 10 9 8 10 9 11 99 12
REMARK SMILES IDX 90 13 89 14 7 15 3 16 4 17 100 18 5 19 6 20 2 21 1 22 91 23
REMARK SMILES IDX 92 25 93 26 97 27 94 28 96 29 98 30 95 31 18 32 19 33 20 34
REMARK SMILES IDX 21 35 22 37 23 38 24 39 88 40 25 41 87 42 26 43 27 44 28 45
REMARK SMILES IDX 81 46 29 47 86 48 80 49 82 50 30 51 85 52 79 53 78 54 31 56
REMARK SMILES IDX 65 57 44 58 64 59 45 60 48 61 63 62 83 63 46 64 47 65 62 67
REMARK SMILES IDX 84 68 49 69 32 70 33 71 42 72 34 73 35 74 41 75 43 76 36 77
REMARK SMILES IDX 37 78 38 79 39 80 40 81 66 82 67 83 76 84 68 85 69 86 75 87
REMARK SMILES IDX 77 88 70 89 71 90 72 91 73 92 74 93 50 94 51 95 60 96 52 97
REMARK SMILES IDX 53 98 59 99 61 100 54 101 55 102 56 103 57 104 58 105
REMARK H PARENT 15 6 91 24 20 36 82 55 48 66
REMARK Flexibility Score: inf
ROOT
ATOM      1  C   UNL     1       8.277  -0.271  -1.403  1.00  0.00     0.023 C 
ENDROOT
BRANCH   1   2
ATOM      2  C   UNL     1       8.384  -1.651  -0.762  1.00  0.00     0.116 C 
BRANCH   2   3
ATOM      3  N   UNL     1       7.109  -2.128  -0.264  1.00  0.00    -0.353 N 
ATOM      4  C   UNL     1       6.331  -3.129  -0.763  1.00  0.00     0.258 C 
ATOM      5  O   UNL     1       5.273  -3.403  -0.192  1.00  0.00    -0.271 OA
ATOM      6  H   UNL     1       6.762  -1.671   0.535  1.00  0.00     0.163 HD
BRANCH   4   7
ATOM      7  C   UNL     1       6.786  -3.902  -2.008  1.00  0.00     0.331 C 
BRANCH   7   8
ATOM      8  O   UNL     1       7.005  -3.150  -3.189  1.00  0.00    -0.467 OA
BRANCH   8   9
ATOM      9  C   UNL     1       5.934  -2.514  -3.752  1.00  0.00     0.219 A 
ATOM     10  C   UNL     1       3.704  -1.872  -3.991  1.00  0.00     0.080 A 
ATOM     11  C   UNL     1       4.634  -2.643  -3.335  1.00  0.00     0.097 A 
ATOM     12  N   UNL     1       4.029  -1.077  -5.021  1.00  0.00    -0.212 NA
ATOM     13  C   UNL     1       5.321  -1.001  -5.365  1.00  0.00     0.231 A 
ATOM     14  N   UNL     1       6.288  -1.715  -4.773  1.00  0.00    -0.177 NA
BRANCH  10  15
ATOM     15  C   UNL     1       2.299  -1.860  -3.579  1.00  0.00     0.004 A 
ATOM     16  C   UNL     1       0.617  -1.515  -1.849  1.00  0.00     0.119 A 
ATOM     17  C   UNL     1      -0.368  -1.975  -2.722  1.00  0.00     0.046 A 
ATOM     18  C   UNL     1       1.946  -1.475  -2.271  1.00  0.00     0.056 A 
ATOM     19  C   UNL     1      -0.041  -2.334  -4.029  1.00  0.00     0.005 A 
ATOM     20  C   UNL     1       1.285  -2.263  -4.459  1.00  0.00     0.010 A 
BRANCH  16  21
ATOM     21  O   UNL     1       0.195  -1.189  -0.590  1.00  0.00    -0.497 OA
ATOM     22  C   UNL     1       0.874  -0.082  -0.001  1.00  0.00     0.278 C 
ENDBRANCH  16  21
ENDBRANCH  10  15
BRANCH  13  23
ATOM     23  N   UNL     1       5.704  -0.183  -6.423  1.00  0.00    -0.323 N 
ATOM     24  H   UNL     1       6.654  -0.225  -6.680  1.00  0.00     0.170 HD
BRANCH  23  25
ATOM     25  C   UNL     1       4.904   0.693  -7.168  1.00  0.00     0.055 A 
ATOM     26  C   UNL     1       4.790   0.467  -8.550  1.00  0.00     0.027 A 
ATOM     27  C   UNL     1       4.135   1.729  -6.603  1.00  0.00     0.041 A 
ATOM     28  C   UNL     1       3.912   1.219  -9.336  1.00  0.00     0.002 A 
ATOM     29  C   UNL     1       3.259   2.484  -7.392  1.00  0.00     0.018 A 
ATOM     30  Br  UNL     1       4.319   2.259  -4.782  1.00  0.00    -0.049 Br
ATOM     31  C   UNL     1       3.140   2.220  -8.755  1.00  0.00     0.001 A 
ENDBRANCH  23  25
ENDBRANCH  13  23
ENDBRANCH   8   9
ENDBRANCH   7   8
ENDBRANCH   4   7
ENDBRANCH   2   3
ENDBRANCH   1   2
BRANCH   1  32
ATOM     32  C   UNL     1       7.824   0.853  -0.465  1.00  0.00     0.023 C 
BRANCH  32  33
ATOM     33  C   UNL     1       8.605   0.990   0.840  1.00  0.00     0.116 C 
BRANCH  33  34
ATOM     34  N   UNL     1      10.033   1.160   0.638  1.00  0.00    -0.352 N 
ATOM     35  C   UNL     1      10.913   2.014   1.254  1.00  0.00     0.251 C 
ATOM     36  H   UNL     1      10.431   0.574  -0.046  1.00  0.00     0.163 HD
ATOM     37  O   UNL     1      12.075   2.070   0.844  1.00  0.00    -0.269 OA
BRANCH  35  38
ATOM     38  C   UNL     1      10.484   2.884   2.372  1.00  0.00     0.039 A 
ATOM     39  C   UNL     1      10.960   4.198   2.411  1.00  0.00     0.014 A 
ATOM     40  C   UNL     1       9.642   2.423   3.389  1.00  0.00     0.014 A 
ATOM     41  C   UNL     1      10.552   5.058   3.433  1.00  0.00     0.010 A 
ATOM     42  C   UNL     1       9.175   3.305   4.365  1.00  0.00     0.010 A 
ATOM     43  C   UNL     1       9.629   4.630   4.402  1.00  0.00    -0.014 A 
BRANCH  43  44
ATOM     44  C   UNL     1       9.130   5.578   5.435  1.00  0.00     0.031 A 
ATOM     45  C   UNL     1       9.428   5.364   6.894  1.00  0.00     0.074 A 
ATOM     46  C   UNL     1       8.387   6.636   5.053  1.00  0.00     0.049 A 
ATOM     47  N   UNL     1       9.136   6.128   7.918  1.00  0.00    -0.248 NA
ATOM     48  C   UNL     1      10.123   4.120   7.255  1.00  0.00     0.031 C 
ATOM     49  C   UNL     1       7.975   6.923   3.677  1.00  0.00     0.029 A 
ATOM     50  N   UNL     1       7.859   7.673   5.780  1.00  0.00    -0.354 N 
ATOM     51  C   UNL     1       9.612   5.460   9.040  1.00  0.00     0.074 A 
ATOM     52  C   UNL     1      10.148   4.197   8.578  1.00  0.00     0.031 C 
ATOM     53  C   UNL     1       7.311   8.089   3.651  1.00  0.00     0.029 A 
ATOM     54  C   UNL     1       7.222   8.617   5.009  1.00  0.00     0.049 A 
ATOM     55  H   UNL     1       7.930   7.736   6.760  1.00  0.00     0.167 HD
ATOM     56  C   UNL     1       9.628   5.870  10.333  1.00  0.00     0.037 A 
ATOM     57  C   UNL     1       6.651   9.787   5.352  1.00  0.00     0.037 A 
ATOM     58  C   UNL     1       9.090   7.127  10.789  1.00  0.00     0.049 A 
ATOM     59  C   UNL     1       6.681  10.226   6.789  1.00  0.00     0.074 A 
ATOM     60  C   UNL     1       9.092   7.656  12.068  1.00  0.00     0.029 A 
ATOM     61  N   UNL     1       8.442   8.052   9.980  1.00  0.00    -0.354 N 
ATOM     62  N   UNL     1       7.198   9.616   7.829  1.00  0.00    -0.248 NA
ATOM     63  C   UNL     1       6.060  11.521   7.096  1.00  0.00     0.031 C 
ATOM     64  C   UNL     1       8.406   8.876  12.041  1.00  0.00     0.029 A 
ATOM     65  C   UNL     1       8.023   9.137  10.735  1.00  0.00     0.049 A 
ATOM     66  H   UNL     1       8.301   7.952   9.011  1.00  0.00     0.167 HD
ATOM     67  C   UNL     1       6.992  10.466   8.910  1.00  0.00     0.074 A 
ATOM     68  C   UNL     1       6.314  11.638   8.392  1.00  0.00     0.031 C 
ATOM     69  C   UNL     1       7.337  10.293  10.212  1.00  0.00     0.037 A 
BRANCH  56  70
ATOM     70  C   UNL     1      10.246   4.935  11.342  1.00  0.00     0.058 A 
ATOM     71  C   UNL     1      11.622   4.649  11.337  1.00  0.00     0.135 A 
ATOM     72  C   UNL     1       9.454   4.303  12.314  1.00  0.00     0.135 A 
ATOM     73  F   UNL     1      12.428   5.216  10.425  1.00  0.00    -0.206 F 
ATOM     74  C   UNL     1      12.180   3.728  12.219  1.00  0.00     0.059 A 
ATOM     75  C   UNL     1       9.997   3.402  13.228  1.00  0.00     0.059 A 
ATOM     76  F   UNL     1       8.135   4.542  12.374  1.00  0.00    -0.206 F 
ATOM     77  C   UNL     1      11.356   3.101  13.154  1.00  0.00     0.060 A 
BRANCH  77  78
ATOM     78  S   UNL     1      12.082   1.871  14.258  1.00  0.00     0.124 S 
ATOM     79  O   UNL     1      12.264   0.740  13.351  1.00  0.00    -0.237 OA
ATOM     80  O   UNL     1      13.307   2.529  14.700  1.00  0.00    -0.237 OA
ATOM     81  O   UNL     1      11.063   1.692  15.286  1.00  0.00    -0.744 OA
ENDBRANCH  77  78
ENDBRANCH  56  70
BRANCH  57  82
ATOM     82  C   UNL     1       6.070  10.658   4.295  1.00  0.00     0.058 A 
ATOM     83  C   UNL     1       6.716  11.842   3.910  1.00  0.00     0.135 A 
ATOM     84  C   UNL     1       4.894  10.303   3.618  1.00  0.00     0.135 A 
ATOM     85  F   UNL     1       7.840  12.226   4.533  1.00  0.00    -0.206 F 
ATOM     86  C   UNL     1       6.216  12.647   2.892  1.00  0.00     0.059 A 
ATOM     87  C   UNL     1       4.387  11.079   2.580  1.00  0.00     0.059 A 
ATOM     88  F   UNL     1       4.248   9.171   3.939  1.00  0.00    -0.206 F 
ATOM     89  C   UNL     1       5.054  12.252   2.227  1.00  0.00     0.060 A 
BRANCH  89  90
ATOM     90  S   UNL     1       4.461  13.262   0.852  1.00  0.00     0.124 S 
ATOM     91  O   UNL     1       3.946  14.435   1.550  1.00  0.00    -0.237 OA
ATOM     92  O   UNL     1       5.679  13.465   0.074  1.00  0.00    -0.237 OA
ATOM     93  O   UNL     1       3.457  12.412   0.220  1.00  0.00    -0.744 OA
ENDBRANCH  89  90
ENDBRANCH  57  82
BRANCH  69  94
ATOM     94  C   UNL     1       7.011  11.418  11.159  1.00  0.00     0.058 A 
ATOM     95  C   UNL     1       5.689  11.723  11.524  1.00  0.00     0.135 A 
ATOM     96  C   UNL     1       8.037  12.205  11.707  1.00  0.00     0.135 A 
ATOM     97  F   UNL     1       4.669  11.005  11.027  1.00  0.00    -0.206 F 
ATOM     98  C   UNL     1       5.394  12.798  12.357  1.00  0.00     0.059 A 
ATOM     99  C   UNL     1       7.767  13.265  12.567  1.00  0.00     0.059 A 
ATOM    100  F   UNL     1       9.320  11.950  11.405  1.00  0.00    -0.206 F 
ATOM    101  C   UNL     1       6.440  13.568  12.867  1.00  0.00     0.060 A 
BRANCH 101 102
ATOM    102  S   UNL     1       6.045  14.971  13.933  1.00  0.00     0.124 S 
ATOM    103  O   UNL     1       5.561  15.948  12.964  1.00  0.00    -0.237 OA
ATOM    104  O   UNL     1       5.036  14.412  14.828  1.00  0.00    -0.237 OA
ATOM    105  O   UNL     1       7.324  15.289  14.562  1.00  0.00    -0.744 OA
ENDBRANCH 101 102
ENDBRANCH  69  94
ENDBRANCH  43  44
ENDBRANCH  35  38
ENDBRANCH  33  34
ENDBRANCH  32  33
ENDBRANCH   1  32
TORSDOF 20
