REMARK SMILES CC(C)c1ccc([C@]2(C(=O)NCCCCNC(=O)c3ccc(-c4c5nc(c(-c6c(F)cc(S(=O)(=O)[O-])cc6F)c6ccc([nH]6)c(-c6c(F)cc(S(=O)(=O)[O-])cc6F)c6nc(c(-c7c(F)cc(S(=O)(=O)[O-])cc7F)c7ccc4[nH]7)C=C6)C=C5)cc3)CCC[C@@H]2C)cc1
REMARK SMILES IDX 14 1 13 2 12 3 11 4 9 5 10 6 8 8 85 9 88 10 86 11 87 12
REMARK SMILES IDX 89 13 7 14 4 15 5 16 91 17 6 18 90 19 2 20 1 21 3 22 15 23
REMARK SMILES IDX 16 24 17 25 18 27 19 28 20 29 84 30 21 31 83 32 22 33 23 34
REMARK SMILES IDX 24 35 77 36 25 37 82 38 76 39 78 40 26 41 81 42 75 43 74 44
REMARK SMILES IDX 27 46 61 47 40 48 60 49 41 50 44 51 59 52 79 53 42 54 43 55
REMARK SMILES IDX 58 57 80 58 45 59 28 60 29 61 38 62 30 63 31 64 37 65 39 66
REMARK SMILES IDX 32 67 33 68 34 69 35 70 36 71 62 72 63 73 72 74 64 75 65 76
REMARK SMILES IDX 71 77 73 78 66 79 67 80 68 81 69 82 70 83 46 84 47 85 56 86
REMARK SMILES IDX 48 87 49 88 55 89 57 90 50 91 51 92 52 93 53 94 54 95
REMARK H PARENT 11 7 16 26 78 45 44 56
REMARK Flexibility Score: inf
ROOT
ATOM      1  C   UNL     1      -9.744  -4.233   1.271  1.00  0.00     0.023 C 
ENDROOT
BRANCH   1   2
ATOM      2  C   UNL     1      -8.890  -3.396   0.321  1.00  0.00     0.023 C 
BRANCH   2   3
ATOM      3  C   UNL     1      -8.289  -2.139   0.932  1.00  0.00     0.116 C 
BRANCH   3   4
ATOM      4  N   UNL     1      -6.965  -2.304   1.474  1.00  0.00    -0.355 N 
ATOM      5  C   UNL     1      -5.777  -1.704   1.198  1.00  0.00     0.230 C 
ATOM      6  O   UNL     1      -5.011  -1.700   2.175  1.00  0.00    -0.274 OA
ATOM      7  H   UNL     1      -6.910  -2.983   2.184  1.00  0.00     0.163 HD
BRANCH   5   8
ATOM      8  C   UNL     1      -5.317  -1.089  -0.202  1.00  0.00     0.077 C 
ATOM      9  C   UNL     1      -5.905  -1.859  -1.412  1.00  0.00     0.022 C 
ATOM     10  C   UNL     1      -5.824   0.384  -0.463  1.00  0.00     0.006 C 
ATOM     11  C   UNL     1      -7.062  -1.046  -1.998  1.00  0.00     0.002 C 
ATOM     12  C   UNL     1      -7.155   0.256  -1.215  1.00  0.00     0.005 C 
ATOM     13  C   UNL     1      -4.966   1.292  -1.372  1.00  0.00     0.009 C 
BRANCH   8  14
ATOM     14  C   UNL     1      -3.758  -1.192  -0.173  1.00  0.00    -0.032 A 
ATOM     15  C   UNL     1      -0.904  -1.321  -0.096  1.00  0.00    -0.045 A 
ATOM     16  C   UNL     1      -1.589  -0.255   0.489  1.00  0.00     0.004 A 
ATOM     17  C   UNL     1      -1.666  -2.370  -0.631  1.00  0.00     0.004 A 
ATOM     18  C   UNL     1      -2.987  -0.211   0.477  1.00  0.00     0.005 A 
ATOM     19  C   UNL     1      -3.067  -2.311  -0.664  1.00  0.00     0.005 A 
BRANCH  15  20
ATOM     20  C   UNL     1       0.613  -1.403  -0.132  1.00  0.00     0.013 C 
ATOM     21  C   UNL     1       1.320  -0.041  -0.135  1.00  0.00     0.012 C 
ATOM     22  C   UNL     1       1.137  -2.262   1.020  1.00  0.00     0.012 C 
ENDBRANCH  15  20
ENDBRANCH   8  14
ENDBRANCH   5   8
ENDBRANCH   3   4
ENDBRANCH   2   3
ENDBRANCH   1   2
BRANCH   1  23
ATOM     23  C   UNL     1     -10.829  -3.477   2.032  1.00  0.00     0.116 C 
BRANCH  23  24
ATOM     24  N   UNL     1     -11.699  -2.661   1.197  1.00  0.00    -0.352 N 
ATOM     25  C   UNL     1     -13.018  -2.327   1.421  1.00  0.00     0.251 C 
ATOM     26  H   UNL     1     -11.297  -2.305   0.372  1.00  0.00     0.163 HD
ATOM     27  O   UNL     1     -13.646  -1.687   0.592  1.00  0.00    -0.269 OA
BRANCH  25  28
ATOM     28  C   UNL     1     -13.669  -2.800   2.663  1.00  0.00     0.039 A 
ATOM     29  C   UNL     1     -14.884  -3.482   2.573  1.00  0.00     0.014 A 
ATOM     30  C   UNL     1     -13.045  -2.626   3.901  1.00  0.00     0.014 A 
ATOM     31  C   UNL     1     -15.440  -4.048   3.722  1.00  0.00     0.010 A 
ATOM     32  C   UNL     1     -13.555  -3.265   5.025  1.00  0.00     0.010 A 
ATOM     33  C   UNL     1     -14.763  -3.973   4.951  1.00  0.00    -0.014 A 
BRANCH  33  34
ATOM     34  C   UNL     1     -15.319  -4.604   6.175  1.00  0.00     0.031 A 
ATOM     35  C   UNL     1     -15.707  -3.747   7.350  1.00  0.00     0.074 A 
ATOM     36  C   UNL     1     -15.423  -5.946   6.250  1.00  0.00     0.049 A 
ATOM     37  N   UNL     1     -16.188  -4.105   8.512  1.00  0.00    -0.248 NA
ATOM     38  C   UNL     1     -15.491  -2.296   7.214  1.00  0.00     0.031 C 
ATOM     39  C   UNL     1     -15.016  -6.889   5.205  1.00  0.00     0.029 A 
ATOM     40  N   UNL     1     -15.905  -6.752   7.251  1.00  0.00    -0.354 N 
ATOM     41  C   UNL     1     -16.309  -2.933   9.249  1.00  0.00     0.074 A 
ATOM     42  C   UNL     1     -15.794  -1.861   8.428  1.00  0.00     0.031 C 
ATOM     43  C   UNL     1     -15.303  -8.139   5.603  1.00  0.00     0.029 A 
ATOM     44  C   UNL     1     -15.888  -8.091   6.939  1.00  0.00     0.049 A 
ATOM     45  H   UNL     1     -16.231  -6.403   8.112  1.00  0.00     0.167 HD
ATOM     46  C   UNL     1     -16.830  -2.759  10.487  1.00  0.00     0.037 A 
ATOM     47  C   UNL     1     -16.312  -9.156   7.647  1.00  0.00     0.037 A 
ATOM     48  C   UNL     1     -17.385  -3.824  11.279  1.00  0.00     0.049 A 
ATOM     49  C   UNL     1     -16.931  -8.934   9.001  1.00  0.00     0.074 A 
ATOM     50  C   UNL     1     -18.011  -3.746  12.511  1.00  0.00     0.029 A 
ATOM     51  N   UNL     1     -17.385  -5.162  10.914  1.00  0.00    -0.354 N 
ATOM     52  N   UNL     1     -17.112  -7.809   9.651  1.00  0.00    -0.248 NA
ATOM     53  C   UNL     1     -17.417 -10.125   9.711  1.00  0.00     0.031 C 
ATOM     54  C   UNL     1     -18.359  -5.043  12.906  1.00  0.00     0.029 A 
ATOM     55  C   UNL     1     -17.989  -5.923  11.900  1.00  0.00     0.049 A 
ATOM     56  H   UNL     1     -17.011  -5.519  10.075  1.00  0.00     0.167 HD
ATOM     57  C   UNL     1     -17.765  -8.152  10.830  1.00  0.00     0.074 A 
ATOM     58  C   UNL     1     -17.952  -9.588  10.799  1.00  0.00     0.031 C 
ATOM     59  C   UNL     1     -18.177  -7.351  11.844  1.00  0.00     0.037 A 
BRANCH  46  60
ATOM     60  C   UNL     1     -16.830  -1.364  11.050  1.00  0.00     0.058 A 
ATOM     61  C   UNL     1     -17.654  -0.355  10.524  1.00  0.00     0.135 A 
ATOM     62  C   UNL     1     -16.000  -1.031  12.132  1.00  0.00     0.135 A 
ATOM     63  F   UNL     1     -18.455  -0.613   9.478  1.00  0.00    -0.206 F 
ATOM     64  C   UNL     1     -17.626   0.943  11.024  1.00  0.00     0.059 A 
ATOM     65  C   UNL     1     -15.977   0.254  12.668  1.00  0.00     0.059 A 
ATOM     66  F   UNL     1     -15.192  -1.956  12.674  1.00  0.00    -0.206 F 
ATOM     67  C   UNL     1     -16.780   1.238  12.093  1.00  0.00     0.060 A 
BRANCH  67  68
ATOM     68  S   UNL     1     -16.745   2.929  12.724  1.00  0.00     0.124 S 
ATOM     69  O   UNL     1     -15.976   3.610  11.686  1.00  0.00    -0.237 OA
ATOM     70  O   UNL     1     -18.162   3.270  12.788  1.00  0.00    -0.237 OA
ATOM     71  O   UNL     1     -16.076   2.796  14.015  1.00  0.00    -0.744 OA
ENDBRANCH  67  68
ENDBRANCH  46  60
BRANCH  47  72
ATOM     72  C   UNL     1     -16.227 -10.522   7.063  1.00  0.00     0.058 A 
ATOM     73  C   UNL     1     -17.385 -11.194   6.643  1.00  0.00     0.135 A 
ATOM     74  C   UNL     1     -14.997 -11.177   6.904  1.00  0.00     0.135 A 
ATOM     75  F   UNL     1     -18.585 -10.610   6.779  1.00  0.00    -0.206 F 
ATOM     76  C   UNL     1     -17.331 -12.475   6.103  1.00  0.00     0.059 A 
ATOM     77  C   UNL     1     -14.915 -12.450   6.345  1.00  0.00     0.059 A 
ATOM     78  F   UNL     1     -13.859 -10.570   7.272  1.00  0.00    -0.206 F 
ATOM     79  C   UNL     1     -16.089 -13.095   5.957  1.00  0.00     0.060 A 
BRANCH  79  80
ATOM     80  S   UNL     1     -16.024 -14.739   5.211  1.00  0.00     0.124 S 
ATOM     81  O   UNL     1     -16.533 -15.572   6.294  1.00  0.00    -0.237 OA
ATOM     82  O   UNL     1     -16.903 -14.586   4.055  1.00  0.00    -0.237 OA
ATOM     83  O   UNL     1     -14.609 -14.907   4.895  1.00  0.00    -0.744 OA
ENDBRANCH  79  80
ENDBRANCH  47  72
BRANCH  59  84
ATOM     84  C   UNL     1     -18.913  -8.004  12.981  1.00  0.00     0.058 A 
ATOM     85  C   UNL     1     -18.255  -8.809  13.923  1.00  0.00     0.135 A 
ATOM     86  C   UNL     1     -20.291  -7.791  13.146  1.00  0.00     0.135 A 
ATOM     87  F   UNL     1     -16.939  -9.046  13.808  1.00  0.00    -0.206 F 
ATOM     88  C   UNL     1     -18.944  -9.408  14.972  1.00  0.00     0.059 A 
ATOM     89  C   UNL     1     -20.995  -8.357  14.202  1.00  0.00     0.059 A 
ATOM     90  F   UNL     1     -20.965  -7.018  12.279  1.00  0.00    -0.206 F 
ATOM     91  C   UNL     1     -20.316  -9.178  15.101  1.00  0.00     0.060 A 
BRANCH  91  92
ATOM     92  S   UNL     1     -21.199  -9.949  16.474  1.00  0.00     0.124 S 
ATOM     93  O   UNL     1     -21.321 -11.326  16.007  1.00  0.00    -0.237 OA
ATOM     94  O   UNL     1     -20.288  -9.738  17.594  1.00  0.00    -0.237 OA
ATOM     95  O   UNL     1     -22.447  -9.194  16.539  1.00  0.00    -0.744 OA
ENDBRANCH  91  92
ENDBRANCH  59  84
ENDBRANCH  33  34
ENDBRANCH  25  28
ENDBRANCH  23  24
ENDBRANCH   1  23
TORSDOF 16
