REMARK SMILES Cc1c(NC(=S)NC(=O)CSc2ccc(Cl)cc2)cccc1C(=O)NCCCCNC(=O)c1ccc(-c2c3nc(c(-c4c(F)cc(S(=O)(=O)[O-])cc4F)c4ccc([nH]4)c(-c4c(F)cc(S(=O)(=O)[O-])cc4F)c4nc(c(-c5c(F)cc(S(=O)(=O)[O-])cc5F)c5ccc2[nH]5)C=C4)C=C3)cc1
REMARK SMILES IDX 26 1 25 2 23 3 24 4 22 6 1 7 2 8 3 9 19 10 21 11 20 12 4 13
REMARK SMILES IDX 5 15 6 16 7 17 8 18 9 20 10 21 11 22 12 23 13 24 18 25 14 26
REMARK SMILES IDX 17 27 15 28 16 29 27 30 28 31 29 32 30 33 31 34 32 36 33 37
REMARK SMILES IDX 34 38 98 39 35 40 97 41 36 42 37 43 38 44 91 45 39 46 96 47
REMARK SMILES IDX 90 48 92 49 40 50 95 51 89 52 88 53 41 55 75 56 54 57 74 58
REMARK SMILES IDX 55 59 58 60 73 61 93 62 56 63 57 64 72 66 94 67 59 68 42 69
REMARK SMILES IDX 43 70 52 71 44 72 45 73 51 74 53 75 46 76 47 77 48 78 49 79
REMARK SMILES IDX 50 80 76 81 77 82 86 83 78 84 79 85 85 86 87 87 80 88 81 89
REMARK SMILES IDX 82 90 83 91 84 92 60 93 61 94 70 95 62 96 63 97 69 98 71 99
REMARK SMILES IDX 64 100 65 101 66 102 67 103 68 104
REMARK H PARENT 25 5 4 14 7 19 30 35 92 54 58 65
REMARK Flexibility Score: inf
ROOT
ATOM      1  C   UNL     1       3.880   1.787  -0.044  1.00  0.00     0.116 C 
ENDROOT
BRANCH   1   2
ATOM      2  N   UNL     1       2.601   2.466  -0.054  1.00  0.00    -0.352 N 
ATOM      3  C   UNL     1       1.295   2.191  -0.334  1.00  0.00     0.251 C 
ATOM      4  O   UNL     1       0.560   3.175  -0.145  1.00  0.00    -0.269 OA
ATOM      5  H   UNL     1       2.705   3.405   0.224  1.00  0.00     0.163 HD
BRANCH   3   6
ATOM      6  C   UNL     1       0.624   0.923  -0.828  1.00  0.00     0.044 A 
ATOM      7  C   UNL     1       2.416  -0.887  -0.498  1.00  0.00     0.047 C 
ATOM      8  C   UNL     1       1.018  -0.439  -0.790  1.00  0.00    -0.015 A 
ATOM      9  C   UNL     1       0.041  -1.455  -1.043  1.00  0.00     0.044 A 
ATOM     10  C   UNL     1      -1.183  -1.130  -1.621  1.00  0.00     0.026 A 
ATOM     11  C   UNL     1      -0.680   1.193  -1.323  1.00  0.00     0.014 A 
ATOM     12  C   UNL     1      -1.548   0.197  -1.762  1.00  0.00     0.003 A 
BRANCH   9  13
ATOM     13  N   UNL     1       0.334  -2.791  -0.695  1.00  0.00    -0.332 N 
ATOM     14  H   UNL     1       1.292  -2.940  -0.527  1.00  0.00     0.169 HD
BRANCH  13  15
ATOM     15  C   UNL     1      -0.398  -3.901  -0.543  1.00  0.00     0.177 C 
ATOM     16  S   UNL     1       0.391  -5.370  -0.735  1.00  0.00    -0.040 S 
BRANCH  15  17
ATOM     17  N   UNL     1      -1.714  -3.955  -0.198  1.00  0.00    -0.302 N 
ATOM     18  C   UNL     1      -2.722  -3.223   0.406  1.00  0.00     0.236 C 
ATOM     19  H   UNL     1      -2.079  -4.825  -0.477  1.00  0.00     0.172 HD
ATOM     20  O   UNL     1      -3.864  -3.698   0.299  1.00  0.00    -0.274 OA
BRANCH  18  21
ATOM     21  C   UNL     1      -2.534  -1.915   1.143  1.00  0.00     0.175 C 
BRANCH  21  22
ATOM     22  S   UNL     1      -1.050  -1.822   2.177  1.00  0.00    -0.116 SA
BRANCH  22  23
ATOM     23  C   UNL     1      -1.828  -1.585   3.752  1.00  0.00     0.008 A 
ATOM     24  C   UNL     1      -2.131  -0.306   4.229  1.00  0.00     0.016 A 
ATOM     25  C   UNL     1      -2.164  -2.711   4.505  1.00  0.00     0.016 A 
ATOM     26  C   UNL     1      -2.790  -0.160   5.452  1.00  0.00     0.021 A 
ATOM     27  C   UNL     1      -2.822  -2.565   5.724  1.00  0.00     0.021 A 
ATOM     28  C   UNL     1      -3.137  -1.290   6.191  1.00  0.00     0.041 A 
ATOM     29  Cl  UNL     1      -3.971  -1.118   7.685  1.00  0.00    -0.084 Cl
ENDBRANCH  22  23
ENDBRANCH  21  22
ENDBRANCH  18  21
ENDBRANCH  15  17
ENDBRANCH  13  15
ENDBRANCH   9  13
ENDBRANCH   3   6
ENDBRANCH   1   2
BRANCH   1  30
ATOM     30  C   UNL     1       4.448   1.535  -1.448  1.00  0.00     0.023 C 
BRANCH  30  31
ATOM     31  C   UNL     1       5.214   2.699  -2.061  1.00  0.00     0.023 C 
BRANCH  31  32
ATOM     32  C   UNL     1       6.519   2.985  -1.340  1.00  0.00     0.116 C 
BRANCH  32  33
ATOM     33  N   UNL     1       7.696   2.304  -1.850  1.00  0.00    -0.352 N 
ATOM     34  C   UNL     1       9.004   2.493  -1.427  1.00  0.00     0.251 C 
ATOM     35  H   UNL     1       7.551   1.643  -2.566  1.00  0.00     0.163 HD
ATOM     36  O   UNL     1       9.965   2.228  -2.143  1.00  0.00    -0.269 OA
BRANCH  34  37
ATOM     37  C   UNL     1       9.203   2.871  -0.008  1.00  0.00     0.039 A 
ATOM     38  C   UNL     1       9.814   1.923   0.824  1.00  0.00     0.014 A 
ATOM     39  C   UNL     1       8.485   3.930   0.533  1.00  0.00     0.014 A 
ATOM     40  C   UNL     1       9.516   1.910   2.185  1.00  0.00     0.010 A 
ATOM     41  C   UNL     1       8.071   3.825   1.843  1.00  0.00     0.010 A 
ATOM     42  C   UNL     1       8.556   2.795   2.663  1.00  0.00    -0.014 A 
BRANCH  42  43
ATOM     43  C   UNL     1       7.950   2.731   3.988  1.00  0.00     0.031 A 
ATOM     44  C   UNL     1       8.211   3.832   4.944  1.00  0.00     0.074 A 
ATOM     45  C   UNL     1       7.032   1.780   4.266  1.00  0.00     0.049 A 
ATOM     46  N   UNL     1       7.910   3.815   6.197  1.00  0.00    -0.248 NA
ATOM     47  C   UNL     1       8.908   5.051   4.550  1.00  0.00     0.031 C 
ATOM     48  C   UNL     1       6.043   1.796   5.340  1.00  0.00     0.029 A 
ATOM     49  N   UNL     1       6.935   0.496   3.729  1.00  0.00    -0.354 N 
ATOM     50  C   UNL     1       8.087   5.090   6.696  1.00  0.00     0.074 A 
ATOM     51  C   UNL     1       8.795   5.788   5.655  1.00  0.00     0.031 C 
ATOM     52  C   UNL     1       5.607   0.545   5.553  1.00  0.00     0.029 A 
ATOM     53  C   UNL     1       6.421  -0.341   4.739  1.00  0.00     0.049 A 
ATOM     54  H   UNL     1       7.180   0.226   2.815  1.00  0.00     0.167 HD
ATOM     55  C   UNL     1       7.485   5.418   7.877  1.00  0.00     0.037 A 
ATOM     56  C   UNL     1       7.178  -1.362   5.245  1.00  0.00     0.037 A 
ATOM     57  C   UNL     1       6.972   4.208   8.531  1.00  0.00     0.049 A 
ATOM     58  C   UNL     1       7.556  -1.184   6.700  1.00  0.00     0.074 A 
ATOM     59  C   UNL     1       5.709   3.647   8.625  1.00  0.00     0.029 A 
ATOM     60  N   UNL     1       7.869   3.220   8.935  1.00  0.00    -0.354 N 
ATOM     61  N   UNL     1       7.437  -0.060   7.355  1.00  0.00    -0.248 NA
ATOM     62  C   UNL     1       8.101  -2.252   7.535  1.00  0.00     0.031 C 
ATOM     63  C   UNL     1       5.862   2.280   8.982  1.00  0.00     0.029 A 
ATOM     64  C   UNL     1       7.213   2.020   9.141  1.00  0.00     0.049 A 
ATOM     65  H   UNL     1       8.836   3.358   9.056  1.00  0.00     0.167 HD
ATOM     66  C   UNL     1       7.904  -0.215   8.634  1.00  0.00     0.074 A 
ATOM     67  C   UNL     1       8.281  -1.615   8.706  1.00  0.00     0.031 C 
ATOM     68  C   UNL     1       7.953   0.823   9.523  1.00  0.00     0.037 A 
BRANCH  55  69
ATOM     69  C   UNL     1       7.101   6.837   8.298  1.00  0.00     0.058 A 
ATOM     70  C   UNL     1       6.095   7.044   9.272  1.00  0.00     0.135 A 
ATOM     71  C   UNL     1       7.585   8.032   7.726  1.00  0.00     0.135 A 
ATOM     72  F   UNL     1       5.588   6.025   9.980  1.00  0.00    -0.206 F 
ATOM     73  C   UNL     1       5.548   8.301   9.563  1.00  0.00     0.059 A 
ATOM     74  C   UNL     1       7.037   9.294   7.975  1.00  0.00     0.059 A 
ATOM     75  F   UNL     1       8.649   8.063   6.923  1.00  0.00    -0.206 F 
ATOM     76  C   UNL     1       6.003   9.421   8.883  1.00  0.00     0.060 A 
BRANCH  76  77
ATOM     77  S   UNL     1       5.256  11.027   9.207  1.00  0.00     0.124 S 
ATOM     78  O   UNL     1       3.862  10.793   8.844  1.00  0.00    -0.237 OA
ATOM     79  O   UNL     1       5.524  11.209  10.629  1.00  0.00    -0.237 OA
ATOM     80  O   UNL     1       5.984  11.928   8.316  1.00  0.00    -0.744 OA
ENDBRANCH  76  77
ENDBRANCH  55  69
BRANCH  56  81
ATOM     81  C   UNL     1       7.992  -2.040   4.195  1.00  0.00     0.058 A 
ATOM     82  C   UNL     1       7.285  -2.770   3.219  1.00  0.00     0.135 A 
ATOM     83  C   UNL     1       9.273  -1.579   3.859  1.00  0.00     0.135 A 
ATOM     84  F   UNL     1       6.066  -3.259   3.499  1.00  0.00    -0.206 F 
ATOM     85  C   UNL     1       7.733  -2.857   1.906  1.00  0.00     0.059 A 
ATOM     86  C   UNL     1       9.748  -1.667   2.547  1.00  0.00     0.059 A 
ATOM     87  F   UNL     1       9.998  -0.888   4.750  1.00  0.00    -0.206 F 
ATOM     88  C   UNL     1       8.927  -2.226   1.566  1.00  0.00     0.060 A 
BRANCH  88  89
ATOM     89  S   UNL     1       9.264  -1.961  -0.193  1.00  0.00     0.124 S 
ATOM     90  O   UNL     1       9.193  -3.317  -0.726  1.00  0.00    -0.237 OA
ATOM     91  O   UNL     1       8.160  -1.077  -0.567  1.00  0.00    -0.237 OA
ATOM     92  O   UNL     1      10.589  -1.354  -0.190  1.00  0.00    -0.744 OA
ENDBRANCH  88  89
ENDBRANCH  56  81
BRANCH  68  93
ATOM     93  C   UNL     1       8.633   0.789  10.872  1.00  0.00     0.058 A 
ATOM     94  C   UNL     1       9.779   0.027  11.158  1.00  0.00     0.135 A 
ATOM     95  C   UNL     1       8.211   1.665  11.902  1.00  0.00     0.135 A 
ATOM     96  F   UNL     1      10.343  -0.759  10.230  1.00  0.00    -0.206 F 
ATOM     97  C   UNL     1      10.420   0.077  12.398  1.00  0.00     0.059 A 
ATOM     98  C   UNL     1       8.869   1.773  13.124  1.00  0.00     0.059 A 
ATOM     99  F   UNL     1       7.142   2.461  11.747  1.00  0.00    -0.206 F 
ATOM    100  C   UNL     1       9.958   0.953  13.376  1.00  0.00     0.060 A 
BRANCH 100 101
ATOM    101  S   UNL     1      10.812   1.068  14.959  1.00  0.00     0.124 S 
ATOM    102  O   UNL     1      10.081   0.087  15.755  1.00  0.00    -0.237 OA
ATOM    103  O   UNL     1      12.184   0.705  14.616  1.00  0.00    -0.237 OA
ATOM    104  O   UNL     1      10.619   2.464  15.339  1.00  0.00    -0.744 OA
ENDBRANCH 100 101
ENDBRANCH  68  93
ENDBRANCH  42  43
ENDBRANCH  34  37
ENDBRANCH  32  33
ENDBRANCH  31  32
ENDBRANCH  30  31
ENDBRANCH   1  30
TORSDOF 20
