REMARK SMILES CC(C)(C)OC(=O)N1[C@@H](C(=O)NCCCCNC(=O)c2ccc(-c3c4nc(c(-c5c(F)cc(S(=O)(=O)[O-])cc5F)c5ccc([nH]5)c(-c5c(F)cc(S(=O)(=O)[O-])cc5F)c5nc(c(-c6c(F)cc(S(=O)(=O)[O-])cc6F)c6ccc3[nH]6)C=C5)C=C4)cc2)C[C@H]2CCCC[C@@H]21
REMARK SMILES IDX 14 1 13 2 12 3 10 4 11 5 9 7 8 8 92 9 86 10 87 11 91 12
REMARK SMILES IDX 88 13 90 14 89 15 6 16 7 17 5 18 2 19 1 20 3 21 4 22 15 23
REMARK SMILES IDX 16 24 17 25 18 26 19 28 20 29 21 30 85 31 22 32 84 33 23 34
REMARK SMILES IDX 24 35 25 36 78 37 26 38 83 39 77 40 79 41 27 42 82 43 76 44
REMARK SMILES IDX 75 45 28 47 62 48 41 49 61 50 42 51 45 52 60 53 80 54 43 55
REMARK SMILES IDX 44 56 59 58 81 59 46 60 29 61 30 62 39 63 31 64 32 65 38 66
REMARK SMILES IDX 40 67 33 68 34 69 35 70 36 71 37 72 63 73 64 74 73 75 65 76
REMARK SMILES IDX 66 77 72 78 74 79 67 80 68 81 69 82 70 83 71 84 47 85 48 86
REMARK SMILES IDX 57 87 49 88 50 89 56 90 58 91 51 92 52 93 53 94 54 95 55 96
REMARK H PARENT 12 6 17 27 79 46 45 57
REMARK Flexibility Score: inf
ROOT
ATOM      1  C   UNL     1       4.733  -3.028   7.797  1.00  0.00     0.023 C 
ENDROOT
BRANCH   1   2
ATOM      2  C   UNL     1       3.680  -1.914   7.797  1.00  0.00     0.116 C 
BRANCH   2   3
ATOM      3  N   UNL     1       3.854  -0.989   6.691  1.00  0.00    -0.354 N 
ATOM      4  C   UNL     1       3.350  -0.894   5.432  1.00  0.00     0.242 C 
ATOM      5  O   UNL     1       3.704   0.121   4.812  1.00  0.00    -0.273 OA
ATOM      6  H   UNL     1       4.483  -0.261   6.903  1.00  0.00     0.163 HD
BRANCH   4   7
ATOM      7  C   UNL     1       2.312  -1.852   4.768  1.00  0.00     0.178 C 
ATOM      8  N   UNL     1       0.993  -1.198   4.765  1.00  0.00    -0.293 N 
ATOM      9  C   UNL     1       0.178  -1.722   5.827  1.00  0.00     0.092 C 
ATOM     10  C   UNL     1       2.054  -3.228   5.392  1.00  0.00     0.041 C 
ATOM     11  C   UNL     1       0.583  -3.200   5.814  1.00  0.00     0.014 C 
ATOM     12  C   UNL     1      -1.347  -1.683   5.709  1.00  0.00     0.025 C 
ATOM     13  C   UNL     1       0.158  -3.835   7.126  1.00  0.00     0.006 C 
ATOM     14  C   UNL     1      -1.980  -2.409   6.905  1.00  0.00     0.002 C 
ATOM     15  C   UNL     1      -1.377  -3.791   7.207  1.00  0.00     0.000 C 
BRANCH   8  16
ATOM     16  C   UNL     1       0.599  -0.176   3.939  1.00  0.00     0.411 C 
ATOM     17  O   UNL     1      -0.277   0.625   4.238  1.00  0.00    -0.224 OA
BRANCH  16  18
ATOM     18  O   UNL     1       1.175  -0.261   2.712  1.00  0.00    -0.444 OA
BRANCH  18  19
ATOM     19  C   UNL     1       0.675   0.562   1.622  1.00  0.00     0.106 C 
ATOM     20  C   UNL     1       1.323  -0.010   0.350  1.00  0.00     0.056 C 
ATOM     21  C   UNL     1       1.126   2.013   1.803  1.00  0.00     0.056 C 
ATOM     22  C   UNL     1      -0.850   0.461   1.440  1.00  0.00     0.056 C 
ENDBRANCH  18  19
ENDBRANCH  16  18
ENDBRANCH   8  16
ENDBRANCH   4   7
ENDBRANCH   2   3
ENDBRANCH   1   2
BRANCH   1  23
ATOM     23  C   UNL     1       6.057  -2.669   8.480  1.00  0.00     0.023 C 
BRANCH  23  24
ATOM     24  C   UNL     1       5.966  -2.323   9.965  1.00  0.00     0.116 C 
BRANCH  24  25
ATOM     25  N   UNL     1       5.372  -3.373  10.782  1.00  0.00    -0.352 N 
ATOM     26  C   UNL     1       5.690  -3.727  12.075  1.00  0.00     0.251 C 
ATOM     27  H   UNL     1       4.652  -3.894  10.358  1.00  0.00     0.163 HD
ATOM     28  O   UNL     1       5.149  -4.690  12.608  1.00  0.00    -0.269 OA
BRANCH  26  29
ATOM     29  C   UNL     1       6.729  -2.957  12.790  1.00  0.00     0.039 A 
ATOM     30  C   UNL     1       7.821  -3.635  13.337  1.00  0.00     0.014 A 
ATOM     31  C   UNL     1       6.663  -1.562  12.836  1.00  0.00     0.014 A 
ATOM     32  C   UNL     1       8.898  -2.905  13.846  1.00  0.00     0.010 A 
ATOM     33  C   UNL     1       7.767  -0.839  13.275  1.00  0.00     0.010 A 
ATOM     34  C   UNL     1       8.902  -1.502  13.770  1.00  0.00    -0.014 A 
BRANCH  34  35
ATOM     35  C   UNL     1      10.091  -0.706  14.169  1.00  0.00     0.031 A 
ATOM     36  C   UNL     1       9.996   0.275  15.304  1.00  0.00     0.074 A 
ATOM     37  C   UNL     1      11.230  -0.806  13.454  1.00  0.00     0.049 A 
ATOM     38  N   UNL     1      10.895   1.116  15.747  1.00  0.00    -0.248 NA
ATOM     39  C   UNL     1       8.710   0.339  16.016  1.00  0.00     0.031 C 
ATOM     40  C   UNL     1      11.434  -1.689  12.304  1.00  0.00     0.029 A 
ATOM     41  N   UNL     1      12.430  -0.151  13.583  1.00  0.00    -0.354 N 
ATOM     42  C   UNL     1      10.280   1.817  16.778  1.00  0.00     0.074 A 
ATOM     43  C   UNL     1       8.915   1.345  16.853  1.00  0.00     0.031 C 
ATOM     44  C   UNL     1      12.691  -1.546  11.855  1.00  0.00     0.029 A 
ATOM     45  C   UNL     1      13.370  -0.530  12.653  1.00  0.00     0.049 A 
ATOM     46  H   UNL     1      12.602   0.526  14.276  1.00  0.00     0.167 HD
ATOM     47  C   UNL     1      10.812   2.752  17.602  1.00  0.00     0.037 A 
ATOM     48  C   UNL     1      14.634  -0.104  12.461  1.00  0.00     0.037 A 
ATOM     49  C   UNL     1      12.176   3.206  17.529  1.00  0.00     0.049 A 
ATOM     50  C   UNL     1      15.193   0.959  13.368  1.00  0.00     0.074 A 
ATOM     51  C   UNL     1      12.829   4.105  18.352  1.00  0.00     0.029 A 
ATOM     52  N   UNL     1      13.095   2.803  16.569  1.00  0.00    -0.354 N 
ATOM     53  N   UNL     1      14.621   1.562  14.382  1.00  0.00    -0.248 NA
ATOM     54  C   UNL     1      16.569   1.402  13.102  1.00  0.00     0.031 C 
ATOM     55  C   UNL     1      14.127   4.285  17.861  1.00  0.00     0.029 A 
ATOM     56  C   UNL     1      14.300   3.458  16.762  1.00  0.00     0.049 A 
ATOM     57  H   UNL     1      12.916   2.149  15.856  1.00  0.00     0.167 HD
ATOM     58  C   UNL     1      15.576   2.433  14.896  1.00  0.00     0.074 A 
ATOM     59  C   UNL     1      16.765   2.272  14.084  1.00  0.00     0.031 C 
ATOM     60  C   UNL     1      15.479   3.284  15.947  1.00  0.00     0.037 A 
BRANCH  47  61
ATOM     61  C   UNL     1       9.906   3.345  18.648  1.00  0.00     0.058 A 
ATOM     62  C   UNL     1       9.426   2.584  19.727  1.00  0.00     0.135 A 
ATOM     63  C   UNL     1       9.508   4.689  18.570  1.00  0.00     0.135 A 
ATOM     64  F   UNL     1       9.764   1.290  19.845  1.00  0.00    -0.206 F 
ATOM     65  C   UNL     1       8.545   3.119  20.661  1.00  0.00     0.059 A 
ATOM     66  C   UNL     1       8.653   5.255  19.512  1.00  0.00     0.059 A 
ATOM     67  F   UNL     1       9.939   5.465  17.563  1.00  0.00    -0.206 F 
ATOM     68  C   UNL     1       8.159   4.454  20.541  1.00  0.00     0.060 A 
BRANCH  68  69
ATOM     69  S   UNL     1       6.988   5.123  21.741  1.00  0.00     0.124 S 
ATOM     70  O   UNL     1       5.744   4.490  21.315  1.00  0.00    -0.237 OA
ATOM     71  O   UNL     1       7.536   4.652  23.009  1.00  0.00    -0.237 OA
ATOM     72  O   UNL     1       7.065   6.564  21.524  1.00  0.00    -0.744 OA
ENDBRANCH  68  69
ENDBRANCH  47  61
BRANCH  48  73
ATOM     73  C   UNL     1      15.471  -0.712  11.392  1.00  0.00     0.058 A 
ATOM     74  C   UNL     1      16.547  -1.550  11.718  1.00  0.00     0.135 A 
ATOM     75  C   UNL     1      15.205  -0.489  10.032  1.00  0.00     0.135 A 
ATOM     76  F   UNL     1      16.847  -1.787  13.004  1.00  0.00    -0.206 F 
ATOM     77  C   UNL     1      17.337  -2.139  10.736  1.00  0.00     0.059 A 
ATOM     78  C   UNL     1      15.966  -1.087   9.031  1.00  0.00     0.059 A 
ATOM     79  F   UNL     1      14.178   0.293   9.666  1.00  0.00    -0.206 F 
ATOM     80  C   UNL     1      17.035  -1.906   9.394  1.00  0.00     0.060 A 
BRANCH  80  81
ATOM     81  S   UNL     1      18.031  -2.724   8.129  1.00  0.00     0.124 S 
ATOM     82  O   UNL     1      19.290  -1.995   8.228  1.00  0.00    -0.237 OA
ATOM     83  O   UNL     1      18.053  -4.104   8.605  1.00  0.00    -0.237 OA
ATOM     84  O   UNL     1      17.267  -2.504   6.905  1.00  0.00    -0.744 OA
ENDBRANCH  80  81
ENDBRANCH  48  73
BRANCH  60  85
ATOM     85  C   UNL     1      16.698   4.087  16.306  1.00  0.00     0.058 A 
ATOM     86  C   UNL     1      17.132   5.165  15.518  1.00  0.00     0.135 A 
ATOM     87  C   UNL     1      17.405   3.814  17.489  1.00  0.00     0.135 A 
ATOM     88  F   UNL     1      16.498   5.462  14.372  1.00  0.00    -0.206 F 
ATOM     89  C   UNL     1      18.232   5.934  15.881  1.00  0.00     0.059 A 
ATOM     90  C   UNL     1      18.491   4.588  17.886  1.00  0.00     0.059 A 
ATOM     91  F   UNL     1      17.028   2.800  18.283  1.00  0.00    -0.206 F 
ATOM     92  C   UNL     1      18.902   5.641  17.071  1.00  0.00     0.060 A 
BRANCH  92  93
ATOM     93  S   UNL     1      20.297   6.679  17.556  1.00  0.00     0.124 S 
ATOM     94  O   UNL     1      21.325   6.250  16.614  1.00  0.00    -0.237 OA
ATOM     95  O   UNL     1      19.771   8.025  17.351  1.00  0.00    -0.237 OA
ATOM     96  O   UNL     1      20.529   6.309  18.949  1.00  0.00    -0.744 OA
ENDBRANCH  92  93
ENDBRANCH  60  85
ENDBRANCH  34  35
ENDBRANCH  26  29
ENDBRANCH  24  25
ENDBRANCH  23  24
ENDBRANCH   1  23
TORSDOF 17
