REMARK SMILES Cc1cccc(S(=O)(=O)Nc2cc(C(=O)NCCCCNC(=O)c3ccc(-c4c5nc(c(-c6c(F)cc(S(=O)(=O)[O-])cc6F)c6ccc([nH]6)c(-c6c(F)cc(S(=O)(=O)[O-])cc6F)c6nc(c(-c7c(F)cc(S(=O)(=O)[O-])cc7F)c7ccc4[nH]7)C=C6)C=C5)cc3)ccc2N2CCC[C@H](C[NH+]3CCCC3)C2)c1
REMARK SMILES IDX 18 1 17 2 16 3 14 4 15 5 13 7 11 8 12 9 92 10 91 11 90 12
REMARK SMILES IDX 10 13 7 15 8 16 9 17 6 18 1 19 2 20 3 21 105 22 4 23 5 24
REMARK SMILES IDX 93 25 94 26 104 27 95 28 97 29 96 30 98 31 99 32 100 33
REMARK SMILES IDX 103 34 101 36 102 37 19 38 20 39 21 40 22 41 23 43 24 44
REMARK SMILES IDX 25 45 89 46 26 47 88 48 27 49 28 50 29 51 82 52 30 53 87 54
REMARK SMILES IDX 81 55 83 56 31 57 86 58 80 59 79 60 32 62 66 63 45 64 65 65
REMARK SMILES IDX 46 66 49 67 64 68 84 69 47 70 48 71 63 73 85 74 50 75 33 76
REMARK SMILES IDX 34 77 43 78 35 79 36 80 42 81 44 82 37 83 38 84 39 85 40 86
REMARK SMILES IDX 41 87 67 88 68 89 77 90 69 91 70 92 76 93 78 94 71 95 72 96
REMARK SMILES IDX 73 97 74 98 75 99 51 100 52 101 61 102 53 103 54 104 60 105
REMARK SMILES IDX 62 106 55 107 56 108 57 109 58 110 59 111
REMARK H PARENT 16 6 10 14 99 35 21 42 83 61 49 72
REMARK Flexibility Score: inf
ROOT
ATOM      1  C   UNL     1       0.243   1.732  -4.259  1.00  0.00     0.023 C 
ENDROOT
BRANCH   1   2
ATOM      2  C   UNL     1       0.969   0.983  -3.134  1.00  0.00     0.116 C 
BRANCH   2   3
ATOM      3  N   UNL     1       2.384   1.323  -3.077  1.00  0.00    -0.352 N 
ATOM      4  C   UNL     1       3.102   2.250  -2.368  1.00  0.00     0.251 C 
ATOM      5  O   UNL     1       4.325   2.264  -2.527  1.00  0.00    -0.269 OA
ATOM      6  H   UNL     1       2.942   0.772  -3.673  1.00  0.00     0.163 HD
BRANCH   4   7
ATOM      7  C   UNL     1       2.506   3.195  -1.379  1.00  0.00     0.042 A 
ATOM      8  C   UNL     1       0.659   4.296  -0.258  1.00  0.00     0.073 A 
ATOM      9  C   UNL     1       1.163   3.553  -1.331  1.00  0.00     0.042 A 
ATOM     10  C   UNL     1       1.511   4.849   0.718  1.00  0.00     0.061 A 
ATOM     11  C   UNL     1       2.878   4.569   0.603  1.00  0.00     0.029 A 
ATOM     12  C   UNL     1       3.365   3.732  -0.408  1.00  0.00     0.016 A 
BRANCH   8  13
ATOM     13  N   UNL     1      -0.765   4.417  -0.157  1.00  0.00    -0.277 N 
ATOM     14  H   UNL     1      -1.211   5.251  -0.430  1.00  0.00     0.180 HD
BRANCH  13  15
ATOM     15  S   UNL     1      -1.690   3.103   0.441  1.00  0.00     0.261 S 
ATOM     16  O   UNL     1      -2.777   2.957  -0.505  1.00  0.00    -0.201 OA
ATOM     17  O   UNL     1      -1.993   3.405   1.825  1.00  0.00    -0.201 OA
BRANCH  15  18
ATOM     18  C   UNL     1      -0.752   1.586   0.441  1.00  0.00     0.088 A 
ATOM     19  C   UNL     1       2.742   0.234   1.188  1.00  0.00     0.044 C 
ATOM     20  C   UNL     1       1.291   0.308   0.817  1.00  0.00    -0.050 A 
ATOM     21  C   UNL     1       0.694  -0.800   0.218  1.00  0.00     0.003 A 
ATOM     22  C   UNL     1       0.533   1.478   0.995  1.00  0.00     0.025 A 
ATOM     23  C   UNL     1      -0.613  -0.716  -0.246  1.00  0.00     0.002 A 
ATOM     24  C   UNL     1      -1.337   0.468  -0.151  1.00  0.00     0.022 A 
ENDBRANCH  15  18
ENDBRANCH  13  15
ENDBRANCH   8  13
BRANCH  10  25
ATOM     25  N   UNL     1       1.086   5.644   1.768  1.00  0.00    -0.369 N 
ATOM     26  C   UNL     1       1.296   7.082   1.664  1.00  0.00     0.116 C 
ATOM     27  C   UNL     1       0.143   5.161   2.772  1.00  0.00     0.126 C 
ATOM     28  C   UNL     1       1.688   7.633   3.033  1.00  0.00     0.022 C 
ATOM     29  C   UNL     1       0.533   5.661   4.172  1.00  0.00     0.064 C 
ATOM     30  C   UNL     1       0.702   7.189   4.115  1.00  0.00     0.013 C 
BRANCH  29  31
ATOM     31  C   UNL     1       1.755   4.848   4.673  1.00  0.00     0.267 C 
BRANCH  31  32
ATOM     32  N   UNL     1       2.146   4.910   6.084  1.00  0.00    -0.335 N 
ATOM     33  C   UNL     1       1.091   4.596   7.043  1.00  0.00     0.262 C 
ATOM     34  C   UNL     1       2.809   6.135   6.514  1.00  0.00     0.262 C 
ATOM     35  H   UNL     1       2.836   4.158   6.098  1.00  0.00     0.348 HD
ATOM     36  C   UNL     1       0.652   5.936   7.598  1.00  0.00     0.067 C 
ATOM     37  C   UNL     1       1.921   6.768   7.579  1.00  0.00     0.067 C 
ENDBRANCH  31  32
ENDBRANCH  29  31
ENDBRANCH  10  25
ENDBRANCH   4   7
ENDBRANCH   2   3
ENDBRANCH   1   2
BRANCH   1  38
ATOM     38  C   UNL     1       0.668   1.291  -5.660  1.00  0.00     0.023 C 
BRANCH  38  39
ATOM     39  C   UNL     1       0.158  -0.099  -6.011  1.00  0.00     0.116 C 
BRANCH  39  40
ATOM     40  N   UNL     1      -0.927  -0.096  -6.978  1.00  0.00    -0.352 N 
ATOM     41  C   UNL     1      -1.341  -1.204  -7.698  1.00  0.00     0.251 C 
ATOM     42  H   UNL     1      -1.401   0.753  -7.132  1.00  0.00     0.163 HD
ATOM     43  O   UNL     1      -1.782  -1.149  -8.839  1.00  0.00    -0.269 OA
BRANCH  41  44
ATOM     44  C   UNL     1      -1.383  -2.470  -6.939  1.00  0.00     0.039 A 
ATOM     45  C   UNL     1      -2.633  -2.914  -6.486  1.00  0.00     0.014 A 
ATOM     46  C   UNL     1      -0.201  -3.021  -6.455  1.00  0.00     0.014 A 
ATOM     47  C   UNL     1      -2.696  -3.804  -5.419  1.00  0.00     0.010 A 
ATOM     48  C   UNL     1      -0.265  -3.829  -5.339  1.00  0.00     0.010 A 
ATOM     49  C   UNL     1      -1.509  -4.181  -4.794  1.00  0.00    -0.014 A 
BRANCH  49  50
ATOM     50  C   UNL     1      -1.442  -4.887  -3.520  1.00  0.00     0.031 A 
ATOM     51  C   UNL     1      -1.009  -6.299  -3.485  1.00  0.00     0.074 A 
ATOM     52  C   UNL     1      -1.633  -4.207  -2.370  1.00  0.00     0.049 A 
ATOM     53  N   UNL     1      -1.089  -7.069  -2.455  1.00  0.00    -0.248 NA
ATOM     54  C   UNL     1      -0.510  -6.982  -4.670  1.00  0.00     0.031 C 
ATOM     55  C   UNL     1      -1.243  -4.621  -1.027  1.00  0.00     0.029 A 
ATOM     56  N   UNL     1      -2.448  -3.095  -2.161  1.00  0.00    -0.354 N 
ATOM     57  C   UNL     1      -0.382  -8.219  -2.731  1.00  0.00     0.074 A 
ATOM     58  C   UNL     1      -0.150  -8.158  -4.152  1.00  0.00     0.031 C 
ATOM     59  C   UNL     1      -2.042  -4.008  -0.143  1.00  0.00     0.029 A 
ATOM     60  C   UNL     1      -3.047  -3.284  -0.908  1.00  0.00     0.049 A 
ATOM     61  H   UNL     1      -2.576  -2.332  -2.770  1.00  0.00     0.167 HD
ATOM     62  C   UNL     1       0.040  -8.991  -1.685  1.00  0.00     0.037 A 
ATOM     63  C   UNL     1      -4.389  -3.330  -0.681  1.00  0.00     0.037 A 
ATOM     64  C   UNL     1      -0.646  -8.585  -0.446  1.00  0.00     0.049 A 
ATOM     65  C   UNL     1      -4.769  -4.622   0.001  1.00  0.00     0.074 A 
ATOM     66  C   UNL     1      -0.256  -7.846   0.660  1.00  0.00     0.029 A 
ATOM     67  N   UNL     1      -2.039  -8.686  -0.370  1.00  0.00    -0.354 N 
ATOM     68  N   UNL     1      -4.032  -5.701  -0.051  1.00  0.00    -0.248 NA
ATOM     69  C   UNL     1      -5.957  -4.797   0.827  1.00  0.00     0.031 C 
ATOM     70  C   UNL     1      -1.429  -7.420   1.342  1.00  0.00     0.029 A 
ATOM     71  C   UNL     1      -2.533  -7.929   0.677  1.00  0.00     0.049 A 
ATOM     72  H   UNL     1      -2.593  -9.223  -0.981  1.00  0.00     0.167 HD
ATOM     73  C   UNL     1      -4.572  -6.665   0.754  1.00  0.00     0.074 A 
ATOM     74  C   UNL     1      -5.792  -6.060   1.263  1.00  0.00     0.031 C 
ATOM     75  C   UNL     1      -3.963  -7.870   0.969  1.00  0.00     0.037 A 
BRANCH  62  76
ATOM     76  C   UNL     1       1.278  -9.894  -1.729  1.00  0.00     0.058 A 
ATOM     77  C   UNL     1       1.959 -10.253  -0.541  1.00  0.00     0.135 A 
ATOM     78  C   UNL     1       1.913 -10.361  -2.901  1.00  0.00     0.135 A 
ATOM     79  F   UNL     1       1.459  -9.959   0.667  1.00  0.00    -0.206 F 
ATOM     80  C   UNL     1       3.193 -10.923  -0.527  1.00  0.00     0.059 A 
ATOM     81  C   UNL     1       3.159 -10.998  -2.917  1.00  0.00     0.059 A 
ATOM     82  F   UNL     1       1.347 -10.273  -4.104  1.00  0.00    -0.206 F 
ATOM     83  C   UNL     1       3.802 -11.268  -1.725  1.00  0.00     0.060 A 
BRANCH  83  84
ATOM     84  S   UNL     1       5.408 -12.086  -1.718  1.00  0.00     0.124 S 
ATOM     85  O   UNL     1       6.247 -11.107  -1.034  1.00  0.00    -0.237 OA
ATOM     86  O   UNL     1       5.124 -13.311  -0.978  1.00  0.00    -0.237 OA
ATOM     87  O   UNL     1       5.704 -12.271  -3.136  1.00  0.00    -0.744 OA
ENDBRANCH  83  84
ENDBRANCH  62  76
BRANCH  63  88
ATOM     88  C   UNL     1      -5.193  -2.525  -1.639  1.00  0.00     0.058 A 
ATOM     89  C   UNL     1      -5.060  -1.123  -1.553  1.00  0.00     0.135 A 
ATOM     90  C   UNL     1      -5.615  -3.058  -2.864  1.00  0.00     0.135 A 
ATOM     91  F   UNL     1      -4.689  -0.560  -0.391  1.00  0.00    -0.206 F 
ATOM     92  C   UNL     1      -5.132  -0.308  -2.679  1.00  0.00     0.059 A 
ATOM     93  C   UNL     1      -5.709  -2.255  -4.005  1.00  0.00     0.059 A 
ATOM     94  F   UNL     1      -5.746  -4.384  -3.014  1.00  0.00    -0.206 F 
ATOM     95  C   UNL     1      -5.380  -0.900  -3.915  1.00  0.00     0.060 A 
BRANCH  95  96
ATOM     96  S   UNL     1      -5.082   0.081  -5.411  1.00  0.00     0.124 S 
ATOM     97  O   UNL     1      -5.935   1.243  -5.194  1.00  0.00    -0.237 OA
ATOM     98  O   UNL     1      -3.641   0.321  -5.333  1.00  0.00    -0.237 OA
ATOM     99  O   UNL     1      -5.501  -0.819  -6.480  1.00  0.00    -0.744 OA
ENDBRANCH  95  96
ENDBRANCH  63  88
BRANCH  75 100
ATOM    100  C   UNL     1      -4.636  -9.068   1.595  1.00  0.00     0.058 A 
ATOM    101  C   UNL     1      -6.014  -9.326   1.482  1.00  0.00     0.135 A 
ATOM    102  C   UNL     1      -3.870 -10.095   2.196  1.00  0.00     0.135 A 
ATOM    103  F   UNL     1      -6.831  -8.484   0.832  1.00  0.00    -0.206 F 
ATOM    104  C   UNL     1      -6.603 -10.486   1.986  1.00  0.00     0.059 A 
ATOM    105  C   UNL     1      -4.430 -11.285   2.654  1.00  0.00     0.059 A 
ATOM    106  F   UNL     1      -2.541  -9.987   2.338  1.00  0.00    -0.206 F 
ATOM    107  C   UNL     1      -5.803 -11.463   2.566  1.00  0.00     0.060 A 
BRANCH 107 108
ATOM    108  S   UNL     1      -6.541 -13.005   3.132  1.00  0.00     0.124 S 
ATOM    109  O   UNL     1      -6.813 -12.700   4.533  1.00  0.00    -0.237 OA
ATOM    110  O   UNL     1      -7.718 -13.136   2.277  1.00  0.00    -0.237 OA
ATOM    111  O   UNL     1      -5.488 -13.985   2.887  1.00  0.00    -0.744 OA
ENDBRANCH 107 108
ENDBRANCH  75 100
ENDBRANCH  49  50
ENDBRANCH  41  44
ENDBRANCH  39  40
ENDBRANCH  38  39
ENDBRANCH   1  38
TORSDOF 20
