REMARK SMILES O=C(CSc1ccnc(C(=O)NCCCCNC(=O)c2ccc(-c3c4nc(c(-c5c(F)cc(S(=O)(=O)[O-])cc5F)c5ccc([nH]5)c(-c5c(F)cc(S(=O)(=O)[O-])cc5F)c5nc(c(-c6c(F)cc(S(=O)(=O)[O-])cc6F)c6ccc3[nH]6)C=C5)C=C4)cc2)c1)NCC(F)(F)F
REMARK SMILES IDX 13 1 12 2 10 3 11 4 9 6 5 7 6 8 86 9 7 10 8 11 4 12 3 13
REMARK SMILES IDX 2 14 1 15 87 16 88 18 89 19 90 20 91 21 92 22 14 23 15 24
REMARK SMILES IDX 16 25 17 26 18 27 19 29 20 30 21 31 85 32 22 33 84 34 23 35
REMARK SMILES IDX 24 36 25 37 78 38 26 39 83 40 77 41 79 42 27 43 82 44 76 45
REMARK SMILES IDX 75 46 28 48 62 49 41 50 61 51 42 52 45 53 60 54 80 55 43 56
REMARK SMILES IDX 44 57 59 59 81 60 46 61 29 62 30 63 39 64 31 65 32 66 38 67
REMARK SMILES IDX 40 68 33 69 34 70 35 71 36 72 37 73 63 74 64 75 73 76 65 77
REMARK SMILES IDX 66 78 72 79 74 80 67 81 68 82 69 83 70 84 71 85 47 86 48 87
REMARK SMILES IDX 57 88 49 89 50 90 56 91 58 92 51 93 52 94 53 95 54 96 55 97
REMARK H PARENT 12 5 87 17 17 28 79 47 45 58
REMARK Flexibility Score: inf
ROOT
ATOM      1  C   UNL     1       4.815  -6.856  -0.299  1.00  0.00     0.116 C 
ENDROOT
BRANCH   1   2
ATOM      2  N   UNL     1       3.794  -7.192  -1.268  1.00  0.00    -0.351 N 
ATOM      3  C   UNL     1       2.838  -6.487  -1.961  1.00  0.00     0.269 C 
ATOM      4  O   UNL     1       2.127  -7.171  -2.705  1.00  0.00    -0.268 OA
ATOM      5  H   UNL     1       3.780  -8.153  -1.482  1.00  0.00     0.163 HD
BRANCH   3   6
ATOM      6  C   UNL     1       2.605  -4.994  -1.895  1.00  0.00     0.129 A 
ATOM      7  C   UNL     1       3.061  -2.718  -1.263  1.00  0.00     0.012 A 
ATOM      8  C   UNL     1       2.023  -2.297  -2.084  1.00  0.00     0.035 A 
ATOM      9  C   UNL     1       3.349  -4.084  -1.162  1.00  0.00     0.049 A 
ATOM     10  C   UNL     1       1.302  -3.260  -2.756  1.00  0.00     0.113 A 
ATOM     11  N   UNL     1       1.573  -4.576  -2.681  1.00  0.00    -0.251 NA
BRANCH   7  12
ATOM     12  S   UNL     1       4.127  -1.571  -0.399  1.00  0.00    -0.116 SA
BRANCH  12  13
ATOM     13  C   UNL     1       2.926  -0.712   0.678  1.00  0.00     0.174 C 
BRANCH  13  14
ATOM     14  C   UNL     1       2.137   0.352  -0.067  1.00  0.00     0.230 C 
ATOM     15  O   UNL     1       0.953   0.572   0.172  1.00  0.00    -0.274 OA
ATOM     16  N   UNL     1       2.845   1.075  -1.000  1.00  0.00    -0.346 N 
ATOM     17  H   UNL     1       3.807   0.895  -1.106  1.00  0.00     0.163 HD
BRANCH  16  18
ATOM     18  C   UNL     1       2.226   2.101  -1.838  1.00  0.00     0.231 C 
BRANCH  18  19
ATOM     19  C   UNL     1       2.643   3.534  -1.515  1.00  0.00     0.405 C 
ATOM     20  F   UNL     1       3.986   3.675  -1.622  1.00  0.00    -0.169 F 
ATOM     21  F   UNL     1       2.076   4.402  -2.384  1.00  0.00    -0.169 F 
ATOM     22  F   UNL     1       2.286   3.904  -0.269  1.00  0.00    -0.169 F 
ENDBRANCH  18  19
ENDBRANCH  16  18
ENDBRANCH  13  14
ENDBRANCH  12  13
ENDBRANCH   7  12
ENDBRANCH   3   6
ENDBRANCH   1   2
BRANCH   1  23
ATOM     23  C   UNL     1       4.270  -6.892   1.129  1.00  0.00     0.023 C 
BRANCH  23  24
ATOM     24  C   UNL     1       4.359  -8.273   1.795  1.00  0.00     0.023 C 
BRANCH  24  25
ATOM     25  C   UNL     1       5.765  -8.858   1.906  1.00  0.00     0.116 C 
BRANCH  25  26
ATOM     26  N   UNL     1       6.724  -7.969   2.554  1.00  0.00    -0.352 N 
ATOM     27  C   UNL     1       7.904  -8.305   3.170  1.00  0.00     0.251 C 
ATOM     28  H   UNL     1       6.497  -7.011   2.548  1.00  0.00     0.163 HD
ATOM     29  O   UNL     1       8.568  -7.460   3.747  1.00  0.00    -0.269 OA
BRANCH  27  30
ATOM     30  C   UNL     1       8.327  -9.724   3.167  1.00  0.00     0.039 A 
ATOM     31  C   UNL     1       8.571 -10.355   4.389  1.00  0.00     0.014 A 
ATOM     32  C   UNL     1       8.409 -10.437   1.968  1.00  0.00     0.014 A 
ATOM     33  C   UNL     1       8.820 -11.727   4.414  1.00  0.00     0.010 A 
ATOM     34  C   UNL     1       8.600 -11.814   2.002  1.00  0.00     0.010 A 
ATOM     35  C   UNL     1       8.794 -12.474   3.225  1.00  0.00    -0.014 A 
BRANCH  35  36
ATOM     36  C   UNL     1       8.940 -13.951   3.239  1.00  0.00     0.031 A 
ATOM     37  C   UNL     1      10.129 -14.596   2.585  1.00  0.00     0.074 A 
ATOM     38  C   UNL     1       7.958 -14.710   3.765  1.00  0.00     0.049 A 
ATOM     39  N   UNL     1      10.385 -15.867   2.411  1.00  0.00    -0.248 NA
ATOM     40  C   UNL     1      11.148 -13.694   2.027  1.00  0.00     0.031 C 
ATOM     41  C   UNL     1       6.728 -14.200   4.376  1.00  0.00     0.029 A 
ATOM     42  N   UNL     1       7.831 -16.073   3.857  1.00  0.00    -0.354 N 
ATOM     43  C   UNL     1      11.582 -15.917   1.706  1.00  0.00     0.074 A 
ATOM     44  C   UNL     1      11.979 -14.550   1.449  1.00  0.00     0.031 C 
ATOM     45  C   UNL     1       5.981 -15.235   4.792  1.00  0.00     0.029 A 
ATOM     46  C   UNL     1       6.661 -16.480   4.453  1.00  0.00     0.049 A 
ATOM     47  H   UNL     1       8.514 -16.700   3.526  1.00  0.00     0.167 HD
ATOM     48  C   UNL     1      12.294 -17.005   1.326  1.00  0.00     0.037 A 
ATOM     49  C   UNL     1       6.189 -17.719   4.695  1.00  0.00     0.037 A 
ATOM     50  C   UNL     1      11.912 -18.361   1.617  1.00  0.00     0.049 A 
ATOM     51  C   UNL     1       7.015 -18.910   4.297  1.00  0.00     0.074 A 
ATOM     52  C   UNL     1      12.595 -19.529   1.328  1.00  0.00     0.029 A 
ATOM     53  N   UNL     1      10.745 -18.731   2.270  1.00  0.00    -0.354 N 
ATOM     54  N   UNL     1       8.174 -18.938   3.683  1.00  0.00    -0.248 NA
ATOM     55  C   UNL     1       6.477 -20.236   4.630  1.00  0.00     0.031 C 
ATOM     56  C   UNL     1      11.830 -20.608   1.785  1.00  0.00     0.029 A 
ATOM     57  C   UNL     1      10.686 -20.109   2.389  1.00  0.00     0.049 A 
ATOM     58  H   UNL     1      10.060 -18.106   2.601  1.00  0.00     0.167 HD
ATOM     59  C   UNL     1       8.517 -20.281   3.580  1.00  0.00     0.074 A 
ATOM     60  C   UNL     1       7.445 -21.035   4.200  1.00  0.00     0.031 C 
ATOM     61  C   UNL     1       9.620 -20.840   3.025  1.00  0.00     0.037 A 
BRANCH  48  62
ATOM     62  C   UNL     1      13.566 -16.766   0.563  1.00  0.00     0.058 A 
ATOM     63  C   UNL     1      14.710 -16.246   1.189  1.00  0.00     0.135 A 
ATOM     64  C   UNL     1      13.650 -17.077  -0.803  1.00  0.00     0.135 A 
ATOM     65  F   UNL     1      14.677 -15.917   2.490  1.00  0.00    -0.206 F 
ATOM     66  C   UNL     1      15.883 -16.012   0.481  1.00  0.00     0.059 A 
ATOM     67  C   UNL     1      14.822 -16.874  -1.527  1.00  0.00     0.059 A 
ATOM     68  F   UNL     1      12.585 -17.576  -1.450  1.00  0.00    -0.206 F 
ATOM     69  C   UNL     1      15.928 -16.324  -0.878  1.00  0.00     0.060 A 
BRANCH  69  70
ATOM     70  S   UNL     1      17.454 -16.008  -1.788  1.00  0.00     0.124 S 
ATOM     71  O   UNL     1      17.389 -14.561  -1.969  1.00  0.00    -0.237 OA
ATOM     72  O   UNL     1      18.477 -16.485  -0.863  1.00  0.00    -0.237 OA
ATOM     73  O   UNL     1      17.295 -16.801  -3.003  1.00  0.00    -0.744 OA
ENDBRANCH  69  70
ENDBRANCH  48  62
BRANCH  49  74
ATOM     74  C   UNL     1       4.883 -17.892   5.382  1.00  0.00     0.058 A 
ATOM     75  C   UNL     1       4.826 -18.313   6.718  1.00  0.00     0.135 A 
ATOM     76  C   UNL     1       3.671 -17.622   4.727  1.00  0.00     0.135 A 
ATOM     77  F   UNL     1       5.959 -18.586   7.383  1.00  0.00    -0.206 F 
ATOM     78  C   UNL     1       3.614 -18.475   7.380  1.00  0.00     0.059 A 
ATOM     79  C   UNL     1       2.447 -17.758   5.374  1.00  0.00     0.059 A 
ATOM     80  F   UNL     1       3.675 -17.199   3.454  1.00  0.00    -0.206 F 
ATOM     81  C   UNL     1       2.428 -18.194   6.699  1.00  0.00     0.060 A 
BRANCH  81  82
ATOM     82  S   UNL     1       0.861 -18.354   7.583  1.00  0.00     0.124 S 
ATOM     83  O   UNL     1       0.677 -19.800   7.593  1.00  0.00    -0.237 OA
ATOM     84  O   UNL     1       1.168 -17.740   8.871  1.00  0.00    -0.237 OA
ATOM     85  O   UNL     1      -0.071 -17.603   6.747  1.00  0.00    -0.744 OA
ENDBRANCH  81  82
ENDBRANCH  49  74
BRANCH  61  86
ATOM     86  C   UNL     1       9.749 -22.334   3.096  1.00  0.00     0.058 A 
ATOM     87  C   UNL     1       9.013 -23.176   2.249  1.00  0.00     0.135 A 
ATOM     88  C   UNL     1      10.670 -22.924   3.975  1.00  0.00     0.135 A 
ATOM     89  F   UNL     1       8.115 -22.659   1.396  1.00  0.00    -0.206 F 
ATOM     90  C   UNL     1       9.178 -24.557   2.280  1.00  0.00     0.059 A 
ATOM     91  C   UNL     1      10.866 -24.300   4.009  1.00  0.00     0.059 A 
ATOM     92  F   UNL     1      11.403 -22.159   4.800  1.00  0.00    -0.206 F 
ATOM     93  C   UNL     1      10.109 -25.110   3.162  1.00  0.00     0.060 A 
BRANCH  93  94
ATOM     94  S   UNL     1      10.354 -26.898   3.158  1.00  0.00     0.124 S 
ATOM     95  O   UNL     1       9.186 -27.356   3.903  1.00  0.00    -0.237 OA
ATOM     96  O   UNL     1      10.360 -27.213   1.733  1.00  0.00    -0.237 OA
ATOM     97  O   UNL     1      11.637 -27.066   3.835  1.00  0.00    -0.744 OA
ENDBRANCH  93  94
ENDBRANCH  61  86
ENDBRANCH  35  36
ENDBRANCH  27  30
ENDBRANCH  25  26
ENDBRANCH  24  25
ENDBRANCH  23  24
ENDBRANCH   1  23
TORSDOF 19
