REMARK SMILES CCNC(=O)NC(=O)[C@@H](C)[NH2+][C@](C)(C(=O)NCCCCNC(=O)c1ccc(-c2c3nc(c(-c4c(F)cc(S(=O)(=O)[O-])cc4F)c4ccc([nH]4)c(-c4c(F)cc(S(=O)(=O)[O-])cc4F)c4nc(c(-c5c(F)cc(S(=O)(=O)[O-])cc5F)c5ccc2[nH]5)C=C4)C=C3)cc1)C(F)(F)F
REMARK SMILES IDX 18 1 17 2 16 3 14 4 15 5 12 7 13 8 11 9 9 12 10 13 7 14 3 15
REMARK SMILES IDX 4 16 5 18 6 19 8 21 2 22 1 23 90 24 91 25 92 26 93 27 19 28
REMARK SMILES IDX 20 29 21 30 22 31 23 33 24 34 25 35 89 36 26 37 88 38 27 39
REMARK SMILES IDX 28 40 29 41 82 42 30 43 87 44 81 45 83 46 31 47 86 48 80 49
REMARK SMILES IDX 79 50 32 52 66 53 45 54 65 55 46 56 49 57 64 58 84 59 47 60
REMARK SMILES IDX 48 61 63 63 85 64 50 65 33 66 34 67 43 68 35 69 36 70 42 71
REMARK SMILES IDX 44 72 37 73 38 74 39 75 40 76 41 77 67 78 68 79 77 80 69 81
REMARK SMILES IDX 70 82 76 83 78 84 71 85 72 86 73 87 74 88 75 89 51 90 52 91
REMARK SMILES IDX 61 92 53 93 54 94 60 95 62 96 55 97 56 98 57 99 58 100
REMARK SMILES IDX 59 101
REMARK H PARENT 16 6 11 10 11 11 3 17 6 20 21 32 83 51 49 62
REMARK Flexibility Score: inf
ROOT
ATOM      1  C   UNL     1       1.923  -5.604  -1.020  1.00  0.00     0.023 C 
ENDROOT
BRANCH   1   2
ATOM      2  C   UNL     1       2.273  -4.149  -1.263  1.00  0.00     0.116 C 
BRANCH   2   3
ATOM      3  N   UNL     1       2.397  -3.726  -2.629  1.00  0.00    -0.350 N 
ATOM      4  C   UNL     1       2.143  -2.474  -3.127  1.00  0.00     0.290 C 
ATOM      5  O   UNL     1       2.757  -2.180  -4.156  1.00  0.00    -0.267 OA
ATOM      6  H   UNL     1       2.694  -4.405  -3.276  1.00  0.00     0.163 HD
BRANCH   4   7
ATOM      7  C   UNL     1       1.110  -1.520  -2.494  1.00  0.00     0.269 C 
ATOM      8  C   UNL     1      -0.247  -2.241  -2.291  1.00  0.00     0.101 C 
BRANCH   7   9
ATOM      9  N   UNL     1       1.429  -0.899  -1.149  1.00  0.00    -0.316 N 
ATOM     10  H   UNL     1       1.148   0.078  -1.226  1.00  0.00     0.348 HD
ATOM     11  H   UNL     1       0.946  -1.548  -0.527  1.00  0.00     0.348 HD
BRANCH   9  12
ATOM     12  C   UNL     1       2.765  -0.876  -0.526  1.00  0.00     0.271 C 
ATOM     13  C   UNL     1       3.062  -1.829   0.657  1.00  0.00     0.086 C 
BRANCH  12  14
ATOM     14  C   UNL     1       2.961   0.524   0.076  1.00  0.00     0.285 C 
ATOM     15  N   UNL     1       0.276  -0.154   2.103  1.00  0.00    -0.338 N 
ATOM     16  C   UNL     1       1.170   0.833   2.035  1.00  0.00     0.321 C 
ATOM     17  H   UNL     1      -0.150  -0.200   2.990  1.00  0.00     0.165 HD
ATOM     18  O   UNL     1       1.126   1.661   2.954  1.00  0.00    -0.248 OA
ATOM     19  N   UNL     1       2.140   1.036   1.090  1.00  0.00    -0.273 N 
ATOM     20  H   UNL     1       2.369   1.991   1.152  1.00  0.00     0.175 HD
ATOM     21  O   UNL     1       3.896   1.237  -0.305  1.00  0.00    -0.268 OA
BRANCH  15  22
ATOM     22  C   UNL     1      -0.230  -1.173   1.214  1.00  0.00     0.114 C 
ATOM     23  C   UNL     1      -0.967  -2.285   1.935  1.00  0.00     0.027 C 
ENDBRANCH  15  22
ENDBRANCH  12  14
ENDBRANCH   9  12
ENDBRANCH   7   9
BRANCH   7  24
ATOM     24  C   UNL     1       0.821  -0.434  -3.586  1.00  0.00     0.453 C 
ATOM     25  F   UNL     1       0.310  -0.946  -4.727  1.00  0.00    -0.164 F 
ATOM     26  F   UNL     1      -0.119   0.436  -3.105  1.00  0.00    -0.164 F 
ATOM     27  F   UNL     1       1.895   0.325  -3.884  1.00  0.00    -0.164 F 
ENDBRANCH   7  24
ENDBRANCH   4   7
ENDBRANCH   2   3
ENDBRANCH   1   2
BRANCH   1  28
ATOM     28  C   UNL     1       3.056  -6.599  -1.238  1.00  0.00     0.023 C 
BRANCH  28  29
ATOM     29  C   UNL     1       4.410  -6.249  -0.625  1.00  0.00     0.116 C 
BRANCH  29  30
ATOM     30  N   UNL     1       4.394  -6.021   0.817  1.00  0.00    -0.352 N 
ATOM     31  C   UNL     1       5.248  -6.529   1.774  1.00  0.00     0.251 C 
ATOM     32  H   UNL     1       3.682  -5.428   1.149  1.00  0.00     0.163 HD
ATOM     33  O   UNL     1       5.089  -6.256   2.962  1.00  0.00    -0.269 OA
BRANCH  31  34
ATOM     34  C   UNL     1       6.315  -7.461   1.355  1.00  0.00     0.039 A 
ATOM     35  C   UNL     1       6.327  -8.751   1.890  1.00  0.00     0.014 A 
ATOM     36  C   UNL     1       7.190  -7.110   0.324  1.00  0.00     0.014 A 
ATOM     37  C   UNL     1       7.119  -9.733   1.290  1.00  0.00     0.010 A 
ATOM     38  C   UNL     1       7.913  -8.108  -0.322  1.00  0.00     0.010 A 
ATOM     39  C   UNL     1       7.853  -9.437   0.129  1.00  0.00    -0.014 A 
BRANCH  39  40
ATOM     40  C   UNL     1       8.488 -10.511  -0.681  1.00  0.00     0.031 A 
ATOM     41  C   UNL     1       9.972 -10.510  -0.917  1.00  0.00     0.074 A 
ATOM     42  C   UNL     1       7.708 -11.424  -1.298  1.00  0.00     0.049 A 
ATOM     43  N   UNL     1      10.683 -11.292  -1.687  1.00  0.00    -0.248 NA
ATOM     44  C   UNL     1      10.754  -9.476  -0.222  1.00  0.00     0.031 C 
ATOM     45  C   UNL     1       6.247 -11.493  -1.207  1.00  0.00     0.029 A 
ATOM     46  N   UNL     1       8.032 -12.460  -2.140  1.00  0.00    -0.354 N 
ATOM     47  C   UNL     1      11.991 -10.835  -1.585  1.00  0.00     0.074 A 
ATOM     48  C   UNL     1      11.967  -9.679  -0.714  1.00  0.00     0.031 C 
ATOM     49  C   UNL     1       5.805 -12.525  -1.943  1.00  0.00     0.029 A 
ATOM     50  C   UNL     1       6.942 -13.167  -2.594  1.00  0.00     0.049 A 
ATOM     51  H   UNL     1       8.957 -12.676  -2.395  1.00  0.00     0.167 HD
ATOM     52  C   UNL     1      13.112 -11.346  -2.146  1.00  0.00     0.037 A 
ATOM     53  C   UNL     1       6.862 -14.205  -3.450  1.00  0.00     0.037 A 
ATOM     54  C   UNL     1      13.138 -12.517  -2.982  1.00  0.00     0.049 A 
ATOM     55  C   UNL     1       8.120 -14.754  -4.061  1.00  0.00     0.074 A 
ATOM     56  C   UNL     1      14.236 -13.165  -3.520  1.00  0.00     0.029 A 
ATOM     57  N   UNL     1      12.016 -13.212  -3.407  1.00  0.00    -0.354 N 
ATOM     58  N   UNL     1       9.358 -14.358  -3.887  1.00  0.00    -0.248 NA
ATOM     59  C   UNL     1       7.974 -15.885  -4.987  1.00  0.00     0.031 C 
ATOM     60  C   UNL     1      13.775 -14.230  -4.302  1.00  0.00     0.029 A 
ATOM     61  C   UNL     1      12.393 -14.266  -4.223  1.00  0.00     0.049 A 
ATOM     62  H   UNL     1      11.088 -12.990  -3.164  1.00  0.00     0.167 HD
ATOM     63  C   UNL     1      10.139 -15.195  -4.676  1.00  0.00     0.074 A 
ATOM     64  C   UNL     1       9.236 -16.132  -5.313  1.00  0.00     0.031 C 
ATOM     65  C   UNL     1      11.482 -15.185  -4.858  1.00  0.00     0.037 A 
BRANCH  52  66
ATOM     66  C   UNL     1      14.410 -10.645  -1.862  1.00  0.00     0.058 A 
ATOM     67  C   UNL     1      15.020 -10.716  -0.600  1.00  0.00     0.135 A 
ATOM     68  C   UNL     1      15.067  -9.919  -2.869  1.00  0.00     0.135 A 
ATOM     69  F   UNL     1      14.426 -11.385   0.401  1.00  0.00    -0.206 F 
ATOM     70  C   UNL     1      16.221 -10.067  -0.336  1.00  0.00     0.059 A 
ATOM     71  C   UNL     1      16.282  -9.282  -2.634  1.00  0.00     0.059 A 
ATOM     72  F   UNL     1      14.525  -9.820  -4.093  1.00  0.00    -0.206 F 
ATOM     73  C   UNL     1      16.843  -9.350  -1.359  1.00  0.00     0.060 A 
BRANCH  73  74
ATOM     74  S   UNL     1      18.401  -8.512  -1.000  1.00  0.00     0.124 S 
ATOM     75  O   UNL     1      17.940  -7.364  -0.225  1.00  0.00    -0.237 OA
ATOM     76  O   UNL     1      19.137  -9.527  -0.252  1.00  0.00    -0.237 OA
ATOM     77  O   UNL     1      18.933  -8.205  -2.323  1.00  0.00    -0.744 OA
ENDBRANCH  73  74
ENDBRANCH  52  66
BRANCH  53  78
ATOM     78  C   UNL     1       5.537 -14.798  -3.775  1.00  0.00     0.058 A 
ATOM     79  C   UNL     1       5.170 -16.054  -3.272  1.00  0.00     0.135 A 
ATOM     80  C   UNL     1       4.609 -14.117  -4.577  1.00  0.00     0.135 A 
ATOM     81  F   UNL     1       6.028 -16.747  -2.508  1.00  0.00    -0.206 F 
ATOM     82  C   UNL     1       3.931 -16.619  -3.556  1.00  0.00     0.059 A 
ATOM     83  C   UNL     1       3.356 -14.652  -4.858  1.00  0.00     0.059 A 
ATOM     84  F   UNL     1       4.907 -12.905  -5.070  1.00  0.00    -0.206 F 
ATOM     85  C   UNL     1       3.028 -15.908  -4.348  1.00  0.00     0.060 A 
BRANCH  85  86
ATOM     86  S   UNL     1       1.397 -16.619  -4.659  1.00  0.00     0.124 S 
ATOM     87  O   UNL     1       1.706 -17.637  -5.656  1.00  0.00    -0.237 OA
ATOM     88  O   UNL     1       1.019 -17.111  -3.338  1.00  0.00    -0.237 OA
ATOM     89  O   UNL     1       0.622 -15.478  -5.138  1.00  0.00    -0.744 OA
ENDBRANCH  85  86
ENDBRANCH  53  78
BRANCH  65  90
ATOM     90  C   UNL     1      12.061 -16.215  -5.785  1.00  0.00     0.058 A 
ATOM     91  C   UNL     1      11.947 -16.088  -7.177  1.00  0.00     0.135 A 
ATOM     92  C   UNL     1      12.793 -17.301  -5.280  1.00  0.00     0.135 A 
ATOM     93  F   UNL     1      11.248 -15.072  -7.707  1.00  0.00    -0.206 F 
ATOM     94  C   UNL     1      12.532 -17.008  -8.040  1.00  0.00     0.059 A 
ATOM     95  C   UNL     1      13.405 -18.222  -6.125  1.00  0.00     0.059 A 
ATOM     96  F   UNL     1      12.936 -17.463  -3.955  1.00  0.00    -0.206 F 
ATOM     97  C   UNL     1      13.263 -18.070  -7.504  1.00  0.00     0.060 A 
BRANCH  97  98
ATOM     98  S   UNL     1      14.063 -19.228  -8.635  1.00  0.00     0.124 S 
ATOM     99  O   UNL     1      12.928 -20.020  -9.096  1.00  0.00    -0.237 OA
ATOM    100  O   UNL     1      14.660 -18.338  -9.626  1.00  0.00    -0.237 OA
ATOM    101  O   UNL     1      15.015 -19.933  -7.781  1.00  0.00    -0.744 OA
ENDBRANCH  97  98
ENDBRANCH  65  90
ENDBRANCH  39  40
ENDBRANCH  31  34
ENDBRANCH  29  30
ENDBRANCH  28  29
ENDBRANCH   1  28
TORSDOF 19
