REMARK SMILES Cc1ccc(S(=O)(=O)n2cc(C(=O)C(=O)N[C@H](Cc3c[nH]c4ccccc34)C(=O)NCC(=O)NCCCCNC(=O)c3ccc(-c4c5nc(c(-c6c(F)cc(S(=O)(=O)[O-])cc6F)c6ccc([nH]6)c(-c6c(F)cc(S(=O)(=O)[O-])cc6F)c6nc(c(-c7c(F)cc(S(=O)(=O)[O-])cc7F)c7ccc4[nH]7)C=C6)C=C5)cc3)c3ccccc32)cc1
REMARK SMILES IDX 32 1 33 2 34 3 31 5 30 6 28 7 29 8 17 10 16 11 14 12 15 13
REMARK SMILES IDX 12 15 13 16 11 17 9 18 10 19 113 20 108 21 112 22 109 23
REMARK SMILES IDX 111 24 110 25 6 26 7 27 8 28 5 29 1 30 2 31 3 32 115 33 4 34
REMARK SMILES IDX 114 35 18 36 19 37 20 38 27 39 21 40 22 41 26 42 23 44 25 45
REMARK SMILES IDX 24 46 35 47 36 48 37 49 38 50 39 51 40 52 41 54 42 55 43 56
REMARK SMILES IDX 107 57 44 58 106 59 45 60 46 61 47 62 100 63 48 64 105 65
REMARK SMILES IDX 99 66 101 67 49 68 104 69 98 70 97 71 50 73 84 74 63 75
REMARK SMILES IDX 83 76 64 77 67 78 82 79 102 80 65 81 66 82 81 84 103 85
REMARK SMILES IDX 68 86 51 87 52 88 61 89 53 90 54 91 60 92 62 93 55 94 56 95
REMARK SMILES IDX 57 96 58 97 59 98 85 99 86 100 95 101 87 102 88 103 94 104
REMARK SMILES IDX 96 105 89 106 90 107 91 108 92 109 93 110 69 111 70 112
REMARK SMILES IDX 79 113 71 114 72 115 78 116 80 117 73 118 74 119 75 120
REMARK SMILES IDX 76 121 77 122
REMARK H PARENT 34 4 30 9 16 14 21 43 39 53 101 72 67 83
REMARK Flexibility Score: inf
ROOT
ATOM      1  C   UNL     1     -13.114   4.798  -2.558  1.00  0.00     0.239 C 
ATOM      2  O   UNL     1     -14.006   5.641  -2.713  1.00  0.00    -0.273 OA
ATOM      3  N   UNL     1     -11.932   5.017  -3.200  1.00  0.00    -0.355 N 
ATOM      4  H   UNL     1     -11.950   5.748  -3.858  1.00  0.00     0.163 HD
ENDROOT
BRANCH   1   5
ATOM      5  C   UNL     1     -13.331   3.643  -1.568  1.00  0.00     0.216 C 
BRANCH   5   6
ATOM      6  N   UNL     1     -12.704   2.385  -1.894  1.00  0.00    -0.345 N 
ATOM      7  C   UNL     1     -11.982   1.484  -1.198  1.00  0.00     0.243 C 
ATOM      8  O   UNL     1     -11.869   0.396  -1.782  1.00  0.00    -0.273 OA
ATOM      9  H   UNL     1     -12.833   2.127  -2.836  1.00  0.00     0.164 HD
BRANCH   7  10
ATOM     10  C   UNL     1     -11.291   1.680   0.190  1.00  0.00     0.176 C 
BRANCH  10  11
ATOM     11  N   UNL     1     -12.043   2.330   1.319  1.00  0.00    -0.337 N 
ATOM     12  C   UNL     1     -12.127   3.621   1.827  1.00  0.00     0.293 C 
ATOM     13  O   UNL     1     -12.781   3.823   2.846  1.00  0.00    -0.265 OA
ATOM     14  H   UNL     1     -12.607   1.692   1.813  1.00  0.00     0.164 HD
BRANCH  12  15
ATOM     15  C   UNL     1     -11.455   4.788   1.103  1.00  0.00     0.252 C 
ATOM     16  O   UNL     1     -10.947   4.491   0.021  1.00  0.00    -0.283 OA
BRANCH  15  17
ATOM     17  C   UNL     1     -11.377   6.183   1.565  1.00  0.00     0.054 A 
ATOM     18  N   UNL     1     -11.505   8.214   2.539  1.00  0.00    -0.240 N 
ATOM     19  C   UNL     1     -11.879   6.862   2.676  1.00  0.00     0.117 A 
ATOM     20  C   UNL     1     -10.416   8.237   1.673  1.00  0.00     0.065 A 
ATOM     21  C   UNL     1     -10.685   7.184   0.807  1.00  0.00     0.012 A 
ATOM     22  C   UNL     1      -9.441   9.202   1.393  1.00  0.00     0.028 A 
ATOM     23  C   UNL     1     -10.210   7.267  -0.512  1.00  0.00     0.011 A 
ATOM     24  C   UNL     1      -8.915   9.206   0.094  1.00  0.00     0.002 A 
ATOM     25  C   UNL     1      -9.357   8.304  -0.871  1.00  0.00     0.001 A 
BRANCH  18  26
ATOM     26  S   UNL     1     -12.770   9.419   2.152  1.00  0.00     0.268 S 
ATOM     27  O   UNL     1     -13.957   8.634   1.858  1.00  0.00    -0.201 OA
ATOM     28  O   UNL     1     -12.186  10.296   1.153  1.00  0.00    -0.201 OA
BRANCH  26  29
ATOM     29  C   UNL     1     -13.167  10.446   3.546  1.00  0.00     0.088 A 
ATOM     30  C   UNL     1     -15.112  13.095   6.344  1.00  0.00     0.044 C 
ATOM     31  C   UNL     1     -14.415  12.161   5.396  1.00  0.00    -0.051 A 
ATOM     32  C   UNL     1     -13.831  12.682   4.240  1.00  0.00     0.005 A 
ATOM     33  C   UNL     1     -14.330  10.779   5.637  1.00  0.00     0.005 A 
ATOM     34  C   UNL     1     -13.213  11.833   3.322  1.00  0.00     0.022 A 
ATOM     35  C   UNL     1     -13.719   9.915   4.711  1.00  0.00     0.022 A 
ENDBRANCH  26  29
ENDBRANCH  18  26
ENDBRANCH  15  17
ENDBRANCH  12  15
ENDBRANCH  10  11
BRANCH  10  36
ATOM     36  C   UNL     1      -9.742   1.862   0.235  1.00  0.00     0.072 C 
BRANCH  36  37
ATOM     37  C   UNL     1      -8.890   1.617  -0.989  1.00  0.00    -0.020 A 
ATOM     38  C   UNL     1      -7.995   2.536  -1.522  1.00  0.00     0.087 A 
ATOM     39  C   UNL     1      -8.705   0.405  -1.747  1.00  0.00     0.003 A 
ATOM     40  N   UNL     1      -7.290   1.939  -2.536  1.00  0.00    -0.361 N 
ATOM     41  C   UNL     1      -7.778   0.674  -2.755  1.00  0.00     0.046 A 
ATOM     42  C   UNL     1      -9.225  -0.906  -1.683  1.00  0.00     0.010 A 
ATOM     43  H   UNL     1      -6.548   2.355  -3.032  1.00  0.00     0.166 HD
ATOM     44  C   UNL     1      -7.412  -0.252  -3.740  1.00  0.00     0.026 A 
ATOM     45  C   UNL     1      -8.871  -1.851  -2.659  1.00  0.00     0.001 A 
ATOM     46  C   UNL     1      -7.991  -1.519  -3.685  1.00  0.00     0.002 A 
ENDBRANCH  36  37
ENDBRANCH  10  36
ENDBRANCH   7  10
ENDBRANCH   5   6
ENDBRANCH   1   5
BRANCH   3  47
ATOM     47  C   UNL     1     -10.645   4.347  -3.071  1.00  0.00     0.116 C 
BRANCH  47  48
ATOM     48  C   UNL     1     -10.169   3.721  -4.383  1.00  0.00     0.023 C 
BRANCH  48  49
ATOM     49  C   UNL     1      -9.659   4.723  -5.425  1.00  0.00     0.023 C 
BRANCH  49  50
ATOM     50  C   UNL     1      -8.375   5.448  -5.048  1.00  0.00     0.116 C 
BRANCH  50  51
ATOM     51  N   UNL     1      -7.140   4.721  -5.290  1.00  0.00    -0.352 N 
ATOM     52  C   UNL     1      -6.049   5.466  -5.767  1.00  0.00     0.251 C 
ATOM     53  H   UNL     1      -7.072   3.752  -5.128  1.00  0.00     0.163 HD
ATOM     54  O   UNL     1      -5.933   5.904  -6.874  1.00  0.00    -0.269 OA
BRANCH  52  55
ATOM     55  C   UNL     1      -5.251   6.001  -4.634  1.00  0.00     0.039 A 
ATOM     56  C   UNL     1      -4.085   5.405  -4.158  1.00  0.00     0.014 A 
ATOM     57  C   UNL     1      -5.899   7.005  -3.917  1.00  0.00     0.014 A 
ATOM     58  C   UNL     1      -3.624   5.748  -2.881  1.00  0.00     0.010 A 
ATOM     59  C   UNL     1      -5.505   7.263  -2.630  1.00  0.00     0.010 A 
ATOM     60  C   UNL     1      -4.376   6.625  -2.099  1.00  0.00    -0.014 A 
BRANCH  60  61
ATOM     61  C   UNL     1      -4.149   6.957  -0.696  1.00  0.00     0.031 A 
ATOM     62  C   UNL     1      -3.787   8.349  -0.329  1.00  0.00     0.074 A 
ATOM     63  C   UNL     1      -4.659   6.114   0.228  1.00  0.00     0.049 A 
ATOM     64  N   UNL     1      -3.586   8.777   0.869  1.00  0.00    -0.248 NA
ATOM     65  C   UNL     1      -3.601   9.387  -1.337  1.00  0.00     0.031 C 
ATOM     66  C   UNL     1      -5.120   6.446   1.572  1.00  0.00     0.029 A 
ATOM     67  N   UNL     1      -4.676   4.717   0.189  1.00  0.00    -0.354 N 
ATOM     68  C   UNL     1      -3.561  10.158   0.831  1.00  0.00     0.074 A 
ATOM     69  C   UNL     1      -3.484  10.476  -0.573  1.00  0.00     0.031 C 
ATOM     70  C   UNL     1      -5.125   5.330   2.316  1.00  0.00     0.029 A 
ATOM     71  C   UNL     1      -4.494   4.290   1.523  1.00  0.00     0.049 A 
ATOM     72  H   UNL     1      -4.791   4.147  -0.606  1.00  0.00     0.167 HD
ATOM     73  C   UNL     1      -3.751  10.850   1.996  1.00  0.00     0.037 A 
ATOM     74  C   UNL     1      -3.353   3.630   1.889  1.00  0.00     0.037 A 
ATOM     75  C   UNL     1      -3.692   9.933   3.141  1.00  0.00     0.049 A 
ATOM     76  C   UNL     1      -2.518   4.366   2.916  1.00  0.00     0.074 A 
ATOM     77  C   UNL     1      -4.660   9.348   3.942  1.00  0.00     0.029 A 
ATOM     78  N   UNL     1      -2.506   9.252   3.404  1.00  0.00    -0.354 N 
ATOM     79  N   UNL     1      -2.665   5.630   3.209  1.00  0.00    -0.248 NA
ATOM     80  C   UNL     1      -1.454   3.740   3.696  1.00  0.00     0.031 C 
ATOM     81  C   UNL     1      -4.068   8.242   4.609  1.00  0.00     0.029 A 
ATOM     82  C   UNL     1      -2.736   8.175   4.239  1.00  0.00     0.049 A 
ATOM     83  H   UNL     1      -1.625   9.503   3.044  1.00  0.00     0.167 HD
ATOM     84  C   UNL     1      -1.744   5.999   4.155  1.00  0.00     0.074 A 
ATOM     85  C   UNL     1      -1.027   4.771   4.447  1.00  0.00     0.031 C 
ATOM     86  C   UNL     1      -1.644   7.283   4.612  1.00  0.00     0.037 A 
BRANCH  73  87
ATOM     87  C   UNL     1      -4.253  12.290   2.101  1.00  0.00     0.058 A 
ATOM     88  C   UNL     1      -4.859  12.755   3.294  1.00  0.00     0.135 A 
ATOM     89  C   UNL     1      -4.260  13.242   1.060  1.00  0.00     0.135 A 
ATOM     90  F   UNL     1      -4.866  12.014   4.411  1.00  0.00    -0.206 F 
ATOM     91  C   UNL     1      -5.498  13.997   3.405  1.00  0.00     0.059 A 
ATOM     92  C   UNL     1      -4.920  14.474   1.133  1.00  0.00     0.059 A 
ATOM     93  F   UNL     1      -3.585  13.060  -0.076  1.00  0.00    -0.206 F 
ATOM     94  C   UNL     1      -5.552  14.840   2.307  1.00  0.00     0.060 A 
BRANCH  94  95
ATOM     95  S   UNL     1      -6.429  16.409   2.434  1.00  0.00     0.124 S 
ATOM     96  O   UNL     1      -7.780  15.976   2.776  1.00  0.00    -0.237 OA
ATOM     97  O   UNL     1      -5.691  17.088   3.493  1.00  0.00    -0.237 OA
ATOM     98  O   UNL     1      -6.284  16.990   1.102  1.00  0.00    -0.744 OA
ENDBRANCH  94  95
ENDBRANCH  73  87
BRANCH  74  99
ATOM     99  C   UNL     1      -2.844   2.739   0.805  1.00  0.00     0.058 A 
ATOM    100  C   UNL     1      -3.669   1.655   0.436  1.00  0.00     0.135 A 
ATOM    101  C   UNL     1      -1.932   3.212  -0.150  1.00  0.00     0.135 A 
ATOM    102  F   UNL     1      -4.537   1.145   1.325  1.00  0.00    -0.206 F 
ATOM    103  C   UNL     1      -3.749   1.214  -0.880  1.00  0.00     0.059 A 
ATOM    104  C   UNL     1      -1.979   2.766  -1.473  1.00  0.00     0.059 A 
ATOM    105  F   UNL     1      -1.109   4.229   0.147  1.00  0.00    -0.206 F 
ATOM    106  C   UNL     1      -2.960   1.843  -1.842  1.00  0.00     0.060 A 
BRANCH 106 107
ATOM    107  S   UNL     1      -3.412   1.614  -3.580  1.00  0.00     0.124 S 
ATOM    108  O   UNL     1      -3.393   0.165  -3.724  1.00  0.00    -0.237 OA
ATOM    109  O   UNL     1      -4.739   2.237  -3.625  1.00  0.00    -0.237 OA
ATOM    110  O   UNL     1      -2.368   2.334  -4.300  1.00  0.00    -0.744 OA
ENDBRANCH 106 107
ENDBRANCH  74  99
BRANCH  86 111
ATOM    111  C   UNL     1      -0.552   7.818   5.509  1.00  0.00     0.058 A 
ATOM    112  C   UNL     1       0.775   7.357   5.495  1.00  0.00     0.135 A 
ATOM    113  C   UNL     1      -0.797   8.948   6.328  1.00  0.00     0.135 A 
ATOM    114  F   UNL     1       1.157   6.362   4.682  1.00  0.00    -0.206 F 
ATOM    115  C   UNL     1       1.776   7.934   6.280  1.00  0.00     0.059 A 
ATOM    116  C   UNL     1       0.197   9.573   7.075  1.00  0.00     0.059 A 
ATOM    117  F   UNL     1      -2.020   9.493   6.419  1.00  0.00    -0.206 F 
ATOM    118  C   UNL     1       1.479   9.044   7.066  1.00  0.00     0.060 A 
BRANCH 118 119
ATOM    119  S   UNL     1       2.774   9.843   8.031  1.00  0.00     0.124 S 
ATOM    120  O   UNL     1       2.612   9.194   9.328  1.00  0.00    -0.237 OA
ATOM    121  O   UNL     1       3.990   9.495   7.301  1.00  0.00    -0.237 OA
ATOM    122  O   UNL     1       2.402  11.253   7.977  1.00  0.00    -0.744 OA
ENDBRANCH 118 119
ENDBRANCH  86 111
ENDBRANCH  60  61
ENDBRANCH  52  55
ENDBRANCH  50  51
ENDBRANCH  49  50
ENDBRANCH  48  49
ENDBRANCH  47  48
ENDBRANCH   3  47
TORSDOF 23
