REMARK SMILES C[C@@H](Nc1cccc(Cl)c1)[C@@H](C)C(=O)NCCCCNC(=O)c1ccc(-c2c3nc(c(-c4c(F)cc(S(=O)(=O)[O-])cc4F)c4ccc([nH]4)c(-c4c(F)cc(S(=O)(=O)[O-])cc4F)c4nc(c(-c5c(F)cc(S(=O)(=O)[O-])cc5F)c5ccc2[nH]5)C=C4)C=C3)cc1
REMARK SMILES IDX 17 1 16 2 15 3 13 4 14 5 11 7 12 8 2 9 1 10 3 11 4 13 5 14
REMARK SMILES IDX 10 15 6 16 8 17 7 18 9 19 18 20 19 21 20 22 21 23 22 25
REMARK SMILES IDX 23 26 24 27 88 28 25 29 87 30 26 31 27 32 28 33 81 34 29 35
REMARK SMILES IDX 86 36 80 37 82 38 30 39 85 40 79 41 78 42 31 44 65 45 44 46
REMARK SMILES IDX 64 47 45 48 48 49 63 50 83 51 46 52 47 53 62 55 84 56 49 57
REMARK SMILES IDX 32 58 33 59 42 60 34 61 35 62 41 63 43 64 36 65 37 66 38 67
REMARK SMILES IDX 39 68 40 69 66 70 67 71 76 72 68 73 69 74 75 75 77 76 70 77
REMARK SMILES IDX 71 78 72 79 73 80 74 81 50 82 51 83 60 84 52 85 53 86 59 87
REMARK SMILES IDX 61 88 54 89 55 90 56 91 57 92 58 93
REMARK H PARENT 15 6 3 12 20 24 82 43 48 54
REMARK Flexibility Score: inf
ROOT
ATOM      1  C   UNL     1       0.984   0.210   4.698  1.00  0.00     0.023 C 
ENDROOT
BRANCH   1   2
ATOM      2  C   UNL     1      -0.218  -0.483   4.053  1.00  0.00     0.116 C 
BRANCH   2   3
ATOM      3  N   UNL     1      -1.294   0.432   3.739  1.00  0.00    -0.356 N 
ATOM      4  C   UNL     1      -1.747   0.925   2.556  1.00  0.00     0.224 C 
ATOM      5  O   UNL     1      -2.816   1.546   2.598  1.00  0.00    -0.275 OA
ATOM      6  H   UNL     1      -1.789   0.757   4.526  1.00  0.00     0.163 HD
BRANCH   4   7
ATOM      7  C   UNL     1      -1.064   0.668   1.214  1.00  0.00     0.097 C 
ATOM      8  C   UNL     1      -1.504  -0.743   0.787  1.00  0.00     0.020 C 
BRANCH   7   9
ATOM      9  C   UNL     1       0.463   0.935   1.155  1.00  0.00     0.088 C 
ATOM     10  C   UNL     1       1.119   0.222  -0.044  1.00  0.00     0.031 C 
BRANCH   9  11
ATOM     11  N   UNL     1       0.900   2.341   1.066  1.00  0.00    -0.382 N 
ATOM     12  H   UNL     1       1.863   2.475   0.916  1.00  0.00     0.160 HD
BRANCH  11  13
ATOM     13  C   UNL     1       0.151   3.491   1.163  1.00  0.00     0.036 A 
ATOM     14  C   UNL     1      -0.677   3.779   2.246  1.00  0.00     0.026 A 
ATOM     15  C   UNL     1       0.194   4.415   0.112  1.00  0.00     0.046 A 
ATOM     16  C   UNL     1      -1.516   4.898   2.248  1.00  0.00     0.004 A 
ATOM     17  C   UNL     1      -0.622   5.548   0.120  1.00  0.00     0.043 A 
ATOM     18  C   UNL     1      -1.497   5.782   1.175  1.00  0.00     0.020 A 
ATOM     19  Cl  UNL     1      -0.552   6.656  -1.196  1.00  0.00    -0.084 Cl
ENDBRANCH  11  13
ENDBRANCH   9  11
ENDBRANCH   7   9
ENDBRANCH   4   7
ENDBRANCH   2   3
ENDBRANCH   1   2
BRANCH   1  20
ATOM     20  C   UNL     1       0.726   0.834   6.070  1.00  0.00     0.023 C 
BRANCH  20  21
ATOM     21  C   UNL     1       0.036  -0.070   7.082  1.00  0.00     0.116 C 
BRANCH  21  22
ATOM     22  N   UNL     1       0.706  -1.348   7.255  1.00  0.00    -0.352 N 
ATOM     23  C   UNL     1       0.947  -2.060   8.405  1.00  0.00     0.251 C 
ATOM     24  H   UNL     1       1.035  -1.765   6.426  1.00  0.00     0.163 HD
ATOM     25  O   UNL     1       1.632  -3.075   8.352  1.00  0.00    -0.269 OA
BRANCH  23  26
ATOM     26  C   UNL     1       0.414  -1.583   9.700  1.00  0.00     0.039 A 
ATOM     27  C   UNL     1       1.245  -1.640  10.821  1.00  0.00     0.014 A 
ATOM     28  C   UNL     1      -0.885  -1.081   9.818  1.00  0.00     0.014 A 
ATOM     29  C   UNL     1       0.790  -1.145  12.044  1.00  0.00     0.010 A 
ATOM     30  C   UNL     1      -1.305  -0.508  11.015  1.00  0.00     0.010 A 
ATOM     31  C   UNL     1      -0.476  -0.543  12.145  1.00  0.00    -0.014 A 
BRANCH  31  32
ATOM     32  C   UNL     1      -0.930   0.051  13.429  1.00  0.00     0.031 A 
ATOM     33  C   UNL     1      -2.133  -0.503  14.146  1.00  0.00     0.074 A 
ATOM     34  C   UNL     1      -0.268   1.110  13.938  1.00  0.00     0.049 A 
ATOM     35  N   UNL     1      -2.656  -0.131  15.286  1.00  0.00    -0.248 NA
ATOM     36  C   UNL     1      -2.857  -1.601  13.486  1.00  0.00     0.031 C 
ATOM     37  C   UNL     1       0.873   1.777  13.304  1.00  0.00     0.029 A 
ATOM     38  N   UNL     1      -0.452   1.808  15.104  1.00  0.00    -0.354 N 
ATOM     39  C   UNL     1      -3.768  -0.944  15.478  1.00  0.00     0.074 A 
ATOM     40  C   UNL     1      -3.882  -1.784  14.306  1.00  0.00     0.031 C 
ATOM     41  C   UNL     1       1.312   2.758  14.108  1.00  0.00     0.029 A 
ATOM     42  C   UNL     1       0.465   2.816  15.295  1.00  0.00     0.049 A 
ATOM     43  H   UNL     1      -1.172   1.607  15.745  1.00  0.00     0.167 HD
ATOM     44  C   UNL     1      -4.599  -1.006  16.546  1.00  0.00     0.037 A 
ATOM     45  C   UNL     1       0.611   3.686  16.313  1.00  0.00     0.037 A 
ATOM     46  C   UNL     1      -4.470  -0.175  17.715  1.00  0.00     0.049 A 
ATOM     47  C   UNL     1      -0.322   3.593  17.490  1.00  0.00     0.074 A 
ATOM     48  C   UNL     1      -5.229  -0.193  18.873  1.00  0.00     0.029 A 
ATOM     49  N   UNL     1      -3.525   0.829  17.875  1.00  0.00    -0.354 N 
ATOM     50  N   UNL     1      -1.322   2.767  17.688  1.00  0.00    -0.248 NA
ATOM     51  C   UNL     1      -0.098   4.542  18.588  1.00  0.00     0.031 C 
ATOM     52  C   UNL     1      -4.777   0.833  19.710  1.00  0.00     0.029 A 
ATOM     53  C   UNL     1      -3.696   1.450  19.102  1.00  0.00     0.049 A 
ATOM     54  H   UNL     1      -2.834   1.064  17.215  1.00  0.00     0.167 HD
ATOM     55  C   UNL     1      -1.829   3.078  18.945  1.00  0.00     0.074 A 
ATOM     56  C   UNL     1      -1.010   4.153  19.468  1.00  0.00     0.031 C 
ATOM     57  C   UNL     1      -2.875   2.523  19.608  1.00  0.00     0.037 A 
BRANCH  44  58
ATOM     58  C   UNL     1      -5.721  -2.011  16.501  1.00  0.00     0.058 A 
ATOM     59  C   UNL     1      -5.477  -3.394  16.556  1.00  0.00     0.135 A 
ATOM     60  C   UNL     1      -7.059  -1.588  16.440  1.00  0.00     0.135 A 
ATOM     61  F   UNL     1      -4.218  -3.858  16.599  1.00  0.00    -0.206 F 
ATOM     62  C   UNL     1      -6.515  -4.320  16.522  1.00  0.00     0.059 A 
ATOM     63  C   UNL     1      -8.115  -2.496  16.437  1.00  0.00     0.059 A 
ATOM     64  F   UNL     1      -7.353  -0.280  16.385  1.00  0.00    -0.206 F 
ATOM     65  C   UNL     1      -7.831  -3.861  16.464  1.00  0.00     0.060 A 
BRANCH  65  66
ATOM     66  S   UNL     1      -9.165  -5.077  16.430  1.00  0.00     0.124 S 
ATOM     67  O   UNL     1      -9.019  -5.631  15.088  1.00  0.00    -0.237 OA
ATOM     68  O   UNL     1      -8.802  -5.968  17.527  1.00  0.00    -0.237 OA
ATOM     69  O   UNL     1     -10.364  -4.274  16.649  1.00  0.00    -0.744 OA
ENDBRANCH  65  66
ENDBRANCH  44  58
BRANCH  45  70
ATOM     70  C   UNL     1       1.703   4.696  16.278  1.00  0.00     0.058 A 
ATOM     71  C   UNL     1       2.792   4.617  17.160  1.00  0.00     0.135 A 
ATOM     72  C   UNL     1       1.685   5.755  15.357  1.00  0.00     0.135 A 
ATOM     73  F   UNL     1       2.854   3.626  18.062  1.00  0.00    -0.206 F 
ATOM     74  C   UNL     1       3.812   5.562  17.145  1.00  0.00     0.059 A 
ATOM     75  C   UNL     1       2.709   6.696  15.303  1.00  0.00     0.059 A 
ATOM     76  F   UNL     1       0.676   5.867  14.479  1.00  0.00    -0.206 F 
ATOM     77  C   UNL     1       3.763   6.597  16.210  1.00  0.00     0.060 A 
BRANCH  77  78
ATOM     78  S   UNL     1       5.116   7.793  16.169  1.00  0.00     0.124 S 
ATOM     79  O   UNL     1       4.871   8.556  17.387  1.00  0.00    -0.237 OA
ATOM     80  O   UNL     1       6.290   6.926  16.183  1.00  0.00    -0.237 OA
ATOM     81  O   UNL     1       4.892   8.510  14.917  1.00  0.00    -0.744 OA
ENDBRANCH  77  78
ENDBRANCH  45  70
BRANCH  57  82
ATOM     82  C   UNL     1      -3.169   3.049  20.988  1.00  0.00     0.058 A 
ATOM     83  C   UNL     1      -3.681   4.339  21.199  1.00  0.00     0.135 A 
ATOM     84  C   UNL     1      -2.948   2.242  22.117  1.00  0.00     0.135 A 
ATOM     85  F   UNL     1      -3.909   5.154  20.157  1.00  0.00    -0.206 F 
ATOM     86  C   UNL     1      -3.917   4.828  22.480  1.00  0.00     0.059 A 
ATOM     87  C   UNL     1      -3.211   2.697  23.405  1.00  0.00     0.059 A 
ATOM     88  F   UNL     1      -2.475   0.993  21.974  1.00  0.00    -0.206 F 
ATOM     89  C   UNL     1      -3.675   4.000  23.577  1.00  0.00     0.060 A 
BRANCH  89  90
ATOM     90  S   UNL     1      -3.979   4.647  25.234  1.00  0.00     0.124 S 
ATOM     91  O   UNL     1      -2.857   5.565  25.401  1.00  0.00    -0.237 OA
ATOM     92  O   UNL     1      -5.291   5.270  25.090  1.00  0.00    -0.237 OA
ATOM     93  O   UNL     1      -3.947   3.456  26.077  1.00  0.00    -0.744 OA
ENDBRANCH  89  90
ENDBRANCH  57  82
ENDBRANCH  31  32
ENDBRANCH  23  26
ENDBRANCH  21  22
ENDBRANCH  20  21
ENDBRANCH   1  20
TORSDOF 17
