REMARK SMILES C[N@@H+]1CC[N@@H+](C)[C@H](C[NH2+]Cc2ccc(C(=O)NCCCCNC(=O)c3ccc(-c4c5nc(c(-c6c(F)cc(S(=O)(=O)[O-])cc6F)c6ccc([nH]6)c(-c6c(F)cc(S(=O)(=O)[O-])cc6F)c6nc(c(-c7c(F)cc(S(=O)(=O)[O-])cc7F)c7ccc4[nH]7)C=C6)C=C5)cc3)cn2)C1
REMARK SMILES IDX 19 1 18 2 17 3 15 4 16 5 14 7 11 8 12 9 92 10 13 11 91 12
REMARK SMILES IDX 10 13 9 14 8 17 7 18 1 19 2 20 3 21 93 22 4 24 5 25 6 26
REMARK SMILES IDX 20 28 21 29 22 30 23 31 24 33 25 34 26 35 90 36 27 37 89 38
REMARK SMILES IDX 28 39 29 40 30 41 83 42 31 43 88 44 82 45 84 46 32 47 87 48
REMARK SMILES IDX 81 49 80 50 33 52 67 53 46 54 66 55 47 56 50 57 65 58 85 59
REMARK SMILES IDX 48 60 49 61 64 63 86 64 51 65 34 66 35 67 44 68 36 69 37 70
REMARK SMILES IDX 43 71 45 72 38 73 39 74 40 75 41 76 42 77 68 78 69 79 78 80
REMARK SMILES IDX 70 81 71 82 77 83 79 84 72 85 73 86 74 87 75 88 76 89 52 90
REMARK SMILES IDX 53 91 62 92 54 93 55 94 61 95 63 96 56 97 57 98 58 99 59 100
REMARK SMILES IDX 60 101
REMARK H PARENT 17 6 9 15 9 16 2 23 5 27 22 32 84 51 50 62
REMARK Flexibility Score: inf
ROOT
ATOM      1  C   UNL     1      -4.212   6.269  -7.395  1.00  0.00     0.023 C 
ENDROOT
BRANCH   1   2
ATOM      2  C   UNL     1      -2.765   5.822  -7.170  1.00  0.00     0.116 C 
BRANCH   2   3
ATOM      3  N   UNL     1      -2.093   6.718  -6.254  1.00  0.00    -0.352 N 
ATOM      4  C   UNL     1      -2.041   6.767  -4.884  1.00  0.00     0.252 C 
ATOM      5  O   UNL     1      -1.393   7.686  -4.380  1.00  0.00    -0.269 OA
ATOM      6  H   UNL     1      -1.573   7.427  -6.698  1.00  0.00     0.163 HD
BRANCH   4   7
ATOM      7  C   UNL     1      -2.662   5.755  -3.989  1.00  0.00     0.058 A 
ATOM      8  C   UNL     1      -3.392   3.799  -2.180  1.00  0.00     0.094 A 
ATOM      9  C   UNL     1      -3.984   3.814  -3.435  1.00  0.00     0.030 A 
ATOM     10  N   UNL     1      -2.555   4.779  -1.760  1.00  0.00    -0.255 NA
ATOM     11  C   UNL     1      -3.630   4.816  -4.332  1.00  0.00     0.017 A 
ATOM     12  C   UNL     1      -2.201   5.717  -2.675  1.00  0.00     0.125 A 
BRANCH   8  13
ATOM     13  C   UNL     1      -3.558   2.580  -1.302  1.00  0.00     0.318 C 
BRANCH  13  14
ATOM     14  N   UNL     1      -2.320   1.798  -1.256  1.00  0.00    -0.336 N 
ATOM     15  H   UNL     1      -2.554   0.806  -1.226  1.00  0.00     0.346 HD
ATOM     16  H   UNL     1      -1.772   2.015  -2.089  1.00  0.00     0.346 HD
BRANCH  14  17
ATOM     17  C   UNL     1      -1.515   2.138  -0.069  1.00  0.00     0.332 C 
BRANCH  17  18
ATOM     18  C   UNL     1      -0.721   0.902   0.461  1.00  0.00     0.295 C 
ATOM     19  C   UNL     1       2.897  -0.108  -0.201  1.00  0.00     0.333 C 
ATOM     20  N   UNL     1       1.535  -0.200   0.314  1.00  0.00    -0.328 N 
ATOM     21  C   UNL     1       0.868  -1.423  -0.158  1.00  0.00     0.324 C 
ATOM     22  C   UNL     1       0.725   0.956  -0.120  1.00  0.00     0.334 C 
ATOM     23  H   UNL     1       1.608  -0.215   1.331  1.00  0.00     0.348 HD
ATOM     24  C   UNL     1      -0.547  -1.542   0.444  1.00  0.00     0.324 C 
ATOM     25  N   UNL     1      -1.430  -0.390   0.162  1.00  0.00    -0.321 N 
ATOM     26  C   UNL     1      -2.666  -0.531   0.941  1.00  0.00     0.333 C 
ATOM     27  H   UNL     1      -1.673  -0.372  -0.828  1.00  0.00     0.348 HD
ENDBRANCH  17  18
ENDBRANCH  14  17
ENDBRANCH  13  14
ENDBRANCH   8  13
ENDBRANCH   4   7
ENDBRANCH   2   3
ENDBRANCH   1   2
BRANCH   1  28
ATOM     28  C   UNL     1      -4.365   7.427  -8.382  1.00  0.00     0.023 C 
BRANCH  28  29
ATOM     29  C   UNL     1      -3.868   7.134  -9.792  1.00  0.00     0.116 C 
BRANCH  29  30
ATOM     30  N   UNL     1      -4.453   5.934 -10.371  1.00  0.00    -0.352 N 
ATOM     31  C   UNL     1      -4.650   5.638 -11.698  1.00  0.00     0.251 C 
ATOM     32  H   UNL     1      -4.746   5.247  -9.729  1.00  0.00     0.163 HD
ATOM     33  O   UNL     1      -5.250   4.622 -12.022  1.00  0.00    -0.269 OA
BRANCH  31  34
ATOM     34  C   UNL     1      -4.170   6.590 -12.720  1.00  0.00     0.039 A 
ATOM     35  C   UNL     1      -5.066   7.028 -13.696  1.00  0.00     0.014 A 
ATOM     36  C   UNL     1      -2.864   7.086 -12.679  1.00  0.00     0.014 A 
ATOM     37  C   UNL     1      -4.671   8.021 -14.592  1.00  0.00     0.010 A 
ATOM     38  C   UNL     1      -2.495   8.123 -13.529  1.00  0.00     0.010 A 
ATOM     39  C   UNL     1      -3.397   8.604 -14.489  1.00  0.00    -0.014 A 
BRANCH  39  40
ATOM     40  C   UNL     1      -3.011   9.739 -15.363  1.00  0.00     0.031 A 
ATOM     41  C   UNL     1      -1.904   9.585 -16.367  1.00  0.00     0.074 A 
ATOM     42  C   UNL     1      -3.631  10.925 -15.207  1.00  0.00     0.049 A 
ATOM     43  N   UNL     1      -1.427  10.467 -17.207  1.00  0.00    -0.248 NA
ATOM     44  C   UNL     1      -1.227   8.280 -16.417  1.00  0.00     0.031 C 
ATOM     45  C   UNL     1      -4.670  11.213 -14.216  1.00  0.00     0.029 A 
ATOM     46  N   UNL     1      -3.475  12.112 -15.877  1.00  0.00    -0.354 N 
ATOM     47  C   UNL     1      -0.392   9.828 -17.880  1.00  0.00     0.074 A 
ATOM     48  C   UNL     1      -0.275   8.502 -17.311  1.00  0.00     0.031 C 
ATOM     49  C   UNL     1      -5.079  12.484 -14.363  1.00  0.00     0.029 A 
ATOM     50  C   UNL     1      -4.314  13.108 -15.437  1.00  0.00     0.049 A 
ATOM     51  H   UNL     1      -2.824  12.238 -16.605  1.00  0.00     0.167 HD
ATOM     52  C   UNL     1       0.372  10.296 -18.895  1.00  0.00     0.037 A 
ATOM     53  C   UNL     1      -4.455  14.379 -15.857  1.00  0.00     0.037 A 
ATOM     54  C   UNL     1       0.234  11.609 -19.469  1.00  0.00     0.049 A 
ATOM     55  C   UNL     1      -3.613  14.866 -17.004  1.00  0.00     0.074 A 
ATOM     56  C   UNL     1       0.914  12.157 -20.543  1.00  0.00     0.029 A 
ATOM     57  N   UNL     1      -0.644  12.584 -19.014  1.00  0.00    -0.354 N 
ATOM     58  N   UNL     1      -2.692  14.223 -17.681  1.00  0.00    -0.248 NA
ATOM     59  C   UNL     1      -3.837  16.247 -17.450  1.00  0.00     0.031 C 
ATOM     60  C   UNL     1       0.474  13.475 -20.714  1.00  0.00     0.029 A 
ATOM     61  C   UNL     1      -0.510  13.735 -19.773  1.00  0.00     0.049 A 
ATOM     62  H   UNL     1      -1.269  12.473 -18.262  1.00  0.00     0.167 HD
ATOM     63  C   UNL     1      -2.237  15.115 -18.645  1.00  0.00     0.074 A 
ATOM     64  C   UNL     1      -3.001  16.335 -18.476  1.00  0.00     0.031 C 
ATOM     65  C   UNL     1      -1.273  14.943 -19.584  1.00  0.00     0.037 A 
BRANCH  52  66
ATOM     66  C   UNL     1       1.419   9.374 -19.457  1.00  0.00     0.058 A 
ATOM     67  C   UNL     1       1.072   8.245 -20.218  1.00  0.00     0.135 A 
ATOM     68  C   UNL     1       2.784   9.633 -19.257  1.00  0.00     0.135 A 
ATOM     69  F   UNL     1      -0.219   7.941 -20.426  1.00  0.00    -0.206 F 
ATOM     70  C   UNL     1       2.039   7.390 -20.735  1.00  0.00     0.059 A 
ATOM     71  C   UNL     1       3.770   8.805 -19.787  1.00  0.00     0.059 A 
ATOM     72  F   UNL     1       3.172  10.696 -18.536  1.00  0.00    -0.206 F 
ATOM     73  C   UNL     1       3.387   7.677 -20.512  1.00  0.00     0.060 A 
BRANCH  73  74
ATOM     74  S   UNL     1       4.630   6.559 -21.192  1.00  0.00     0.124 S 
ATOM     75  O   UNL     1       4.516   5.416 -20.292  1.00  0.00    -0.237 OA
ATOM     76  O   UNL     1       4.148   6.344 -22.553  1.00  0.00    -0.237 OA
ATOM     77  O   UNL     1       5.869   7.323 -21.084  1.00  0.00    -0.744 OA
ENDBRANCH  73  74
ENDBRANCH  52  66
BRANCH  53  78
ATOM     78  C   UNL     1      -5.458  15.267 -15.213  1.00  0.00     0.058 A 
ATOM     79  C   UNL     1      -6.632  15.635 -15.886  1.00  0.00     0.135 A 
ATOM     80  C   UNL     1      -5.274  15.749 -13.908  1.00  0.00     0.135 A 
ATOM     81  F   UNL     1      -6.851  15.201 -17.137  1.00  0.00    -0.206 F 
ATOM     82  C   UNL     1      -7.582  16.462 -15.297  1.00  0.00     0.059 A 
ATOM     83  C   UNL     1      -6.220  16.559 -13.288  1.00  0.00     0.059 A 
ATOM     84  F   UNL     1      -4.176  15.409 -13.215  1.00  0.00    -0.206 F 
ATOM     85  C   UNL     1      -7.367  16.918 -13.995  1.00  0.00     0.060 A 
BRANCH  85  86
ATOM     86  S   UNL     1      -8.630  17.949 -13.218  1.00  0.00     0.124 S 
ATOM     87  O   UNL     1      -8.419  19.227 -13.887  1.00  0.00    -0.237 OA
ATOM     88  O   UNL     1      -9.860  17.242 -13.564  1.00  0.00    -0.237 OA
ATOM     89  O   UNL     1      -8.271  17.907 -11.803  1.00  0.00    -0.744 OA
ENDBRANCH  85  86
ENDBRANCH  53  78
BRANCH  65  90
ATOM     90  C   UNL     1      -1.006  16.099 -20.506  1.00  0.00     0.058 A 
ATOM     91  C   UNL     1      -0.348  17.257 -20.060  1.00  0.00     0.135 A 
ATOM     92  C   UNL     1      -1.398  16.044 -21.853  1.00  0.00     0.135 A 
ATOM     93  F   UNL     1       0.042  17.362 -18.780  1.00  0.00    -0.206 F 
ATOM     94  C   UNL     1      -0.122  18.335 -20.909  1.00  0.00     0.059 A 
ATOM     95  C   UNL     1      -1.157  17.099 -22.726  1.00  0.00     0.059 A 
ATOM     96  F   UNL     1      -2.020  14.954 -22.332  1.00  0.00    -0.206 F 
ATOM     97  C   UNL     1      -0.535  18.248 -22.240  1.00  0.00     0.060 A 
BRANCH  97  98
ATOM     98  S   UNL     1      -0.235  19.652 -23.335  1.00  0.00     0.124 S 
ATOM     99  O   UNL     1      -1.279  20.580 -22.915  1.00  0.00    -0.237 OA
ATOM    100  O   UNL     1       1.131  20.035 -22.988  1.00  0.00    -0.237 OA
ATOM    101  O   UNL     1      -0.399  19.082 -24.669  1.00  0.00    -0.744 OA
ENDBRANCH  97  98
ENDBRANCH  65  90
ENDBRANCH  39  40
ENDBRANCH  31  34
ENDBRANCH  29  30
ENDBRANCH  28  29
ENDBRANCH   1  28
TORSDOF 18
