REMARK SMILES O=C(NCCCCNC(=O)[C@@H]1O[C@H](OC(=O)c2cccnc2)[C@@H](O)[C@H](O)[C@H]1O)c1ccc(-c2c3nc(c(-c4c(F)cc(S(=O)(=O)[O-])cc4F)c4ccc([nH]4)c(-c4c(F)cc(S(=O)(=O)[O-])cc4F)c4nc(c(-c5c(F)cc(S(=O)(=O)[O-])cc5F)c5ccc2[nH]5)C=C4)C=C3)cc1
REMARK SMILES IDX 5 1 4 2 3 3 1 4 2 5 29 7 30 8 94 9 31 10 93 11 32 12 33 13
REMARK SMILES IDX 34 14 87 15 35 16 92 17 86 18 88 19 36 20 91 21 85 22 84 23
REMARK SMILES IDX 37 25 71 26 50 27 70 28 51 29 54 30 69 31 89 32 52 33 53 34
REMARK SMILES IDX 68 36 90 37 55 38 38 39 39 40 48 41 40 42 41 43 47 44 49 45
REMARK SMILES IDX 42 46 43 47 44 48 45 49 46 50 72 51 73 52 82 53 74 54 75 55
REMARK SMILES IDX 81 56 83 57 76 58 77 59 78 60 79 61 80 62 56 63 57 64 66 65
REMARK SMILES IDX 58 66 59 67 65 68 67 69 60 70 61 71 62 72 63 73 64 74 6 75
REMARK SMILES IDX 7 76 8 77 9 78 10 80 11 81 12 82 27 83 13 84 25 85 23 86
REMARK SMILES IDX 28 87 14 89 15 90 16 91 17 92 18 93 22 94 19 95 21 96 20 97
REMARK SMILES IDX 26 98 24 100
REMARK H PARENT 3 6 88 24 54 35 8 79 28 88 26 99 24 101
REMARK Flexibility Score: inf
ROOT
ATOM      1  C   UNL     1       8.327   0.625  -6.850  1.00  0.00     0.023 C 
ENDROOT
BRANCH   1   2
ATOM      2  C   UNL     1       9.747   0.763  -7.379  1.00  0.00     0.116 C 
BRANCH   2   3
ATOM      3  N   UNL     1      10.751   0.190  -6.493  1.00  0.00    -0.352 N 
ATOM      4  O   UNL     1      12.545  -1.082  -5.965  1.00  0.00    -0.269 OA
ATOM      5  C   UNL     1      11.852  -0.564  -6.834  1.00  0.00     0.251 C 
ATOM      6  H   UNL     1      10.628   0.363  -5.532  1.00  0.00     0.163 HD
BRANCH   5   7
ATOM      7  C   UNL     1      12.160  -0.765  -8.267  1.00  0.00     0.039 A 
ATOM      8  C   UNL     1      12.144   0.324  -9.139  1.00  0.00     0.014 A 
ATOM      9  C   UNL     1      12.405  -2.054  -8.748  1.00  0.00     0.014 A 
ATOM     10  C   UNL     1      12.207   0.103 -10.507  1.00  0.00     0.010 A 
ATOM     11  C   UNL     1      12.570  -2.260 -10.122  1.00  0.00     0.010 A 
ATOM     12  C   UNL     1      12.438  -1.187 -11.017  1.00  0.00    -0.014 A 
BRANCH  12  13
ATOM     13  C   UNL     1      12.605  -1.345 -12.484  1.00  0.00     0.031 A 
ATOM     14  C   UNL     1      11.636  -2.146 -13.311  1.00  0.00     0.074 A 
ATOM     15  C   UNL     1      13.618  -0.681 -13.077  1.00  0.00     0.049 A 
ATOM     16  N   UNL     1      11.607  -2.307 -14.610  1.00  0.00    -0.248 NA
ATOM     17  C   UNL     1      10.570  -2.864 -12.596  1.00  0.00     0.031 C 
ATOM     18  C   UNL     1      14.636   0.102 -12.368  1.00  0.00     0.029 A 
ATOM     19  N   UNL     1      13.942  -0.523 -14.398  1.00  0.00    -0.354 N 
ATOM     20  C   UNL     1      10.531  -3.148 -14.870  1.00  0.00     0.074 A 
ATOM     21  C   UNL     1       9.948  -3.489 -13.589  1.00  0.00     0.031 C 
ATOM     22  C   UNL     1      15.427   0.709 -13.262  1.00  0.00     0.029 A 
ATOM     23  C   UNL     1      15.018   0.309 -14.602  1.00  0.00     0.049 A 
ATOM     24  H   UNL     1      13.452  -0.962 -15.131  1.00  0.00     0.167 HD
ATOM     25  C   UNL     1      10.069  -3.584 -16.067  1.00  0.00     0.037 A 
ATOM     26  C   UNL     1      15.619   0.701 -15.740  1.00  0.00     0.037 A 
ATOM     27  C   UNL     1      10.652  -3.230 -17.339  1.00  0.00     0.049 A 
ATOM     28  C   UNL     1      15.075   0.214 -17.050  1.00  0.00     0.074 A 
ATOM     29  C   UNL     1      10.255  -3.617 -18.608  1.00  0.00     0.029 A 
ATOM     30  N   UNL     1      11.752  -2.400 -17.505  1.00  0.00    -0.354 N 
ATOM     31  N   UNL     1      14.051  -0.575 -17.273  1.00  0.00    -0.248 NA
ATOM     32  C   UNL     1      15.768   0.666 -18.263  1.00  0.00     0.031 C 
ATOM     33  C   UNL     1      11.133  -3.048 -19.537  1.00  0.00     0.029 A 
ATOM     34  C   UNL     1      12.053  -2.271 -18.852  1.00  0.00     0.049 A 
ATOM     35  H   UNL     1      12.247  -1.965 -16.772  1.00  0.00     0.167 HD
ATOM     36  C   UNL     1      13.978  -0.718 -18.652  1.00  0.00     0.074 A 
ATOM     37  C   UNL     1      15.037   0.098 -19.212  1.00  0.00     0.031 C 
ATOM     38  C   UNL     1      13.121  -1.466 -19.389  1.00  0.00     0.037 A 
BRANCH  25  39
ATOM     39  C   UNL     1       8.873  -4.498 -16.071  1.00  0.00     0.058 A 
ATOM     40  C   UNL     1       7.581  -4.019 -15.799  1.00  0.00     0.135 A 
ATOM     41  C   UNL     1       9.007  -5.853 -16.417  1.00  0.00     0.135 A 
ATOM     42  F   UNL     1       7.396  -2.737 -15.448  1.00  0.00    -0.206 F 
ATOM     43  C   UNL     1       6.468  -4.853 -15.858  1.00  0.00     0.059 A 
ATOM     44  C   UNL     1       7.905  -6.700 -16.504  1.00  0.00     0.059 A 
ATOM     45  F   UNL     1      10.218  -6.364 -16.687  1.00  0.00    -0.206 F 
ATOM     46  C   UNL     1       6.639  -6.192 -16.214  1.00  0.00     0.060 A 
BRANCH  46  47
ATOM     47  S   UNL     1       5.181  -7.254 -16.309  1.00  0.00     0.124 S 
ATOM     48  O   UNL     1       4.862  -7.436 -14.896  1.00  0.00    -0.237 OA
ATOM     49  O   UNL     1       4.245  -6.432 -17.069  1.00  0.00    -0.237 OA
ATOM     50  O   UNL     1       5.671  -8.443 -17.000  1.00  0.00    -0.744 OA
ENDBRANCH  46  47
ENDBRANCH  25  39
BRANCH  26  51
ATOM     51  C   UNL     1      16.812   1.583 -15.676  1.00  0.00     0.058 A 
ATOM     52  C   UNL     1      16.763   2.913 -16.117  1.00  0.00     0.135 A 
ATOM     53  C   UNL     1      18.024   1.113 -15.145  1.00  0.00     0.135 A 
ATOM     54  F   UNL     1      15.627   3.407 -16.632  1.00  0.00    -0.206 F 
ATOM     55  C   UNL     1      17.878   3.742 -16.051  1.00  0.00     0.059 A 
ATOM     56  C   UNL     1      19.143   1.931 -15.041  1.00  0.00     0.059 A 
ATOM     57  F   UNL     1      18.115  -0.146 -14.688  1.00  0.00    -0.206 F 
ATOM     58  C   UNL     1      19.064   3.240 -15.511  1.00  0.00     0.060 A 
BRANCH  58  59
ATOM     59  S   UNL     1      20.497   4.331 -15.386  1.00  0.00     0.124 S 
ATOM     60  O   UNL     1      20.990   4.323 -16.758  1.00  0.00    -0.237 OA
ATOM     61  O   UNL     1      19.898   5.581 -14.929  1.00  0.00    -0.237 OA
ATOM     62  O   UNL     1      21.344   3.656 -14.405  1.00  0.00    -0.744 OA
ENDBRANCH  58  59
ENDBRANCH  26  51
BRANCH  38  63
ATOM     63  C   UNL     1      13.304  -1.428 -20.879  1.00  0.00     0.058 A 
ATOM     64  C   UNL     1      14.388  -2.071 -21.499  1.00  0.00     0.135 A 
ATOM     65  C   UNL     1      12.393  -0.739 -21.694  1.00  0.00     0.135 A 
ATOM     66  F   UNL     1      15.291  -2.736 -20.761  1.00  0.00    -0.206 F 
ATOM     67  C   UNL     1      14.584  -1.998 -22.873  1.00  0.00     0.059 A 
ATOM     68  C   UNL     1      12.556  -0.675 -23.074  1.00  0.00     0.059 A 
ATOM     69  F   UNL     1      11.335  -0.117 -21.151  1.00  0.00    -0.206 F 
ATOM     70  C   UNL     1      13.666  -1.291 -23.652  1.00  0.00     0.060 A 
BRANCH  70  71
ATOM     71  S   UNL     1      13.934  -1.195 -25.434  1.00  0.00     0.124 S 
ATOM     72  O   UNL     1      14.993  -0.195 -25.518  1.00  0.00    -0.237 OA
ATOM     73  O   UNL     1      14.324  -2.561 -25.769  1.00  0.00    -0.237 OA
ATOM     74  O   UNL     1      12.633  -0.778 -25.950  1.00  0.00    -0.744 OA
ENDBRANCH  70  71
ENDBRANCH  38  63
ENDBRANCH  12  13
ENDBRANCH   5   7
ENDBRANCH   2   3
ENDBRANCH   1   2
BRANCH   1  75
ATOM     75  C   UNL     1       8.068   1.321  -5.513  1.00  0.00     0.023 C 
BRANCH  75  76
ATOM     76  C   UNL     1       8.419   2.807  -5.507  1.00  0.00     0.116 C 
BRANCH  76  77
ATOM     77  N   UNL     1       7.552   3.557  -6.398  1.00  0.00    -0.354 N 
ATOM     78  C   UNL     1       6.551   4.442  -6.111  1.00  0.00     0.252 C 
ATOM     79  H   UNL     1       7.711   3.405  -7.358  1.00  0.00     0.163 HD
ATOM     80  O   UNL     1       5.919   4.933  -7.049  1.00  0.00    -0.272 OA
BRANCH  78  81
ATOM     81  C   UNL     1       6.251   4.802  -4.652  1.00  0.00     0.242 C 
ATOM     82  O   UNL     1       4.871   4.590  -4.359  1.00  0.00    -0.324 OA
ATOM     83  C   UNL     1       6.649   6.263  -4.424  1.00  0.00     0.184 C 
ATOM     84  C   UNL     1       4.551   4.862  -2.997  1.00  0.00     0.343 C 
ATOM     85  C   UNL     1       6.342   6.629  -2.970  1.00  0.00     0.181 C 
ATOM     86  C   UNL     1       4.904   6.303  -2.569  1.00  0.00     0.214 C 
BRANCH  83  87
ATOM     87  O   UNL     1       8.055   6.438  -4.655  1.00  0.00    -0.387 OA
ATOM     88  H   UNL     1       8.555   5.873  -4.046  1.00  0.00     0.211 HD
ENDBRANCH  83  87
BRANCH  84  89
ATOM     89  O   UNL     1       3.178   4.546  -2.708  1.00  0.00    -0.429 OA
BRANCH  89  90
ATOM     90  C   UNL     1       2.239   5.185  -3.430  1.00  0.00     0.342 C 
ATOM     91  O   UNL     1       2.412   6.016  -4.318  1.00  0.00    -0.246 OA
BRANCH  90  92
ATOM     92  C   UNL     1       0.912   4.751  -2.986  1.00  0.00     0.078 A 
ATOM     93  C   UNL     1       0.627   4.485  -1.644  1.00  0.00     0.019 A 
ATOM     94  C   UNL     1      -0.114   4.646  -3.914  1.00  0.00     0.126 A 
ATOM     95  C   UNL     1      -0.668   4.120  -1.286  1.00  0.00     0.021 A 
ATOM     96  N   UNL     1      -1.380   4.286  -3.589  1.00  0.00    -0.264 NA
ATOM     97  C   UNL     1      -1.626   4.032  -2.284  1.00  0.00     0.111 A 
ENDBRANCH  90  92
ENDBRANCH  89  90
ENDBRANCH  84  89
BRANCH  85  98
ATOM     98  O   UNL     1       6.620   8.018  -2.719  1.00  0.00    -0.387 OA
ATOM     99  H   UNL     1       6.038   8.568  -3.265  1.00  0.00     0.211 HD
ENDBRANCH  85  98
BRANCH  86 100
ATOM    100  O   UNL     1       4.788   6.449  -1.141  1.00  0.00    -0.384 OA
ATOM    101  H   UNL     1       5.406   5.844  -0.702  1.00  0.00     0.211 HD
ENDBRANCH  86 100
ENDBRANCH  78  81
ENDBRANCH  76  77
ENDBRANCH  75  76
ENDBRANCH   1  75
TORSDOF 20
