REMARK SMILES CN(c1ccccc1)c1nc(OCC(=O)NCCCCNC(=O)c2ccc(-c3c4nc(c(-c5c(F)cc(S(=O)(=O)[O-])cc5F)c5ccc([nH]5)c(-c5c(F)cc(S(=O)(=O)[O-])cc5F)c5nc(c(-c6c(F)cc(S(=O)(=O)[O-])cc6F)c6ccc3[nH]6)C=C5)C=C4)cc2)cc(-c2ccncc2)n1
REMARK SMILES IDX 18 1 17 2 16 3 14 4 15 5 13 7 12 8 11 9 9 10 10 11 98 12
REMARK SMILES IDX 91 13 90 14 2 15 1 16 3 17 4 18 8 19 5 20 7 21 6 22 92 23
REMARK SMILES IDX 93 24 97 25 94 26 96 27 95 28 19 29 20 30 21 31 22 32 23 34
REMARK SMILES IDX 24 35 25 36 89 37 26 38 88 39 27 40 28 41 29 42 82 43 30 44
REMARK SMILES IDX 87 45 81 46 83 47 31 48 86 49 80 50 79 51 32 53 66 54 45 55
REMARK SMILES IDX 65 56 46 57 49 58 64 59 84 60 47 61 48 62 63 64 85 65 50 66
REMARK SMILES IDX 33 67 34 68 43 69 35 70 36 71 42 72 44 73 37 74 38 75 39 76
REMARK SMILES IDX 40 77 41 78 67 79 68 80 77 81 69 82 70 83 76 84 78 85 71 86
REMARK SMILES IDX 72 87 73 88 74 89 75 90 51 91 52 92 61 93 53 94 54 95 60 96
REMARK SMILES IDX 62 97 55 98 56 99 57 100 58 101 59 102
REMARK H PARENT 16 6 21 33 83 52 49 63
REMARK Flexibility Score: inf
ROOT
ATOM      1  C   UNL     1      -2.247   1.055   4.798  1.00  0.00     0.023 C 
ENDROOT
BRANCH   1   2
ATOM      2  C   UNL     1      -2.378   2.333   5.623  1.00  0.00     0.116 C 
BRANCH   2   3
ATOM      3  N   UNL     1      -1.132   2.699   6.269  1.00  0.00    -0.353 N 
ATOM      4  C   UNL     1      -0.304   3.742   5.984  1.00  0.00     0.258 C 
ATOM      5  O   UNL     1       0.730   3.879   6.641  1.00  0.00    -0.271 OA
ATOM      6  H   UNL     1      -0.847   2.117   7.011  1.00  0.00     0.163 HD
BRANCH   4   7
ATOM      7  C   UNL     1      -0.670   4.733   4.869  1.00  0.00     0.331 C 
BRANCH   7   8
ATOM      8  O   UNL     1      -0.819   4.221   3.558  1.00  0.00    -0.467 OA
BRANCH   8   9
ATOM      9  C   UNL     1       0.254   3.604   2.982  1.00  0.00     0.219 A 
ATOM     10  C   UNL     1       0.877   2.240   1.226  1.00  0.00     0.233 A 
ATOM     11  N   UNL     1      -0.068   2.965   1.849  1.00  0.00    -0.177 NA
ATOM     12  N   UNL     1       2.137   2.148   1.685  1.00  0.00    -0.212 NA
ATOM     13  C   UNL     1       2.450   2.852   2.790  1.00  0.00     0.080 A 
ATOM     14  C   UNL     1       1.530   3.611   3.476  1.00  0.00     0.097 A 
BRANCH  10  15
ATOM     15  N   UNL     1       0.527   1.562   0.049  1.00  0.00    -0.314 N 
ATOM     16  C   UNL     1       1.049   0.206  -0.038  1.00  0.00     0.153 C 
BRANCH  15  17
ATOM     17  C   UNL     1      -0.358   2.031  -0.932  1.00  0.00     0.043 A 
ATOM     18  C   UNL     1      -0.263   3.363  -1.375  1.00  0.00     0.026 A 
ATOM     19  C   UNL     1      -1.339   1.223  -1.522  1.00  0.00     0.026 A 
ATOM     20  C   UNL     1      -1.090   3.861  -2.385  1.00  0.00     0.002 A 
ATOM     21  C   UNL     1      -2.184   1.722  -2.521  1.00  0.00     0.002 A 
ATOM     22  C   UNL     1      -2.053   3.038  -2.958  1.00  0.00     0.000 A 
ENDBRANCH  15  17
ENDBRANCH  10  15
BRANCH  13  23
ATOM     23  C   UNL     1       3.849   2.810   3.219  1.00  0.00     0.004 A 
ATOM     24  C   UNL     1       4.207   2.309   4.476  1.00  0.00     0.030 A 
ATOM     25  C   UNL     1       4.858   3.336   2.406  1.00  0.00     0.030 A 
ATOM     26  C   UNL     1       5.535   2.374   4.866  1.00  0.00     0.111 A 
ATOM     27  C   UNL     1       6.155   3.367   2.890  1.00  0.00     0.111 A 
ATOM     28  N   UNL     1       6.515   2.904   4.105  1.00  0.00    -0.265 NA
ENDBRANCH  13  23
ENDBRANCH   8   9
ENDBRANCH   7   8
ENDBRANCH   4   7
ENDBRANCH   2   3
ENDBRANCH   1   2
BRANCH   1  29
ATOM     29  C   UNL     1      -1.855  -0.200   5.586  1.00  0.00     0.023 C 
BRANCH  29  30
ATOM     30  C   UNL     1      -2.714  -0.527   6.806  1.00  0.00     0.116 C 
BRANCH  30  31
ATOM     31  N   UNL     1      -4.125  -0.668   6.492  1.00  0.00    -0.352 N 
ATOM     32  C   UNL     1      -5.038  -1.592   6.934  1.00  0.00     0.251 C 
ATOM     33  H   UNL     1      -4.481   0.002   5.866  1.00  0.00     0.163 HD
ATOM     34  O   UNL     1      -6.174  -1.582   6.449  1.00  0.00    -0.269 OA
BRANCH  32  35
ATOM     35  C   UNL     1      -4.683  -2.613   7.947  1.00  0.00     0.039 A 
ATOM     36  C   UNL     1      -5.180  -3.909   7.782  1.00  0.00     0.014 A 
ATOM     37  C   UNL     1      -3.900  -2.312   9.066  1.00  0.00     0.014 A 
ATOM     38  C   UNL     1      -4.851  -4.908   8.702  1.00  0.00     0.010 A 
ATOM     39  C   UNL     1      -3.515  -3.326   9.946  1.00  0.00     0.010 A 
ATOM     40  C   UNL     1      -3.990  -4.634   9.778  1.00  0.00    -0.014 A 
BRANCH  40  41
ATOM     41  C   UNL     1      -3.578  -5.721  10.706  1.00  0.00     0.031 A 
ATOM     42  C   UNL     1      -3.988  -5.702  12.154  1.00  0.00     0.074 A 
ATOM     43  C   UNL     1      -2.811  -6.728  10.243  1.00  0.00     0.049 A 
ATOM     44  N   UNL     1      -3.772  -6.598  13.085  1.00  0.00    -0.248 NA
ATOM     45  C   UNL     1      -4.715  -4.514  12.624  1.00  0.00     0.031 C 
ATOM     46  C   UNL     1      -2.294  -6.834   8.876  1.00  0.00     0.029 A 
ATOM     47  N   UNL     1      -2.343  -7.860  10.862  1.00  0.00    -0.354 N 
ATOM     48  C   UNL     1      -4.335  -6.083  14.247  1.00  0.00     0.074 A 
ATOM     49  C   UNL     1      -4.845  -4.769  13.918  1.00  0.00     0.031 C 
ATOM     50  C   UNL     1      -1.625  -7.990   8.748  1.00  0.00     0.029 A 
ATOM     51  C   UNL     1      -1.642  -8.696  10.026  1.00  0.00     0.049 A 
ATOM     52  H   UNL     1      -2.495  -8.055  11.815  1.00  0.00     0.167 HD
ATOM     53  C   UNL     1      -4.441  -6.660  15.470  1.00  0.00     0.037 A 
ATOM     54  C   UNL     1      -1.092  -9.904  10.254  1.00  0.00     0.037 A 
ATOM     55  C   UNL     1      -3.937  -7.971  15.794  1.00  0.00     0.049 A 
ATOM     56  C   UNL     1      -1.236 -10.535  11.610  1.00  0.00     0.074 A 
ATOM     57  C   UNL     1      -4.032  -8.662  16.989  1.00  0.00     0.029 A 
ATOM     58  N   UNL     1      -3.237  -8.789  14.918  1.00  0.00    -0.354 N 
ATOM     59  N   UNL     1      -1.832 -10.064  12.680  1.00  0.00    -0.248 NA
ATOM     60  C   UNL     1      -0.646 -11.868  11.786  1.00  0.00     0.031 C 
ATOM     61  C   UNL     1      -3.357  -9.881  16.848  1.00  0.00     0.029 A 
ATOM     62  C   UNL     1      -2.881  -9.970  15.550  1.00  0.00     0.049 A 
ATOM     63  H   UNL     1      -3.023  -8.563  13.984  1.00  0.00     0.167 HD
ATOM     64  C   UNL     1      -1.715 -11.056  13.648  1.00  0.00     0.074 A 
ATOM     65  C   UNL     1      -1.000 -12.155  13.031  1.00  0.00     0.031 C 
ATOM     66  C   UNL     1      -2.164 -11.057  14.928  1.00  0.00     0.037 A 
BRANCH  53  67
ATOM     67  C   UNL     1      -5.133  -5.865  16.546  1.00  0.00     0.058 A 
ATOM     68  C   UNL     1      -6.512  -5.601  16.495  1.00  0.00     0.135 A 
ATOM     69  C   UNL     1      -4.412  -5.354  17.638  1.00  0.00     0.135 A 
ATOM     70  F   UNL     1      -7.250  -6.056  15.470  1.00  0.00    -0.206 F 
ATOM     71  C   UNL     1      -7.141  -4.817  17.457  1.00  0.00     0.059 A 
ATOM     72  C   UNL     1      -5.027  -4.592  18.628  1.00  0.00     0.059 A 
ATOM     73  F   UNL     1      -3.093  -5.580  17.743  1.00  0.00    -0.206 F 
ATOM     74  C   UNL     1      -6.387  -4.307  18.515  1.00  0.00     0.060 A 
BRANCH  74  75
ATOM     75  S   UNL     1      -7.206  -3.256  19.733  1.00  0.00     0.124 S 
ATOM     76  O   UNL     1      -7.345  -2.007  18.991  1.00  0.00    -0.237 OA
ATOM     77  O   UNL     1      -8.447  -3.981  19.990  1.00  0.00    -0.237 OA
ATOM     78  O   UNL     1      -6.261  -3.225  20.844  1.00  0.00    -0.744 OA
ENDBRANCH  74  75
ENDBRANCH  53  67
BRANCH  54  79
ATOM     79  C   UNL     1      -0.419 -10.625   9.141  1.00  0.00     0.058 A 
ATOM     80  C   UNL     1      -1.028 -11.733   8.534  1.00  0.00     0.135 A 
ATOM     81  C   UNL     1       0.816 -10.196   8.633  1.00  0.00     0.135 A 
ATOM     82  F   UNL     1      -2.208 -12.183   8.989  1.00  0.00    -0.206 F 
ATOM     83  C   UNL     1      -0.437 -12.393   7.463  1.00  0.00     0.059 A 
ATOM     84  C   UNL     1       1.417 -10.826   7.548  1.00  0.00     0.059 A 
ATOM     85  F   UNL     1       1.431  -9.130   9.170  1.00  0.00    -0.206 F 
ATOM     86  C   UNL     1       0.784 -11.927   6.971  1.00  0.00     0.060 A 
BRANCH  86  87
ATOM     87  S   UNL     1       1.503 -12.741   5.528  1.00  0.00     0.124 S 
ATOM     88  O   UNL     1       1.982 -13.992   6.104  1.00  0.00    -0.237 OA
ATOM     89  O   UNL     1       0.355 -12.848   4.633  1.00  0.00    -0.237 OA
ATOM     90  O   UNL     1       2.538 -11.806   5.098  1.00  0.00    -0.744 OA
ENDBRANCH  86  87
ENDBRANCH  54  79
BRANCH  66  91
ATOM     91  C   UNL     1      -1.922 -12.302  15.737  1.00  0.00     0.058 A 
ATOM     92  C   UNL     1      -0.641 -12.653  16.192  1.00  0.00     0.135 A 
ATOM     93  C   UNL     1      -2.990 -13.151  16.070  1.00  0.00     0.135 A 
ATOM     94  F   UNL     1       0.416 -11.879  15.899  1.00  0.00    -0.206 F 
ATOM     95  C   UNL     1      -0.421 -13.823  16.913  1.00  0.00     0.059 A 
ATOM     96  C   UNL     1      -2.797 -14.312  16.812  1.00  0.00     0.059 A 
ATOM     97  F   UNL     1      -4.238 -12.857  15.671  1.00  0.00    -0.206 F 
ATOM     98  C   UNL     1      -1.505 -14.650  17.212  1.00  0.00     0.060 A 
BRANCH  98  99
ATOM     99  S   UNL     1      -1.210 -16.168  18.144  1.00  0.00     0.124 S 
ATOM    100  O   UNL     1      -0.636 -17.034  17.119  1.00  0.00    -0.237 OA
ATOM    101  O   UNL     1      -0.289 -15.723  19.186  1.00  0.00    -0.237 OA
ATOM    102  O   UNL     1      -2.541 -16.543  18.611  1.00  0.00    -0.744 OA
ENDBRANCH  98  99
ENDBRANCH  66  91
ENDBRANCH  40  41
ENDBRANCH  32  35
ENDBRANCH  30  31
ENDBRANCH  29  30
ENDBRANCH   1  29
TORSDOF 19
