REMARK SMILES C[NH+]1CCN(c2nc3c(cc2F)c(=O)c(C(=O)NCCCCNC(=O)c2ccc(-c4c5nc(c(-c6c(F)cc(S(=O)(=O)[O-])cc6F)c6ccc([nH]6)c(-c6c(F)cc(S(=O)(=O)[O-])cc6F)c6nc(c(-c7c(F)cc(S(=O)(=O)[O-])cc7F)c7ccc4[nH]7)C=C6)C=C5)cc2)cn3-c2ccc(F)cc2F)CC1
REMARK SMILES IDX 21 1 20 2 19 3 18 4 16 5 17 6 15 8 6 9 7 10 11 11 8 12 10 13
REMARK SMILES IDX 12 14 9 15 93 16 13 17 92 18 14 19 5 20 1 21 2 22 3 23
REMARK SMILES IDX 103 24 4 26 102 27 94 28 95 29 100 30 96 31 99 32 101 33
REMARK SMILES IDX 97 34 98 35 22 36 23 37 24 38 25 40 26 41 27 42 91 43 28 44
REMARK SMILES IDX 90 45 29 46 30 47 31 48 84 49 32 50 89 51 83 52 85 53 33 54
REMARK SMILES IDX 88 55 82 56 81 57 34 59 68 60 47 61 67 62 48 63 51 64 66 65
REMARK SMILES IDX 86 66 49 67 50 68 65 70 87 71 52 72 35 73 36 74 45 75 37 76
REMARK SMILES IDX 38 77 44 78 46 79 39 80 40 81 41 82 42 83 43 84 69 85 70 86
REMARK SMILES IDX 79 87 71 88 72 89 78 90 80 91 73 92 74 93 75 94 76 95 77 96
REMARK SMILES IDX 53 97 54 98 63 99 55 100 56 101 62 102 64 103 57 104 58 105
REMARK SMILES IDX 59 106 60 107 61 108
REMARK H PARENT 18 7 2 25 23 39 85 58 51 69
REMARK Flexibility Score: inf
ROOT
ATOM      1  C   UNL     1      -9.355  -0.100   6.902  1.00  0.00     0.023 C 
ENDROOT
BRANCH   1   2
ATOM      2  C   UNL     1      -8.324  -0.234   5.786  1.00  0.00     0.023 C 
BRANCH   2   3
ATOM      3  C   UNL     1      -8.838  -0.900   4.508  1.00  0.00     0.116 C 
BRANCH   3   4
ATOM      4  N   UNL     1      -9.492   0.063   3.644  1.00  0.00    -0.352 N 
ATOM      5  C   UNL     1      -9.032   0.821   2.614  1.00  0.00     0.256 C 
ATOM      6  O   UNL     1      -9.862   1.546   2.055  1.00  0.00    -0.269 OA
ATOM      7  H   UNL     1     -10.448   0.193   3.840  1.00  0.00     0.163 HD
BRANCH   5   8
ATOM      8  C   UNL     1      -7.635   0.758   2.096  1.00  0.00     0.104 A 
ATOM      9  C   UNL     1      -2.871  -0.130   0.548  1.00  0.00     0.167 A 
ATOM     10  N   UNL     1      -3.926   0.535   0.013  1.00  0.00    -0.209 NA
ATOM     11  C   UNL     1      -2.962  -0.728   1.807  1.00  0.00     0.166 A 
ATOM     12  C   UNL     1      -5.098   0.610   0.698  1.00  0.00     0.151 A 
ATOM     13  C   UNL     1      -4.120  -0.600   2.548  1.00  0.00     0.059 A 
ATOM     14  F   UNL     1      -1.917  -1.373   2.349  1.00  0.00    -0.203 F 
ATOM     15  C   UNL     1      -5.193   0.089   1.986  1.00  0.00     0.069 A 
ATOM     16  N   UNL     1      -6.252   1.232   0.119  1.00  0.00    -0.297 N 
ATOM     17  C   UNL     1      -6.400   0.332   2.787  1.00  0.00     0.203 A 
ATOM     18  C   UNL     1      -7.444   1.207   0.841  1.00  0.00     0.111 A 
ATOM     19  O   UNL     1      -6.288   0.215   3.999  1.00  0.00    -0.288 OA
BRANCH   9  20
ATOM     20  N   UNL     1      -1.714  -0.156  -0.185  1.00  0.00    -0.343 N 
ATOM     21  C   UNL     1       2.509   0.143   0.139  1.00  0.00     0.332 C 
ATOM     22  N   UNL     1       1.162   0.015  -0.411  1.00  0.00    -0.334 N 
ATOM     23  C   UNL     1       0.338   1.201  -0.073  1.00  0.00     0.283 C 
ATOM     24  C   UNL     1       0.503  -1.204   0.118  1.00  0.00     0.283 C 
ATOM     25  H   UNL     1       1.243  -0.055  -1.425  1.00  0.00     0.347 HD
ATOM     26  C   UNL     1      -1.113   1.103  -0.616  1.00  0.00     0.179 C 
ATOM     27  C   UNL     1      -0.940  -1.372  -0.402  1.00  0.00     0.179 C 
ENDBRANCH   9  20
BRANCH  16  28
ATOM     28  C   UNL     1      -6.236   1.812  -1.187  1.00  0.00     0.083 A 
ATOM     29  C   UNL     1      -5.806   1.069  -2.300  1.00  0.00     0.033 A 
ATOM     30  C   UNL     1      -6.659   3.136  -1.402  1.00  0.00     0.150 A 
ATOM     31  C   UNL     1      -5.807   1.635  -3.578  1.00  0.00     0.041 A 
ATOM     32  C   UNL     1      -6.652   3.711  -2.669  1.00  0.00     0.080 A 
ATOM     33  F   UNL     1      -7.058   3.891  -0.366  1.00  0.00    -0.205 F 
ATOM     34  C   UNL     1      -6.227   2.950  -3.747  1.00  0.00     0.126 A 
ATOM     35  F   UNL     1      -6.217   3.491  -4.972  1.00  0.00    -0.207 F 
ENDBRANCH  16  28
ENDBRANCH   5   8
ENDBRANCH   3   4
ENDBRANCH   2   3
ENDBRANCH   1   2
BRANCH   1  36
ATOM     36  C   UNL     1      -9.839  -1.421   7.481  1.00  0.00     0.116 C 
BRANCH  36  37
ATOM     37  N   UNL     1      -8.768  -2.242   8.029  1.00  0.00    -0.352 N 
ATOM     38  C   UNL     1      -8.828  -3.075   9.120  1.00  0.00     0.251 C 
ATOM     39  H   UNL     1      -7.902  -2.195   7.564  1.00  0.00     0.163 HD
ATOM     40  O   UNL     1      -7.833  -3.664   9.526  1.00  0.00    -0.269 OA
BRANCH  38  41
ATOM     41  C   UNL     1     -10.120  -3.206   9.817  1.00  0.00     0.039 A 
ATOM     42  C   UNL     1     -10.203  -2.823  11.157  1.00  0.00     0.014 A 
ATOM     43  C   UNL     1     -11.257  -3.603   9.107  1.00  0.00     0.014 A 
ATOM     44  C   UNL     1     -11.451  -2.778  11.775  1.00  0.00     0.010 A 
ATOM     45  C   UNL     1     -12.505  -3.509   9.711  1.00  0.00     0.010 A 
ATOM     46  C   UNL     1     -12.610  -3.093  11.048  1.00  0.00    -0.014 A 
BRANCH  46  47
ATOM     47  C   UNL     1     -13.946  -3.024  11.680  1.00  0.00     0.031 A 
ATOM     48  C   UNL     1     -14.687  -4.295  11.973  1.00  0.00     0.074 A 
ATOM     49  C   UNL     1     -14.502  -1.827  11.944  1.00  0.00     0.049 A 
ATOM     50  N   UNL     1     -15.882  -4.455  12.476  1.00  0.00    -0.248 NA
ATOM     51  C   UNL     1     -13.999  -5.553  11.637  1.00  0.00     0.031 C 
ATOM     52  C   UNL     1     -13.886  -0.526  11.674  1.00  0.00     0.029 A 
ATOM     53  N   UNL     1     -15.717  -1.510  12.498  1.00  0.00    -0.354 N 
ATOM     54  C   UNL     1     -16.088  -5.827  12.521  1.00  0.00     0.074 A 
ATOM     55  C   UNL     1     -14.920  -6.454  11.943  1.00  0.00     0.031 C 
ATOM     56  C   UNL     1     -14.717   0.447  12.081  1.00  0.00     0.029 A 
ATOM     57  C   UNL     1     -15.933  -0.158  12.619  1.00  0.00     0.049 A 
ATOM     58  H   UNL     1     -16.372  -2.188  12.781  1.00  0.00     0.167 HD
ATOM     59  C   UNL     1     -17.146  -6.504  13.025  1.00  0.00     0.037 A 
ATOM     60  C   UNL     1     -16.992   0.512  13.111  1.00  0.00     0.037 A 
ATOM     61  C   UNL     1     -18.298  -5.877  13.613  1.00  0.00     0.049 A 
ATOM     62  C   UNL     1     -18.166  -0.262  13.645  1.00  0.00     0.074 A 
ATOM     63  C   UNL     1     -19.410  -6.474  14.178  1.00  0.00     0.029 A 
ATOM     64  N   UNL     1     -18.483  -4.506  13.713  1.00  0.00    -0.354 N 
ATOM     65  N   UNL     1     -18.333  -1.562  13.712  1.00  0.00    -0.248 NA
ATOM     66  C   UNL     1     -19.295   0.518  14.170  1.00  0.00     0.031 C 
ATOM     67  C   UNL     1     -20.279  -5.462  14.600  1.00  0.00     0.029 A 
ATOM     68  C   UNL     1     -19.695  -4.236  14.323  1.00  0.00     0.049 A 
ATOM     69  H   UNL     1     -17.845  -3.825  13.398  1.00  0.00     0.167 HD
ATOM     70  C   UNL     1     -19.575  -1.755  14.304  1.00  0.00     0.074 A 
ATOM     71  C   UNL     1     -20.115  -0.440  14.582  1.00  0.00     0.031 C 
ATOM     72  C   UNL     1     -20.210  -2.917  14.593  1.00  0.00     0.037 A 
BRANCH  59  73
ATOM     73  C   UNL     1     -17.087  -8.002  12.972  1.00  0.00     0.058 A 
ATOM     74  C   UNL     1     -16.243  -8.726  13.830  1.00  0.00     0.135 A 
ATOM     75  C   UNL     1     -17.878  -8.723  12.065  1.00  0.00     0.135 A 
ATOM     76  F   UNL     1     -15.450  -8.081  14.701  1.00  0.00    -0.206 F 
ATOM     77  C   UNL     1     -16.166 -10.113  13.773  1.00  0.00     0.059 A 
ATOM     78  C   UNL     1     -17.833 -10.112  12.005  1.00  0.00     0.059 A 
ATOM     79  F   UNL     1     -18.695  -8.076  11.219  1.00  0.00    -0.206 F 
ATOM     80  C   UNL     1     -16.962 -10.797  12.853  1.00  0.00     0.060 A 
BRANCH  80  81
ATOM     81  S   UNL     1     -16.846 -12.597  12.784  1.00  0.00     0.124 S 
ATOM     82  O   UNL     1     -15.568 -12.779  12.102  1.00  0.00    -0.237 OA
ATOM     83  O   UNL     1     -16.869 -12.967  14.195  1.00  0.00    -0.237 OA
ATOM     84  O   UNL     1     -18.026 -12.984  12.018  1.00  0.00    -0.744 OA
ENDBRANCH  80  81
ENDBRANCH  59  73
BRANCH  60  85
ATOM     85  C   UNL     1     -16.973   1.996  13.158  1.00  0.00     0.058 A 
ATOM     86  C   UNL     1     -16.781   2.670  14.373  1.00  0.00     0.135 A 
ATOM     87  C   UNL     1     -17.122   2.768  11.996  1.00  0.00     0.135 A 
ATOM     88  F   UNL     1     -16.640   1.973  15.511  1.00  0.00    -0.206 F 
ATOM     89  C   UNL     1     -16.743   4.059  14.437  1.00  0.00     0.059 A 
ATOM     90  C   UNL     1     -17.072   4.158  12.033  1.00  0.00     0.059 A 
ATOM     91  F   UNL     1     -17.296   2.167  10.809  1.00  0.00    -0.206 F 
ATOM     92  C   UNL     1     -16.887   4.795  13.260  1.00  0.00     0.060 A 
BRANCH  92  93
ATOM     93  S   UNL     1     -16.779   6.596  13.348  1.00  0.00     0.124 S 
ATOM     94  O   UNL     1     -18.060   6.938  13.955  1.00  0.00    -0.237 OA
ATOM     95  O   UNL     1     -15.601   6.792  14.187  1.00  0.00    -0.237 OA
ATOM     96  O   UNL     1     -16.616   6.989  11.951  1.00  0.00    -0.744 OA
ENDBRANCH  92  93
ENDBRANCH  60  85
BRANCH  72  97
ATOM     97  C   UNL     1     -21.553  -2.825  15.256  1.00  0.00     0.058 A 
ATOM     98  C   UNL     1     -22.707  -2.507  14.524  1.00  0.00     0.135 A 
ATOM     99  C   UNL     1     -21.698  -3.136  16.617  1.00  0.00     0.135 A 
ATOM    100  F   UNL     1     -22.617  -2.196  13.222  1.00  0.00    -0.206 F 
ATOM    101  C   UNL     1     -23.962  -2.497  15.122  1.00  0.00     0.059 A 
ATOM    102  C   UNL     1     -22.946  -3.149  17.231  1.00  0.00     0.059 A 
ATOM    103  F   UNL     1     -20.623  -3.454  17.356  1.00  0.00    -0.206 F 
ATOM    104  C   UNL     1     -24.072  -2.824  16.475  1.00  0.00     0.060 A 
BRANCH 104 105
ATOM    105  S   UNL     1     -25.714  -2.864  17.225  1.00  0.00     0.124 S 
ATOM    106  O   UNL     1     -26.001  -1.442  17.381  1.00  0.00    -0.237 OA
ATOM    107  O   UNL     1     -26.503  -3.563  16.215  1.00  0.00    -0.237 OA
ATOM    108  O   UNL     1     -25.501  -3.603  18.466  1.00  0.00    -0.744 OA
ENDBRANCH 104 105
ENDBRANCH  72  97
ENDBRANCH  46  47
ENDBRANCH  38  41
ENDBRANCH  36  37
ENDBRANCH   1  36
TORSDOF 16
