REMARK SMILES CCSc1nc(CC(=O)N[C@@H](C(=O)NCCCCNC(=O)c2ccc(-c3c4nc(c(-c5c(F)cc(S(=O)(=O)[O-])cc5F)c5ccc([nH]5)c(-c5c(F)cc(S(=O)(=O)[O-])cc5F)c5nc(c(-c6c(F)cc(S(=O)(=O)[O-])cc6F)c6ccc3[nH]6)C=C5)C=C4)cc2)C2=C(C)N=N[C@@H]2C)cs1
REMARK SMILES IDX 15 1 14 2 12 3 13 4 11 6 10 7 8 8 9 9 7 11 6 12 4 13 5 14
REMARK SMILES IDX 96 15 95 16 3 17 2 18 1 19 88 20 89 21 93 22 90 23 91 24
REMARK SMILES IDX 92 25 94 26 16 27 17 28 18 29 19 30 20 31 21 33 22 34 23 35
REMARK SMILES IDX 87 36 24 37 86 38 25 39 26 40 27 41 80 42 28 43 85 44 79 45
REMARK SMILES IDX 81 46 29 47 84 48 78 49 77 50 30 52 64 53 43 54 63 55 44 56
REMARK SMILES IDX 47 57 62 58 82 59 45 60 46 61 61 63 83 64 48 65 31 66 32 67
REMARK SMILES IDX 41 68 33 69 34 70 40 71 42 72 35 73 36 74 37 75 38 76 39 77
REMARK SMILES IDX 65 78 66 79 75 80 67 81 68 82 74 83 76 84 69 85 70 86 71 87
REMARK SMILES IDX 72 88 73 89 49 90 50 91 59 92 51 93 52 94 58 95 60 96 53 97
REMARK SMILES IDX 54 98 55 99 56 100 57 101
REMARK H PARENT 14 5 10 10 19 32 81 51 47 62
REMARK Flexibility Score: inf
ROOT
ATOM      1  C   UNL     1       5.170  -0.580  -4.617  1.00  0.00     0.116 C 
ENDROOT
BRANCH   1   2
ATOM      2  N   UNL     1       4.556  -1.203  -5.763  1.00  0.00    -0.354 N 
ATOM      3  C   UNL     1       4.059  -2.477  -5.851  1.00  0.00     0.247 C 
ATOM      4  O   UNL     1       3.033  -2.595  -6.531  1.00  0.00    -0.272 OA
ATOM      5  H   UNL     1       4.485  -0.650  -6.575  1.00  0.00     0.163 HD
BRANCH   3   6
ATOM      6  C   UNL     1       4.702  -3.720  -5.102  1.00  0.00     0.202 C 
BRANCH   6   7
ATOM      7  N   UNL     1       6.107  -3.531  -4.730  1.00  0.00    -0.340 N 
ATOM      8  C   UNL     1       6.691  -3.404  -3.501  1.00  0.00     0.226 C 
ATOM      9  O   UNL     1       7.880  -3.073  -3.468  1.00  0.00    -0.275 OA
ATOM     10  H   UNL     1       6.732  -3.489  -5.489  1.00  0.00     0.164 HD
BRANCH   8  11
ATOM     11  C   UNL     1       5.933  -3.659  -2.207  1.00  0.00     0.157 C 
BRANCH  11  12
ATOM     12  C   UNL     1       5.045  -2.536  -1.792  1.00  0.00     0.062 A 
ATOM     13  C   UNL     1       3.032  -1.588  -1.659  1.00  0.00     0.150 A 
ATOM     14  N   UNL     1       3.694  -2.645  -2.078  1.00  0.00    -0.234 NA
ATOM     15  S   UNL     1       4.001  -0.392  -0.908  1.00  0.00    -0.116 S 
ATOM     16  C   UNL     1       5.393  -1.370  -1.137  1.00  0.00     0.092 A 
BRANCH  13  17
ATOM     17  S   UNL     1       1.309  -1.535  -1.960  1.00  0.00    -0.096 SA
BRANCH  17  18
ATOM     18  C   UNL     1       0.730   0.027  -1.257  1.00  0.00     0.074 C 
ATOM     19  C   UNL     1       0.568  -0.050   0.251  1.00  0.00     0.016 C 
ENDBRANCH  17  18
ENDBRANCH  13  17
ENDBRANCH  11  12
ENDBRANCH   8  11
ENDBRANCH   6   7
BRANCH   6  20
ATOM     20  C   UNL     1       4.646  -4.976  -5.945  1.00  0.00     0.011 C 
ATOM     21  C   UNL     1       4.835  -6.262  -5.611  1.00  0.00     0.064 C 
ATOM     22  C   UNL     1       4.249  -5.032  -7.393  1.00  0.00     0.156 C 
ATOM     23  C   UNL     1       5.206  -6.870  -4.307  1.00  0.00     0.069 C 
ATOM     24  N   UNL     1       4.633  -7.125  -6.659  1.00  0.00    -0.160 NA
ATOM     25  N   UNL     1       4.294  -6.492  -7.690  1.00  0.00    -0.181 NA
ATOM     26  C   UNL     1       5.200  -4.338  -8.358  1.00  0.00     0.040 C 
ENDBRANCH   6  20
ENDBRANCH   3   6
ENDBRANCH   1   2
BRANCH   1  27
ATOM     27  C   UNL     1       6.323   0.359  -4.937  1.00  0.00     0.023 C 
BRANCH  27  28
ATOM     28  C   UNL     1       5.910   1.765  -5.369  1.00  0.00     0.023 C 
BRANCH  28  29
ATOM     29  C   UNL     1       4.972   2.512  -4.421  1.00  0.00     0.116 C 
BRANCH  29  30
ATOM     30  N   UNL     1       5.452   2.603  -3.048  1.00  0.00    -0.352 N 
ATOM     31  C   UNL     1       5.421   3.685  -2.194  1.00  0.00     0.251 C 
ATOM     32  H   UNL     1       5.853   1.782  -2.681  1.00  0.00     0.163 HD
ATOM     33  O   UNL     1       5.909   3.611  -1.074  1.00  0.00    -0.269 OA
BRANCH  31  34
ATOM     34  C   UNL     1       4.831   4.953  -2.673  1.00  0.00     0.039 A 
ATOM     35  C   UNL     1       5.621   6.105  -2.677  1.00  0.00     0.014 A 
ATOM     36  C   UNL     1       3.543   4.971  -3.216  1.00  0.00     0.014 A 
ATOM     37  C   UNL     1       5.164   7.248  -3.336  1.00  0.00     0.010 A 
ATOM     38  C   UNL     1       3.116   6.091  -3.922  1.00  0.00     0.010 A 
ATOM     39  C   UNL     1       3.937   7.226  -4.020  1.00  0.00    -0.014 A 
BRANCH  39  40
ATOM     40  C   UNL     1       3.532   8.335  -4.921  1.00  0.00     0.031 A 
ATOM     41  C   UNL     1       2.305   9.148  -4.625  1.00  0.00     0.074 A 
ATOM     42  C   UNL     1       4.213   8.533  -6.068  1.00  0.00     0.049 A 
ATOM     43  N   UNL     1       1.727  10.063  -5.358  1.00  0.00    -0.248 NA
ATOM     44  C   UNL     1       1.625   8.878  -3.348  1.00  0.00     0.031 C 
ATOM     45  C   UNL     1       5.393   7.775  -6.494  1.00  0.00     0.029 A 
ATOM     46  N   UNL     1       3.999   9.415  -7.099  1.00  0.00    -0.354 N 
ATOM     47  C   UNL     1       0.608  10.470  -4.643  1.00  0.00     0.074 A 
ATOM     48  C   UNL     1       0.568   9.674  -3.434  1.00  0.00     0.031 C 
ATOM     49  C   UNL     1       5.802   8.230  -7.689  1.00  0.00     0.029 A 
ATOM     50  C   UNL     1       4.894   9.281  -8.135  1.00  0.00     0.049 A 
ATOM     51  H   UNL     1       3.273  10.080  -7.096  1.00  0.00     0.167 HD
ATOM     52  C   UNL     1      -0.292  11.431  -4.957  1.00  0.00     0.037 A 
ATOM     53  C   UNL     1       4.964   9.917  -9.320  1.00  0.00     0.037 A 
ATOM     54  C   UNL     1      -0.234  12.237  -6.149  1.00  0.00     0.049 A 
ATOM     55  C   UNL     1       3.939  10.962  -9.658  1.00  0.00     0.074 A 
ATOM     56  C   UNL     1      -1.051  13.293  -6.513  1.00  0.00     0.029 A 
ATOM     57  N   UNL     1       0.685  12.071  -7.173  1.00  0.00    -0.354 N 
ATOM     58  N   UNL     1       2.928  11.383  -8.937  1.00  0.00    -0.248 NA
ATOM     59  C   UNL     1       4.057  11.612 -10.971  1.00  0.00     0.031 C 
ATOM     60  C   UNL     1      -0.649  13.741  -7.777  1.00  0.00     0.029 A 
ATOM     61  C   UNL     1       0.438  12.984  -8.185  1.00  0.00     0.049 A 
ATOM     62  H   UNL     1       1.408  11.403  -7.181  1.00  0.00     0.167 HD
ATOM     63  C   UNL     1       2.292  12.351  -9.705  1.00  0.00     0.074 A 
ATOM     64  C   UNL     1       3.042  12.466 -10.940  1.00  0.00     0.031 C 
ATOM     65  C   UNL     1       1.186  13.078  -9.414  1.00  0.00     0.037 A 
BRANCH  52  66
ATOM     66  C   UNL     1      -1.417  11.667  -3.991  1.00  0.00     0.058 A 
ATOM     67  C   UNL     1      -1.202  12.303  -2.758  1.00  0.00     0.135 A 
ATOM     68  C   UNL     1      -2.727  11.274  -4.308  1.00  0.00     0.135 A 
ATOM     69  F   UNL     1       0.034  12.685  -2.401  1.00  0.00    -0.206 F 
ATOM     70  C   UNL     1      -2.242  12.514  -1.859  1.00  0.00     0.059 A 
ATOM     71  C   UNL     1      -3.787  11.495  -3.433  1.00  0.00     0.059 A 
ATOM     72  F   UNL     1      -2.985  10.661  -5.474  1.00  0.00    -0.206 F 
ATOM     73  C   UNL     1      -3.530  12.101  -2.203  1.00  0.00     0.060 A 
BRANCH  73  74
ATOM     74  S   UNL     1      -4.868  12.368  -1.021  1.00  0.00     0.124 S 
ATOM     75  O   UNL     1      -4.609  11.311  -0.049  1.00  0.00    -0.237 OA
ATOM     76  O   UNL     1      -4.612  13.729  -0.559  1.00  0.00    -0.237 OA
ATOM     77  O   UNL     1      -6.072  12.199  -1.828  1.00  0.00    -0.744 OA
ENDBRANCH  73  74
ENDBRANCH  52  66
BRANCH  53  78
ATOM     78  C   UNL     1       6.049   9.578 -10.277  1.00  0.00     0.058 A 
ATOM     79  C   UNL     1       7.123  10.455 -10.483  1.00  0.00     0.135 A 
ATOM     80  C   UNL     1       6.050   8.362 -10.978  1.00  0.00     0.135 A 
ATOM     81  F   UNL     1       7.160  11.632  -9.840  1.00  0.00    -0.206 F 
ATOM     82  C   UNL     1       8.161  10.143 -11.355  1.00  0.00     0.059 A 
ATOM     83  C   UNL     1       7.086   8.019 -11.842  1.00  0.00     0.059 A 
ATOM     84  F   UNL     1       5.051   7.483 -10.803  1.00  0.00    -0.206 F 
ATOM     85  C   UNL     1       8.135   8.920 -12.027  1.00  0.00     0.060 A 
BRANCH  85  86
ATOM     86  S   UNL     1       9.520   8.491 -13.105  1.00  0.00     0.124 S 
ATOM     87  O   UNL     1       9.239   9.306 -14.281  1.00  0.00    -0.237 OA
ATOM     88  O   UNL     1      10.671   8.900 -12.305  1.00  0.00    -0.237 OA
ATOM     89  O   UNL     1       9.371   7.050 -13.281  1.00  0.00    -0.744 OA
ENDBRANCH  85  86
ENDBRANCH  53  78
BRANCH  65  90
ATOM     90  C   UNL     1       0.712  14.059 -10.447  1.00  0.00     0.058 A 
ATOM     91  C   UNL     1       0.020  13.633 -11.590  1.00  0.00     0.135 A 
ATOM     92  C   UNL     1       0.892  15.438 -10.261  1.00  0.00     0.135 A 
ATOM     93  F   UNL     1      -0.167  12.323 -11.818  1.00  0.00    -0.206 F 
ATOM     94  C   UNL     1      -0.474  14.542 -12.519  1.00  0.00     0.059 A 
ATOM     95  C   UNL     1       0.389  16.367 -11.167  1.00  0.00     0.059 A 
ATOM     96  F   UNL     1       1.543  15.896  -9.180  1.00  0.00    -0.206 F 
ATOM     97  C   UNL     1      -0.289  15.908 -12.296  1.00  0.00     0.060 A 
BRANCH  97  98
ATOM     98  S   UNL     1      -0.985  17.081 -13.479  1.00  0.00     0.124 S 
ATOM     99  O   UNL     1      -0.043  16.974 -14.588  1.00  0.00    -0.237 OA
ATOM    100  O   UNL     1      -2.315  16.531 -13.722  1.00  0.00    -0.237 OA
ATOM    101  O   UNL     1      -0.961  18.348 -12.754  1.00  0.00    -0.744 OA
ENDBRANCH  97  98
ENDBRANCH  65  90
ENDBRANCH  39  40
ENDBRANCH  31  34
ENDBRANCH  29  30
ENDBRANCH  28  29
ENDBRANCH  27  28
ENDBRANCH   1  27
TORSDOF 20
