REMARK SMILES Cc1ccc(Nc2c(Cl)cc(Cl)cc2Cl)c(CC(=O)NCCCCNC(=O)c2ccc(-c3c4nc(c(-c5c(F)cc(S(=O)(=O)[O-])cc5F)c5ccc([nH]5)c(-c5c(F)cc(S(=O)(=O)[O-])cc5F)c5nc(c(-c6c(F)cc(S(=O)(=O)[O-])cc6F)c6ccc3[nH]6)C=C5)C=C4)cc2)c1
REMARK SMILES IDX 22 1 21 2 20 3 18 4 19 5 17 7 16 8 1 9 2 10 3 11 94 12 4 13
REMARK SMILES IDX 5 14 6 15 7 17 8 18 14 19 9 20 10 21 13 22 15 23 11 24 12 25
REMARK SMILES IDX 23 26 24 27 25 28 26 29 27 31 28 32 29 33 93 34 30 35 92 36
REMARK SMILES IDX 31 37 32 38 33 39 86 40 34 41 91 42 85 43 87 44 35 45 90 46
REMARK SMILES IDX 84 47 83 48 36 50 70 51 49 52 69 53 50 54 53 55 68 56 88 57
REMARK SMILES IDX 51 58 52 59 67 61 89 62 54 63 37 64 38 65 47 66 39 67 40 68
REMARK SMILES IDX 46 69 48 70 41 71 42 72 43 73 44 74 45 75 71 76 72 77 81 78
REMARK SMILES IDX 73 79 74 80 80 81 82 82 75 83 76 84 77 85 78 86 79 87 55 88
REMARK SMILES IDX 56 89 65 90 57 91 58 92 64 93 66 94 59 95 60 96 61 97 62 98
REMARK SMILES IDX 63 99
REMARK H PARENT 20 6 6 16 25 30 87 49 53 60
REMARK Flexibility Score: inf
ROOT
ATOM      1  C   UNL     1      -0.125   1.180  -3.231  1.00  0.00     0.023 C 
ENDROOT
BRANCH   1   2
ATOM      2  C   UNL     1      -0.572   2.583  -2.791  1.00  0.00     0.116 C 
BRANCH   2   3
ATOM      3  N   UNL     1      -1.980   2.653  -2.428  1.00  0.00    -0.356 N 
ATOM      4  C   UNL     1      -2.572   2.540  -1.206  1.00  0.00     0.224 C 
ATOM      5  O   UNL     1      -3.805   2.511  -1.142  1.00  0.00    -0.275 OA
ATOM      6  H   UNL     1      -2.598   2.806  -3.179  1.00  0.00     0.163 HD
BRANCH   4   7
ATOM      7  C   UNL     1      -1.745   2.406   0.059  1.00  0.00     0.137 C 
BRANCH   7   8
ATOM      8  C   UNL     1      -1.050   1.068   0.176  1.00  0.00    -0.015 A 
ATOM      9  C   UNL     1       2.600  -0.066   0.213  1.00  0.00     0.044 C 
ATOM     10  C   UNL     1       1.101  -0.099   0.232  1.00  0.00    -0.051 A 
ATOM     11  C   UNL     1       0.423  -1.312   0.139  1.00  0.00     0.005 A 
ATOM     12  C   UNL     1       0.358   1.081   0.280  1.00  0.00     0.009 A 
ATOM     13  C   UNL     1      -0.975  -1.340   0.092  1.00  0.00     0.026 A 
ATOM     14  C   UNL     1      -1.741  -0.163   0.103  1.00  0.00     0.042 A 
BRANCH  14  15
ATOM     15  N   UNL     1      -3.155  -0.209   0.076  1.00  0.00    -0.353 N 
ATOM     16  H   UNL     1      -3.605   0.665   0.030  1.00  0.00     0.167 HD
BRANCH  15  17
ATOM     17  C   UNL     1      -4.016  -1.335   0.106  1.00  0.00     0.076 A 
ATOM     18  C   UNL     1      -4.031  -2.262   1.168  1.00  0.00     0.067 A 
ATOM     19  C   UNL     1      -4.843  -1.607  -1.005  1.00  0.00     0.067 A 
ATOM     20  Cl  UNL     1      -3.159  -1.994   2.641  1.00  0.00    -0.082 Cl
ATOM     21  C   UNL     1      -4.813  -3.421   1.105  1.00  0.00     0.043 A 
ATOM     22  C   UNL     1      -5.631  -2.760  -1.067  1.00  0.00     0.043 A 
ATOM     23  Cl  UNL     1      -4.899  -0.534  -2.363  1.00  0.00    -0.082 Cl
ATOM     24  C   UNL     1      -5.601  -3.666  -0.015  1.00  0.00     0.044 A 
ATOM     25  Cl  UNL     1      -6.550  -5.099  -0.093  1.00  0.00    -0.084 Cl
ENDBRANCH  15  17
ENDBRANCH  14  15
ENDBRANCH   7   8
ENDBRANCH   4   7
ENDBRANCH   2   3
ENDBRANCH   1   2
BRANCH   1  26
ATOM     26  C   UNL     1      -0.898   0.574  -4.403  1.00  0.00     0.023 C 
BRANCH  26  27
ATOM     27  C   UNL     1      -0.686   1.321  -5.712  1.00  0.00     0.116 C 
BRANCH  27  28
ATOM     28  N   UNL     1       0.041   0.564  -6.718  1.00  0.00    -0.352 N 
ATOM     29  C   UNL     1       0.309   0.942  -8.027  1.00  0.00     0.251 C 
ATOM     30  H   UNL     1       0.382  -0.317  -6.440  1.00  0.00     0.163 HD
ATOM     31  O   UNL     1       0.735   0.164  -8.854  1.00  0.00    -0.269 OA
BRANCH  29  32
ATOM     32  C   UNL     1       0.162   2.382  -8.342  1.00  0.00     0.039 A 
ATOM     33  C   UNL     1       1.340   3.102  -8.571  1.00  0.00     0.014 A 
ATOM     34  C   UNL     1      -1.048   3.033  -8.120  1.00  0.00     0.014 A 
ATOM     35  C   UNL     1       1.345   4.481  -8.382  1.00  0.00     0.010 A 
ATOM     36  C   UNL     1      -1.025   4.390  -7.858  1.00  0.00     0.010 A 
ATOM     37  C   UNL     1       0.183   5.103  -7.929  1.00  0.00    -0.014 A 
BRANCH  37  38
ATOM     38  C   UNL     1       0.146   6.464  -7.404  1.00  0.00     0.031 A 
ATOM     39  C   UNL     1      -0.535   7.536  -8.162  1.00  0.00     0.074 A 
ATOM     40  C   UNL     1       0.621   6.718  -6.163  1.00  0.00     0.049 A 
ATOM     41  N   UNL     1      -0.528   8.779  -7.817  1.00  0.00    -0.248 NA
ATOM     42  C   UNL     1      -1.230   7.299  -9.428  1.00  0.00     0.031 C 
ATOM     43  C   UNL     1       0.319   7.868  -5.315  1.00  0.00     0.029 A 
ATOM     44  N   UNL     1       1.694   6.090  -5.523  1.00  0.00    -0.354 N 
ATOM     45  C   UNL     1      -1.442   9.430  -8.604  1.00  0.00     0.074 A 
ATOM     46  C   UNL     1      -1.745   8.509  -9.669  1.00  0.00     0.031 C 
ATOM     47  C   UNL     1       1.314   8.031  -4.431  1.00  0.00     0.029 A 
ATOM     48  C   UNL     1       2.363   7.095  -4.786  1.00  0.00     0.049 A 
ATOM     49  H   UNL     1       1.936   5.137  -5.575  1.00  0.00     0.167 HD
ATOM     50  C   UNL     1      -1.937  10.625  -8.181  1.00  0.00     0.037 A 
ATOM     51  C   UNL     1       3.642   7.452  -5.111  1.00  0.00     0.037 A 
ATOM     52  C   UNL     1      -1.061  11.234  -7.178  1.00  0.00     0.049 A 
ATOM     53  C   UNL     1       3.799   8.871  -5.626  1.00  0.00     0.074 A 
ATOM     54  C   UNL     1      -1.117  11.494  -5.821  1.00  0.00     0.029 A 
ATOM     55  N   UNL     1       0.250  11.485  -7.554  1.00  0.00    -0.354 N 
ATOM     56  N   UNL     1       2.833   9.746  -5.709  1.00  0.00    -0.248 NA
ATOM     57  C   UNL     1       5.061   9.390  -6.159  1.00  0.00     0.031 C 
ATOM     58  C   UNL     1       0.211  11.802  -5.378  1.00  0.00     0.029 A 
ATOM     59  C   UNL     1       1.057  11.770  -6.473  1.00  0.00     0.049 A 
ATOM     60  H   UNL     1       0.568  11.464  -8.486  1.00  0.00     0.167 HD
ATOM     61  C   UNL     1       3.288  10.866  -6.353  1.00  0.00     0.074 A 
ATOM     62  C   UNL     1       4.698  10.610  -6.589  1.00  0.00     0.031 C 
ATOM     63  C   UNL     1       2.486  11.912  -6.707  1.00  0.00     0.037 A 
BRANCH  50  64
ATOM     64  C   UNL     1      -3.277  11.183  -8.607  1.00  0.00     0.058 A 
ATOM     65  C   UNL     1      -3.657  12.494  -8.252  1.00  0.00     0.135 A 
ATOM     66  C   UNL     1      -4.291  10.427  -9.242  1.00  0.00     0.135 A 
ATOM     67  F   UNL     1      -2.806  13.308  -7.609  1.00  0.00    -0.206 F 
ATOM     68  C   UNL     1      -4.935  13.009  -8.506  1.00  0.00     0.059 A 
ATOM     69  C   UNL     1      -5.550  10.937  -9.556  1.00  0.00     0.059 A 
ATOM     70  F   UNL     1      -4.146   9.126  -9.521  1.00  0.00    -0.206 F 
ATOM     71  C   UNL     1      -5.877  12.221  -9.159  1.00  0.00     0.060 A 
BRANCH  71  72
ATOM     72  S   UNL     1      -7.540  12.852  -9.448  1.00  0.00     0.124 S 
ATOM     73  O   UNL     1      -8.123  12.777  -8.112  1.00  0.00    -0.237 OA
ATOM     74  O   UNL     1      -7.286  14.195  -9.959  1.00  0.00    -0.237 OA
ATOM     75  O   UNL     1      -8.093  11.914 -10.423  1.00  0.00    -0.744 OA
ENDBRANCH  71  72
ENDBRANCH  50  64
BRANCH  51  76
ATOM     76  C   UNL     1       4.467   6.276  -5.506  1.00  0.00     0.058 A 
ATOM     77  C   UNL     1       4.708   5.299  -4.518  1.00  0.00     0.135 A 
ATOM     78  C   UNL     1       4.598   5.891  -6.847  1.00  0.00     0.135 A 
ATOM     79  F   UNL     1       4.614   5.621  -3.217  1.00  0.00    -0.206 F 
ATOM     80  C   UNL     1       4.880   3.961  -4.844  1.00  0.00     0.059 A 
ATOM     81  C   UNL     1       4.787   4.553  -7.197  1.00  0.00     0.059 A 
ATOM     82  F   UNL     1       4.386   6.779  -7.830  1.00  0.00    -0.206 F 
ATOM     83  C   UNL     1       4.843   3.591  -6.187  1.00  0.00     0.060 A 
BRANCH  83  84
ATOM     84  S   UNL     1       4.653   1.833  -6.565  1.00  0.00     0.124 S 
ATOM     85  O   UNL     1       5.830   1.256  -5.926  1.00  0.00    -0.237 OA
ATOM     86  O   UNL     1       3.374   1.536  -5.922  1.00  0.00    -0.237 OA
ATOM     87  O   UNL     1       4.648   1.806  -8.023  1.00  0.00    -0.744 OA
ENDBRANCH  83  84
ENDBRANCH  51  76
BRANCH  63  88
ATOM     88  C   UNL     1       3.029  13.149  -7.365  1.00  0.00     0.058 A 
ATOM     89  C   UNL     1       4.114  13.857  -6.821  1.00  0.00     0.135 A 
ATOM     90  C   UNL     1       2.410  13.723  -8.494  1.00  0.00     0.135 A 
ATOM     91  F   UNL     1       4.744  13.404  -5.725  1.00  0.00    -0.206 F 
ATOM     92  C   UNL     1       4.579  15.047  -7.380  1.00  0.00     0.059 A 
ATOM     93  C   UNL     1       2.828  14.933  -9.043  1.00  0.00     0.059 A 
ATOM     94  F   UNL     1       1.395  13.106  -9.118  1.00  0.00    -0.206 F 
ATOM     95  C   UNL     1       3.928  15.579  -8.491  1.00  0.00     0.060 A 
BRANCH  95  96
ATOM     96  S   UNL     1       4.501  17.136  -9.199  1.00  0.00     0.124 S 
ATOM     97  O   UNL     1       4.996  17.860  -8.031  1.00  0.00    -0.237 OA
ATOM     98  O   UNL     1       5.522  16.672 -10.132  1.00  0.00    -0.237 OA
ATOM     99  O   UNL     1       3.295  17.692  -9.805  1.00  0.00    -0.744 OA
ENDBRANCH  95  96
ENDBRANCH  63  88
ENDBRANCH  37  38
ENDBRANCH  29  32
ENDBRANCH  27  28
ENDBRANCH  26  27
ENDBRANCH   1  26
TORSDOF 17
