REMARK SMILES Cc1nc(Oc2ccc(F)cc2)c(C(=O)NCCCCNC(=O)c2ccc(-c3c4nc(c(-c5c(F)cc(S(=O)(=O)[O-])cc5F)c5ccc([nH]5)c(-c5c(F)cc(S(=O)(=O)[O-])cc5F)c5nc(c(-c6c(F)cc(S(=O)(=O)[O-])cc6F)c6ccc3[nH]6)C=C5)C=C4)cc2)c(C)c1Cl
REMARK SMILES IDX 19 1 18 2 17 3 16 4 14 5 15 6 13 8 1 9 2 10 3 11 92 12 4 13
REMARK SMILES IDX 90 14 93 15 91 16 5 17 6 18 7 19 12 20 8 21 11 22 9 23 10 24
REMARK SMILES IDX 20 25 21 26 22 27 23 29 24 30 25 31 89 32 26 33 88 34 27 35
REMARK SMILES IDX 28 36 29 37 82 38 30 39 87 40 81 41 83 42 31 43 86 44 80 45
REMARK SMILES IDX 79 46 32 48 66 49 45 50 65 51 46 52 49 53 64 54 84 55 47 56
REMARK SMILES IDX 48 57 63 59 85 60 50 61 33 62 34 63 43 64 35 65 36 66 42 67
REMARK SMILES IDX 44 68 37 69 38 70 39 71 40 72 41 73 67 74 68 75 77 76 69 77
REMARK SMILES IDX 70 78 76 79 78 80 71 81 72 82 73 83 74 84 75 85 51 86 52 87
REMARK SMILES IDX 61 88 53 89 54 90 60 91 62 92 55 93 56 94 57 95 58 96 59 97
REMARK H PARENT 16 7 21 28 83 47 49 58
REMARK Flexibility Score: inf
ROOT
ATOM      1  C   UNL     1      -1.133   8.173   3.398  1.00  0.00     0.023 C 
ENDROOT
BRANCH   1   2
ATOM      2  C   UNL     1      -0.768   6.790   2.891  1.00  0.00     0.023 C 
BRANCH   2   3
ATOM      3  C   UNL     1       0.117   5.999   3.857  1.00  0.00     0.116 C 
BRANCH   3   4
ATOM      4  N   UNL     1      -0.202   4.598   3.726  1.00  0.00    -0.352 N 
ATOM      5  C   UNL     1       0.747   3.614   3.790  1.00  0.00     0.257 C 
ATOM      6  O   UNL     1       1.829   3.696   4.351  1.00  0.00    -0.269 OA
ATOM      7  H   UNL     1      -1.142   4.340   3.585  1.00  0.00     0.163 HD
BRANCH   5   8
ATOM      8  C   UNL     1       0.488   2.513   2.852  1.00  0.00     0.106 A 
ATOM      9  C   UNL     1       0.268  -0.766   0.184  1.00  0.00     0.068 C 
ATOM     10  C   UNL     1       0.296   0.456   1.056  1.00  0.00     0.060 A 
ATOM     11  N   UNL     1      -0.213   0.296   2.306  1.00  0.00    -0.216 NA
ATOM     12  C   UNL     1       0.864   1.653   0.617  1.00  0.00     0.066 A 
ATOM     13  C   UNL     1      -0.126   1.314   3.201  1.00  0.00     0.232 A 
ATOM     14  C   UNL     1       0.980   2.709   1.528  1.00  0.00    -0.012 A 
ATOM     15  Cl  UNL     1       1.429   1.798  -1.014  1.00  0.00    -0.082 Cl
ATOM     16  C   UNL     1       1.584   4.038   1.128  1.00  0.00     0.047 C 
BRANCH  13  17
ATOM     17  O   UNL     1      -0.620   0.922   4.418  1.00  0.00    -0.438 OA
BRANCH  17  18
ATOM     18  C   UNL     1      -1.044   1.831   5.346  1.00  0.00     0.129 A 
ATOM     19  C   UNL     1      -0.324   1.895   6.541  1.00  0.00     0.050 A 
ATOM     20  C   UNL     1      -2.228   2.559   5.191  1.00  0.00     0.050 A 
ATOM     21  C   UNL     1      -0.745   2.744   7.562  1.00  0.00     0.043 A 
ATOM     22  C   UNL     1      -2.640   3.420   6.213  1.00  0.00     0.043 A 
ATOM     23  C   UNL     1      -1.892   3.507   7.384  1.00  0.00     0.123 A 
ATOM     24  F   UNL     1      -2.294   4.326   8.365  1.00  0.00    -0.207 F 
ENDBRANCH  17  18
ENDBRANCH  13  17
ENDBRANCH   5   8
ENDBRANCH   3   4
ENDBRANCH   2   3
ENDBRANCH   1   2
BRANCH   1  25
ATOM     25  C   UNL     1       0.052   9.034   3.785  1.00  0.00     0.116 C 
BRANCH  25  26
ATOM     26  N   UNL     1       0.925   9.371   2.670  1.00  0.00    -0.352 N 
ATOM     27  C   UNL     1       1.628  10.551   2.520  1.00  0.00     0.251 C 
ATOM     28  H   UNL     1       1.024   8.698   1.959  1.00  0.00     0.163 HD
ATOM     29  O   UNL     1       2.332  10.770   1.551  1.00  0.00    -0.269 OA
BRANCH  27  30
ATOM     30  C   UNL     1       1.433  11.561   3.579  1.00  0.00     0.039 A 
ATOM     31  C   UNL     1       0.627  12.665   3.297  1.00  0.00     0.014 A 
ATOM     32  C   UNL     1       1.817  11.252   4.888  1.00  0.00     0.014 A 
ATOM     33  C   UNL     1       0.135  13.427   4.355  1.00  0.00     0.010 A 
ATOM     34  C   UNL     1       1.268  11.975   5.941  1.00  0.00     0.010 A 
ATOM     35  C   UNL     1       0.416  13.061   5.683  1.00  0.00    -0.014 A 
BRANCH  35  36
ATOM     36  C   UNL     1      -0.180  13.820   6.807  1.00  0.00     0.031 A 
ATOM     37  C   UNL     1       0.705  14.665   7.675  1.00  0.00     0.074 A 
ATOM     38  C   UNL     1      -1.504  13.741   7.050  1.00  0.00     0.049 A 
ATOM     39  N   UNL     1       0.373  15.459   8.658  1.00  0.00    -0.248 NA
ATOM     40  C   UNL     1       2.153  14.596   7.417  1.00  0.00     0.031 C 
ATOM     41  C   UNL     1      -2.453  12.905   6.310  1.00  0.00     0.029 A 
ATOM     42  N   UNL     1      -2.284  14.380   7.981  1.00  0.00    -0.354 N 
ATOM     43  C   UNL     1       1.566  15.997   9.120  1.00  0.00     0.074 A 
ATOM     44  C   UNL     1       2.635  15.382   8.367  1.00  0.00     0.031 C 
ATOM     45  C   UNL     1      -3.691  13.113   6.791  1.00  0.00     0.029 A 
ATOM     46  C   UNL     1      -3.624  14.086   7.878  1.00  0.00     0.049 A 
ATOM     47  H   UNL     1      -1.918  14.992   8.660  1.00  0.00     0.167 HD
ATOM     48  C   UNL     1       1.751  16.953  10.059  1.00  0.00     0.037 A 
ATOM     49  C   UNL     1      -4.678  14.566   8.568  1.00  0.00     0.037 A 
ATOM     50  C   UNL     1       0.685  17.573  10.793  1.00  0.00     0.049 A 
ATOM     51  C   UNL     1      -4.447  15.617   9.621  1.00  0.00     0.074 A 
ATOM     52  C   UNL     1       0.764  18.581  11.736  1.00  0.00     0.029 A 
ATOM     53  N   UNL     1      -0.656  17.244  10.663  1.00  0.00    -0.354 N 
ATOM     54  N   UNL     1      -3.319  16.176   9.989  1.00  0.00    -0.248 NA
ATOM     55  C   UNL     1      -5.628  16.110  10.346  1.00  0.00     0.031 C 
ATOM     56  C   UNL     1      -0.529  18.842  12.200  1.00  0.00     0.029 A 
ATOM     57  C   UNL     1      -1.415  18.020  11.521  1.00  0.00     0.049 A 
ATOM     58  H   UNL     1      -1.014  16.561  10.052  1.00  0.00     0.167 HD
ATOM     59  C   UNL     1      -3.657  17.107  10.965  1.00  0.00     0.074 A 
ATOM     60  C   UNL     1      -5.093  17.036  11.133  1.00  0.00     0.031 C 
ATOM     61  C   UNL     1      -2.848  17.947  11.655  1.00  0.00     0.037 A 
BRANCH  48  62
ATOM     62  C   UNL     1       3.159  17.403  10.311  1.00  0.00     0.058 A 
ATOM     63  C   UNL     1       3.844  18.195   9.374  1.00  0.00     0.135 A 
ATOM     64  C   UNL     1       3.825  17.062  11.497  1.00  0.00     0.135 A 
ATOM     65  F   UNL     1       3.256  18.530   8.214  1.00  0.00    -0.206 F 
ATOM     66  C   UNL     1       5.150  18.613   9.594  1.00  0.00     0.059 A 
ATOM     67  C   UNL     1       5.126  17.489  11.749  1.00  0.00     0.059 A 
ATOM     68  F   UNL     1       3.216  16.302  12.421  1.00  0.00    -0.206 F 
ATOM     69  C   UNL     1       5.784  18.253  10.784  1.00  0.00     0.060 A 
BRANCH  69  70
ATOM     70  S   UNL     1       7.480  18.806  11.054  1.00  0.00     0.124 S 
ATOM     71  O   UNL     1       8.217  17.940  10.138  1.00  0.00    -0.237 OA
ATOM     72  O   UNL     1       7.413  20.215  10.677  1.00  0.00    -0.237 OA
ATOM     73  O   UNL     1       7.700  18.550  12.474  1.00  0.00    -0.744 OA
ENDBRANCH  69  70
ENDBRANCH  48  62
BRANCH  49  74
ATOM     74  C   UNL     1      -6.053  14.107   8.238  1.00  0.00     0.058 A 
ATOM     75  C   UNL     1      -6.943  14.946   7.550  1.00  0.00     0.135 A 
ATOM     76  C   UNL     1      -6.500  12.822   8.581  1.00  0.00     0.135 A 
ATOM     77  F   UNL     1      -6.564  16.186   7.205  1.00  0.00    -0.206 F 
ATOM     78  C   UNL     1      -8.229  14.531   7.219  1.00  0.00     0.059 A 
ATOM     79  C   UNL     1      -7.776  12.378   8.247  1.00  0.00     0.059 A 
ATOM     80  F   UNL     1      -5.682  11.977   9.228  1.00  0.00    -0.206 F 
ATOM     81  C   UNL     1      -8.636  13.243   7.569  1.00  0.00     0.060 A 
BRANCH  81  82
ATOM     82  S   UNL     1     -10.287  12.695   7.082  1.00  0.00     0.124 S 
ATOM     83  O   UNL     1     -11.131  13.453   7.998  1.00  0.00    -0.237 OA
ATOM     84  O   UNL     1     -10.342  13.098   5.681  1.00  0.00    -0.237 OA
ATOM     85  O   UNL     1     -10.243  11.254   7.310  1.00  0.00    -0.744 OA
ENDBRANCH  81  82
ENDBRANCH  49  74
BRANCH  61  86
ATOM     86  C   UNL     1      -3.479  18.882  12.644  1.00  0.00     0.058 A 
ATOM     87  C   UNL     1      -3.860  18.442  13.920  1.00  0.00     0.135 A 
ATOM     88  C   UNL     1      -3.563  20.256  12.365  1.00  0.00     0.135 A 
ATOM     89  F   UNL     1      -3.802  17.137  14.229  1.00  0.00    -0.206 F 
ATOM     90  C   UNL     1      -4.286  19.337  14.895  1.00  0.00     0.059 A 
ATOM     91  C   UNL     1      -3.970  21.170  13.330  1.00  0.00     0.059 A 
ATOM     92  F   UNL     1      -3.202  20.723  11.159  1.00  0.00    -0.206 F 
ATOM     93  C   UNL     1      -4.323  20.701  14.595  1.00  0.00     0.060 A 
BRANCH  93  94
ATOM     94  S   UNL     1      -4.772  21.860  15.905  1.00  0.00     0.124 S 
ATOM     95  O   UNL     1      -6.209  21.636  16.017  1.00  0.00    -0.237 OA
ATOM     96  O   UNL     1      -3.967  21.388  17.028  1.00  0.00    -0.237 OA
ATOM     97  O   UNL     1      -4.379  23.157  15.362  1.00  0.00    -0.744 OA
ENDBRANCH  93  94
ENDBRANCH  61  86
ENDBRANCH  35  36
ENDBRANCH  27  30
ENDBRANCH  25  26
ENDBRANCH   1  25
TORSDOF 16
