REMARK SMILES O=C(N/N=C/c1ccc(C(=O)NCCCCNC(=O)c2ccc(-c3c4nc(c(-c5c(F)cc(S(=O)(=O)[O-])cc5F)c5ccc([nH]5)c(-c5c(F)cc(S(=O)(=O)[O-])cc5F)c5nc(c(-c6c(F)cc(S(=O)(=O)[O-])cc6F)c6ccc3[nH]6)C=C5)C=C4)cc2)cc1)C(=O)Nc1cccc(Br)c1
REMARK SMILES IDX 14 1 13 2 12 3 10 4 11 5 9 7 6 8 7 9 87 10 8 11 86 12 5 13
REMARK SMILES IDX 4 14 3 15 1 16 2 17 88 19 89 20 90 21 91 23 92 24 97 25
REMARK SMILES IDX 93 26 95 27 94 28 96 29 15 30 16 31 17 32 18 33 19 35 20 36
REMARK SMILES IDX 21 37 85 38 22 39 84 40 23 41 24 42 25 43 78 44 26 45 83 46
REMARK SMILES IDX 77 47 79 48 27 49 82 50 76 51 75 52 28 54 62 55 41 56 61 57
REMARK SMILES IDX 42 58 45 59 60 60 80 61 43 62 44 63 59 65 81 66 46 67 29 68
REMARK SMILES IDX 30 69 39 70 31 71 32 72 38 73 40 74 33 75 34 76 35 77 36 78
REMARK SMILES IDX 37 79 63 80 64 81 73 82 65 83 66 84 72 85 74 86 67 87 68 88
REMARK SMILES IDX 69 89 70 90 71 91 47 92 48 93 57 94 49 95 50 96 56 97 58 98
REMARK SMILES IDX 51 99 52 100 53 101 54 102 55 103
REMARK H PARENT 12 6 3 18 90 22 17 34 79 53 45 64
REMARK Flexibility Score: inf
ROOT
ATOM      1  C   UNL     1      11.395   2.326   2.930  1.00  0.00     0.023 C 
ENDROOT
BRANCH   1   2
ATOM      2  C   UNL     1      11.334   2.309   1.403  1.00  0.00     0.116 C 
BRANCH   2   3
ATOM      3  N   UNL     1      11.826   1.040   0.903  1.00  0.00    -0.352 N 
ATOM      4  C   UNL     1      11.144  -0.114   0.610  1.00  0.00     0.251 C 
ATOM      5  O   UNL     1      11.760  -1.102   0.220  1.00  0.00    -0.269 OA
ATOM      6  H   UNL     1      12.798   1.000   0.751  1.00  0.00     0.163 HD
BRANCH   4   7
ATOM      7  C   UNL     1       9.663  -0.133   0.616  1.00  0.00     0.039 A 
ATOM      8  C   UNL     1       6.669   0.374   0.051  1.00  0.00    -0.005 A 
ATOM      9  C   UNL     1       7.651  -0.535  -0.666  1.00  0.00     0.010 A 
ATOM     10  C   UNL     1       7.459   0.630   1.312  1.00  0.00     0.010 A 
ATOM     11  C   UNL     1       9.031  -0.762  -0.424  1.00  0.00     0.014 A 
ATOM     12  C   UNL     1       8.848   0.437   1.561  1.00  0.00     0.014 A 
BRANCH   8  13
ATOM     13  C   UNL     1       4.763   1.087  -0.583  1.00  0.00     0.141 C 
ATOM     14  N   UNL     1       3.604   1.510   0.026  1.00  0.00    -0.180 NA
BRANCH  14  15
ATOM     15  N   UNL     1       2.465   1.182  -0.632  1.00  0.00    -0.239 N 
ATOM     16  O   UNL     1       0.524   0.101  -0.301  1.00  0.00    -0.262 OA
ATOM     17  C   UNL     1       1.758   0.028  -0.290  1.00  0.00     0.329 C 
ATOM     18  H   UNL     1       2.134   1.762  -1.355  1.00  0.00     0.194 HD
BRANCH  17  19
ATOM     19  C   UNL     1       2.392  -1.368  -0.003  1.00  0.00     0.315 C 
ATOM     20  O   UNL     1       1.621  -2.336   0.010  1.00  0.00    -0.263 OA
ATOM     21  N   UNL     1       3.738  -1.679   0.138  1.00  0.00    -0.318 N 
ATOM     22  H   UNL     1       3.950  -2.627   0.295  1.00  0.00     0.170 HD
BRANCH  21  23
ATOM     23  C   UNL     1       4.819  -0.809   0.084  1.00  0.00     0.042 A 
ATOM     24  C   UNL     1       5.450  -0.504  -1.597  1.00  0.00     0.026 A 
ATOM     25  C   UNL     1       4.945   0.465   1.378  1.00  0.00     0.041 A 
ATOM     26  C   UNL     1       6.272   1.102  -1.975  1.00  0.00     0.003 A 
ATOM     27  C   UNL     1       5.641   2.115   0.939  1.00  0.00     0.020 A 
ATOM     28  C   UNL     1       6.335   2.401  -0.709  1.00  0.00     0.016 A 
ATOM     29  Br  UNL     1       5.492   3.562   2.157  1.00  0.00    -0.051 Br
ENDBRANCH  21  23
ENDBRANCH  17  19
ENDBRANCH  14  15
ENDBRANCH   8  13
ENDBRANCH   4   7
ENDBRANCH   2   3
ENDBRANCH   1   2
BRANCH   1  30
ATOM     30  C   UNL     1      12.804   2.490   3.489  1.00  0.00     0.023 C 
BRANCH  30  31
ATOM     31  C   UNL     1      13.471   3.801   3.116  1.00  0.00     0.116 C 
BRANCH  31  32
ATOM     32  N   UNL     1      12.704   4.968   3.528  1.00  0.00    -0.352 N 
ATOM     33  C   UNL     1      13.191   6.173   3.976  1.00  0.00     0.251 C 
ATOM     34  H   UNL     1      11.724   4.885   3.480  1.00  0.00     0.163 HD
ATOM     35  O   UNL     1      12.438   7.035   4.410  1.00  0.00    -0.269 OA
BRANCH  33  36
ATOM     36  C   UNL     1      14.651   6.374   3.955  1.00  0.00     0.039 A 
ATOM     37  C   UNL     1      15.305   6.723   5.136  1.00  0.00     0.014 A 
ATOM     38  C   UNL     1      15.370   6.100   2.788  1.00  0.00     0.014 A 
ATOM     39  C   UNL     1      16.699   6.738   5.161  1.00  0.00     0.010 A 
ATOM     40  C   UNL     1      16.753   6.026   2.842  1.00  0.00     0.010 A 
ATOM     41  C   UNL     1      17.432   6.354   4.025  1.00  0.00    -0.014 A 
BRANCH  41  42
ATOM     42  C   UNL     1      18.913   6.312   4.042  1.00  0.00     0.031 A 
ATOM     43  C   UNL     1      19.691   7.223   3.133  1.00  0.00     0.074 A 
ATOM     44  C   UNL     1      19.550   5.420   4.825  1.00  0.00     0.049 A 
ATOM     45  N   UNL     1      20.983   7.304   2.953  1.00  0.00    -0.248 NA
ATOM     46  C   UNL     1      18.909   8.143   2.289  1.00  0.00     0.031 C 
ATOM     47  C   UNL     1      18.899   4.452   5.711  1.00  0.00     0.029 A 
ATOM     48  N   UNL     1      20.889   5.180   5.000  1.00  0.00    -0.354 N 
ATOM     49  C   UNL     1      21.166   8.271   1.972  1.00  0.00     0.074 A 
ATOM     50  C   UNL     1      19.852   8.696   1.544  1.00  0.00     0.031 C 
ATOM     51  C   UNL     1      19.841   3.748   6.360  1.00  0.00     0.029 A 
ATOM     52  C   UNL     1      21.158   4.186   5.911  1.00  0.00     0.049 A 
ATOM     53  H   UNL     1      21.592   5.674   4.519  1.00  0.00     0.167 HD
ATOM     54  C   UNL     1      22.325   8.784   1.495  1.00  0.00     0.037 A 
ATOM     55  C   UNL     1      22.336   3.687   6.335  1.00  0.00     0.037 A 
ATOM     56  C   UNL     1      23.627   8.369   1.944  1.00  0.00     0.049 A 
ATOM     57  C   UNL     1      23.612   4.263   5.782  1.00  0.00     0.074 A 
ATOM     58  C   UNL     1      24.864   8.855   1.563  1.00  0.00     0.029 A 
ATOM     59  N   UNL     1      23.859   7.366   2.875  1.00  0.00    -0.354 N 
ATOM     60  N   UNL     1      23.770   5.222   4.900  1.00  0.00    -0.248 NA
ATOM     61  C   UNL     1      24.869   3.696   6.287  1.00  0.00     0.031 C 
ATOM     62  C   UNL     1      25.847   8.115   2.230  1.00  0.00     0.029 A 
ATOM     63  C   UNL     1      25.221   7.204   3.066  1.00  0.00     0.049 A 
ATOM     64  H   UNL     1      23.159   6.846   3.332  1.00  0.00     0.167 HD
ATOM     65  C   UNL     1      25.143   5.393   4.765  1.00  0.00     0.074 A 
ATOM     66  C   UNL     1      25.770   4.445   5.665  1.00  0.00     0.031 C 
ATOM     67  C   UNL     1      25.825   6.258   3.973  1.00  0.00     0.037 A 
BRANCH  54  68
ATOM     68  C   UNL     1      22.224   9.851   0.439  1.00  0.00     0.058 A 
ATOM     69  C   UNL     1      21.708  11.127   0.727  1.00  0.00     0.135 A 
ATOM     70  C   UNL     1      22.645   9.599  -0.876  1.00  0.00     0.135 A 
ATOM     71  F   UNL     1      21.273  11.418   1.964  1.00  0.00    -0.206 F 
ATOM     72  C   UNL     1      21.572  12.097  -0.260  1.00  0.00     0.059 A 
ATOM     73  C   UNL     1      22.549  10.567  -1.872  1.00  0.00     0.059 A 
ATOM     74  F   UNL     1      23.145   8.399  -1.208  1.00  0.00    -0.206 F 
ATOM     75  C   UNL     1      21.991  11.806  -1.558  1.00  0.00     0.060 A 
BRANCH  75  76
ATOM     76  S   UNL     1      21.789  13.069  -2.832  1.00  0.00     0.124 S 
ATOM     77  O   UNL     1      20.345  13.038  -3.045  1.00  0.00    -0.237 OA
ATOM     78  O   UNL     1      22.306  14.263  -2.171  1.00  0.00    -0.237 OA
ATOM     79  O   UNL     1      22.598  12.568  -3.939  1.00  0.00    -0.744 OA
ENDBRANCH  75  76
ENDBRANCH  54  68
BRANCH  55  80
ATOM     80  C   UNL     1      22.361   2.614   7.364  1.00  0.00     0.058 A 
ATOM     81  C   UNL     1      22.802   2.881   8.669  1.00  0.00     0.135 A 
ATOM     82  C   UNL     1      21.924   1.312   7.076  1.00  0.00     0.135 A 
ATOM     83  F   UNL     1      23.234   4.109   8.992  1.00  0.00    -0.206 F 
ATOM     84  C   UNL     1      22.822   1.893   9.649  1.00  0.00     0.059 A 
ATOM     85  C   UNL     1      21.911   0.313   8.046  1.00  0.00     0.059 A 
ATOM     86  F   UNL     1      21.477   1.009   5.847  1.00  0.00    -0.206 F 
ATOM     87  C   UNL     1      22.369   0.613   9.328  1.00  0.00     0.060 A 
BRANCH  87  88
ATOM     88  S   UNL     1      22.346  -0.645  10.624  1.00  0.00     0.124 S 
ATOM     89  O   UNL     1      23.767  -0.926  10.787  1.00  0.00    -0.237 OA
ATOM     90  O   UNL     1      21.703   0.065  11.726  1.00  0.00    -0.237 OA
ATOM     91  O   UNL     1      21.553  -1.720  10.034  1.00  0.00    -0.744 OA
ENDBRANCH  87  88
ENDBRANCH  55  80
BRANCH  67  92
ATOM     92  C   UNL     1      27.325   6.246   4.066  1.00  0.00     0.058 A 
ATOM     93  C   UNL     1      28.091   5.197   3.537  1.00  0.00     0.135 A 
ATOM     94  C   UNL     1      28.007   7.330   4.644  1.00  0.00     0.135 A 
ATOM     95  F   UNL     1      27.489   4.134   2.979  1.00  0.00    -0.206 F 
ATOM     96  C   UNL     1      29.481   5.211   3.596  1.00  0.00     0.059 A 
ATOM     97  C   UNL     1      29.396   7.380   4.688  1.00  0.00     0.059 A 
ATOM     98  F   UNL     1      27.321   8.366   5.155  1.00  0.00    -0.206 F 
ATOM     99  C   UNL     1      30.124   6.309   4.171  1.00  0.00     0.060 A 
BRANCH  99 100
ATOM    100  S   UNL     1      31.929   6.332   4.208  1.00  0.00     0.124 S 
ATOM    101  O   UNL     1      32.214   5.349   5.247  1.00  0.00    -0.237 OA
ATOM    102  O   UNL     1      32.273   5.934   2.847  1.00  0.00    -0.237 OA
ATOM    103  O   UNL     1      32.244   7.716   4.549  1.00  0.00    -0.744 OA
ENDBRANCH  99 100
ENDBRANCH  67  92
ENDBRANCH  41  42
ENDBRANCH  33  36
ENDBRANCH  31  32
ENDBRANCH  30  31
ENDBRANCH   1  30
TORSDOF 18
