REMARK SMILES C[C@H](NC(=O)OC(C)(C)C)C(=O)N[C@@H](C)C(=O)N1CCC[C@H]1C(=O)NCCCCNC(=O)c1ccc(-c2c3nc(c(-c4c(F)cc(S(=O)(=O)[O-])cc4F)c4ccc([nH]4)c(-c4c(F)cc(S(=O)(=O)[O-])cc4F)c4nc(c(-c5c(F)cc(S(=O)(=O)[O-])cc5F)c5ccc2[nH]5)C=C4)C=C3)cc1
REMARK SMILES IDX 23 1 24 2 25 3 22 5 18 6 19 7 20 8 21 9 16 10 17 11 14 12
REMARK SMILES IDX 15 13 13 14 11 15 12 16 2 18 1 19 3 20 4 21 5 23 6 24 7 25
REMARK SMILES IDX 8 26 9 27 10 28 26 29 27 30 28 31 29 32 30 33 31 34 32 36
REMARK SMILES IDX 33 37 34 38 98 39 35 40 97 41 36 42 37 43 38 44 91 45 39 46
REMARK SMILES IDX 96 47 90 48 92 49 40 50 95 51 89 52 88 53 41 55 75 56 54 57
REMARK SMILES IDX 74 58 55 59 58 60 73 61 93 62 56 63 57 64 72 66 94 67 59 68
REMARK SMILES IDX 42 69 43 70 52 71 44 72 45 73 51 74 53 75 46 76 47 77 48 78
REMARK SMILES IDX 49 79 50 80 76 81 77 82 86 83 78 84 79 85 85 86 87 87 80 88
REMARK SMILES IDX 81 89 82 90 83 91 84 92 60 93 61 94 70 95 62 96 63 97 69 98
REMARK SMILES IDX 71 99 64 100 65 101 66 102 67 103 68 104
REMARK H PARENT 25 4 13 17 3 22 30 35 92 54 58 65
REMARK Flexibility Score: inf
ROOT
ATOM      1  C   UNL     1      -2.933  -2.818   5.870  1.00  0.00     0.242 C 
ATOM      2  O   UNL     1      -3.407  -3.036   6.994  1.00  0.00    -0.273 OA
ATOM      3  N   UNL     1      -2.205  -3.828   5.332  1.00  0.00    -0.354 N 
ATOM      4  H   UNL     1      -2.300  -4.690   5.797  1.00  0.00     0.163 HD
ENDROOT
BRANCH   1   5
ATOM      5  C   UNL     1      -3.231  -1.461   5.173  1.00  0.00     0.174 C 
ATOM      6  N   UNL     1      -2.832  -1.142   3.789  1.00  0.00    -0.329 N 
ATOM      7  C   UNL     1      -3.982  -1.233   2.915  1.00  0.00     0.120 C 
ATOM      8  C   UNL     1      -5.135  -0.789   3.791  1.00  0.00     0.024 C 
ATOM      9  C   UNL     1      -4.771  -1.312   5.170  1.00  0.00     0.037 C 
BRANCH   6  10
ATOM     10  C   UNL     1      -1.577  -0.634   3.530  1.00  0.00     0.245 C 
ATOM     11  O   UNL     1      -0.779  -0.489   4.467  1.00  0.00    -0.272 OA
BRANCH  10  12
ATOM     12  C   UNL     1      -1.170  -0.039   2.147  1.00  0.00     0.168 C 
ATOM     13  C   UNL     1      -1.497   1.454   2.178  1.00  0.00     0.041 C 
BRANCH  12  14
ATOM     14  N   UNL     1      -1.692  -0.611   0.902  1.00  0.00    -0.343 N 
ATOM     15  C   UNL     1      -1.091  -1.223  -0.156  1.00  0.00     0.243 C 
ATOM     16  O   UNL     1      -1.840  -1.594  -1.065  1.00  0.00    -0.273 OA
ATOM     17  H   UNL     1      -2.669  -0.537   0.813  1.00  0.00     0.164 HD
BRANCH  15  18
ATOM     18  C   UNL     1       0.413  -1.540  -0.197  1.00  0.00     0.171 C 
ATOM     19  C   UNL     1       0.711  -2.648   0.804  1.00  0.00     0.042 C 
BRANCH  18  20
ATOM     20  N   UNL     1       1.229  -0.347   0.000  1.00  0.00    -0.310 N 
ATOM     21  C   UNL     1       2.585  -0.275  -0.154  1.00  0.00     0.408 C 
ATOM     22  H   UNL     1       0.762   0.477   0.268  1.00  0.00     0.167 HD
ATOM     23  O   UNL     1       3.186   0.770   0.014  1.00  0.00    -0.225 OA
BRANCH  21  24
ATOM     24  O   UNL     1       3.123  -1.469  -0.484  1.00  0.00    -0.444 OA
BRANCH  24  25
ATOM     25  C   UNL     1       4.556  -1.678  -0.541  1.00  0.00     0.106 C 
ATOM     26  C   UNL     1       5.201  -0.841  -1.648  1.00  0.00     0.056 C 
ATOM     27  C   UNL     1       5.202  -1.421   0.825  1.00  0.00     0.056 C 
ATOM     28  C   UNL     1       4.713  -3.166  -0.887  1.00  0.00     0.056 C 
ENDBRANCH  24  25
ENDBRANCH  21  24
ENDBRANCH  18  20
ENDBRANCH  15  18
ENDBRANCH  12  14
ENDBRANCH  10  12
ENDBRANCH   6  10
ENDBRANCH   1   5
BRANCH   3  29
ATOM     29  C   UNL     1      -1.315  -3.857   4.196  1.00  0.00     0.116 C 
BRANCH  29  30
ATOM     30  C   UNL     1       0.106  -3.485   4.617  1.00  0.00     0.023 C 
BRANCH  30  31
ATOM     31  C   UNL     1       0.943  -4.645   5.159  1.00  0.00     0.023 C 
BRANCH  31  32
ATOM     32  C   UNL     1       1.092  -5.834   4.218  1.00  0.00     0.116 C 
BRANCH  32  33
ATOM     33  N   UNL     1       1.589  -5.481   2.897  1.00  0.00    -0.352 N 
ATOM     34  C   UNL     1       2.264  -6.280   2.004  1.00  0.00     0.251 C 
ATOM     35  H   UNL     1       1.421  -4.556   2.606  1.00  0.00     0.163 HD
ATOM     36  O   UNL     1       2.685  -5.817   0.950  1.00  0.00    -0.269 OA
BRANCH  34  37
ATOM     37  C   UNL     1       2.517  -7.689   2.363  1.00  0.00     0.039 A 
ATOM     38  C   UNL     1       3.821  -8.183   2.279  1.00  0.00     0.014 A 
ATOM     39  C   UNL     1       1.481  -8.494   2.839  1.00  0.00     0.014 A 
ATOM     40  C   UNL     1       4.094  -9.475   2.729  1.00  0.00     0.010 A 
ATOM     41  C   UNL     1       1.771  -9.746   3.366  1.00  0.00     0.010 A 
ATOM     42  C   UNL     1       3.076 -10.256   3.302  1.00  0.00    -0.014 A 
BRANCH  42  43
ATOM     43  C   UNL     1       3.341 -11.630   3.794  1.00  0.00     0.031 A 
ATOM     44  C   UNL     1       2.650 -12.795   3.138  1.00  0.00     0.074 A 
ATOM     45  C   UNL     1       4.144 -11.822   4.858  1.00  0.00     0.049 A 
ATOM     46  N   UNL     1       2.680 -14.062   3.459  1.00  0.00    -0.248 NA
ATOM     47  C   UNL     1       1.781 -12.489   1.989  1.00  0.00     0.031 C 
ATOM     48  C   UNL     1       4.824 -10.764   5.611  1.00  0.00     0.029 A 
ATOM     49  N   UNL     1       4.520 -12.976   5.498  1.00  0.00    -0.354 N 
ATOM     50  C   UNL     1       1.821 -14.697   2.569  1.00  0.00     0.074 A 
ATOM     51  C   UNL     1       1.235 -13.669   1.738  1.00  0.00     0.031 C 
ATOM     52  C   UNL     1       5.552 -11.321   6.593  1.00  0.00     0.029 A 
ATOM     53  C   UNL     1       5.368 -12.769   6.561  1.00  0.00     0.049 A 
ATOM     54  H   UNL     1       4.210 -13.869   5.223  1.00  0.00     0.167 HD
ATOM     55  C   UNL     1       1.567 -16.020   2.434  1.00  0.00     0.037 A 
ATOM     56  C   UNL     1       5.932 -13.649   7.410  1.00  0.00     0.037 A 
ATOM     57  C   UNL     1       2.188 -17.038   3.239  1.00  0.00     0.049 A 
ATOM     58  C   UNL     1       5.660 -15.118   7.222  1.00  0.00     0.074 A 
ATOM     59  C   UNL     1       2.045 -18.411   3.153  1.00  0.00     0.029 A 
ATOM     60  N   UNL     1       3.079 -16.791   4.274  1.00  0.00    -0.354 N 
ATOM     61  N   UNL     1       4.888 -15.708   6.339  1.00  0.00    -0.248 NA
ATOM     62  C   UNL     1       6.345 -16.044   8.133  1.00  0.00     0.031 C 
ATOM     63  C   UNL     1       2.824 -18.994   4.158  1.00  0.00     0.029 A 
ATOM     64  C   UNL     1       3.490 -17.986   4.838  1.00  0.00     0.049 A 
ATOM     65  H   UNL     1       3.375 -15.898   4.564  1.00  0.00     0.167 HD
ATOM     66  C   UNL     1       5.025 -17.073   6.564  1.00  0.00     0.074 A 
ATOM     67  C   UNL     1       5.958 -17.221   7.662  1.00  0.00     0.031 C 
ATOM     68  C   UNL     1       4.437 -18.111   5.918  1.00  0.00     0.037 A 
BRANCH  55  69
ATOM     69  C   UNL     1       0.589 -16.436   1.371  1.00  0.00     0.058 A 
ATOM     70  C   UNL     1       0.890 -16.314   0.004  1.00  0.00     0.135 A 
ATOM     71  C   UNL     1      -0.659 -16.979   1.718  1.00  0.00     0.135 A 
ATOM     72  F   UNL     1       2.060 -15.784  -0.387  1.00  0.00    -0.206 F 
ATOM     73  C   UNL     1      -0.023 -16.683  -0.979  1.00  0.00     0.059 A 
ATOM     74  C   UNL     1      -1.575 -17.383   0.752  1.00  0.00     0.059 A 
ATOM     75  F   UNL     1      -1.001 -17.116   3.009  1.00  0.00    -0.206 F 
ATOM     76  C   UNL     1      -1.254 -17.216  -0.595  1.00  0.00     0.060 A 
BRANCH  76  77
ATOM     77  S   UNL     1      -2.426 -17.691  -1.882  1.00  0.00     0.124 S 
ATOM     78  O   UNL     1      -2.889 -16.388  -2.349  1.00  0.00    -0.237 OA
ATOM     79  O   UNL     1      -1.583 -18.434  -2.813  1.00  0.00    -0.237 OA
ATOM     80  O   UNL     1      -3.415 -18.488  -1.164  1.00  0.00    -0.744 OA
ENDBRANCH  76  77
ENDBRANCH  55  69
BRANCH  56  81
ATOM     81  C   UNL     1       6.842 -13.172   8.486  1.00  0.00     0.058 A 
ATOM     82  C   UNL     1       8.222 -13.420   8.425  1.00  0.00     0.135 A 
ATOM     83  C   UNL     1       6.357 -12.454   9.589  1.00  0.00     0.135 A 
ATOM     84  F   UNL     1       8.735 -14.105   7.392  1.00  0.00    -0.206 F 
ATOM     85  C   UNL     1       9.085 -12.996   9.430  1.00  0.00     0.059 A 
ATOM     86  C   UNL     1       7.204 -11.996  10.595  1.00  0.00     0.059 A 
ATOM     87  F   UNL     1       5.048 -12.173   9.686  1.00  0.00    -0.206 F 
ATOM     88  C   UNL     1       8.566 -12.283  10.512  1.00  0.00     0.060 A 
BRANCH  88  89
ATOM     89  S   UNL     1       9.701 -11.703  11.792  1.00  0.00     0.124 S 
ATOM     90  O   UNL     1      10.019 -12.945  12.486  1.00  0.00    -0.237 OA
ATOM     91  O   UNL     1      10.780 -11.117  11.002  1.00  0.00    -0.237 OA
ATOM     92  O   UNL     1       8.895 -10.746  12.545  1.00  0.00    -0.744 OA
ENDBRANCH  88  89
ENDBRANCH  56  81
BRANCH  68  93
ATOM     93  C   UNL     1       4.827 -19.500   6.341  1.00  0.00     0.058 A 
ATOM     94  C   UNL     1       4.394 -20.055   7.554  1.00  0.00     0.135 A 
ATOM     95  C   UNL     1       5.603 -20.303   5.489  1.00  0.00     0.135 A 
ATOM     96  F   UNL     1       3.653 -19.328   8.405  1.00  0.00    -0.206 F 
ATOM     97  C   UNL     1       4.741 -21.351   7.922  1.00  0.00     0.059 A 
ATOM     98  C   UNL     1       5.937 -21.610   5.824  1.00  0.00     0.059 A 
ATOM     99  F   UNL     1       6.031 -19.823   4.311  1.00  0.00    -0.206 F 
ATOM    100  C   UNL     1       5.513 -22.121   7.049  1.00  0.00     0.060 A 
BRANCH 100 101
ATOM    101  S   UNL     1       5.932 -23.811   7.525  1.00  0.00     0.124 S 
ATOM    102  O   UNL     1       6.963 -23.585   8.532  1.00  0.00    -0.237 OA
ATOM    103  O   UNL     1       4.659 -24.321   8.023  1.00  0.00    -0.237 OA
ATOM    104  O   UNL     1       6.394 -24.410   6.276  1.00  0.00    -0.744 OA
ENDBRANCH 100 101
ENDBRANCH  68  93
ENDBRANCH  42  43
ENDBRANCH  34  37
ENDBRANCH  32  33
ENDBRANCH  31  32
ENDBRANCH  30  31
ENDBRANCH  29  30
ENDBRANCH   3  29
TORSDOF 21
