REMARK SMILES COc1cc(C(=O)NCCCCNC(=O)c2ccc(-c3c4nc(c(-c5c(F)cc(S(=O)(=O)[O-])cc5F)c5ccc([nH]5)c(-c5c(F)cc(S(=O)(=O)[O-])cc5F)c5nc(c(-c6c(F)cc(S(=O)(=O)[O-])cc6F)c6ccc3[nH]6)C=C5)C=C4)cc2)ccc1OCC(=O)N[C@H]1CCCC[C@H]1C
REMARK SMILES IDX 10 1 9 2 8 3 6 4 7 5 5 7 3 8 4 9 84 10 83 11 82 12 2 13 1 14
REMARK SMILES IDX 85 15 86 16 87 17 88 18 89 19 90 21 91 22 95 23 92 24 94 25
REMARK SMILES IDX 96 26 93 27 11 28 12 29 13 30 14 31 15 33 16 34 17 35 81 36
REMARK SMILES IDX 18 37 80 38 19 39 20 40 21 41 74 42 22 43 79 44 73 45 75 46
REMARK SMILES IDX 23 47 78 48 72 49 71 50 24 52 58 53 37 54 57 55 38 56 41 57
REMARK SMILES IDX 56 58 76 59 39 60 40 61 55 63 77 64 42 65 25 66 26 67 35 68
REMARK SMILES IDX 27 69 28 70 34 71 36 72 29 73 30 74 31 75 32 76 33 77 59 78
REMARK SMILES IDX 60 79 69 80 61 81 62 82 68 83 70 84 63 85 64 86 65 87 66 88
REMARK SMILES IDX 67 89 43 90 44 91 53 92 45 93 46 94 52 95 54 96 47 97 48 98
REMARK SMILES IDX 49 99 50 100 51 101
REMARK H PARENT 8 6 89 20 13 32 75 51 41 62
REMARK Flexibility Score: inf
ROOT
ATOM      1  C   UNL     1       1.969  -2.701  -7.927  1.00  0.00     0.023 C 
ENDROOT
BRANCH   1   2
ATOM      2  C   UNL     1       1.535  -1.391  -7.278  1.00  0.00     0.116 C 
BRANCH   2   3
ATOM      3  N   UNL     1       0.127  -1.346  -6.917  1.00  0.00    -0.352 N 
ATOM      4  C   UNL     1      -0.481  -1.058  -5.718  1.00  0.00     0.251 C 
ATOM      5  O   UNL     1      -1.705  -1.117  -5.626  1.00  0.00    -0.269 OA
ATOM      6  H   UNL     1      -0.493  -1.555  -7.652  1.00  0.00     0.163 HD
BRANCH   4   7
ATOM      7  C   UNL     1       0.315  -0.729  -4.514  1.00  0.00     0.043 A 
ATOM      8  C   UNL     1       0.733  -1.127  -2.159  1.00  0.00     0.161 A 
ATOM      9  C   UNL     1      -0.049  -1.325  -3.303  1.00  0.00     0.064 A 
ATOM     10  C   UNL     1       1.913  -0.378  -2.238  1.00  0.00     0.161 A 
ATOM     11  C   UNL     1       2.225   0.271  -3.437  1.00  0.00     0.051 A 
ATOM     12  C   UNL     1       1.403   0.142  -4.556  1.00  0.00     0.018 A 
BRANCH   8  13
ATOM     13  O   UNL     1       0.373  -1.775  -1.009  1.00  0.00    -0.493 OA
ATOM     14  C   UNL     1      -0.833  -1.229  -0.463  1.00  0.00     0.278 C 
ENDBRANCH   8  13
BRANCH  10  15
ATOM     15  O   UNL     1       2.883  -0.241  -1.285  1.00  0.00    -0.480 OA
BRANCH  15  16
ATOM     16  C   UNL     1       2.484  -0.171   0.070  1.00  0.00     0.329 C 
BRANCH  16  17
ATOM     17  C   UNL     1       1.735   1.101   0.456  1.00  0.00     0.258 C 
ATOM     18  O   UNL     1       0.650   1.058   1.042  1.00  0.00    -0.271 OA
ATOM     19  N   UNL     1       2.281   2.331   0.231  1.00  0.00    -0.350 N 
ATOM     20  H   UNL     1       1.745   3.075   0.590  1.00  0.00     0.163 HD
BRANCH  19  21
ATOM     21  C   UNL     1       3.515   2.758  -0.443  1.00  0.00     0.085 C 
ATOM     22  C   UNL     1       3.585   4.298  -0.362  1.00  0.00     0.025 C 
ATOM     23  C   UNL     1       4.811   2.103   0.098  1.00  0.00     0.008 C 
ATOM     24  C   UNL     1       4.856   4.888  -0.961  1.00  0.00     0.002 C 
ATOM     25  C   UNL     1       6.064   2.733  -0.534  1.00  0.00     0.005 C 
ATOM     26  C   UNL     1       4.902   2.117   1.629  1.00  0.00     0.010 C 
ATOM     27  C   UNL     1       6.109   4.248  -0.380  1.00  0.00     0.000 C 
ENDBRANCH  19  21
ENDBRANCH  16  17
ENDBRANCH  15  16
ENDBRANCH  10  15
ENDBRANCH   4   7
ENDBRANCH   2   3
ENDBRANCH   1   2
BRANCH   1  28
ATOM     28  C   UNL     1       1.249  -3.086  -9.215  1.00  0.00     0.023 C 
BRANCH  28  29
ATOM     29  C   UNL     1       1.153  -1.998 -10.278  1.00  0.00     0.116 C 
BRANCH  29  30
ATOM     30  N   UNL     1       2.446  -1.498 -10.722  1.00  0.00    -0.352 N 
ATOM     31  C   UNL     1       2.947  -1.389 -11.999  1.00  0.00     0.251 C 
ATOM     32  H   UNL     1       3.050  -1.195 -10.006  1.00  0.00     0.163 HD
ATOM     33  O   UNL     1       4.105  -1.018 -12.175  1.00  0.00    -0.269 OA
BRANCH  31  34
ATOM     34  C   UNL     1       2.103  -1.762 -13.155  1.00  0.00     0.039 A 
ATOM     35  C   UNL     1       2.621  -2.630 -14.119  1.00  0.00     0.014 A 
ATOM     36  C   UNL     1       0.789  -1.298 -13.260  1.00  0.00     0.014 A 
ATOM     37  C   UNL     1       1.791  -3.111 -15.136  1.00  0.00     0.010 A 
ATOM     38  C   UNL     1      -0.056  -1.838 -14.226  1.00  0.00     0.010 A 
ATOM     39  C   UNL     1       0.432  -2.759 -15.167  1.00  0.00    -0.014 A 
BRANCH  39  40
ATOM     40  C   UNL     1      -0.506  -3.342 -16.162  1.00  0.00     0.031 A 
ATOM     41  C   UNL     1      -1.209  -2.444 -17.143  1.00  0.00     0.074 A 
ATOM     42  C   UNL     1      -0.796  -4.659 -16.123  1.00  0.00     0.049 A 
ATOM     43  N   UNL     1      -2.172  -2.727 -17.980  1.00  0.00    -0.248 NA
ATOM     44  C   UNL     1      -0.792  -1.032 -17.161  1.00  0.00     0.031 C 
ATOM     45  C   UNL     1      -0.216  -5.629 -15.191  1.00  0.00     0.029 A 
ATOM     46  N   UNL     1      -1.671  -5.406 -16.872  1.00  0.00    -0.354 N 
ATOM     47  C   UNL     1      -2.487  -1.530 -18.613  1.00  0.00     0.074 A 
ATOM     48  C   UNL     1      -1.649  -0.508 -18.025  1.00  0.00     0.031 C 
ATOM     49  C   UNL     1      -0.746  -6.840 -15.427  1.00  0.00     0.029 A 
ATOM     50  C   UNL     1      -1.732  -6.729 -16.497  1.00  0.00     0.049 A 
ATOM     51  H   UNL     1      -2.205  -5.031 -17.609  1.00  0.00     0.167 HD
ATOM     52  C   UNL     1      -3.375  -1.308 -19.611  1.00  0.00     0.037 A 
ATOM     53  C   UNL     1      -2.509  -7.733 -16.950  1.00  0.00     0.037 A 
ATOM     54  C   UNL     1      -4.188  -2.332 -20.212  1.00  0.00     0.049 A 
ATOM     55  C   UNL     1      -3.489  -7.461 -18.059  1.00  0.00     0.074 A 
ATOM     56  C   UNL     1      -5.098  -2.212 -21.247  1.00  0.00     0.029 A 
ATOM     57  N   UNL     1      -4.183  -3.667 -19.837  1.00  0.00    -0.354 N 
ATOM     58  N   UNL     1      -3.748  -6.329 -18.670  1.00  0.00    -0.248 NA
ATOM     59  C   UNL     1      -4.280  -8.600 -18.546  1.00  0.00     0.031 C 
ATOM     60  C   UNL     1      -5.662  -3.470 -21.482  1.00  0.00     0.029 A 
ATOM     61  C   UNL     1      -5.074  -4.381 -20.619  1.00  0.00     0.049 A 
ATOM     62  H   UNL     1      -3.627  -4.051 -19.121  1.00  0.00     0.167 HD
ATOM     63  C   UNL     1      -4.708  -6.627 -19.631  1.00  0.00     0.074 A 
ATOM     64  C   UNL     1      -4.979  -8.045 -19.527  1.00  0.00     0.031 C 
ATOM     65  C   UNL     1      -5.312  -5.799 -20.518  1.00  0.00     0.037 A 
BRANCH  52  66
ATOM     66  C   UNL     1      -3.497   0.098 -20.130  1.00  0.00     0.058 A 
ATOM     67  C   UNL     1      -2.475   0.685 -20.893  1.00  0.00     0.135 A 
ATOM     68  C   UNL     1      -4.654   0.856 -19.892  1.00  0.00     0.135 A 
ATOM     69  F   UNL     1      -1.339   0.011 -21.136  1.00  0.00    -0.206 F 
ATOM     70  C   UNL     1      -2.583   1.984 -21.377  1.00  0.00     0.059 A 
ATOM     71  C   UNL     1      -4.796   2.148 -20.390  1.00  0.00     0.059 A 
ATOM     72  F   UNL     1      -5.662   0.343 -19.168  1.00  0.00    -0.206 F 
ATOM     73  C   UNL     1      -3.748   2.709 -21.119  1.00  0.00     0.060 A 
BRANCH  73  74
ATOM     74  S   UNL     1      -3.873   4.392 -21.759  1.00  0.00     0.124 S 
ATOM     75  O   UNL     1      -2.978   5.112 -20.859  1.00  0.00    -0.237 OA
ATOM     76  O   UNL     1      -3.402   4.241 -23.132  1.00  0.00    -0.237 OA
ATOM     77  O   UNL     1      -5.291   4.705 -21.617  1.00  0.00    -0.744 OA
ENDBRANCH  73  74
ENDBRANCH  52  66
BRANCH  53  78
ATOM     78  C   UNL     1      -2.392  -9.094 -16.359  1.00  0.00     0.058 A 
ATOM     79  C   UNL     1      -1.836 -10.153 -17.091  1.00  0.00     0.135 A 
ATOM     80  C   UNL     1      -2.843  -9.365 -15.058  1.00  0.00     0.135 A 
ATOM     81  F   UNL     1      -1.396  -9.946 -18.341  1.00  0.00    -0.206 F 
ATOM     82  C   UNL     1      -1.755 -11.440 -16.567  1.00  0.00     0.059 A 
ATOM     83  C   UNL     1      -2.750 -10.637 -14.502  1.00  0.00     0.059 A 
ATOM     84  F   UNL     1      -3.366  -8.382 -14.309  1.00  0.00    -0.206 F 
ATOM     85  C   UNL     1      -2.219 -11.672 -15.271  1.00  0.00     0.060 A 
BRANCH  85  86
ATOM     86  S   UNL     1      -2.087 -13.339 -14.587  1.00  0.00     0.124 S 
ATOM     87  O   UNL     1      -3.174 -14.024 -15.277  1.00  0.00    -0.237 OA
ATOM     88  O   UNL     1      -0.736 -13.727 -14.979  1.00  0.00    -0.237 OA
ATOM     89  O   UNL     1      -2.279 -13.129 -13.155  1.00  0.00    -0.744 OA
ENDBRANCH  85  86
ENDBRANCH  53  78
BRANCH  65  90
ATOM     90  C   UNL     1      -6.289  -6.408 -21.484  1.00  0.00     0.058 A 
ATOM     91  C   UNL     1      -7.577  -6.795 -21.084  1.00  0.00     0.135 A 
ATOM     92  C   UNL     1      -5.955  -6.536 -22.841  1.00  0.00     0.135 A 
ATOM     93  F   UNL     1      -7.942  -6.699 -19.796  1.00  0.00    -0.206 F 
ATOM     94  C   UNL     1      -8.498  -7.301 -21.996  1.00  0.00     0.059 A 
ATOM     95  C   UNL     1      -6.868  -7.017 -23.775  1.00  0.00     0.059 A 
ATOM     96  F   UNL     1      -4.738  -6.172 -23.276  1.00  0.00    -0.206 F 
ATOM     97  C   UNL     1      -8.135  -7.403 -23.341  1.00  0.00     0.060 A 
BRANCH  97  98
ATOM     98  S   UNL     1      -9.357  -8.008 -24.524  1.00  0.00     0.124 S 
ATOM     99  O   UNL     1      -9.365  -9.438 -24.235  1.00  0.00    -0.237 OA
ATOM    100  O   UNL     1     -10.559  -7.276 -24.135  1.00  0.00    -0.237 OA
ATOM    101  O   UNL     1      -8.793  -7.631 -25.817  1.00  0.00    -0.744 OA
ENDBRANCH  97  98
ENDBRANCH  65  90
ENDBRANCH  39  40
ENDBRANCH  31  34
ENDBRANCH  29  30
ENDBRANCH  28  29
ENDBRANCH   1  28
TORSDOF 19
