REMARK SMILES C=C(C)COc1ccc2nc(C)n(-c3cccc(C(=O)NCCCCNC(=O)c4ccc(-c5c6nc(c(-c7c(F)cc(S(=O)(=O)[O-])cc7F)c7ccc([nH]7)c(-c7c(F)cc(S(=O)(=O)[O-])cc7F)c7nc(c(-c8c(F)cc(S(=O)(=O)[O-])cc8F)c8ccc5[nH]8)C=C7)C=C6)cc4)c3)c(=O)c2c1
REMARK SMILES IDX 23 1 22 2 21 3 19 4 20 5 18 7 14 8 15 9 95 10 16 11 17 12
REMARK SMILES IDX 13 13 6 14 7 15 99 16 8 17 98 18 9 19 96 20 10 21 97 22
REMARK SMILES IDX 11 23 12 24 5 25 4 26 2 27 1 28 3 29 24 30 25 31 26 32 27 33
REMARK SMILES IDX 28 35 29 36 30 37 94 38 31 39 93 40 32 41 33 42 34 43 87 44
REMARK SMILES IDX 35 45 92 46 86 47 88 48 36 49 91 50 85 51 84 52 37 54 71 55
REMARK SMILES IDX 50 56 70 57 51 58 54 59 69 60 89 61 52 62 53 63 68 65 90 66
REMARK SMILES IDX 55 67 38 68 39 69 48 70 40 71 41 72 47 73 49 74 42 75 43 76
REMARK SMILES IDX 44 77 45 78 46 79 72 80 73 81 82 82 74 83 75 84 81 85 83 86
REMARK SMILES IDX 76 87 77 88 78 89 79 90 80 91 56 92 57 93 66 94 58 95 59 96
REMARK SMILES IDX 65 97 67 98 60 99 61 100 62 101 63 102 64 103
REMARK H PARENT 21 6 26 34 88 53 54 64
REMARK Flexibility Score: inf
ROOT
ATOM      1  C   UNL     1      -2.318   0.587   9.824  1.00  0.00     0.023 C 
ENDROOT
BRANCH   1   2
ATOM      2  C   UNL     1      -0.813   0.411   9.968  1.00  0.00     0.116 C 
BRANCH   2   3
ATOM      3  N   UNL     1      -0.311   0.337  11.332  1.00  0.00    -0.352 N 
ATOM      4  C   UNL     1       0.711  -0.414  11.881  1.00  0.00     0.251 C 
ATOM      5  O   UNL     1       0.978  -0.278  13.073  1.00  0.00    -0.269 OA
ATOM      6  H   UNL     1      -0.778   0.920  11.973  1.00  0.00     0.163 HD
BRANCH   4   7
ATOM      7  C   UNL     1       1.435  -1.450  11.095  1.00  0.00     0.041 A 
ATOM      8  C   UNL     1       1.959  -2.449   8.956  1.00  0.00     0.051 A 
ATOM      9  C   UNL     1       2.343  -3.629   9.605  1.00  0.00     0.027 A 
ATOM     10  C   UNL     1       1.661  -1.321   9.726  1.00  0.00     0.040 A 
ATOM     11  C   UNL     1       2.301  -3.711  10.999  1.00  0.00     0.003 A 
ATOM     12  C   UNL     1       1.802  -2.638  11.739  1.00  0.00     0.014 A 
BRANCH   8  13
ATOM     13  N   UNL     1       1.636  -2.420   7.559  1.00  0.00    -0.264 N 
ATOM     14  C   UNL     1       1.554  -0.218   3.223  1.00  0.00     0.120 A 
ATOM     15  C   UNL     1       0.693  -1.223   2.782  1.00  0.00     0.049 A 
ATOM     16  C   UNL     1       2.049  -0.249   4.526  1.00  0.00     0.062 A 
ATOM     17  C   UNL     1       0.295  -2.236   3.651  1.00  0.00     0.033 A 
ATOM     18  C   UNL     1       1.647  -1.278   5.390  1.00  0.00     0.070 A 
ATOM     19  C   UNL     1       0.774  -2.270   4.958  1.00  0.00     0.078 A 
ATOM     20  C   UNL     1       2.116  -1.348   6.788  1.00  0.00     0.266 A 
ATOM     21  N   UNL     1       0.324  -3.289   5.789  1.00  0.00    -0.234 NA
ATOM     22  O   UNL     1       2.884  -0.473   7.187  1.00  0.00    -0.268 OA
ATOM     23  C   UNL     1       0.722  -3.319   7.020  1.00  0.00     0.113 A 
ATOM     24  C   UNL     1       0.058  -4.381   7.876  1.00  0.00     0.088 C 
BRANCH  14  25
ATOM     25  O   UNL     1       2.013   0.764   2.383  1.00  0.00    -0.489 OA
BRANCH  25  26
ATOM     26  C   UNL     1       0.965   1.593   1.850  1.00  0.00     0.260 C 
BRANCH  26  27
ATOM     27  C   UNL     1       0.391   1.058   0.552  1.00  0.00    -0.043 C 
ATOM     28  C   UNL     1       1.134   0.438  -0.382  1.00  0.00     0.011 C 
ATOM     29  C   UNL     1      -1.097   1.208   0.399  1.00  0.00     0.042 C 
ENDBRANCH  26  27
ENDBRANCH  25  26
ENDBRANCH  14  25
ENDBRANCH   8  13
ENDBRANCH   4   7
ENDBRANCH   2   3
ENDBRANCH   1   2
BRANCH   1  30
ATOM     30  C   UNL     1      -2.938   1.798  10.505  1.00  0.00     0.023 C 
BRANCH  30  31
ATOM     31  C   UNL     1      -2.251   3.134  10.256  1.00  0.00     0.116 C 
BRANCH  31  32
ATOM     32  N   UNL     1      -2.213   3.534   8.856  1.00  0.00    -0.352 N 
ATOM     33  C   UNL     1      -2.728   4.649   8.225  1.00  0.00     0.251 C 
ATOM     34  H   UNL     1      -1.742   2.906   8.262  1.00  0.00     0.163 HD
ATOM     35  O   UNL     1      -2.637   4.749   7.010  1.00  0.00    -0.269 OA
BRANCH  33  36
ATOM     36  C   UNL     1      -3.432   5.696   9.006  1.00  0.00     0.039 A 
ATOM     37  C   UNL     1      -2.943   6.135  10.234  1.00  0.00     0.014 A 
ATOM     38  C   UNL     1      -4.626   6.229   8.506  1.00  0.00     0.014 A 
ATOM     39  C   UNL     1      -3.746   6.917  11.056  1.00  0.00     0.010 A 
ATOM     40  C   UNL     1      -5.381   7.110   9.291  1.00  0.00     0.010 A 
ATOM     41  C   UNL     1      -4.981   7.409  10.601  1.00  0.00    -0.014 A 
BRANCH  41  42
ATOM     42  C   UNL     1      -5.824   8.216  11.527  1.00  0.00     0.031 A 
ATOM     43  C   UNL     1      -7.181   7.727  11.969  1.00  0.00     0.074 A 
ATOM     44  C   UNL     1      -5.321   9.356  12.045  1.00  0.00     0.049 A 
ATOM     45  N   UNL     1      -8.008   8.265  12.830  1.00  0.00    -0.248 NA
ATOM     46  C   UNL     1      -7.680   6.480  11.367  1.00  0.00     0.031 C 
ATOM     47  C   UNL     1      -4.020   9.933  11.698  1.00  0.00     0.029 A 
ATOM     48  N   UNL     1      -5.816  10.208  13.000  1.00  0.00    -0.354 N 
ATOM     49  C   UNL     1      -9.125   7.436  12.862  1.00  0.00     0.074 A 
ATOM     50  C   UNL     1      -8.886   6.374  11.910  1.00  0.00     0.031 C 
ATOM     51  C   UNL     1      -3.785  10.994  12.484  1.00  0.00     0.029 A 
ATOM     52  C   UNL     1      -4.943  11.213  13.345  1.00  0.00     0.049 A 
ATOM     53  H   UNL     1      -6.710  10.109  13.401  1.00  0.00     0.167 HD
ATOM     54  C   UNL     1     -10.239   7.541  13.626  1.00  0.00     0.037 A 
ATOM     55  C   UNL     1      -5.055  12.204  14.251  1.00  0.00     0.037 A 
ATOM     56  C   UNL     1     -10.461   8.581  14.597  1.00  0.00     0.049 A 
ATOM     57  C   UNL     1      -6.308  12.310  15.071  1.00  0.00     0.074 A 
ATOM     58  C   UNL     1     -11.551   8.759  15.431  1.00  0.00     0.029 A 
ATOM     59  N   UNL     1      -9.576   9.613  14.870  1.00  0.00    -0.354 N 
ATOM     60  N   UNL     1      -7.349  11.514  15.084  1.00  0.00    -0.248 NA
ATOM     61  C   UNL     1      -6.411  13.455  15.986  1.00  0.00     0.031 C 
ATOM     62  C   UNL     1     -11.342   9.918  16.184  1.00  0.00     0.029 A 
ATOM     63  C   UNL     1     -10.103  10.440  15.848  1.00  0.00     0.049 A 
ATOM     64  H   UNL     1      -8.702   9.739  14.434  1.00  0.00     0.167 HD
ATOM     65  C   UNL     1      -8.229  12.056  16.013  1.00  0.00     0.074 A 
ATOM     66  C   UNL     1      -7.591  13.239  16.553  1.00  0.00     0.031 C 
ATOM     67  C   UNL     1      -9.455  11.613  16.380  1.00  0.00     0.037 A 
BRANCH  54  68
ATOM     68  C   UNL     1     -11.314   6.504  13.450  1.00  0.00     0.058 A 
ATOM     69  C   UNL     1     -11.166   5.200  13.947  1.00  0.00     0.135 A 
ATOM     70  C   UNL     1     -12.533   6.836  12.836  1.00  0.00     0.135 A 
ATOM     71  F   UNL     1     -10.017   4.825  14.531  1.00  0.00    -0.206 F 
ATOM     72  C   UNL     1     -12.182   4.256  13.828  1.00  0.00     0.059 A 
ATOM     73  C   UNL     1     -13.571   5.914  12.724  1.00  0.00     0.059 A 
ATOM     74  F   UNL     1     -12.728   8.069  12.344  1.00  0.00    -0.206 F 
ATOM     75  C   UNL     1     -13.382   4.623  13.215  1.00  0.00     0.060 A 
BRANCH  75  76
ATOM     76  S   UNL     1     -14.693   3.389  13.078  1.00  0.00     0.124 S 
ATOM     77  O   UNL     1     -14.151   2.503  12.052  1.00  0.00    -0.237 OA
ATOM     78  O   UNL     1     -14.743   2.836  14.428  1.00  0.00    -0.237 OA
ATOM     79  O   UNL     1     -15.858   4.171  12.679  1.00  0.00    -0.744 OA
ENDBRANCH  75  76
ENDBRANCH  54  68
BRANCH  55  80
ATOM     80  C   UNL     1      -3.933  13.162  14.430  1.00  0.00     0.058 A 
ATOM     81  C   UNL     1      -3.135  13.130  15.582  1.00  0.00     0.135 A 
ATOM     82  C   UNL     1      -3.604  14.091  13.430  1.00  0.00     0.135 A 
ATOM     83  F   UNL     1      -3.414  12.264  16.568  1.00  0.00    -0.206 F 
ATOM     84  C   UNL     1      -2.047  13.983  15.736  1.00  0.00     0.059 A 
ATOM     85  C   UNL     1      -2.507  14.936  13.550  1.00  0.00     0.059 A 
ATOM     86  F   UNL     1      -4.330  14.149  12.302  1.00  0.00    -0.206 F 
ATOM     87  C   UNL     1      -1.736  14.877  14.710  1.00  0.00     0.060 A 
BRANCH  87  88
ATOM     88  S   UNL     1      -0.277  15.926  14.886  1.00  0.00     0.124 S 
ATOM     89  O   UNL     1      -0.734  16.902  15.868  1.00  0.00    -0.237 OA
ATOM     90  O   UNL     1       0.730  14.976  15.350  1.00  0.00    -0.237 OA
ATOM     91  O   UNL     1      -0.068  16.439  13.535  1.00  0.00    -0.744 OA
ENDBRANCH  87  88
ENDBRANCH  55  80
BRANCH  67  92
ATOM     92  C   UNL     1     -10.199  12.399  17.420  1.00  0.00     0.058 A 
ATOM     93  C   UNL     1     -10.849  13.600  17.098  1.00  0.00     0.135 A 
ATOM     94  C   UNL     1     -10.350  11.894  18.721  1.00  0.00     0.135 A 
ATOM     95  F   UNL     1     -10.727  14.126  15.870  1.00  0.00    -0.206 F 
ATOM     96  C   UNL     1     -11.629  14.273  18.032  1.00  0.00     0.059 A 
ATOM     97  C   UNL     1     -11.141  12.541  19.665  1.00  0.00     0.059 A 
ATOM     98  F   UNL     1      -9.752  10.745  19.074  1.00  0.00    -0.206 F 
ATOM     99  C   UNL     1     -11.777  13.731  19.311  1.00  0.00     0.060 A 
BRANCH  99 100
ATOM    100  S   UNL     1     -12.857  14.575  20.486  1.00  0.00     0.124 S 
ATOM    101  O   UNL     1     -12.058  15.747  20.831  1.00  0.00    -0.237 OA
ATOM    102  O   UNL     1     -14.048  14.834  19.683  1.00  0.00    -0.237 OA
ATOM    103  O   UNL     1     -13.029  13.596  21.554  1.00  0.00    -0.744 OA
ENDBRANCH  99 100
ENDBRANCH  67  92
ENDBRANCH  41  42
ENDBRANCH  33  36
ENDBRANCH  31  32
ENDBRANCH  30  31
ENDBRANCH   1  30
TORSDOF 18
