REMARK SMILES Cc1ccc(C)c([C@H]2[NH2+][C@@H](C(=O)NCCCCNC(=O)c3ccc(-c4c5nc(c(-c6c(F)cc(S(=O)(=O)[O-])cc6F)c6ccc([nH]6)c(-c6c(F)cc(S(=O)(=O)[O-])cc6F)c6nc(c(-c7c(F)cc(S(=O)(=O)[O-])cc7F)c7ccc4[nH]7)C=C6)C=C5)cc3)Cc3c2[nH]c2ccccc32)c1
REMARK SMILES IDX 16 1 15 2 14 3 13 4 11 5 12 6 10 8 8 9 9 10 89 11 88 14
REMARK SMILES IDX 90 15 87 16 96 17 91 18 95 20 92 21 94 22 93 23 7 24 1 25
REMARK SMILES IDX 2 26 3 27 97 28 4 29 5 30 6 31 17 32 18 33 19 34 20 36 21 37
REMARK SMILES IDX 22 38 86 39 23 40 85 41 24 42 25 43 26 44 79 45 27 46 84 47
REMARK SMILES IDX 78 48 80 49 28 50 83 51 77 52 76 53 29 55 63 56 42 57 62 58
REMARK SMILES IDX 43 59 46 60 61 61 81 62 44 63 45 64 60 66 82 67 47 68 30 69
REMARK SMILES IDX 31 70 40 71 32 72 33 73 39 74 41 75 34 76 35 77 36 78 37 79
REMARK SMILES IDX 38 80 64 81 65 82 74 83 66 84 67 85 73 86 75 87 68 88 69 89
REMARK SMILES IDX 70 90 71 91 72 92 48 93 49 94 58 95 50 96 51 97 57 98 59 99
REMARK SMILES IDX 52 100 53 101 54 102 55 103 56 104
REMARK H PARENT 13 7 9 12 9 13 90 19 18 35 80 54 46 65
REMARK Flexibility Score: inf
ROOT
ATOM      1  C   UNL     1      -2.522  10.271   0.125  1.00  0.00     0.023 C 
ENDROOT
BRANCH   1   2
ATOM      2  C   UNL     1      -2.458   8.867   0.743  1.00  0.00     0.023 C 
BRANCH   2   3
ATOM      3  C   UNL     1      -3.032   7.764  -0.147  1.00  0.00     0.116 C 
BRANCH   3   4
ATOM      4  N   UNL     1      -2.105   7.303  -1.154  1.00  0.00    -0.351 N 
ATOM      5  C   UNL     1      -1.220   6.285  -1.246  1.00  0.00     0.278 C 
ATOM      6  O   UNL     1      -0.561   6.256  -2.297  1.00  0.00    -0.268 OA
ATOM      7  H   UNL     1      -2.121   7.862  -1.964  1.00  0.00     0.163 HD
BRANCH   5   8
ATOM      8  C   UNL     1      -1.016   5.157  -0.213  1.00  0.00     0.277 C 
ATOM      9  C   UNL     1      -1.314   2.661  -0.079  1.00  0.00     0.262 C 
ATOM     10  N   UNL     1      -1.554   3.921  -0.817  1.00  0.00    -0.325 N 
ATOM     11  C   UNL     1      -1.377   2.920   1.419  1.00  0.00     0.083 A 
ATOM     12  H   UNL     1      -2.563   4.037  -0.910  1.00  0.00     0.347 HD
ATOM     13  H   UNL     1      -1.054   3.814  -1.699  1.00  0.00     0.347 HD
ATOM     14  C   UNL     1      -1.446   4.169   1.999  1.00  0.00    -0.006 A 
ATOM     15  N   UNL     1      -1.325   2.013   2.453  1.00  0.00    -0.353 N 
ATOM     16  C   UNL     1      -1.622   5.373   1.166  1.00  0.00     0.114 C 
ATOM     17  C   UNL     1      -1.452   4.045   3.399  1.00  0.00     0.003 A 
ATOM     18  C   UNL     1      -1.393   2.679   3.672  1.00  0.00     0.046 A 
ATOM     19  H   UNL     1      -1.250   1.037   2.345  1.00  0.00     0.166 HD
ATOM     20  C   UNL     1      -1.545   4.976   4.451  1.00  0.00     0.010 A 
ATOM     21  C   UNL     1      -1.432   2.204   4.991  1.00  0.00     0.026 A 
ATOM     22  C   UNL     1      -1.583   4.515   5.765  1.00  0.00     0.001 A 
ATOM     23  C   UNL     1      -1.530   3.148   6.028  1.00  0.00     0.002 A 
BRANCH   9  24
ATOM     24  C   UNL     1      -2.290   1.637  -0.670  1.00  0.00     0.019 A 
ATOM     25  C   UNL     1      -5.808   0.279   0.044  1.00  0.00     0.044 C 
ATOM     26  C   UNL     1      -4.488   0.526  -0.625  1.00  0.00    -0.051 A 
ATOM     27  C   UNL     1      -4.261   0.022  -1.904  1.00  0.00     0.004 A 
ATOM     28  C   UNL     1      -3.511   1.339  -0.025  1.00  0.00     0.014 A 
ATOM     29  C   UNL     1      -3.068   0.298  -2.563  1.00  0.00     0.004 A 
ATOM     30  C   UNL     1      -2.080   1.105  -1.973  1.00  0.00    -0.042 A 
ATOM     31  C   UNL     1      -0.917   1.482  -2.861  1.00  0.00     0.045 C 
ENDBRANCH   9  24
ENDBRANCH   5   8
ENDBRANCH   3   4
ENDBRANCH   2   3
ENDBRANCH   1   2
BRANCH   1  32
ATOM     32  C   UNL     1      -3.927  10.830  -0.145  1.00  0.00     0.116 C 
BRANCH  32  33
ATOM     33  N   UNL     1      -4.773  10.957   1.054  1.00  0.00    -0.352 N 
ATOM     34  C   UNL     1      -6.165  10.889   1.187  1.00  0.00     0.251 C 
ATOM     35  H   UNL     1      -4.283  11.113   1.894  1.00  0.00     0.163 HD
ATOM     36  O   UNL     1      -6.728  11.438   2.111  1.00  0.00    -0.269 OA
BRANCH  34  37
ATOM     37  C   UNL     1      -6.931  10.070   0.222  1.00  0.00     0.039 A 
ATOM     38  C   UNL     1      -8.303  10.108  -0.021  1.00  0.00     0.014 A 
ATOM     39  C   UNL     1      -6.228   9.034  -0.331  1.00  0.00     0.014 A 
ATOM     40  C   UNL     1      -8.862   9.097  -0.826  1.00  0.00     0.010 A 
ATOM     41  C   UNL     1      -6.660   8.454  -1.473  1.00  0.00     0.010 A 
ATOM     42  C   UNL     1      -8.008   8.218  -1.504  1.00  0.00    -0.014 A 
BRANCH  42  43
ATOM     43  C   UNL     1      -8.394   7.221  -2.482  1.00  0.00     0.031 A 
ATOM     44  C   UNL     1      -9.006   7.821  -3.685  1.00  0.00     0.074 A 
ATOM     45  C   UNL     1      -7.927   5.949  -2.454  1.00  0.00     0.049 A 
ATOM     46  N   UNL     1     -10.269   7.956  -3.918  1.00  0.00    -0.248 NA
ATOM     47  C   UNL     1      -8.152   8.607  -4.597  1.00  0.00     0.031 C 
ATOM     48  C   UNL     1      -6.973   5.323  -1.528  1.00  0.00     0.029 A 
ATOM     49  N   UNL     1      -8.172   4.944  -3.337  1.00  0.00    -0.354 N 
ATOM     50  C   UNL     1     -10.334   8.552  -5.169  1.00  0.00     0.074 A 
ATOM     51  C   UNL     1      -9.073   9.215  -5.348  1.00  0.00     0.031 C 
ATOM     52  C   UNL     1      -6.569   4.127  -2.023  1.00  0.00     0.029 A 
ATOM     53  C   UNL     1      -7.341   3.831  -3.216  1.00  0.00     0.049 A 
ATOM     54  H   UNL     1      -8.886   4.998  -4.013  1.00  0.00     0.167 HD
ATOM     55  C   UNL     1     -11.253   8.140  -6.086  1.00  0.00     0.037 A 
ATOM     56  C   UNL     1      -7.282   2.780  -4.081  1.00  0.00     0.037 A 
ATOM     57  C   UNL     1     -12.249   7.295  -5.459  1.00  0.00     0.049 A 
ATOM     58  C   UNL     1      -8.561   2.784  -4.847  1.00  0.00     0.074 A 
ATOM     59  C   UNL     1     -13.086   7.435  -4.367  1.00  0.00     0.029 A 
ATOM     60  N   UNL     1     -12.164   5.939  -5.686  1.00  0.00    -0.354 N 
ATOM     61  N   UNL     1      -9.729   2.575  -4.298  1.00  0.00    -0.248 NA
ATOM     62  C   UNL     1      -8.584   3.548  -6.087  1.00  0.00     0.031 C 
ATOM     63  C   UNL     1     -13.036   6.175  -3.699  1.00  0.00     0.029 A 
ATOM     64  C   UNL     1     -12.267   5.304  -4.472  1.00  0.00     0.049 A 
ATOM     65  H   UNL     1     -12.050   5.502  -6.561  1.00  0.00     0.167 HD
ATOM     66  C   UNL     1     -10.560   3.537  -4.855  1.00  0.00     0.074 A 
ATOM     67  C   UNL     1      -9.808   4.075  -5.991  1.00  0.00     0.031 C 
ATOM     68  C   UNL     1     -11.633   4.037  -4.171  1.00  0.00     0.037 A 
BRANCH  55  69
ATOM     69  C   UNL     1     -11.036   8.149  -7.585  1.00  0.00     0.058 A 
ATOM     70  C   UNL     1     -12.127   7.839  -8.422  1.00  0.00     0.135 A 
ATOM     71  C   UNL     1      -9.778   8.201  -8.230  1.00  0.00     0.135 A 
ATOM     72  F   UNL     1     -13.370   7.761  -7.922  1.00  0.00    -0.206 F 
ATOM     73  C   UNL     1     -11.971   7.529  -9.772  1.00  0.00     0.059 A 
ATOM     74  C   UNL     1      -9.608   7.952  -9.586  1.00  0.00     0.059 A 
ATOM     75  F   UNL     1      -8.630   8.404  -7.576  1.00  0.00    -0.206 F 
ATOM     76  C   UNL     1     -10.703   7.578 -10.342  1.00  0.00     0.060 A 
BRANCH  76  77
ATOM     77  S   UNL     1     -10.488   7.112 -12.065  1.00  0.00     0.124 S 
ATOM     78  O   UNL     1     -10.774   5.683 -12.016  1.00  0.00    -0.237 OA
ATOM     79  O   UNL     1     -11.488   7.944 -12.726  1.00  0.00    -0.237 OA
ATOM     80  O   UNL     1      -9.101   7.472 -12.340  1.00  0.00    -0.744 OA
ENDBRANCH  76  77
ENDBRANCH  55  69
BRANCH  56  81
ATOM     81  C   UNL     1      -6.048   2.124  -4.603  1.00  0.00     0.058 A 
ATOM     82  C   UNL     1      -6.089   0.903  -5.304  1.00  0.00     0.135 A 
ATOM     83  C   UNL     1      -4.830   2.831  -4.668  1.00  0.00     0.135 A 
ATOM     84  F   UNL     1      -7.218   0.179  -5.329  1.00  0.00    -0.206 F 
ATOM     85  C   UNL     1      -4.992   0.419  -6.034  1.00  0.00     0.059 A 
ATOM     86  C   UNL     1      -3.729   2.373  -5.391  1.00  0.00     0.059 A 
ATOM     87  F   UNL     1      -4.702   4.037  -4.097  1.00  0.00    -0.206 F 
ATOM     88  C   UNL     1      -3.818   1.171  -6.082  1.00  0.00     0.060 A 
BRANCH  88  89
ATOM     89  S   UNL     1      -2.401   0.569  -7.031  1.00  0.00     0.124 S 
ATOM     90  O   UNL     1      -2.185  -0.751  -6.448  1.00  0.00    -0.237 OA
ATOM     91  O   UNL     1      -2.915   0.588  -8.396  1.00  0.00    -0.237 OA
ATOM     92  O   UNL     1      -1.355   1.546  -6.741  1.00  0.00    -0.744 OA
ENDBRANCH  88  89
ENDBRANCH  56  81
BRANCH  68  93
ATOM     93  C   UNL     1     -12.075   3.343  -2.904  1.00  0.00     0.058 A 
ATOM     94  C   UNL     1     -11.311   3.246  -1.725  1.00  0.00     0.135 A 
ATOM     95  C   UNL     1     -13.403   2.900  -2.836  1.00  0.00     0.135 A 
ATOM     96  F   UNL     1     -10.066   3.736  -1.668  1.00  0.00    -0.206 F 
ATOM     97  C   UNL     1     -11.833   2.701  -0.548  1.00  0.00     0.059 A 
ATOM     98  C   UNL     1     -13.954   2.380  -1.667  1.00  0.00     0.059 A 
ATOM     99  F   UNL     1     -14.206   3.018  -3.906  1.00  0.00    -0.206 F 
ATOM    100  C   UNL     1     -13.159   2.271  -0.529  1.00  0.00     0.060 A 
BRANCH 100 101
ATOM    101  S   UNL     1     -13.859   1.619   1.003  1.00  0.00     0.124 S 
ATOM    102  O   UNL     1     -13.157   0.348   1.145  1.00  0.00    -0.237 OA
ATOM    103  O   UNL     1     -13.509   2.649   1.977  1.00  0.00    -0.237 OA
ATOM    104  O   UNL     1     -15.287   1.512   0.709  1.00  0.00    -0.744 OA
ENDBRANCH 100 101
ENDBRANCH  68  93
ENDBRANCH  42  43
ENDBRANCH  34  37
ENDBRANCH  32  33
ENDBRANCH   1  32
TORSDOF 15
