REMARK SMILES Cc1ccc(N2CC[C@H]([NH+]3CCOCC3)[C@H](CCC(=O)NCCCCNC(=O)c3ccc(-c4c5nc(c(-c6c(F)cc(S(=O)(=O)[O-])cc6F)c6ccc([nH]6)c(-c6c(F)cc(S(=O)(=O)[O-])cc6F)c6nc(c(-c7c(F)cc(S(=O)(=O)[O-])cc7F)c7ccc4[nH]7)C=C6)C=C5)cc3)C2)nc1
REMARK SMILES IDX 23 1 22 2 21 3 19 4 20 5 18 7 17 8 16 9 6 10 7 11 95 12 8 13
REMARK SMILES IDX 9 14 5 15 1 16 2 17 3 18 97 19 4 20 96 21 10 22 11 23 15 24
REMARK SMILES IDX 12 26 14 27 13 28 24 29 25 30 26 31 27 32 28 34 29 35 30 36
REMARK SMILES IDX 94 37 31 38 93 39 32 40 33 41 34 42 87 43 35 44 92 45 86 46
REMARK SMILES IDX 88 47 36 48 91 49 85 50 84 51 37 53 71 54 50 55 70 56 51 57
REMARK SMILES IDX 54 58 69 59 89 60 52 61 53 62 68 64 90 65 55 66 38 67 39 68
REMARK SMILES IDX 48 69 40 70 41 71 47 72 49 73 42 74 43 75 44 76 45 77 46 78
REMARK SMILES IDX 72 79 73 80 82 81 74 82 75 83 81 84 83 85 76 86 77 87 78 88
REMARK SMILES IDX 79 89 80 90 56 91 57 92 66 93 58 94 59 95 65 96 67 97 60 98
REMARK SMILES IDX 61 99 62 100 63 101 64 102
REMARK H PARENT 21 6 10 25 26 33 88 52 54 63
REMARK Flexibility Score: inf
ROOT
ATOM      1  C   UNL     1      -6.819   1.326  -3.005  1.00  0.00     0.023 C 
ENDROOT
BRANCH   1   2
ATOM      2  C   UNL     1      -7.058   0.043  -3.812  1.00  0.00     0.116 C 
BRANCH   2   3
ATOM      3  N   UNL     1      -6.059  -0.071  -4.859  1.00  0.00    -0.356 N 
ATOM      4  C   UNL     1      -4.869  -0.738  -4.857  1.00  0.00     0.220 C 
ATOM      5  O   UNL     1      -4.076  -0.528  -5.777  1.00  0.00    -0.275 OA
ATOM      6  H   UNL     1      -6.271   0.404  -5.695  1.00  0.00     0.163 HD
BRANCH   4   7
ATOM      7  C   UNL     1      -4.555  -1.760  -3.776  1.00  0.00     0.100 C 
BRANCH   7   8
ATOM      8  C   UNL     1      -3.706  -1.249  -2.593  1.00  0.00     0.021 C 
BRANCH   8   9
ATOM      9  C   UNL     1      -4.520  -0.600  -1.453  1.00  0.00     0.067 C 
ATOM     10  N   UNL     1      -2.936   0.185   0.302  1.00  0.00    -0.356 N 
ATOM     11  C   UNL     1      -3.546  -0.626   1.336  1.00  0.00     0.124 C 
ATOM     12  C   UNL     1      -3.764   0.598  -0.819  1.00  0.00     0.127 C 
ATOM     13  C   UNL     1      -4.150  -1.887   0.732  1.00  0.00     0.087 C 
ATOM     14  C   UNL     1      -5.173  -1.492  -0.336  1.00  0.00     0.190 C 
BRANCH  10  15
ATOM     15  C   UNL     1      -1.568   0.096   0.150  1.00  0.00     0.128 A 
ATOM     16  C   UNL     1       2.675  -0.213  -0.051  1.00  0.00     0.046 C 
ATOM     17  C   UNL     1       1.192  -0.060   0.017  1.00  0.00    -0.033 A 
ATOM     18  C   UNL     1       0.565   1.163  -0.196  1.00  0.00     0.009 A 
ATOM     19  C   UNL     1       0.377  -1.152   0.274  1.00  0.00     0.117 A 
ATOM     20  C   UNL     1      -0.825   1.238  -0.140  1.00  0.00     0.047 A 
ATOM     21  N   UNL     1      -0.969  -1.094   0.365  1.00  0.00    -0.239 NA
ENDBRANCH  10  15
BRANCH  14  22
ATOM     22  N   UNL     1      -6.090  -2.555  -0.795  1.00  0.00    -0.328 N 
ATOM     23  C   UNL     1      -7.141  -2.914   0.190  1.00  0.00     0.291 C 
ATOM     24  C   UNL     1      -5.520  -3.784  -1.367  1.00  0.00     0.291 C 
ATOM     25  H   UNL     1      -6.500  -2.068  -1.591  1.00  0.00     0.348 HD
ATOM     26  C   UNL     1      -6.830  -4.108   1.114  1.00  0.00     0.221 C 
ATOM     27  C   UNL     1      -5.245  -4.936  -0.396  1.00  0.00     0.221 C 
ATOM     28  O   UNL     1      -6.405  -5.255   0.375  1.00  0.00    -0.370 OA
ENDBRANCH  14  22
ENDBRANCH   8   9
ENDBRANCH   7   8
ENDBRANCH   4   7
ENDBRANCH   2   3
ENDBRANCH   1   2
BRANCH   1  29
ATOM     29  C   UNL     1      -7.660   2.505  -3.455  1.00  0.00     0.023 C 
BRANCH  29  30
ATOM     30  C   UNL     1      -9.105   2.389  -3.001  1.00  0.00     0.116 C 
BRANCH  30  31
ATOM     31  N   UNL     1      -9.269   2.527  -1.554  1.00  0.00    -0.352 N 
ATOM     32  C   UNL     1     -10.197   3.288  -0.873  1.00  0.00     0.251 C 
ATOM     33  H   UNL     1      -8.639   2.013  -0.998  1.00  0.00     0.163 HD
ATOM     34  O   UNL     1     -10.174   3.382   0.341  1.00  0.00    -0.269 OA
BRANCH  32  35
ATOM     35  C   UNL     1     -11.188   4.029  -1.680  1.00  0.00     0.039 A 
ATOM     36  C   UNL     1     -11.222   5.421  -1.594  1.00  0.00     0.014 A 
ATOM     37  C   UNL     1     -11.925   3.347  -2.650  1.00  0.00     0.014 A 
ATOM     38  C   UNL     1     -11.913   6.143  -2.567  1.00  0.00     0.010 A 
ATOM     39  C   UNL     1     -12.526   4.071  -3.670  1.00  0.00     0.010 A 
ATOM     40  C   UNL     1     -12.510   5.475  -3.650  1.00  0.00    -0.014 A 
BRANCH  40  41
ATOM     41  C   UNL     1     -13.095   6.215  -4.796  1.00  0.00     0.031 A 
ATOM     42  C   UNL     1     -14.548   6.028  -5.136  1.00  0.00     0.074 A 
ATOM     43  C   UNL     1     -12.301   6.961  -5.592  1.00  0.00     0.049 A 
ATOM     44  N   UNL     1     -15.216   6.469  -6.168  1.00  0.00    -0.248 NA
ATOM     45  C   UNL     1     -15.342   5.202  -4.212  1.00  0.00     0.031 C 
ATOM     46  C   UNL     1     -10.862   7.166  -5.406  1.00  0.00     0.029 A 
ATOM     47  N   UNL     1     -12.589   7.673  -6.730  1.00  0.00    -0.354 N 
ATOM     48  C   UNL     1     -16.499   5.952  -6.033  1.00  0.00     0.074 A 
ATOM     49  C   UNL     1     -16.500   5.122  -4.849  1.00  0.00     0.031 C 
ATOM     50  C   UNL     1     -10.399   7.967  -6.380  1.00  0.00     0.029 A 
ATOM     51  C   UNL     1     -11.496   8.299  -7.284  1.00  0.00     0.049 A 
ATOM     52  H   UNL     1     -13.493   7.731  -7.114  1.00  0.00     0.167 HD
ATOM     53  C   UNL     1     -17.584   6.171  -6.811  1.00  0.00     0.037 A 
ATOM     54  C   UNL     1     -11.387   9.046  -8.400  1.00  0.00     0.037 A 
ATOM     55  C   UNL     1     -17.588   7.038  -7.958  1.00  0.00     0.049 A 
ATOM     56  C   UNL     1     -12.611   9.290  -9.240  1.00  0.00     0.074 A 
ATOM     57  C   UNL     1     -18.657   7.400  -8.757  1.00  0.00     0.029 A 
ATOM     58  N   UNL     1     -16.469   7.678  -8.468  1.00  0.00    -0.354 N 
ATOM     59  N   UNL     1     -13.835   8.855  -9.055  1.00  0.00    -0.248 NA
ATOM     60  C   UNL     1     -12.442  10.120 -10.441  1.00  0.00     0.031 C 
ATOM     61  C   UNL     1     -18.178   8.232  -9.774  1.00  0.00     0.029 A 
ATOM     62  C   UNL     1     -16.817   8.416  -9.586  1.00  0.00     0.049 A 
ATOM     63  H   UNL     1     -15.562   7.617  -8.091  1.00  0.00     0.167 HD
ATOM     64  C   UNL     1     -14.584   9.369 -10.106  1.00  0.00     0.074 A 
ATOM     65  C   UNL     1     -13.680  10.160 -10.916  1.00  0.00     0.031 C 
ATOM     66  C   UNL     1     -15.901   9.199 -10.378  1.00  0.00     0.037 A 
BRANCH  53  67
ATOM     67  C   UNL     1     -18.860   5.474  -6.431  1.00  0.00     0.058 A 
ATOM     68  C   UNL     1     -19.589   5.846  -5.291  1.00  0.00     0.135 A 
ATOM     69  C   UNL     1     -19.369   4.435  -7.226  1.00  0.00     0.135 A 
ATOM     70  F   UNL     1     -19.135   6.821  -4.487  1.00  0.00    -0.206 F 
ATOM     71  C   UNL     1     -20.761   5.191  -4.932  1.00  0.00     0.059 A 
ATOM     72  C   UNL     1     -20.555   3.783  -6.901  1.00  0.00     0.059 A 
ATOM     73  F   UNL     1     -18.709   4.038  -8.325  1.00  0.00    -0.206 F 
ATOM     74  C   UNL     1     -21.235   4.158  -5.743  1.00  0.00     0.060 A 
BRANCH  74  75
ATOM     75  S   UNL     1     -22.757   3.316  -5.263  1.00  0.00     0.124 S 
ATOM     76  O   UNL     1     -22.293   2.486  -4.156  1.00  0.00    -0.237 OA
ATOM     77  O   UNL     1     -23.629   4.429  -4.898  1.00  0.00    -0.237 OA
ATOM     78  O   UNL     1     -23.141   2.594  -6.471  1.00  0.00    -0.744 OA
ENDBRANCH  74  75
ENDBRANCH  53  67
BRANCH  54  79
ATOM     79  C   UNL     1     -10.073   9.630  -8.781  1.00  0.00     0.058 A 
ATOM     80  C   UNL     1      -9.835  11.006  -8.653  1.00  0.00     0.135 A 
ATOM     81  C   UNL     1      -9.027   8.827  -9.261  1.00  0.00     0.135 A 
ATOM     82  F   UNL     1     -10.807  11.816  -8.206  1.00  0.00    -0.206 F 
ATOM     83  C   UNL     1      -8.610  11.569  -8.996  1.00  0.00     0.059 A 
ATOM     84  C   UNL     1      -7.785   9.363  -9.591  1.00  0.00     0.059 A 
ATOM     85  F   UNL     1      -9.199   7.502  -9.386  1.00  0.00    -0.206 F 
ATOM     86  C   UNL     1      -7.589  10.738  -9.462  1.00  0.00     0.060 A 
BRANCH  86  87
ATOM     87  S   UNL     1      -5.984  11.470  -9.850  1.00  0.00     0.124 S 
ATOM     88  O   UNL     1      -6.263  12.133 -11.119  1.00  0.00    -0.237 OA
ATOM     89  O   UNL     1      -5.762  12.349  -8.706  1.00  0.00    -0.237 OA
ATOM     90  O   UNL     1      -5.098  10.313  -9.921  1.00  0.00    -0.744 OA
ENDBRANCH  86  87
ENDBRANCH  54  79
BRANCH  66  91
ATOM     91  C   UNL     1     -16.453   9.886 -11.594  1.00  0.00     0.058 A 
ATOM     92  C   UNL     1     -16.209   9.393 -12.884  1.00  0.00     0.135 A 
ATOM     93  C   UNL     1     -17.301  10.997 -11.461  1.00  0.00     0.135 A 
ATOM     94  F   UNL     1     -15.398   8.338 -13.062  1.00  0.00    -0.206 F 
ATOM     95  C   UNL     1     -16.784   9.982 -14.005  1.00  0.00     0.059 A 
ATOM     96  C   UNL     1     -17.904  11.588 -12.567  1.00  0.00     0.059 A 
ATOM     97  F   UNL     1     -17.571  11.501 -10.247  1.00  0.00    -0.206 F 
ATOM     98  C   UNL     1     -17.635  11.075 -13.835  1.00  0.00     0.060 A 
BRANCH  98  99
ATOM     99  S   UNL     1     -18.426  11.790 -15.293  1.00  0.00     0.124 S 
ATOM    100  O   UNL     1     -17.318  12.520 -15.900  1.00  0.00    -0.237 OA
ATOM    101  O   UNL     1     -18.877  10.606 -16.017  1.00  0.00    -0.237 OA
ATOM    102  O   UNL     1     -19.490  12.616 -14.731  1.00  0.00    -0.744 OA
ENDBRANCH  98  99
ENDBRANCH  66  91
ENDBRANCH  40  41
ENDBRANCH  32  35
ENDBRANCH  30  31
ENDBRANCH  29  30
ENDBRANCH   1  29
TORSDOF 18
