REMARK SMILES O=C(NCCCCNC(=O)[C@@H]1CCC[N@@H+](Cc2ccc(F)cc2Cl)C1)c1ccc(-c2c3nc(c(-c4c(F)cc(S(=O)(=O)[O-])cc4F)c4ccc([nH]4)c(-c4c(F)cc(S(=O)(=O)[O-])cc4F)c4nc(c(-c5c(F)cc(S(=O)(=O)[O-])cc5F)c5ccc2[nH]5)C=C4)C=C3)cc1
REMARK SMILES IDX 5 1 4 2 3 3 1 4 2 5 26 7 27 8 91 9 28 10 90 11 29 12 30 13
REMARK SMILES IDX 31 14 84 15 32 16 89 17 83 18 85 19 33 20 88 21 82 22 81 23
REMARK SMILES IDX 34 25 68 26 47 27 67 28 48 29 51 30 66 31 86 32 49 33 50 34
REMARK SMILES IDX 65 36 87 37 52 38 35 39 36 40 45 41 37 42 38 43 44 44 46 45
REMARK SMILES IDX 39 46 40 47 41 48 42 49 43 50 69 51 70 52 79 53 71 54 72 55
REMARK SMILES IDX 78 56 80 57 73 58 74 59 75 60 76 61 77 62 53 63 54 64 63 65
REMARK SMILES IDX 55 66 56 67 62 68 64 69 57 70 58 71 59 72 60 73 61 74 6 75
REMARK SMILES IDX 7 76 8 77 9 78 10 80 11 81 12 82 25 83 13 84 15 85 14 86
REMARK SMILES IDX 16 88 17 89 18 90 23 91 19 92 22 93 24 94 20 95 21 96
REMARK H PARENT 3 6 85 24 51 35 8 79 15 87
REMARK Flexibility Score: inf
ROOT
ATOM      1  C   UNL     1       5.266  -0.859  -2.334  1.00  0.00     0.023 C 
ENDROOT
BRANCH   1   2
ATOM      2  C   UNL     1       4.712  -0.447  -0.976  1.00  0.00     0.116 C 
BRANCH   2   3
ATOM      3  N   UNL     1       3.288  -0.133  -0.964  1.00  0.00    -0.352 N 
ATOM      4  O   UNL     1       1.250   0.067   0.022  1.00  0.00    -0.269 OA
ATOM      5  C   UNL     1       2.448  -0.152   0.132  1.00  0.00     0.251 C 
ATOM      6  H   UNL     1       2.884   0.119  -1.825  1.00  0.00     0.163 HD
BRANCH   5   7
ATOM      7  C   UNL     1       3.039  -0.502   1.442  1.00  0.00     0.039 A 
ATOM      8  C   UNL     1       4.158   0.196   1.897  1.00  0.00     0.014 A 
ATOM      9  C   UNL     1       2.560  -1.616   2.135  1.00  0.00     0.014 A 
ATOM     10  C   UNL     1       4.907  -0.332   2.938  1.00  0.00     0.010 A 
ATOM     11  C   UNL     1       3.268  -2.091   3.243  1.00  0.00     0.010 A 
ATOM     12  C   UNL     1       4.476  -1.483   3.620  1.00  0.00    -0.014 A 
BRANCH  12  13
ATOM     13  C   UNL     1       5.311  -2.007   4.731  1.00  0.00     0.031 A 
ATOM     14  C   UNL     1       5.987  -3.349   4.638  1.00  0.00     0.074 A 
ATOM     15  C   UNL     1       5.520  -1.213   5.799  1.00  0.00     0.049 A 
ATOM     16  N   UNL     1       6.783  -3.927   5.502  1.00  0.00    -0.248 NA
ATOM     17  C   UNL     1       5.735  -4.150   3.430  1.00  0.00     0.031 C 
ATOM     18  C   UNL     1       4.908   0.104   5.999  1.00  0.00     0.029 A 
ATOM     19  N   UNL     1       6.327  -1.373   6.894  1.00  0.00    -0.354 N 
ATOM     20  C   UNL     1       7.108  -5.164   4.957  1.00  0.00     0.074 A 
ATOM     21  C   UNL     1       6.412  -5.261   3.692  1.00  0.00     0.031 C 
ATOM     22  C   UNL     1       5.410   0.658   7.112  1.00  0.00     0.029 A 
ATOM     23  C   UNL     1       6.332  -0.286   7.734  1.00  0.00     0.049 A 
ATOM     24  H   UNL     1       6.854  -2.188   7.062  1.00  0.00     0.167 HD
ATOM     25  C   UNL     1       7.916  -6.127   5.466  1.00  0.00     0.037 A 
ATOM     26  C   UNL     1       6.996  -0.071   8.883  1.00  0.00     0.037 A 
ATOM     27  C   UNL     1       8.624  -6.013   6.716  1.00  0.00     0.049 A 
ATOM     28  C   UNL     1       7.912  -1.137   9.404  1.00  0.00     0.074 A 
ATOM     29  C   UNL     1       9.455  -6.938   7.326  1.00  0.00     0.029 A 
ATOM     30  N   UNL     1       8.596  -4.899   7.543  1.00  0.00    -0.354 N 
ATOM     31  N   UNL     1       8.183  -2.311   8.885  1.00  0.00    -0.248 NA
ATOM     32  C   UNL     1       8.606  -0.856  10.666  1.00  0.00     0.031 C 
ATOM     33  C   UNL     1       9.916  -6.389   8.529  1.00  0.00     0.029 A 
ATOM     34  C   UNL     1       9.395  -5.112   8.655  1.00  0.00     0.049 A 
ATOM     35  H   UNL     1       8.084  -4.077   7.365  1.00  0.00     0.167 HD
ATOM     36  C   UNL     1       9.070  -2.915   9.765  1.00  0.00     0.074 A 
ATOM     37  C   UNL     1       9.319  -1.962  10.828  1.00  0.00     0.031 C 
ATOM     38  C   UNL     1       9.617  -4.154   9.707  1.00  0.00     0.037 A 
BRANCH  25  39
ATOM     39  C   UNL     1       8.074  -7.398   4.678  1.00  0.00     0.058 A 
ATOM     40  C   UNL     1       8.876  -7.455   3.527  1.00  0.00     0.135 A 
ATOM     41  C   UNL     1       7.460  -8.586   5.108  1.00  0.00     0.135 A 
ATOM     42  F   UNL     1       9.472  -6.346   3.063  1.00  0.00    -0.206 F 
ATOM     43  C   UNL     1       9.053  -8.643   2.822  1.00  0.00     0.059 A 
ATOM     44  C   UNL     1       7.638  -9.788   4.429  1.00  0.00     0.059 A 
ATOM     45  F   UNL     1       6.682  -8.586   6.202  1.00  0.00    -0.206 F 
ATOM     46  C   UNL     1       8.428  -9.804   3.280  1.00  0.00     0.060 A 
BRANCH  46  47
ATOM     47  S   UNL     1       8.675 -11.341   2.365  1.00  0.00     0.124 S 
ATOM     48  O   UNL     1       7.797 -11.139   1.216  1.00  0.00    -0.237 OA
ATOM     49  O   UNL     1      10.106 -11.312   2.079  1.00  0.00    -0.237 OA
ATOM     50  O   UNL     1       8.249 -12.370   3.308  1.00  0.00    -0.744 OA
ENDBRANCH  46  47
ENDBRANCH  25  39
BRANCH  26  51
ATOM     51  C   UNL     1       6.798   1.205   9.614  1.00  0.00     0.058 A 
ATOM     52  C   UNL     1       7.798   2.187   9.642  1.00  0.00     0.135 A 
ATOM     53  C   UNL     1       5.582   1.485  10.255  1.00  0.00     0.135 A 
ATOM     54  F   UNL     1       8.977   1.962   9.043  1.00  0.00    -0.206 F 
ATOM     55  C   UNL     1       7.601   3.404  10.287  1.00  0.00     0.059 A 
ATOM     56  C   UNL     1       5.353   2.702  10.885  1.00  0.00     0.059 A 
ATOM     57  F   UNL     1       4.588   0.583  10.235  1.00  0.00    -0.206 F 
ATOM     58  C   UNL     1       6.373   3.652  10.904  1.00  0.00     0.060 A 
BRANCH  58  59
ATOM     59  S   UNL     1       6.088   5.259  11.678  1.00  0.00     0.124 S 
ATOM     60  O   UNL     1       6.705   5.066  12.984  1.00  0.00    -0.237 OA
ATOM     61  O   UNL     1       6.779   6.172  10.772  1.00  0.00    -0.237 OA
ATOM     62  O   UNL     1       4.632   5.372  11.674  1.00  0.00    -0.744 OA
ENDBRANCH  58  59
ENDBRANCH  26  51
BRANCH  38  63
ATOM     63  C   UNL     1      10.530  -4.537  10.834  1.00  0.00     0.058 A 
ATOM     64  C   UNL     1      10.021  -4.891  12.093  1.00  0.00     0.135 A 
ATOM     65  C   UNL     1      11.921  -4.551  10.655  1.00  0.00     0.135 A 
ATOM     66  F   UNL     1       8.696  -4.884  12.312  1.00  0.00    -0.206 F 
ATOM     67  C   UNL     1      10.863  -5.215  13.149  1.00  0.00     0.059 A 
ATOM     68  C   UNL     1      12.782  -4.891  11.694  1.00  0.00     0.059 A 
ATOM     69  F   UNL     1      12.454  -4.226   9.467  1.00  0.00    -0.206 F 
ATOM     70  C   UNL     1      12.244  -5.204  12.942  1.00  0.00     0.060 A 
BRANCH  70  71
ATOM     71  S   UNL     1      13.334  -5.624  14.318  1.00  0.00     0.124 S 
ATOM     72  O   UNL     1      13.360  -4.370  15.063  1.00  0.00    -0.237 OA
ATOM     73  O   UNL     1      12.626  -6.728  14.960  1.00  0.00    -0.237 OA
ATOM     74  O   UNL     1      14.583  -5.990  13.658  1.00  0.00    -0.744 OA
ENDBRANCH  70  71
ENDBRANCH  38  63
ENDBRANCH  12  13
ENDBRANCH   5   7
ENDBRANCH   2   3
ENDBRANCH   1   2
BRANCH   1  75
ATOM     75  C   UNL     1       5.067   0.166  -3.446  1.00  0.00     0.023 C 
BRANCH  75  76
ATOM     76  C   UNL     1       5.716   1.528  -3.207  1.00  0.00     0.116 C 
BRANCH  76  77
ATOM     77  N   UNL     1       7.019   1.653  -3.822  1.00  0.00    -0.356 N 
ATOM     78  C   UNL     1       7.394   2.186  -5.011  1.00  0.00     0.228 C 
ATOM     79  H   UNL     1       7.760   1.290  -3.286  1.00  0.00     0.163 HD
ATOM     80  O   UNL     1       8.609   2.213  -5.244  1.00  0.00    -0.275 OA
BRANCH  78  81
ATOM     81  C   UNL     1       6.423   2.742  -6.058  1.00  0.00     0.133 C 
ATOM     82  C   UNL     1       5.802   4.107  -5.743  1.00  0.00     0.025 C 
ATOM     83  C   UNL     1       5.455   1.713  -6.644  1.00  0.00     0.276 C 
ATOM     84  C   UNL     1       4.330   4.094  -5.336  1.00  0.00     0.062 C 
ATOM     85  N   UNL     1       4.137   1.718  -6.013  1.00  0.00    -0.330 N 
ATOM     86  C   UNL     1       3.497   3.030  -6.048  1.00  0.00     0.262 C 
ATOM     87  H   UNL     1       4.298   1.538  -5.021  1.00  0.00     0.348 HD
BRANCH  85  88
ATOM     88  C   UNL     1       3.277   0.594  -6.427  1.00  0.00     0.300 C 
BRANCH  88  89
ATOM     89  C   UNL     1       2.401   0.816  -7.642  1.00  0.00     0.025 A 
ATOM     90  C   UNL     1       2.987   0.799  -8.923  1.00  0.00     0.014 A 
ATOM     91  C   UNL     1       1.018   1.066  -7.544  1.00  0.00     0.052 A 
ATOM     92  C   UNL     1       2.227   1.069 -10.060  1.00  0.00     0.040 A 
ATOM     93  C   UNL     1       0.258   1.329  -8.684  1.00  0.00     0.060 A 
ATOM     94  Cl  UNL     1       0.178   1.069  -6.032  1.00  0.00    -0.084 Cl
ATOM     95  C   UNL     1       0.872   1.338  -9.928  1.00  0.00     0.124 A 
ATOM     96  F   UNL     1       0.144   1.610 -11.019  1.00  0.00    -0.207 F 
ENDBRANCH  88  89
ENDBRANCH  85  88
ENDBRANCH  78  81
ENDBRANCH  76  77
ENDBRANCH  75  76
ENDBRANCH   1  75
TORSDOF 16
