REMARK SMILES N#Cc1ccc(Sc2csc(C(=O)NCCCCNC(=O)c3ccc(-c4c5nc(c(-c6c(F)cc(S(=O)(=O)[O-])cc6F)c6ccc([nH]6)c(-c6c(F)cc(S(=O)(=O)[O-])cc6F)c6nc(c(-c7c(F)cc(S(=O)(=O)[O-])cc7F)c7ccc4[nH]7)C=C6)C=C5)cc3)c2)c(F)c1
REMARK SMILES IDX 16 1 15 2 14 3 12 4 13 5 11 7 8 8 9 9 88 10 10 11 7 12 6 13
REMARK SMILES IDX 3 14 4 15 91 16 5 17 89 18 90 19 2 20 1 21 17 22 18 23 19 24
REMARK SMILES IDX 20 25 21 27 22 28 23 29 87 30 24 31 86 32 25 33 26 34 27 35
REMARK SMILES IDX 80 36 28 37 85 38 79 39 81 40 29 41 84 42 78 43 77 44 30 46
REMARK SMILES IDX 64 47 43 48 63 49 44 50 47 51 62 52 82 53 45 54 46 55 61 57
REMARK SMILES IDX 83 58 48 59 31 60 32 61 41 62 33 63 34 64 40 65 42 66 35 67
REMARK SMILES IDX 36 68 37 69 38 70 39 71 65 72 66 73 75 74 67 75 68 76 74 77
REMARK SMILES IDX 76 78 69 79 70 80 71 81 72 82 73 83 49 84 50 85 59 86 51 87
REMARK SMILES IDX 52 88 58 89 60 90 53 91 54 92 55 93 56 94 57 95
REMARK H PARENT 14 6 19 26 81 45 47 56
REMARK Flexibility Score: inf
ROOT
ATOM      1  C   UNL     1       4.794   4.570  -4.216  1.00  0.00     0.023 C 
ENDROOT
BRANCH   1   2
ATOM      2  C   UNL     1       5.643   4.878  -2.982  1.00  0.00     0.116 C 
BRANCH   2   3
ATOM      3  N   UNL     1       5.191   6.095  -2.342  1.00  0.00    -0.351 N 
ATOM      4  C   UNL     1       4.427   6.332  -1.225  1.00  0.00     0.261 C 
ATOM      5  O   UNL     1       4.251   7.524  -0.961  1.00  0.00    -0.268 OA
ATOM      6  H   UNL     1       5.490   6.915  -2.797  1.00  0.00     0.163 HD
BRANCH   4   7
ATOM      7  C   UNL     1       3.903   5.248  -0.401  1.00  0.00     0.093 A 
ATOM      8  C   UNL     1       3.343   3.188   0.552  1.00  0.00     0.024 A 
ATOM      9  C   UNL     1       3.056   4.029   1.598  1.00  0.00     0.081 A 
ATOM     10  C   UNL     1       3.738   3.891  -0.618  1.00  0.00     0.041 A 
ATOM     11  S   UNL     1       3.327   5.661   1.179  1.00  0.00    -0.137 S 
BRANCH   8  12
ATOM     12  S   UNL     1       3.306   1.441   0.621  1.00  0.00    -0.086 SA
BRANCH  12  13
ATOM     13  C   UNL     1       1.624   0.976   0.265  1.00  0.00     0.048 A 
ATOM     14  C   UNL     1      -1.019   0.063  -0.096  1.00  0.00     0.055 A 
ATOM     15  C   UNL     1      -0.747   1.432  -0.026  1.00  0.00     0.021 A 
ATOM     16  C   UNL     1       0.032  -0.851  -0.035  1.00  0.00     0.060 A 
ATOM     17  C   UNL     1       0.566   1.885   0.150  1.00  0.00     0.020 A 
ATOM     18  C   UNL     1       1.334  -0.391   0.143  1.00  0.00     0.138 A 
ATOM     19  F   UNL     1       2.314  -1.306   0.219  1.00  0.00    -0.206 F 
BRANCH  14  20
ATOM     20  C   UNL     1      -2.370  -0.401  -0.192  1.00  0.00     0.099 C 
ATOM     21  N   UNL     1      -3.467  -0.781  -0.239  1.00  0.00    -0.192 NA
ENDBRANCH  14  20
ENDBRANCH  12  13
ENDBRANCH   8  12
ENDBRANCH   4   7
ENDBRANCH   2   3
ENDBRANCH   1   2
BRANCH   1  22
ATOM     22  C   UNL     1       5.188   5.398  -5.442  1.00  0.00     0.023 C 
BRANCH  22  23
ATOM     23  C   UNL     1       6.630   5.206  -5.896  1.00  0.00     0.116 C 
BRANCH  23  24
ATOM     24  N   UNL     1       6.944   3.825  -6.242  1.00  0.00    -0.352 N 
ATOM     25  C   UNL     1       7.722   3.382  -7.287  1.00  0.00     0.251 C 
ATOM     26  H   UNL     1       6.556   3.131  -5.661  1.00  0.00     0.163 HD
ATOM     27  O   UNL     1       7.804   2.189  -7.554  1.00  0.00    -0.269 OA
BRANCH  25  28
ATOM     28  C   UNL     1       8.425   4.395  -8.098  1.00  0.00     0.039 A 
ATOM     29  C   UNL     1       8.202   4.448  -9.475  1.00  0.00     0.014 A 
ATOM     30  C   UNL     1       9.195   5.367  -7.456  1.00  0.00     0.014 A 
ATOM     31  C   UNL     1       8.697   5.532 -10.203  1.00  0.00     0.010 A 
ATOM     32  C   UNL     1       9.602   6.487  -8.166  1.00  0.00     0.010 A 
ATOM     33  C   UNL     1       9.363   6.580  -9.547  1.00  0.00    -0.014 A 
BRANCH  33  34
ATOM     34  C   UNL     1       9.854   7.782 -10.267  1.00  0.00     0.031 A 
ATOM     35  C   UNL     1      11.326   8.090 -10.250  1.00  0.00     0.074 A 
ATOM     36  C   UNL     1       8.986   8.639 -10.841  1.00  0.00     0.049 A 
ATOM     37  N   UNL     1      11.952   9.162 -10.656  1.00  0.00    -0.248 NA
ATOM     38  C   UNL     1      12.207   7.067  -9.660  1.00  0.00     0.031 C 
ATOM     39  C   UNL     1       7.534   8.462 -10.905  1.00  0.00     0.029 A 
ATOM     40  N   UNL     1       9.198   9.846 -11.461  1.00  0.00    -0.354 N 
ATOM     41  C   UNL     1      13.292   8.953 -10.352  1.00  0.00     0.074 A 
ATOM     42  C   UNL     1      13.380   7.682  -9.670  1.00  0.00     0.031 C 
ATOM     43  C   UNL     1       6.990   9.513 -11.540  1.00  0.00     0.029 A 
ATOM     44  C   UNL     1       8.043  10.467 -11.876  1.00  0.00     0.049 A 
ATOM     45  H   UNL     1      10.095  10.231 -11.595  1.00  0.00     0.167 HD
ATOM     46  C   UNL     1      14.356   9.741 -10.635  1.00  0.00     0.037 A 
ATOM     47  C   UNL     1       7.852  11.678 -12.439  1.00  0.00     0.037 A 
ATOM     48  C   UNL     1      14.257  10.997 -11.328  1.00  0.00     0.049 A 
ATOM     49  C   UNL     1       9.046  12.558 -12.706  1.00  0.00     0.074 A 
ATOM     50  C   UNL     1      15.278  11.853 -11.701  1.00  0.00     0.029 A 
ATOM     51  N   UNL     1      13.070  11.582 -11.746  1.00  0.00    -0.354 N 
ATOM     52  N   UNL     1      10.313  12.329 -12.449  1.00  0.00    -0.248 NA
ATOM     53  C   UNL     1       8.791  13.858 -13.342  1.00  0.00     0.031 C 
ATOM     54  C   UNL     1      14.704  12.986 -12.282  1.00  0.00     0.029 A 
ATOM     55  C   UNL     1      13.333  12.799 -12.351  1.00  0.00     0.049 A 
ATOM     56  H   UNL     1      12.175  11.190 -11.630  1.00  0.00     0.167 HD
ATOM     57  C   UNL     1      11.007  13.432 -12.938  1.00  0.00     0.074 A 
ATOM     58  C   UNL     1      10.020  14.331 -13.498  1.00  0.00     0.031 C 
ATOM     59  C   UNL     1      12.341  13.671 -12.932  1.00  0.00     0.037 A 
BRANCH  46  60
ATOM     60  C   UNL     1      15.713   9.272 -10.186  1.00  0.00     0.058 A 
ATOM     61  C   UNL     1      16.328   8.137 -10.740  1.00  0.00     0.135 A 
ATOM     62  C   UNL     1      16.425   9.988  -9.209  1.00  0.00     0.135 A 
ATOM     63  F   UNL     1      15.688   7.402 -11.664  1.00  0.00    -0.206 F 
ATOM     64  C   UNL     1      17.582   7.710 -10.318  1.00  0.00     0.059 A 
ATOM     65  C   UNL     1      17.697   9.601  -8.800  1.00  0.00     0.059 A 
ATOM     66  F   UNL     1      15.886  11.079  -8.643  1.00  0.00    -0.206 F 
ATOM     67  C   UNL     1      18.261   8.451  -9.350  1.00  0.00     0.060 A 
BRANCH  67  68
ATOM     68  S   UNL     1      19.892   7.887  -8.824  1.00  0.00     0.124 S 
ATOM     69  O   UNL     1      19.556   6.669  -8.093  1.00  0.00    -0.237 OA
ATOM     70  O   UNL     1      20.578   7.694 -10.098  1.00  0.00    -0.237 OA
ATOM     71  O   UNL     1      20.388   8.991  -8.008  1.00  0.00    -0.744 OA
ENDBRANCH  67  68
ENDBRANCH  46  60
BRANCH  47  72
ATOM     72  C   UNL     1       6.478  12.129 -12.798  1.00  0.00     0.058 A 
ATOM     73  C   UNL     1       6.098  12.293 -14.139  1.00  0.00     0.135 A 
ATOM     74  C   UNL     1       5.517  12.404 -11.812  1.00  0.00     0.135 A 
ATOM     75  F   UNL     1       6.981  12.053 -15.120  1.00  0.00    -0.206 F 
ATOM     76  C   UNL     1       4.825  12.733 -14.489  1.00  0.00     0.059 A 
ATOM     77  C   UNL     1       4.228  12.813 -12.138  1.00  0.00     0.059 A 
ATOM     78  F   UNL     1       5.821  12.249 -10.514  1.00  0.00    -0.206 F 
ATOM     79  C   UNL     1       3.894  12.986 -13.481  1.00  0.00     0.060 A 
BRANCH  79  80
ATOM     80  S   UNL     1       2.232  13.512 -13.951  1.00  0.00     0.124 S 
ATOM     81  O   UNL     1       2.482  14.851 -14.470  1.00  0.00    -0.237 OA
ATOM     82  O   UNL     1       1.863  12.502 -14.939  1.00  0.00    -0.237 OA
ATOM     83  O   UNL     1       1.492  13.450 -12.695  1.00  0.00    -0.744 OA
ENDBRANCH  79  80
ENDBRANCH  47  72
BRANCH  59  84
ATOM     84  C   UNL     1      12.843  14.912 -13.622  1.00  0.00     0.058 A 
ATOM     85  C   UNL     1      12.654  16.196 -13.090  1.00  0.00     0.135 A 
ATOM     86  C   UNL     1      13.619  14.794 -14.789  1.00  0.00     0.135 A 
ATOM     87  F   UNL     1      11.915  16.368 -11.983  1.00  0.00    -0.206 F 
ATOM     88  C   UNL     1      13.211  17.320 -13.694  1.00  0.00     0.059 A 
ATOM     89  C   UNL     1      14.213  15.898 -15.388  1.00  0.00     0.059 A 
ATOM     90  F   UNL     1      13.838  13.587 -15.335  1.00  0.00    -0.206 F 
ATOM     91  C   UNL     1      14.000  17.159 -14.835  1.00  0.00     0.060 A 
BRANCH  91  92
ATOM     92  S   UNL     1      14.777  18.616 -15.563  1.00  0.00     0.124 S 
ATOM     93  O   UNL     1      13.624  19.323 -16.112  1.00  0.00    -0.237 OA
ATOM     94  O   UNL     1      15.411  19.240 -14.405  1.00  0.00    -0.237 OA
ATOM     95  O   UNL     1      15.697  18.057 -16.549  1.00  0.00    -0.744 OA
ENDBRANCH  91  92
ENDBRANCH  59  84
ENDBRANCH  33  34
ENDBRANCH  25  28
ENDBRANCH  23  24
ENDBRANCH  22  23
ENDBRANCH   1  22
TORSDOF 17
