REMARK SMILES CCC[NH+]1CCN(c2ccc(C(=O)NCCCCNC(=O)c3ccc(-c4c5nc(c(-c6c(F)cc(S(=O)(=O)[O-])cc6F)c6ccc([nH]6)c(-c6c(F)cc(S(=O)(=O)[O-])cc6F)c6nc(c(-c7c(F)cc(S(=O)(=O)[O-])cc7F)c7ccc4[nH]7)C=C6)C=C5)cc3)cc2NS(=O)(=O)CC)CC1
REMARK SMILES IDX 16 1 15 2 14 3 12 4 13 5 11 7 8 8 9 9 89 10 10 11 88 12 7 13
REMARK SMILES IDX 4 14 5 15 97 16 6 18 96 19 3 20 2 21 1 22 90 23 91 25 92 26
REMARK SMILES IDX 93 27 94 28 95 29 17 30 18 31 19 32 20 33 21 35 22 36 23 37
REMARK SMILES IDX 87 38 24 39 86 40 25 41 26 42 27 43 80 44 28 45 85 46 79 47
REMARK SMILES IDX 81 48 29 49 84 50 78 51 77 52 30 54 64 55 43 56 63 57 44 58
REMARK SMILES IDX 47 59 62 60 82 61 45 62 46 63 61 65 83 66 48 67 31 68 32 69
REMARK SMILES IDX 41 70 33 71 34 72 40 73 42 74 35 75 36 76 37 77 38 78 39 79
REMARK SMILES IDX 65 80 66 81 75 82 67 83 68 84 74 85 76 86 69 87 70 88 71 89
REMARK SMILES IDX 72 90 73 91 49 92 50 93 59 94 51 95 52 96 58 97 60 98 53 99
REMARK SMILES IDX 54 100 55 101 56 102 57 103
REMARK H PARENT 14 6 4 17 90 24 19 34 81 53 47 64
REMARK Flexibility Score: inf
ROOT
ATOM      1  C   UNL     1      -5.789  -5.452  -4.688  1.00  0.00     0.023 C 
ENDROOT
BRANCH   1   2
ATOM      2  C   UNL     1      -5.953  -4.568  -3.462  1.00  0.00     0.116 C 
BRANCH   2   3
ATOM      3  N   UNL     1      -5.777  -5.184  -2.172  1.00  0.00    -0.352 N 
ATOM      4  C   UNL     1      -5.093  -4.703  -1.071  1.00  0.00     0.251 C 
ATOM      5  O   UNL     1      -5.087  -5.383  -0.045  1.00  0.00    -0.269 OA
ATOM      6  H   UNL     1      -6.200  -6.066  -2.060  1.00  0.00     0.163 HD
BRANCH   4   7
ATOM      7  C   UNL     1      -4.265  -3.451  -1.116  1.00  0.00     0.042 A 
ATOM      8  C   UNL     1      -2.342  -1.403  -1.368  1.00  0.00     0.062 A 
ATOM      9  C   UNL     1      -2.158  -2.427  -0.440  1.00  0.00     0.029 A 
ATOM     10  C   UNL     1      -3.519  -1.414  -2.159  1.00  0.00     0.073 A 
ATOM     11  C   UNL     1      -3.090  -3.463  -0.345  1.00  0.00     0.016 A 
ATOM     12  C   UNL     1      -4.532  -2.338  -1.928  1.00  0.00     0.042 A 
BRANCH   8  13
ATOM     13  N   UNL     1      -1.380  -0.424  -1.617  1.00  0.00    -0.359 N 
ATOM     14  N   UNL     1       0.597   1.662  -2.162  1.00  0.00    -0.332 N 
ATOM     15  C   UNL     1       0.859   0.239  -2.423  1.00  0.00     0.283 C 
ATOM     16  C   UNL     1      -0.853   1.935  -2.160  1.00  0.00     0.283 C 
ATOM     17  H   UNL     1       1.006   2.159  -2.953  1.00  0.00     0.348 HD
ATOM     18  C   UNL     1       0.039  -0.774  -1.589  1.00  0.00     0.178 C 
ATOM     19  C   UNL     1      -1.725   0.981  -1.312  1.00  0.00     0.178 C 
BRANCH  14  20
ATOM     20  C   UNL     1       1.342   2.281  -1.064  1.00  0.00     0.262 C 
BRANCH  20  21
ATOM     21  C   UNL     1       1.256   1.698   0.353  1.00  0.00     0.058 C 
ATOM     22  C   UNL     1       2.292   0.625   0.657  1.00  0.00     0.010 C 
ENDBRANCH  20  21
ENDBRANCH  14  20
ENDBRANCH   8  13
BRANCH  10  23
ATOM     23  N   UNL     1      -3.446  -0.532  -3.276  1.00  0.00    -0.281 N 
ATOM     24  H   UNL     1      -2.648   0.045  -3.281  1.00  0.00     0.180 HD
BRANCH  23  25
ATOM     25  S   UNL     1      -4.441  -0.301  -4.551  1.00  0.00     0.232 S 
ATOM     26  O   UNL     1      -5.760   0.032  -4.053  1.00  0.00    -0.207 OA
ATOM     27  O   UNL     1      -3.720   0.608  -5.416  1.00  0.00    -0.207 OA
BRANCH  25  28
ATOM     28  C   UNL     1      -4.539  -1.864  -5.408  1.00  0.00     0.156 C 
ATOM     29  C   UNL     1      -3.278  -2.709  -5.381  1.00  0.00     0.023 C 
ENDBRANCH  25  28
ENDBRANCH  23  25
ENDBRANCH  10  23
ENDBRANCH   4   7
ENDBRANCH   2   3
ENDBRANCH   1   2
BRANCH   1  30
ATOM     30  C   UNL     1      -6.999  -6.272  -5.087  1.00  0.00     0.023 C 
BRANCH  30  31
ATOM     31  C   UNL     1      -8.307  -5.503  -5.207  1.00  0.00     0.116 C 
BRANCH  31  32
ATOM     32  N   UNL     1      -8.286  -4.403  -6.169  1.00  0.00    -0.352 N 
ATOM     33  C   UNL     1      -9.202  -4.117  -7.162  1.00  0.00     0.251 C 
ATOM     34  H   UNL     1      -7.520  -3.788  -6.100  1.00  0.00     0.163 HD
ATOM     35  O   UNL     1      -9.009  -3.190  -7.941  1.00  0.00    -0.269 OA
BRANCH  33  36
ATOM     36  C   UNL     1     -10.389  -4.987  -7.299  1.00  0.00     0.039 A 
ATOM     37  C   UNL     1     -10.662  -5.581  -8.532  1.00  0.00     0.014 A 
ATOM     38  C   UNL     1     -11.137  -5.321  -6.169  1.00  0.00     0.014 A 
ATOM     39  C   UNL     1     -11.613  -6.601  -8.603  1.00  0.00     0.010 A 
ATOM     40  C   UNL     1     -11.989  -6.416  -6.218  1.00  0.00     0.010 A 
ATOM     41  C   UNL     1     -12.237  -7.071  -7.434  1.00  0.00    -0.014 A 
BRANCH  41  42
ATOM     42  C   UNL     1     -13.151  -8.244  -7.454  1.00  0.00     0.031 A 
ATOM     43  C   UNL     1     -14.572  -8.091  -6.979  1.00  0.00     0.074 A 
ATOM     44  C   UNL     1     -12.689  -9.456  -7.826  1.00  0.00     0.049 A 
ATOM     45  N   UNL     1     -15.502  -9.001  -6.846  1.00  0.00    -0.248 NA
ATOM     46  C   UNL     1     -14.991  -6.743  -6.561  1.00  0.00     0.031 C 
ATOM     47  C   UNL     1     -11.317  -9.749  -8.250  1.00  0.00     0.029 A 
ATOM     48  N   UNL     1     -13.321 -10.673  -7.903  1.00  0.00    -0.354 N 
ATOM     49  C   UNL     1     -16.605  -8.338  -6.321  1.00  0.00     0.074 A 
ATOM     50  C   UNL     1     -16.204  -6.970  -6.082  1.00  0.00     0.031 C 
ATOM     51  C   UNL     1     -11.224 -11.047  -8.582  1.00  0.00     0.029 A 
ATOM     52  C   UNL     1     -12.512 -11.692  -8.351  1.00  0.00     0.049 A 
ATOM     53  H   UNL     1     -14.266 -10.803  -7.661  1.00  0.00     0.167 HD
ATOM     54  C   UNL     1     -17.852  -8.813  -6.092  1.00  0.00     0.037 A 
ATOM     55  C   UNL     1     -12.778 -12.998  -8.551  1.00  0.00     0.037 A 
ATOM     56  C   UNL     1     -18.251 -10.171  -6.355  1.00  0.00     0.049 A 
ATOM     57  C   UNL     1     -14.167 -13.510  -8.273  1.00  0.00     0.074 A 
ATOM     58  C   UNL     1     -19.502 -10.743  -6.207  1.00  0.00     0.029 A 
ATOM     59  N   UNL     1     -17.405 -11.169  -6.817  1.00  0.00    -0.354 N 
ATOM     60  N   UNL     1     -15.218 -12.853  -7.841  1.00  0.00    -0.248 NA
ATOM     61  C   UNL     1     -14.410 -14.939  -8.515  1.00  0.00     0.031 C 
ATOM     62  C   UNL     1     -19.400 -12.100  -6.529  1.00  0.00     0.029 A 
ATOM     63  C   UNL     1     -18.102 -12.360  -6.937  1.00  0.00     0.049 A 
ATOM     64  H   UNL     1     -16.452 -11.049  -7.028  1.00  0.00     0.167 HD
ATOM     65  C   UNL     1     -16.253 -13.781  -7.790  1.00  0.00     0.074 A 
ATOM     66  C   UNL     1     -15.704 -15.041  -8.247  1.00  0.00     0.031 C 
ATOM     67  C   UNL     1     -17.541 -13.606  -7.401  1.00  0.00     0.037 A 
BRANCH  54  68
ATOM     68  C   UNL     1     -18.870  -7.852  -5.540  1.00  0.00     0.058 A 
ATOM     69  C   UNL     1     -19.348  -6.768  -6.296  1.00  0.00     0.135 A 
ATOM     70  C   UNL     1     -19.386  -8.021  -4.245  1.00  0.00     0.135 A 
ATOM     71  F   UNL     1     -18.878  -6.546  -7.534  1.00  0.00    -0.206 F 
ATOM     72  C   UNL     1     -20.267  -5.864  -5.774  1.00  0.00     0.059 A 
ATOM     73  C   UNL     1     -20.333  -7.149  -3.715  1.00  0.00     0.059 A 
ATOM     74  F   UNL     1     -18.965  -9.038  -3.477  1.00  0.00    -0.206 F 
ATOM     75  C   UNL     1     -20.753  -6.063  -4.482  1.00  0.00     0.060 A 
BRANCH  75  76
ATOM     76  S   UNL     1     -21.943  -4.878  -3.821  1.00  0.00     0.124 S 
ATOM     77  O   UNL     1     -21.099  -3.707  -3.607  1.00  0.00    -0.237 OA
ATOM     78  O   UNL     1     -22.912  -4.771  -4.907  1.00  0.00    -0.237 OA
ATOM     79  O   UNL     1     -22.433  -5.527  -2.609  1.00  0.00    -0.744 OA
ENDBRANCH  75  76
ENDBRANCH  54  68
BRANCH  55  80
ATOM     80  C   UNL     1     -11.720 -13.908  -9.071  1.00  0.00     0.058 A 
ATOM     81  C   UNL     1     -11.805 -14.448 -10.364  1.00  0.00     0.135 A 
ATOM     82  C   UNL     1     -10.600 -14.249  -8.296  1.00  0.00     0.135 A 
ATOM     83  F   UNL     1     -12.860 -14.160 -11.142  1.00  0.00    -0.206 F 
ATOM     84  C   UNL     1     -10.831 -15.306 -10.864  1.00  0.00     0.059 A 
ATOM     85  C   UNL     1      -9.597 -15.082  -8.785  1.00  0.00     0.059 A 
ATOM     86  F   UNL     1     -10.460 -13.749  -7.059  1.00  0.00    -0.206 F 
ATOM     87  C   UNL     1      -9.727 -15.614 -10.067  1.00  0.00     0.060 A 
BRANCH  87  88
ATOM     88  S   UNL     1      -8.443 -16.688 -10.747  1.00  0.00     0.124 S 
ATOM     89  O   UNL     1      -9.120 -17.979 -10.769  1.00  0.00    -0.237 OA
ATOM     90  O   UNL     1      -8.191 -16.076 -12.047  1.00  0.00    -0.237 OA
ATOM     91  O   UNL     1      -7.354 -16.561  -9.782  1.00  0.00    -0.744 OA
ENDBRANCH  87  88
ENDBRANCH  55  80
BRANCH  67  92
ATOM     92  C   UNL     1     -18.461 -14.793  -7.489  1.00  0.00     0.058 A 
ATOM     93  C   UNL     1     -18.351 -15.882  -6.611  1.00  0.00     0.135 A 
ATOM     94  C   UNL     1     -19.504 -14.812  -8.430  1.00  0.00     0.135 A 
ATOM     95  F   UNL     1     -17.369 -15.918  -5.697  1.00  0.00    -0.206 F 
ATOM     96  C   UNL     1     -19.227 -16.961  -6.679  1.00  0.00     0.059 A 
ATOM     97  C   UNL     1     -20.412 -15.864  -8.494  1.00  0.00     0.059 A 
ATOM     98  F   UNL     1     -19.662 -13.790  -9.287  1.00  0.00    -0.206 F 
ATOM     99  C   UNL     1     -20.257 -16.941  -7.622  1.00  0.00     0.060 A 
BRANCH  99 100
ATOM    100  S   UNL     1     -21.408 -18.330  -7.674  1.00  0.00     0.124 S 
ATOM    101  O   UNL     1     -20.574 -19.382  -8.245  1.00  0.00    -0.237 OA
ATOM    102  O   UNL     1     -21.761 -18.494  -6.267  1.00  0.00    -0.237 OA
ATOM    103  O   UNL     1     -22.486 -17.848  -8.533  1.00  0.00    -0.744 OA
ENDBRANCH  99 100
ENDBRANCH  67  92
ENDBRANCH  41  42
ENDBRANCH  33  36
ENDBRANCH  31  32
ENDBRANCH  30  31
ENDBRANCH   1  30
TORSDOF 20
