REMARK SMILES N#C/C(=C\c1ccc(Oc2ccccc2Cl)c([N+](=O)[O-])c1)C(=O)NCCCCNC(=O)c1ccc(-c2c3nc(c(-c4c(F)cc(S(=O)(=O)[O-])cc4F)c4ccc([nH]4)c(-c4c(F)cc(S(=O)(=O)[O-])cc4F)c4nc(c(-c5c(F)cc(S(=O)(=O)[O-])cc5F)c5ccc2[nH]5)C=C4)C=C3)cc1
REMARK SMILES IDX 26 1 25 2 24 3 22 4 23 5 3 7 4 8 2 9 1 10 5 11 6 12 21 13
REMARK SMILES IDX 7 14 17 15 8 16 18 17 19 18 20 19 9 20 10 21 11 22 15 23
REMARK SMILES IDX 12 24 14 25 16 26 13 27 27 28 28 29 29 30 30 31 31 33 32 34
REMARK SMILES IDX 33 35 97 36 34 37 96 38 35 39 36 40 37 41 90 42 38 43 95 44
REMARK SMILES IDX 89 45 91 46 39 47 94 48 88 49 87 50 40 52 74 53 53 54 73 55
REMARK SMILES IDX 54 56 57 57 72 58 92 59 55 60 56 61 71 63 93 64 58 65 41 66
REMARK SMILES IDX 42 67 51 68 43 69 44 70 50 71 52 72 45 73 46 74 47 75 48 76
REMARK SMILES IDX 49 77 75 78 76 79 85 80 77 81 78 82 84 83 86 84 79 85 80 86
REMARK SMILES IDX 81 87 82 88 83 89 59 90 60 91 69 92 61 93 62 94 68 95 70 96
REMARK SMILES IDX 63 97 64 98 65 99 66 100 67 101
REMARK H PARENT 24 6 29 32 91 51 57 62
REMARK Flexibility Score: inf
ROOT
ATOM      1  C   UNL     1       7.430   0.132  -0.907  1.00  0.00     0.023 C 
ENDROOT
BRANCH   1   2
ATOM      2  C   UNL     1       6.814   0.426   0.465  1.00  0.00     0.116 C 
BRANCH   2   3
ATOM      3  N   UNL     1       5.729   1.384   0.367  1.00  0.00    -0.351 N 
ATOM      4  C   UNL     1       4.387   1.243   0.184  1.00  0.00     0.261 C 
ATOM      5  O   UNL     1       3.708   2.270   0.200  1.00  0.00    -0.268 OA
ATOM      6  H   UNL     1       6.020   2.320   0.450  1.00  0.00     0.163 HD
BRANCH   4   7
ATOM      7  C   UNL     1       3.716  -0.072  -0.024  1.00  0.00     0.117 C 
ATOM      8  C   UNL     1       4.278  -1.245  -0.408  1.00  0.00     0.033 C 
BRANCH   7   9
ATOM      9  C   UNL     1       2.196  -0.072  -0.024  1.00  0.00     0.105 C 
ATOM     10  N   UNL     1       0.935  -0.072  -0.024  1.00  0.00    -0.192 NA
ENDBRANCH   7   9
BRANCH   8  11
ATOM     11  C   UNL     1       3.548  -2.513  -0.658  1.00  0.00    -0.017 A 
ATOM     12  C   UNL     1       3.938  -3.673   0.018  1.00  0.00     0.012 A 
ATOM     13  C   UNL     1       2.446  -2.586  -1.518  1.00  0.00     0.098 A 
ATOM     14  C   UNL     1       3.219  -4.869  -0.140  1.00  0.00     0.055 A 
ATOM     15  C   UNL     1       1.679  -3.762  -1.594  1.00  0.00     0.312 A 
ATOM     16  C   UNL     1       2.072  -4.936  -0.947  1.00  0.00     0.204 A 
BRANCH  15  17
ATOM     17  N   UNL     1       0.405  -3.623  -2.270  1.00  0.00     0.066 N 
ATOM     18  O   UNL     1      -0.617  -3.725  -1.578  1.00  0.00    -0.258 OA
ATOM     19  O   UNL     1       0.436  -3.356  -3.479  1.00  0.00    -0.258 OA
ENDBRANCH  15  17
BRANCH  16  20
ATOM     20  O   UNL     1       1.496  -6.189  -0.951  1.00  0.00    -0.449 OA
BRANCH  20  21
ATOM     21  C   UNL     1       0.590  -6.543  -1.918  1.00  0.00     0.146 A 
ATOM     22  C   UNL     1      -0.690  -6.873  -1.457  1.00  0.00     0.049 A 
ATOM     23  C   UNL     1       0.880  -6.628  -3.285  1.00  0.00     0.083 A 
ATOM     24  C   UNL     1      -1.703  -7.183  -2.362  1.00  0.00     0.004 A 
ATOM     25  C   UNL     1      -0.143  -6.920  -4.191  1.00  0.00     0.024 A 
ATOM     26  Cl  UNL     1       2.470  -6.368  -3.905  1.00  0.00    -0.080 Cl
ATOM     27  C   UNL     1      -1.436  -7.184  -3.730  1.00  0.00     0.002 A 
ENDBRANCH  20  21
ENDBRANCH  16  20
ENDBRANCH   8  11
ENDBRANCH   4   7
ENDBRANCH   2   3
ENDBRANCH   1   2
BRANCH   1  28
ATOM     28  C   UNL     1       8.488   1.140  -1.361  1.00  0.00     0.023 C 
BRANCH  28  29
ATOM     29  C   UNL     1       9.716   1.230  -0.464  1.00  0.00     0.116 C 
BRANCH  29  30
ATOM     30  N   UNL     1      10.398  -0.043  -0.281  1.00  0.00    -0.352 N 
ATOM     31  C   UNL     1      11.719  -0.252   0.049  1.00  0.00     0.251 C 
ATOM     32  H   UNL     1       9.849  -0.850  -0.408  1.00  0.00     0.163 HD
ATOM     33  O   UNL     1      12.179  -1.383   0.077  1.00  0.00    -0.269 OA
BRANCH  31  34
ATOM     34  C   UNL     1      12.575   0.923   0.316  1.00  0.00     0.039 A 
ATOM     35  C   UNL     1      13.763   1.066  -0.403  1.00  0.00     0.014 A 
ATOM     36  C   UNL     1      12.167   1.906   1.220  1.00  0.00     0.014 A 
ATOM     37  C   UNL     1      14.511   2.237  -0.265  1.00  0.00     0.010 A 
ATOM     38  C   UNL     1      12.876   3.099   1.303  1.00  0.00     0.010 A 
ATOM     39  C   UNL     1      14.053   3.277   0.560  1.00  0.00    -0.014 A 
BRANCH  39  40
ATOM     40  C   UNL     1      14.786   4.564   0.656  1.00  0.00     0.031 A 
ATOM     41  C   UNL     1      15.398   4.983   1.962  1.00  0.00     0.074 A 
ATOM     42  C   UNL     1      14.832   5.385  -0.411  1.00  0.00     0.049 A 
ATOM     43  N   UNL     1      16.015   6.096   2.266  1.00  0.00    -0.248 NA
ATOM     44  C   UNL     1      15.274   4.039   3.085  1.00  0.00     0.031 C 
ATOM     45  C   UNL     1      14.226   5.113  -1.717  1.00  0.00     0.029 A 
ATOM     46  N   UNL     1      15.406   6.622  -0.564  1.00  0.00    -0.354 N 
ATOM     47  C   UNL     1      16.335   5.995   3.614  1.00  0.00     0.074 A 
ATOM     48  C   UNL     1      15.797   4.735   4.082  1.00  0.00     0.031 C 
ATOM     49  C   UNL     1      14.482   6.140  -2.543  1.00  0.00     0.029 A 
ATOM     50  C   UNL     1      15.240   7.157  -1.820  1.00  0.00     0.049 A 
ATOM     51  H   UNL     1      15.892   7.083   0.157  1.00  0.00     0.167 HD
ATOM     52  C   UNL     1      17.035   6.860   4.386  1.00  0.00     0.037 A 
ATOM     53  C   UNL     1      15.651   8.334  -2.329  1.00  0.00     0.037 A 
ATOM     54  C   UNL     1      17.591   8.098   3.906  1.00  0.00     0.049 A 
ATOM     55  C   UNL     1      16.440   9.273  -1.460  1.00  0.00     0.074 A 
ATOM     56  C   UNL     1      18.371   9.014   4.588  1.00  0.00     0.029 A 
ATOM     57  N   UNL     1      17.424   8.593   2.620  1.00  0.00    -0.354 N 
ATOM     58  N   UNL     1      16.793   9.132  -0.204  1.00  0.00    -0.248 NA
ATOM     59  C   UNL     1      16.892  10.528  -2.076  1.00  0.00     0.031 C 
ATOM     60  C   UNL     1      18.646  10.081   3.725  1.00  0.00     0.029 A 
ATOM     61  C   UNL     1      18.073   9.810   2.493  1.00  0.00     0.049 A 
ATOM     62  H   UNL     1      16.919   8.145   1.903  1.00  0.00     0.167 HD
ATOM     63  C   UNL     1      17.529  10.268   0.114  1.00  0.00     0.074 A 
ATOM     64  C   UNL     1      17.578  11.081  -1.084  1.00  0.00     0.031 C 
ATOM     65  C   UNL     1      18.113  10.605   1.290  1.00  0.00     0.037 A 
BRANCH  52  66
ATOM     66  C   UNL     1      17.235   6.489   5.829  1.00  0.00     0.058 A 
ATOM     67  C   UNL     1      18.074   5.428   6.207  1.00  0.00     0.135 A 
ATOM     68  C   UNL     1      16.579   7.199   6.848  1.00  0.00     0.135 A 
ATOM     69  F   UNL     1      18.712   4.705   5.273  1.00  0.00    -0.206 F 
ATOM     70  C   UNL     1      18.220   5.054   7.539  1.00  0.00     0.059 A 
ATOM     71  C   UNL     1      16.734   6.861   8.190  1.00  0.00     0.059 A 
ATOM     72  F   UNL     1      15.766   8.223   6.544  1.00  0.00    -0.206 F 
ATOM     73  C   UNL     1      17.540   5.773   8.523  1.00  0.00     0.060 A 
BRANCH  73  74
ATOM     74  S   UNL     1      17.716   5.260  10.244  1.00  0.00     0.124 S 
ATOM     75  O   UNL     1      16.872   4.069  10.279  1.00  0.00    -0.237 OA
ATOM     76  O   UNL     1      19.152   5.021  10.355  1.00  0.00    -0.237 OA
ATOM     77  O   UNL     1      17.215   6.407  10.993  1.00  0.00    -0.744 OA
ENDBRANCH  73  74
ENDBRANCH  52  66
BRANCH  53  78
ATOM     78  C   UNL     1      15.358   8.666  -3.748  1.00  0.00     0.058 A 
ATOM     79  C   UNL     1      16.374   8.638  -4.715  1.00  0.00     0.135 A 
ATOM     80  C   UNL     1      14.058   8.979  -4.173  1.00  0.00     0.135 A 
ATOM     81  F   UNL     1      17.634   8.349  -4.355  1.00  0.00    -0.206 F 
ATOM     82  C   UNL     1      16.114   8.915  -6.053  1.00  0.00     0.059 A 
ATOM     83  C   UNL     1      13.769   9.239  -5.509  1.00  0.00     0.059 A 
ATOM     84  F   UNL     1      13.049   9.002  -3.288  1.00  0.00    -0.206 F 
ATOM     85  C   UNL     1      14.806   9.210  -6.441  1.00  0.00     0.060 A 
BRANCH  85  86
ATOM     86  S   UNL     1      14.467   9.496  -8.192  1.00  0.00     0.124 S 
ATOM     87  O   UNL     1      15.030  10.827  -8.386  1.00  0.00    -0.237 OA
ATOM     88  O   UNL     1      15.188   8.398  -8.828  1.00  0.00    -0.237 OA
ATOM     89  O   UNL     1      13.012   9.408  -8.270  1.00  0.00    -0.744 OA
ENDBRANCH  85  86
ENDBRANCH  53  78
BRANCH  65  90
ATOM     90  C   UNL     1      18.881  11.896   1.335  1.00  0.00     0.058 A 
ATOM     91  C   UNL     1      18.229  13.138   1.365  1.00  0.00     0.135 A 
ATOM     92  C   UNL     1      20.283  11.886   1.403  1.00  0.00     0.135 A 
ATOM     93  F   UNL     1      16.890  13.201   1.294  1.00  0.00    -0.206 F 
ATOM     94  C   UNL     1      18.943  14.330   1.442  1.00  0.00     0.059 A 
ATOM     95  C   UNL     1      21.016  13.064   1.506  1.00  0.00     0.059 A 
ATOM     96  F   UNL     1      20.953  10.723   1.388  1.00  0.00    -0.206 F 
ATOM     97  C   UNL     1      20.337  14.282   1.514  1.00  0.00     0.060 A 
BRANCH  97  98
ATOM     98  S   UNL     1      21.252  15.832   1.654  1.00  0.00     0.124 S 
ATOM     99  O   UNL     1      21.175  16.342   0.289  1.00  0.00    -0.237 OA
ATOM    100  O   UNL     1      20.476  16.566   2.649  1.00  0.00    -0.237 OA
ATOM    101  O   UNL     1      22.577  15.406   2.092  1.00  0.00    -0.744 OA
ENDBRANCH  97  98
ENDBRANCH  65  90
ENDBRANCH  39  40
ENDBRANCH  31  34
ENDBRANCH  29  30
ENDBRANCH  28  29
ENDBRANCH   1  28
TORSDOF 19
