REMARK SMILES Cc1cccc(-n2ncc(C(=O)Nc3cccc(C(=O)NCCCCNC(=O)c4ccc(-c5c6nc(c(-c7c(F)cc(S(=O)(=O)[O-])cc7F)c7ccc([nH]7)c(-c7c(F)cc(S(=O)(=O)[O-])cc7F)c7nc(c(-c8c(F)cc(S(=O)(=O)[O-])cc8F)c8ccc5[nH]8)C=C7)C=C6)cc4)c3C)c2C)c1
REMARK SMILES IDX 23 1 22 2 21 3 19 4 20 5 18 7 14 8 15 9 95 10 16 11 96 12
REMARK SMILES IDX 17 13 13 14 11 15 12 16 10 18 7 19 8 20 97 21 9 22 98 23
REMARK SMILES IDX 6 24 1 25 2 26 3 27 99 28 4 29 5 30 24 31 25 32 26 33 27 34
REMARK SMILES IDX 28 36 29 37 30 38 94 39 31 40 93 41 32 42 33 43 34 44 87 45
REMARK SMILES IDX 35 46 92 47 86 48 88 49 36 50 91 51 85 52 84 53 37 55 71 56
REMARK SMILES IDX 50 57 70 58 51 59 54 60 69 61 89 62 52 63 53 64 68 66 90 67
REMARK SMILES IDX 55 68 38 69 39 70 48 71 40 72 41 73 47 74 49 75 42 76 43 77
REMARK SMILES IDX 44 78 45 79 46 80 72 81 73 82 82 83 74 84 75 85 81 86 83 87
REMARK SMILES IDX 76 88 77 89 78 90 79 91 80 92 56 93 57 94 66 95 58 96 59 97
REMARK SMILES IDX 65 98 67 99 60 100 61 101 62 102 63 103 64 104
REMARK H PARENT 21 6 13 17 26 35 88 54 54 65
REMARK Flexibility Score: inf
ROOT
ATOM      1  C   UNL     1      -2.800  10.259  -5.324  1.00  0.00     0.023 C 
ENDROOT
BRANCH   1   2
ATOM      2  C   UNL     1      -1.767   9.489  -4.502  1.00  0.00     0.116 C 
BRANCH   2   3
ATOM      3  N   UNL     1      -1.724   9.867  -3.090  1.00  0.00    -0.352 N 
ATOM      4  C   UNL     1      -2.143   9.348  -1.889  1.00  0.00     0.251 C 
ATOM      5  O   UNL     1      -1.792   9.989  -0.895  1.00  0.00    -0.269 OA
ATOM      6  H   UNL     1      -1.270  10.732  -2.966  1.00  0.00     0.163 HD
BRANCH   4   7
ATOM      7  C   UNL     1      -2.959   8.095  -1.700  1.00  0.00     0.044 A 
ATOM      8  C   UNL     1      -4.177   6.539  -0.267  1.00  0.00     0.045 A 
ATOM      9  C   UNL     1      -4.280   5.629  -1.322  1.00  0.00     0.026 A 
ATOM     10  C   UNL     1      -3.651   7.838  -0.476  1.00  0.00    -0.015 A 
ATOM     11  C   UNL     1      -3.653   5.896  -2.521  1.00  0.00     0.003 A 
ATOM     12  C   UNL     1      -3.692   8.840   0.655  1.00  0.00     0.047 C 
ATOM     13  C   UNL     1      -2.928   7.075  -2.660  1.00  0.00     0.014 A 
BRANCH   8  14
ATOM     14  N   UNL     1      -4.499   6.091   1.029  1.00  0.00    -0.322 N 
ATOM     15  C   UNL     1      -4.188   4.866   1.598  1.00  0.00     0.259 C 
ATOM     16  O   UNL     1      -4.811   4.513   2.600  1.00  0.00    -0.269 OA
ATOM     17  H   UNL     1      -5.003   6.720   1.595  1.00  0.00     0.170 HD
BRANCH  15  18
ATOM     18  C   UNL     1      -3.067   4.076   1.069  1.00  0.00     0.081 A 
ATOM     19  N   UNL     1      -1.655   2.412   0.571  1.00  0.00    -0.237 N 
ATOM     20  N   UNL     1      -1.074   3.530   0.079  1.00  0.00    -0.175 NA
ATOM     21  C   UNL     1      -2.799   2.727   1.303  1.00  0.00     0.054 A 
ATOM     22  C   UNL     1      -1.927   4.508   0.355  1.00  0.00     0.149 A 
ATOM     23  C   UNL     1      -3.476   1.801   2.251  1.00  0.00     0.068 C 
BRANCH  19  24
ATOM     24  C   UNL     1      -1.031   1.154   0.332  1.00  0.00     0.065 A 
ATOM     25  C   UNL     1       2.518  -0.125  -0.228  1.00  0.00     0.044 C 
ATOM     26  C   UNL     1       1.026  -0.092  -0.071  1.00  0.00    -0.049 A 
ATOM     27  C   UNL     1       0.291  -1.282  -0.053  1.00  0.00     0.003 A 
ATOM     28  C   UNL     1       0.354   1.125   0.096  1.00  0.00     0.031 A 
ATOM     29  C   UNL     1      -1.094  -1.255   0.121  1.00  0.00     0.002 A 
ATOM     30  C   UNL     1      -1.758  -0.041   0.316  1.00  0.00     0.028 A 
ENDBRANCH  19  24
ENDBRANCH  15  18
ENDBRANCH   8  14
ENDBRANCH   4   7
ENDBRANCH   2   3
ENDBRANCH   1   2
BRANCH   1  31
ATOM     31  C   UNL     1      -2.520  11.752  -5.479  1.00  0.00     0.023 C 
BRANCH  31  32
ATOM     32  C   UNL     1      -1.205  12.086  -6.177  1.00  0.00     0.116 C 
BRANCH  32  33
ATOM     33  N   UNL     1      -1.284  12.201  -7.622  1.00  0.00    -0.352 N 
ATOM     34  C   UNL     1      -0.265  12.555  -8.501  1.00  0.00     0.251 C 
ATOM     35  H   UNL     1      -2.160  12.005  -8.026  1.00  0.00     0.163 HD
ATOM     36  O   UNL     1      -0.490  12.848  -9.654  1.00  0.00    -0.269 OA
BRANCH  34  37
ATOM     37  C   UNL     1       1.129  12.465  -7.997  1.00  0.00     0.039 A 
ATOM     38  C   UNL     1       1.966  11.511  -8.588  1.00  0.00     0.014 A 
ATOM     39  C   UNL     1       1.508  13.115  -6.826  1.00  0.00     0.014 A 
ATOM     40  C   UNL     1       3.090  11.061  -7.897  1.00  0.00     0.010 A 
ATOM     41  C   UNL     1       2.578  12.613  -6.106  1.00  0.00     0.010 A 
ATOM     42  C   UNL     1       3.334  11.545  -6.614  1.00  0.00    -0.014 A 
BRANCH  42  43
ATOM     43  C   UNL     1       4.276  10.934  -5.680  1.00  0.00     0.031 A 
ATOM     44  C   UNL     1       5.515  11.641  -5.286  1.00  0.00     0.074 A 
ATOM     45  C   UNL     1       3.946   9.779  -5.057  1.00  0.00     0.049 A 
ATOM     46  N   UNL     1       6.453  11.107  -4.578  1.00  0.00    -0.248 NA
ATOM     47  C   UNL     1       5.835  13.002  -5.718  1.00  0.00     0.031 C 
ATOM     48  C   UNL     1       4.518   9.243  -3.824  1.00  0.00     0.029 A 
ATOM     49  N   UNL     1       3.171   8.728  -5.561  1.00  0.00    -0.354 N 
ATOM     50  C   UNL     1       7.299  12.114  -4.191  1.00  0.00     0.074 A 
ATOM     51  C   UNL     1       6.964  13.230  -5.038  1.00  0.00     0.031 C 
ATOM     52  C   UNL     1       4.314   7.919  -3.787  1.00  0.00     0.029 A 
ATOM     53  C   UNL     1       3.746   7.534  -5.064  1.00  0.00     0.049 A 
ATOM     54  H   UNL     1       2.382   8.804  -6.145  1.00  0.00     0.167 HD
ATOM     55  C   UNL     1       8.086  11.929  -3.095  1.00  0.00     0.037 A 
ATOM     56  C   UNL     1       4.299   6.620  -5.918  1.00  0.00     0.037 A 
ATOM     57  C   UNL     1       8.210  10.510  -2.759  1.00  0.00     0.049 A 
ATOM     58  C   UNL     1       5.794   6.420  -5.761  1.00  0.00     0.074 A 
ATOM     59  C   UNL     1       7.791   9.683  -1.734  1.00  0.00     0.029 A 
ATOM     60  N   UNL     1       8.725   9.671  -3.734  1.00  0.00    -0.354 N 
ATOM     61  N   UNL     1       6.529   6.991  -4.844  1.00  0.00    -0.248 NA
ATOM     62  C   UNL     1       6.596   5.614  -6.686  1.00  0.00     0.031 C 
ATOM     63  C   UNL     1       7.963   8.327  -2.167  1.00  0.00     0.029 A 
ATOM     64  C   UNL     1       8.525   8.341  -3.432  1.00  0.00     0.049 A 
ATOM     65  H   UNL     1       9.180   9.987  -4.548  1.00  0.00     0.167 HD
ATOM     66  C   UNL     1       7.851   6.747  -5.109  1.00  0.00     0.074 A 
ATOM     67  C   UNL     1       7.844   5.843  -6.243  1.00  0.00     0.031 C 
ATOM     68  C   UNL     1       8.873   7.349  -4.438  1.00  0.00     0.037 A 
BRANCH  55  69
ATOM     69  C   UNL     1       8.649  13.054  -2.256  1.00  0.00     0.058 A 
ATOM     70  C   UNL     1       9.607  12.793  -1.254  1.00  0.00     0.135 A 
ATOM     71  C   UNL     1       8.182  14.389  -2.294  1.00  0.00     0.135 A 
ATOM     72  F   UNL     1      10.108  11.561  -1.083  1.00  0.00    -0.206 F 
ATOM     73  C   UNL     1      10.062  13.775  -0.365  1.00  0.00     0.059 A 
ATOM     74  C   UNL     1       8.662  15.395  -1.458  1.00  0.00     0.059 A 
ATOM     75  F   UNL     1       7.178  14.772  -3.092  1.00  0.00    -0.206 F 
ATOM     76  C   UNL     1       9.582  15.076  -0.474  1.00  0.00     0.060 A 
BRANCH  76  77
ATOM     77  S   UNL     1      10.126  16.341   0.689  1.00  0.00     0.124 S 
ATOM     78  O   UNL     1       9.367  15.990   1.885  1.00  0.00    -0.237 OA
ATOM     79  O   UNL     1      11.565  16.114   0.756  1.00  0.00    -0.237 OA
ATOM     80  O   UNL     1       9.726  17.588   0.041  1.00  0.00    -0.744 OA
ENDBRANCH  76  77
ENDBRANCH  55  69
BRANCH  56  81
ATOM     81  C   UNL     1       3.528   6.502  -7.186  1.00  0.00     0.058 A 
ATOM     82  C   UNL     1       2.218   5.989  -7.096  1.00  0.00     0.135 A 
ATOM     83  C   UNL     1       3.850   7.274  -8.310  1.00  0.00     0.135 A 
ATOM     84  F   UNL     1       1.864   5.229  -6.046  1.00  0.00    -0.206 F 
ATOM     85  C   UNL     1       1.222   6.380  -7.980  1.00  0.00     0.059 A 
ATOM     86  C   UNL     1       2.866   7.666  -9.219  1.00  0.00     0.059 A 
ATOM     87  F   UNL     1       5.082   7.784  -8.451  1.00  0.00    -0.206 F 
ATOM     88  C   UNL     1       1.544   7.279  -8.994  1.00  0.00     0.060 A 
BRANCH  88  89
ATOM     89  S   UNL     1       0.177   8.086  -9.859  1.00  0.00     0.124 S 
ATOM     90  O   UNL     1      -0.534   6.948 -10.431  1.00  0.00    -0.237 OA
ATOM     91  O   UNL     1      -0.502   8.765  -8.756  1.00  0.00    -0.237 OA
ATOM     92  O   UNL     1       0.854   8.954 -10.815  1.00  0.00    -0.744 OA
ENDBRANCH  88  89
ENDBRANCH  56  81
BRANCH  68  93
ATOM     93  C   UNL     1      10.312   7.059  -4.741  1.00  0.00     0.058 A 
ATOM     94  C   UNL     1      10.823   5.753  -4.680  1.00  0.00     0.135 A 
ATOM     95  C   UNL     1      11.242   8.092  -4.971  1.00  0.00     0.135 A 
ATOM     96  F   UNL     1      10.005   4.711  -4.458  1.00  0.00    -0.206 F 
ATOM     97  C   UNL     1      12.183   5.485  -4.832  1.00  0.00     0.059 A 
ATOM     98  C   UNL     1      12.609   7.853  -5.085  1.00  0.00     0.059 A 
ATOM     99  F   UNL     1      10.839   9.365  -5.111  1.00  0.00    -0.206 F 
ATOM    100  C   UNL     1      13.071   6.543  -5.023  1.00  0.00     0.060 A 
BRANCH 100 101
ATOM    101  S   UNL     1      14.841   6.213  -5.146  1.00  0.00     0.124 S 
ATOM    102  O   UNL     1      15.012   5.043  -4.288  1.00  0.00    -0.237 OA
ATOM    103  O   UNL     1      14.993   5.972  -6.577  1.00  0.00    -0.237 OA
ATOM    104  O   UNL     1      15.446   7.442  -4.644  1.00  0.00    -0.744 OA
ENDBRANCH 100 101
ENDBRANCH  68  93
ENDBRANCH  42  43
ENDBRANCH  34  37
ENDBRANCH  32  33
ENDBRANCH  31  32
ENDBRANCH   1  31
TORSDOF 17
