REMARK SMILES COc1ccc(NC(=O)[C@@H]2CC=CC[C@H]2C(=O)NCCCCNC(=O)c2ccc(-c3c4nc(c(-c5c(F)cc(S(=O)(=O)[O-])cc5F)c5ccc([nH]5)c(-c5c(F)cc(S(=O)(=O)[O-])cc5F)c5nc(c(-c6c(F)cc(S(=O)(=O)[O-])cc6F)c6ccc3[nH]6)C=C5)C=C4)cc2)cc1Cl
REMARK SMILES IDX 20 1 19 2 18 3 16 4 17 5 15 7 10 8 11 9 12 10 14 11 13 12
REMARK SMILES IDX 8 13 7 14 9 16 6 17 3 18 4 19 93 20 5 21 92 22 94 23 2 24
REMARK SMILES IDX 1 25 21 26 22 27 23 28 24 29 25 31 26 32 27 33 91 34 28 35
REMARK SMILES IDX 90 36 29 37 30 38 31 39 84 40 32 41 89 42 83 43 85 44 33 45
REMARK SMILES IDX 88 46 82 47 81 48 34 50 68 51 47 52 67 53 48 54 51 55 66 56
REMARK SMILES IDX 86 57 49 58 50 59 65 61 87 62 52 63 35 64 36 65 45 66 37 67
REMARK SMILES IDX 38 68 44 69 46 70 39 71 40 72 41 73 42 74 43 75 69 76 70 77
REMARK SMILES IDX 79 78 71 79 72 80 78 81 80 82 73 83 74 84 75 85 76 86 77 87
REMARK SMILES IDX 53 88 54 89 63 90 55 91 56 92 62 93 64 94 57 95 58 96 59 97
REMARK SMILES IDX 60 98 61 99
REMARK H PARENT 18 6 7 15 23 30 85 49 51 60
REMARK Flexibility Score: inf
ROOT
ATOM      1  C   UNL     1       2.580   1.769  -8.553  1.00  0.00     0.023 C 
ENDROOT
BRANCH   1   2
ATOM      2  C   UNL     1       1.599   2.942  -8.508  1.00  0.00     0.116 C 
BRANCH   2   3
ATOM      3  N   UNL     1       0.441   2.731  -9.359  1.00  0.00    -0.356 N 
ATOM      4  C   UNL     1      -0.865   2.501  -9.043  1.00  0.00     0.224 C 
ATOM      5  O   UNL     1      -1.678   2.411  -9.966  1.00  0.00    -0.275 OA
ATOM      6  H   UNL     1       0.630   2.757 -10.325  1.00  0.00     0.163 HD
BRANCH   4   7
ATOM      7  C   UNL     1      -1.344   2.417  -7.591  1.00  0.00     0.095 C 
ATOM      8  C   UNL     1      -0.662   1.257  -6.840  1.00  0.00     0.095 C 
ATOM      9  C   UNL     1      -0.258   1.455  -5.373  1.00  0.00     0.041 C 
ATOM     10  C   UNL     1      -0.461   2.826  -4.813  1.00  0.00    -0.030 C 
ATOM     11  C   UNL     1      -1.266   3.819  -6.965  1.00  0.00     0.041 C 
ATOM     12  C   UNL     1      -0.909   3.871  -5.516  1.00  0.00    -0.030 C 
BRANCH   8  13
ATOM     13  C   UNL     1      -1.363  -0.063  -7.148  1.00  0.00     0.228 C 
ATOM     14  N   UNL     1      -2.404  -0.601  -6.467  1.00  0.00    -0.326 N 
ATOM     15  H   UNL     1      -2.660  -1.486  -6.817  1.00  0.00     0.169 HD
ATOM     16  O   UNL     1      -0.936  -0.746  -8.090  1.00  0.00    -0.274 OA
BRANCH  14  17
ATOM     17  C   UNL     1      -3.203  -0.207  -5.388  1.00  0.00     0.042 A 
ATOM     18  C   UNL     1      -4.653   0.353  -3.052  1.00  0.00     0.137 A 
ATOM     19  C   UNL     1      -4.119   1.390  -3.813  1.00  0.00     0.050 A 
ATOM     20  C   UNL     1      -4.557  -0.961  -3.512  1.00  0.00     0.085 A 
ATOM     21  C   UNL     1      -3.405   1.107  -4.981  1.00  0.00     0.030 A 
ATOM     22  C   UNL     1      -3.836  -1.236  -4.677  1.00  0.00     0.050 A 
ATOM     23  Cl  UNL     1      -5.302  -2.281  -2.688  1.00  0.00    -0.080 Cl
BRANCH  18  24
ATOM     24  O   UNL     1      -5.296   0.705  -1.896  1.00  0.00    -0.495 OA
ATOM     25  C   UNL     1      -4.525   0.339  -0.748  1.00  0.00     0.278 C 
ENDBRANCH  18  24
ENDBRANCH  14  17
ENDBRANCH   8  13
ENDBRANCH   4   7
ENDBRANCH   2   3
ENDBRANCH   1   2
BRANCH   1  26
ATOM     26  C   UNL     1       3.307   1.589  -9.883  1.00  0.00     0.023 C 
BRANCH  26  27
ATOM     27  C   UNL     1       4.065   2.814 -10.373  1.00  0.00     0.116 C 
BRANCH  27  28
ATOM     28  N   UNL     1       5.015   3.326  -9.398  1.00  0.00    -0.352 N 
ATOM     29  C   UNL     1       6.301   3.776  -9.603  1.00  0.00     0.251 C 
ATOM     30  H   UNL     1       4.696   3.355  -8.467  1.00  0.00     0.163 HD
ATOM     31  O   UNL     1       7.012   4.069  -8.656  1.00  0.00    -0.269 OA
BRANCH  29  32
ATOM     32  C   UNL     1       6.811   3.861 -10.988  1.00  0.00     0.039 A 
ATOM     33  C   UNL     1       8.039   3.270 -11.291  1.00  0.00     0.014 A 
ATOM     34  C   UNL     1       6.049   4.471 -11.988  1.00  0.00     0.014 A 
ATOM     35  C   UNL     1       8.470   3.227 -12.617  1.00  0.00     0.010 A 
ATOM     36  C   UNL     1       6.444   4.361 -13.316  1.00  0.00     0.010 A 
ATOM     37  C   UNL     1       7.657   3.736 -13.643  1.00  0.00    -0.014 A 
BRANCH  37  38
ATOM     38  C   UNL     1       8.054   3.626 -15.069  1.00  0.00     0.031 A 
ATOM     39  C   UNL     1       8.314   4.870 -15.872  1.00  0.00     0.074 A 
ATOM     40  C   UNL     1       8.110   2.414 -15.653  1.00  0.00     0.049 A 
ATOM     41  N   UNL     1       8.584   4.988 -17.146  1.00  0.00    -0.248 NA
ATOM     42  C   UNL     1       8.230   6.152 -15.154  1.00  0.00     0.031 C 
ATOM     43  C   UNL     1       7.826   1.139 -14.990  1.00  0.00     0.029 A 
ATOM     44  N   UNL     1       8.414   2.055 -16.942  1.00  0.00    -0.354 N 
ATOM     45  C   UNL     1       8.691   6.352 -17.384  1.00  0.00     0.074 A 
ATOM     46  C   UNL     1       8.400   7.024 -16.136  1.00  0.00     0.031 C 
ATOM     47  C   UNL     1       7.991   0.138 -15.870  1.00  0.00     0.029 A 
ATOM     48  C   UNL     1       8.357   0.700 -17.167  1.00  0.00     0.049 A 
ATOM     49  H   UNL     1       8.650   2.707 -17.641  1.00  0.00     0.167 HD
ATOM     50  C   UNL     1       9.028   6.987 -18.531  1.00  0.00     0.037 A 
ATOM     51  C   UNL     1       8.572  -0.009 -18.292  1.00  0.00     0.037 A 
ATOM     52  C   UNL     1       9.341   6.311 -19.763  1.00  0.00     0.049 A 
ATOM     53  C   UNL     1       8.958   0.716 -19.552  1.00  0.00     0.074 A 
ATOM     54  C   UNL     1       9.731   6.861 -20.971  1.00  0.00     0.029 A 
ATOM     55  N   UNL     1       9.305   4.936 -19.942  1.00  0.00    -0.354 N 
ATOM     56  N   UNL     1       9.095   2.005 -19.750  1.00  0.00    -0.248 NA
ATOM     57  C   UNL     1       9.226  -0.108 -20.738  1.00  0.00     0.031 C 
ATOM     58  C   UNL     1       9.903   5.819 -21.889  1.00  0.00     0.029 A 
ATOM     59  C   UNL     1       9.660   4.618 -21.242  1.00  0.00     0.049 A 
ATOM     60  H   UNL     1       9.063   4.282 -19.246  1.00  0.00     0.167 HD
ATOM     61  C   UNL     1       9.486   2.147 -21.076  1.00  0.00     0.074 A 
ATOM     62  C   UNL     1       9.575   0.810 -21.629  1.00  0.00     0.031 C 
ATOM     63  C   UNL     1       9.749   3.280 -21.772  1.00  0.00     0.037 A 
BRANCH  50  64
ATOM     64  C   UNL     1       9.090   8.489 -18.498  1.00  0.00     0.058 A 
ATOM     65  C   UNL     1      10.110   9.163 -17.806  1.00  0.00     0.135 A 
ATOM     66  C   UNL     1       8.137   9.263 -19.177  1.00  0.00     0.135 A 
ATOM     67  F   UNL     1      11.036   8.471 -17.123  1.00  0.00    -0.206 F 
ATOM     68  C   UNL     1      10.165  10.552 -17.763  1.00  0.00     0.059 A 
ATOM     69  C   UNL     1       8.188  10.654 -19.171  1.00  0.00     0.059 A 
ATOM     70  F   UNL     1       7.140   8.670 -19.852  1.00  0.00    -0.206 F 
ATOM     71  C   UNL     1       9.197  11.289 -18.447  1.00  0.00     0.060 A 
BRANCH  71  72
ATOM     72  S   UNL     1       9.283  13.091 -18.382  1.00  0.00     0.124 S 
ATOM     73  O   UNL     1       8.809  13.355 -17.027  1.00  0.00    -0.237 OA
ATOM     74  O   UNL     1      10.700  13.347 -18.618  1.00  0.00    -0.237 OA
ATOM     75  O   UNL     1       8.386  13.512 -19.454  1.00  0.00    -0.744 OA
ENDBRANCH  71  72
ENDBRANCH  50  64
BRANCH  51  76
ATOM     76  C   UNL     1       8.458  -1.491 -18.263  1.00  0.00     0.058 A 
ATOM     77  C   UNL     1       9.602  -2.300 -18.321  1.00  0.00     0.135 A 
ATOM     78  C   UNL     1       7.213  -2.125 -18.142  1.00  0.00     0.135 A 
ATOM     79  F   UNL     1      10.815  -1.739 -18.442  1.00  0.00    -0.206 F 
ATOM     80  C   UNL     1       9.517  -3.687 -18.268  1.00  0.00     0.059 A 
ATOM     81  C   UNL     1       7.103  -3.511 -18.066  1.00  0.00     0.059 A 
ATOM     82  F   UNL     1       6.090  -1.394 -18.066  1.00  0.00    -0.206 F 
ATOM     83  C   UNL     1       8.261  -4.284 -18.136  1.00  0.00     0.060 A 
BRANCH  83  84
ATOM     84  S   UNL     1       8.168  -6.082 -18.000  1.00  0.00     0.124 S 
ATOM     85  O   UNL     1       8.426  -6.494 -19.375  1.00  0.00    -0.237 OA
ATOM     86  O   UNL     1       9.224  -6.373 -17.037  1.00  0.00    -0.237 OA
ATOM     87  O   UNL     1       6.809  -6.311 -17.516  1.00  0.00    -0.744 OA
ENDBRANCH  83  84
ENDBRANCH  51  76
BRANCH  63  88
ATOM     88  C   UNL     1      10.185   3.127 -23.202  1.00  0.00     0.058 A 
ATOM     89  C   UNL     1       9.277   2.784 -24.215  1.00  0.00     0.135 A 
ATOM     90  C   UNL     1      11.516   3.384 -23.569  1.00  0.00     0.135 A 
ATOM     91  F   UNL     1       7.995   2.524 -23.914  1.00  0.00    -0.206 F 
ATOM     92  C   UNL     1       9.678   2.683 -25.543  1.00  0.00     0.059 A 
ATOM     93  C   UNL     1      11.933   3.311 -24.894  1.00  0.00     0.059 A 
ATOM     94  F   UNL     1      12.421   3.725 -22.638  1.00  0.00    -0.206 F 
ATOM     95  C   UNL     1      11.008   2.950 -25.873  1.00  0.00     0.060 A 
BRANCH  95  96
ATOM     96  S   UNL     1      11.508   2.852 -27.605  1.00  0.00     0.124 S 
ATOM     97  O   UNL     1      11.570   1.409 -27.812  1.00  0.00    -0.237 OA
ATOM     98  O   UNL     1      10.418   3.544 -28.286  1.00  0.00    -0.237 OA
ATOM     99  O   UNL     1      12.792   3.546 -27.627  1.00  0.00    -0.744 OA
ENDBRANCH  95  96
ENDBRANCH  63  88
ENDBRANCH  37  38
ENDBRANCH  29  32
ENDBRANCH  27  28
ENDBRANCH  26  27
ENDBRANCH   1  26
TORSDOF 17
