REMARK SMILES COc1ccc(/C=C2/SC(=S)N(NS(=O)(=O)c3ccccc3)C2=O)c(C(=O)NCCCCNC(=O)c2ccc(-c3c4nc(c(-c5c(F)cc(S(=O)(=O)[O-])cc5F)c5ccc([nH]5)c(-c5c(F)cc(S(=O)(=O)[O-])cc5F)c5nc(c(-c6c(F)cc(S(=O)(=O)[O-])cc6F)c6ccc3[nH]6)C=C5)C=C4)cc2)c1OC
REMARK SMILES IDX 30 1 29 2 28 3 26 4 27 5 25 7 3 8 4 9 102 10 5 11 6 12 2 13
REMARK SMILES IDX 1 14 103 15 104 16 7 17 8 18 9 19 23 20 10 21 12 22 24 23
REMARK SMILES IDX 11 24 13 25 14 27 15 28 16 29 17 30 18 31 22 32 19 33 21 34
REMARK SMILES IDX 20 35 31 36 32 37 33 38 34 39 35 41 36 42 37 43 101 44 38 45
REMARK SMILES IDX 100 46 39 47 40 48 41 49 94 50 42 51 99 52 93 53 95 54 43 55
REMARK SMILES IDX 98 56 92 57 91 58 44 60 78 61 57 62 77 63 58 64 61 65 76 66
REMARK SMILES IDX 96 67 59 68 60 69 75 71 97 72 62 73 45 74 46 75 55 76 47 77
REMARK SMILES IDX 48 78 54 79 56 80 49 81 50 82 51 83 52 84 53 85 79 86 80 87
REMARK SMILES IDX 89 88 81 89 82 90 88 91 90 92 83 93 84 94 85 95 86 96 87 97
REMARK SMILES IDX 63 98 64 99 73 100 65 101 66 102 72 103 74 104 67 105 68 106
REMARK SMILES IDX 69 107 70 108 71 109
REMARK H PARENT 28 6 13 26 33 40 95 59 61 70
REMARK Flexibility Score: inf
ROOT
ATOM      1  C   UNL     1       5.911  -1.299  -2.186  1.00  0.00     0.023 C 
ENDROOT
BRANCH   1   2
ATOM      2  C   UNL     1       4.879  -0.190  -2.089  1.00  0.00     0.116 C 
BRANCH   2   3
ATOM      3  N   UNL     1       5.039   0.990  -2.910  1.00  0.00    -0.352 N 
ATOM      4  C   UNL     1       4.034   1.783  -3.437  1.00  0.00     0.255 C 
ATOM      5  O   UNL     1       4.325   2.833  -4.008  1.00  0.00    -0.269 OA
ATOM      6  H   UNL     1       5.963   1.258  -3.117  1.00  0.00     0.163 HD
BRANCH   4   7
ATOM      7  C   UNL     1       2.613   1.321  -3.437  1.00  0.00     0.092 A 
ATOM      8  C   UNL     1       0.669   0.365  -2.314  1.00  0.00     0.161 A 
ATOM      9  C   UNL     1       0.033   0.255  -3.556  1.00  0.00     0.051 A 
ATOM     10  C   UNL     1       1.944   0.952  -2.231  1.00  0.00     0.174 A 
ATOM     11  C   UNL     1       0.654   0.699  -4.724  1.00  0.00     0.013 A 
ATOM     12  C   UNL     1       1.961   1.210  -4.693  1.00  0.00    -0.007 A 
BRANCH   8  13
ATOM     13  O   UNL     1       0.050  -0.333  -1.310  1.00  0.00    -0.493 OA
ATOM     14  C   UNL     1      -0.448   0.437  -0.224  1.00  0.00     0.278 C 
ENDBRANCH   8  13
BRANCH  10  15
ATOM     15  O   UNL     1       2.572   1.280  -1.053  1.00  0.00    -0.492 OA
ATOM     16  C   UNL     1       2.567   0.332   0.012  1.00  0.00     0.278 C 
ENDBRANCH  10  15
BRANCH  12  17
ATOM     17  C   UNL     1       2.513   1.606  -6.013  1.00  0.00     0.030 C 
ATOM     18  C   UNL     1       3.475   0.999  -6.728  1.00  0.00     0.082 C 
ATOM     19  S   UNL     1       3.853   1.418  -8.371  1.00  0.00    -0.053 SA
ATOM     20  C   UNL     1       4.267  -0.197  -6.335  1.00  0.00     0.281 C 
ATOM     21  C   UNL     1       4.780  -0.060  -8.643  1.00  0.00     0.164 C 
ATOM     22  N   UNL     1       4.830  -0.768  -7.464  1.00  0.00    -0.209 N 
ATOM     23  O   UNL     1       4.391  -0.607  -5.199  1.00  0.00    -0.267 OA
ATOM     24  S   UNL     1       5.440  -0.495 -10.111  1.00  0.00    -0.050 S 
BRANCH  22  25
ATOM     25  N   UNL     1       5.416  -2.120  -7.351  1.00  0.00    -0.114 NA
ATOM     26  H   UNL     1       5.883  -2.193  -6.447  1.00  0.00     0.168 HD
BRANCH  25  27
ATOM     27  S   UNL     1       4.265  -3.396  -7.471  1.00  0.00     0.257 S 
ATOM     28  O   UNL     1       3.183  -2.922  -8.316  1.00  0.00    -0.205 OA
ATOM     29  O   UNL     1       5.021  -4.574  -7.826  1.00  0.00    -0.205 OA
BRANCH  27  30
ATOM     30  C   UNL     1       3.605  -3.624  -5.840  1.00  0.00     0.084 A 
ATOM     31  C   UNL     1       2.616  -2.748  -5.385  1.00  0.00     0.022 A 
ATOM     32  C   UNL     1       3.965  -4.725  -5.060  1.00  0.00     0.022 A 
ATOM     33  C   UNL     1       2.107  -2.872  -4.096  1.00  0.00     0.001 A 
ATOM     34  C   UNL     1       3.399  -4.882  -3.790  1.00  0.00     0.001 A 
ATOM     35  C   UNL     1       2.499  -3.937  -3.296  1.00  0.00     0.000 A 
ENDBRANCH  27  30
ENDBRANCH  25  27
ENDBRANCH  22  25
ENDBRANCH  12  17
ENDBRANCH   4   7
ENDBRANCH   2   3
ENDBRANCH   1   2
BRANCH   1  36
ATOM     36  C   UNL     1       7.346  -0.939  -1.831  1.00  0.00     0.023 C 
BRANCH  36  37
ATOM     37  C   UNL     1       7.563   0.042  -0.685  1.00  0.00     0.116 C 
BRANCH  37  38
ATOM     38  N   UNL     1       7.081  -0.408   0.614  1.00  0.00    -0.352 N 
ATOM     39  C   UNL     1       7.740  -0.449   1.825  1.00  0.00     0.251 C 
ATOM     40  H   UNL     1       6.150  -0.730   0.630  1.00  0.00     0.163 HD
ATOM     41  O   UNL     1       7.167  -0.876   2.823  1.00  0.00    -0.269 OA
BRANCH  39  42
ATOM     42  C   UNL     1       9.160  -0.034   1.901  1.00  0.00     0.039 A 
ATOM     43  C   UNL     1      10.083  -0.896   2.500  1.00  0.00     0.014 A 
ATOM     44  C   UNL     1       9.594   1.154   1.311  1.00  0.00     0.014 A 
ATOM     45  C   UNL     1      11.450  -0.621   2.401  1.00  0.00     0.010 A 
ATOM     46  C   UNL     1      10.956   1.372   1.125  1.00  0.00     0.010 A 
ATOM     47  C   UNL     1      11.902   0.482   1.657  1.00  0.00    -0.014 A 
BRANCH  47  48
ATOM     48  C   UNL     1      13.350   0.712   1.401  1.00  0.00     0.031 A 
ATOM     49  C   UNL     1      14.008   1.983   1.868  1.00  0.00     0.074 A 
ATOM     50  C   UNL     1      14.054  -0.181   0.674  1.00  0.00     0.049 A 
ATOM     51  N   UNL     1      15.231   2.402   1.670  1.00  0.00    -0.248 NA
ATOM     52  C   UNL     1      13.170   2.923   2.630  1.00  0.00     0.031 C 
ATOM     53  C   UNL     1      13.523  -1.426   0.113  1.00  0.00     0.029 A 
ATOM     54  N   UNL     1      15.367  -0.176   0.272  1.00  0.00    -0.354 N 
ATOM     55  C   UNL     1      15.301   3.660   2.256  1.00  0.00     0.074 A 
ATOM     56  C   UNL     1      13.983   3.959   2.771  1.00  0.00     0.031 C 
ATOM     57  C   UNL     1      14.507  -2.079  -0.527  1.00  0.00     0.029 A 
ATOM     58  C   UNL     1      15.728  -1.282  -0.463  1.00  0.00     0.049 A 
ATOM     59  H   UNL     1      15.993   0.553   0.490  1.00  0.00     0.167 HD
ATOM     60  C   UNL     1      16.371   4.483   2.376  1.00  0.00     0.037 A 
ATOM     61  C   UNL     1      16.907  -1.617  -1.025  1.00  0.00     0.037 A 
ATOM     62  C   UNL     1      17.690   4.165   1.896  1.00  0.00     0.049 A 
ATOM     63  C   UNL     1      18.082  -0.688  -0.874  1.00  0.00     0.074 A 
ATOM     64  C   UNL     1      18.857   4.893   2.043  1.00  0.00     0.029 A 
ATOM     65  N   UNL     1      18.017   3.027   1.172  1.00  0.00    -0.354 N 
ATOM     66  N   UNL     1      18.149   0.462  -0.246  1.00  0.00    -0.248 NA
ATOM     67  C   UNL     1      19.343  -1.104  -1.504  1.00  0.00     0.031 C 
ATOM     68  C   UNL     1      19.880   4.222   1.365  1.00  0.00     0.029 A 
ATOM     69  C   UNL     1      19.362   3.048   0.842  1.00  0.00     0.049 A 
ATOM     70  H   UNL     1      17.387   2.312   0.928  1.00  0.00     0.167 HD
ATOM     71  C   UNL     1      19.466   0.891  -0.378  1.00  0.00     0.074 A 
ATOM     72  C   UNL     1      20.162  -0.127  -1.139  1.00  0.00     0.031 C 
ATOM     73  C   UNL     1      20.046   2.023   0.091  1.00  0.00     0.037 A 
BRANCH  60  74
ATOM     74  C   UNL     1      16.157   5.810   3.053  1.00  0.00     0.058 A 
ATOM     75  C   UNL     1      15.891   5.906   4.428  1.00  0.00     0.135 A 
ATOM     76  C   UNL     1      16.243   7.005   2.320  1.00  0.00     0.135 A 
ATOM     77  F   UNL     1      15.784   4.796   5.176  1.00  0.00    -0.206 F 
ATOM     78  C   UNL     1      15.681   7.135   5.046  1.00  0.00     0.059 A 
ATOM     79  C   UNL     1      16.067   8.248   2.923  1.00  0.00     0.059 A 
ATOM     80  F   UNL     1      16.496   6.974   1.002  1.00  0.00    -0.206 F 
ATOM     81  C   UNL     1      15.769   8.300   4.283  1.00  0.00     0.060 A 
BRANCH  81  82
ATOM     82  S   UNL     1      15.489   9.886   5.099  1.00  0.00     0.124 S 
ATOM     83  O   UNL     1      14.044   9.858   5.301  1.00  0.00    -0.237 OA
ATOM     84  O   UNL     1      16.299   9.764   6.306  1.00  0.00    -0.237 OA
ATOM     85  O   UNL     1      15.967  10.860   4.122  1.00  0.00    -0.744 OA
ENDBRANCH  81  82
ENDBRANCH  60  74
BRANCH  61  86
ATOM     86  C   UNL     1      17.049  -2.908  -1.751  1.00  0.00     0.058 A 
ATOM     87  C   UNL     1      17.814  -3.953  -1.210  1.00  0.00     0.135 A 
ATOM     88  C   UNL     1      16.422  -3.131  -2.987  1.00  0.00     0.135 A 
ATOM     89  F   UNL     1      18.440  -3.786  -0.035  1.00  0.00    -0.206 F 
ATOM     90  C   UNL     1      17.966  -5.166  -1.873  1.00  0.00     0.059 A 
ATOM     91  C   UNL     1      16.538  -4.346  -3.657  1.00  0.00     0.059 A 
ATOM     92  F   UNL     1      15.667  -2.170  -3.541  1.00  0.00    -0.206 F 
ATOM     93  C   UNL     1      17.320  -5.354  -3.096  1.00  0.00     0.060 A 
BRANCH  93  94
ATOM     94  S   UNL     1      17.483  -6.952  -3.922  1.00  0.00     0.124 S 
ATOM     95  O   UNL     1      18.862  -6.901  -4.394  1.00  0.00    -0.237 OA
ATOM     96  O   UNL     1      17.215  -7.888  -2.834  1.00  0.00    -0.237 OA
ATOM     97  O   UNL     1      16.458  -6.899  -4.959  1.00  0.00    -0.744 OA
ENDBRANCH  93  94
ENDBRANCH  61  86
BRANCH  73  98
ATOM     98  C   UNL     1      21.516   2.209  -0.165  1.00  0.00     0.058 A 
ATOM     99  C   UNL     1      22.012   2.521  -1.440  1.00  0.00     0.135 A 
ATOM    100  C   UNL     1      22.436   2.128   0.894  1.00  0.00     0.135 A 
ATOM    101  F   UNL     1      21.178   2.603  -2.488  1.00  0.00    -0.206 F 
ATOM    102  C   UNL     1      23.371   2.725  -1.661  1.00  0.00     0.059 A 
ATOM    103  C   UNL     1      23.794   2.357   0.702  1.00  0.00     0.059 A 
ATOM    104  F   UNL     1      22.013   1.843   2.136  1.00  0.00    -0.206 F 
ATOM    105  C   UNL     1      24.254   2.644  -0.582  1.00  0.00     0.060 A 
BRANCH 105 106
ATOM    106  S   UNL     1      26.009   2.949  -0.875  1.00  0.00     0.124 S 
ATOM    107  O   UNL     1      26.410   1.724  -1.558  1.00  0.00    -0.237 OA
ATOM    108  O   UNL     1      25.984   4.155  -1.697  1.00  0.00    -0.237 OA
ATOM    109  O   UNL     1      26.552   3.126   0.469  1.00  0.00    -0.744 OA
ENDBRANCH 105 106
ENDBRANCH  73  98
ENDBRANCH  47  48
ENDBRANCH  39  42
ENDBRANCH  37  38
ENDBRANCH  36  37
ENDBRANCH   1  36
TORSDOF 20
