REMARK SMILES O=C(Nc1cccc(C(=O)NCCCCNC(=O)c2ccc(-c3c4nc(c(-c5c(F)cc(S(=O)(=O)[O-])cc5F)c5ccc([nH]5)c(-c5c(F)cc(S(=O)(=O)[O-])cc5F)c5nc(c(-c6c(F)cc(S(=O)(=O)[O-])cc6F)c6ccc3[nH]6)C=C5)C=C4)cc2)c1)Nc1cc(Cl)c(Cl)cc1Cl
REMARK SMILES IDX 14 1 13 2 12 3 11 4 9 5 10 6 8 8 4 9 5 10 85 11 6 12 7 13
REMARK SMILES IDX 3 14 1 15 2 16 86 17 87 20 88 21 94 22 89 23 93 24 95 25
REMARK SMILES IDX 90 26 91 27 92 28 15 29 16 30 17 31 18 33 19 34 20 35 84 36
REMARK SMILES IDX 21 37 83 38 22 39 23 40 24 41 77 42 25 43 82 44 76 45 78 46
REMARK SMILES IDX 26 47 81 48 75 49 74 50 27 52 61 53 40 54 60 55 41 56 44 57
REMARK SMILES IDX 59 58 79 59 42 60 43 61 58 63 80 64 45 65 28 66 29 67 38 68
REMARK SMILES IDX 30 69 31 70 37 71 39 72 32 73 33 74 34 75 35 76 36 77 62 78
REMARK SMILES IDX 63 79 72 80 64 81 65 82 71 83 73 84 66 85 67 86 68 87 69 88
REMARK SMILES IDX 70 89 46 90 47 91 56 92 48 93 49 94 55 95 57 96 50 97 51 98
REMARK SMILES IDX 52 99 53 100 54 101
REMARK H PARENT 11 7 3 18 86 19 16 32 78 51 44 62
REMARK Flexibility Score: inf
ROOT
ATOM      1  C   UNL     1       4.579   1.455  -5.274  1.00  0.00     0.023 C 
ENDROOT
BRANCH   1   2
ATOM      2  C   UNL     1       4.399   1.129  -3.788  1.00  0.00     0.023 C 
BRANCH   2   3
ATOM      3  C   UNL     1       5.308   0.011  -3.274  1.00  0.00     0.116 C 
BRANCH   3   4
ATOM      4  N   UNL     1       6.599   0.531  -2.872  1.00  0.00    -0.352 N 
ATOM      5  C   UNL     1       7.093   1.028  -1.694  1.00  0.00     0.251 C 
ATOM      6  O   UNL     1       8.274   1.386  -1.699  1.00  0.00    -0.269 OA
ATOM      7  H   UNL     1       7.262   0.528  -3.600  1.00  0.00     0.163 HD
BRANCH   5   8
ATOM      8  C   UNL     1       6.325   1.133  -0.413  1.00  0.00     0.041 A 
ATOM      9  C   UNL     1       4.318   1.071   0.974  1.00  0.00     0.043 A 
ATOM     10  C   UNL     1       5.068   1.401   2.100  1.00  0.00     0.026 A 
ATOM     11  C   UNL     1       4.941   1.002  -0.280  1.00  0.00     0.040 A 
ATOM     12  C   UNL     1       6.447   1.565   1.988  1.00  0.00     0.003 A 
ATOM     13  C   UNL     1       7.068   1.415   0.746  1.00  0.00     0.014 A 
BRANCH   9  14
ATOM     14  N   UNL     1       2.939   0.846   1.137  1.00  0.00    -0.308 N 
ATOM     15  O   UNL     1       0.871   0.180   0.563  1.00  0.00    -0.248 OA
ATOM     16  C   UNL     1       2.082   0.071   0.391  1.00  0.00     0.323 C 
ATOM     17  N   UNL     1       2.683  -0.909  -0.363  1.00  0.00    -0.306 N 
ATOM     18  H   UNL     1       2.526   1.312   1.899  1.00  0.00     0.171 HD
ATOM     19  H   UNL     1       3.656  -1.017  -0.262  1.00  0.00     0.171 HD
BRANCH  17  20
ATOM     20  C   UNL     1       2.031  -1.775  -1.268  1.00  0.00     0.063 A 
ATOM     21  C   UNL     1       2.480  -3.105  -1.271  1.00  0.00     0.049 A 
ATOM     22  C   UNL     1       1.018  -1.400  -2.168  1.00  0.00     0.066 A 
ATOM     23  C   UNL     1       1.871  -4.065  -2.086  1.00  0.00     0.061 A 
ATOM     24  C   UNL     1       0.421  -2.361  -2.994  1.00  0.00     0.044 A 
ATOM     25  Cl  UNL     1       0.576   0.247  -2.456  1.00  0.00    -0.082 Cl
ATOM     26  Cl  UNL     1       2.450  -5.689  -1.973  1.00  0.00    -0.083 Cl
ATOM     27  C   UNL     1       0.830  -3.695  -2.940  1.00  0.00     0.061 A 
ATOM     28  Cl  UNL     1       0.025  -4.832  -3.959  1.00  0.00    -0.083 Cl
ENDBRANCH  17  20
ENDBRANCH   9  14
ENDBRANCH   5   8
ENDBRANCH   3   4
ENDBRANCH   2   3
ENDBRANCH   1   2
BRANCH   1  29
ATOM     29  C   UNL     1       4.218   0.322  -6.231  1.00  0.00     0.116 C 
BRANCH  29  30
ATOM     30  N   UNL     1       2.857  -0.166  -6.070  1.00  0.00    -0.352 N 
ATOM     31  C   UNL     1       2.083  -0.832  -6.996  1.00  0.00     0.251 C 
ATOM     32  H   UNL     1       2.438  -0.001  -5.195  1.00  0.00     0.163 HD
ATOM     33  O   UNL     1       0.926  -1.127  -6.739  1.00  0.00    -0.269 OA
BRANCH  31  34
ATOM     34  C   UNL     1       2.667  -1.132  -8.323  1.00  0.00     0.039 A 
ATOM     35  C   UNL     1       2.010  -0.672  -9.466  1.00  0.00     0.014 A 
ATOM     36  C   UNL     1       3.886  -1.805  -8.429  1.00  0.00     0.014 A 
ATOM     37  C   UNL     1       2.614  -0.825 -10.716  1.00  0.00     0.010 A 
ATOM     38  C   UNL     1       4.513  -1.904  -9.669  1.00  0.00     0.010 A 
ATOM     39  C   UNL     1       3.887  -1.407 -10.823  1.00  0.00    -0.014 A 
BRANCH  39  40
ATOM     40  C   UNL     1       4.590  -1.495 -12.129  1.00  0.00     0.031 A 
ATOM     41  C   UNL     1       4.881  -2.838 -12.740  1.00  0.00     0.074 A 
ATOM     42  C   UNL     1       5.029  -0.370 -12.729  1.00  0.00     0.049 A 
ATOM     43  N   UNL     1       5.559  -3.123 -13.821  1.00  0.00    -0.248 NA
ATOM     44  C   UNL     1       4.364  -4.017 -12.025  1.00  0.00     0.031 C 
ATOM     45  C   UNL     1       4.848   0.990 -12.215  1.00  0.00     0.029 A 
ATOM     46  N   UNL     1       5.727  -0.192 -13.897  1.00  0.00    -0.354 N 
ATOM     47  C   UNL     1       5.567  -4.510 -13.909  1.00  0.00     0.074 A 
ATOM     48  C   UNL     1       4.862  -5.010 -12.748  1.00  0.00     0.031 C 
ATOM     49  C   UNL     1       5.400   1.862 -13.075  1.00  0.00     0.029 A 
ATOM     50  C   UNL     1       6.002   1.125 -14.181  1.00  0.00     0.049 A 
ATOM     51  H   UNL     1       6.005  -0.937 -14.477  1.00  0.00     0.167 HD
ATOM     52  C   UNL     1       6.094  -5.295 -14.879  1.00  0.00     0.037 A 
ATOM     53  C   UNL     1       6.667   1.677 -15.215  1.00  0.00     0.037 A 
ATOM     54  C   UNL     1       6.763  -4.793 -16.050  1.00  0.00     0.049 A 
ATOM     55  C   UNL     1       7.231   0.785 -16.287  1.00  0.00     0.074 A 
ATOM     56  C   UNL     1       7.283  -5.507 -17.116  1.00  0.00     0.029 A 
ATOM     57  N   UNL     1       6.998  -3.452 -16.315  1.00  0.00    -0.354 N 
ATOM     58  N   UNL     1       7.191  -0.523 -16.375  1.00  0.00    -0.248 NA
ATOM     59  C   UNL     1       7.929   1.442 -17.401  1.00  0.00     0.031 C 
ATOM     60  C   UNL     1       7.857  -4.598 -18.012  1.00  0.00     0.029 A 
ATOM     61  C   UNL     1       7.663  -3.317 -17.522  1.00  0.00     0.049 A 
ATOM     62  H   UNL     1       6.731  -2.706 -15.730  1.00  0.00     0.167 HD
ATOM     63  C   UNL     1       7.833  -0.843 -17.566  1.00  0.00     0.074 A 
ATOM     64  C   UNL     1       8.247   0.408 -18.168  1.00  0.00     0.031 C 
ATOM     65  C   UNL     1       8.058  -2.063 -18.112  1.00  0.00     0.037 A 
BRANCH  52  66
ATOM     66  C   UNL     1       5.957  -6.782 -14.719  1.00  0.00     0.058 A 
ATOM     67  C   UNL     1       4.722  -7.427 -14.893  1.00  0.00     0.135 A 
ATOM     68  C   UNL     1       7.076  -7.577 -14.424  1.00  0.00     0.135 A 
ATOM     69  F   UNL     1       3.618  -6.712 -15.160  1.00  0.00    -0.206 F 
ATOM     70  C   UNL     1       4.595  -8.805 -14.754  1.00  0.00     0.059 A 
ATOM     71  C   UNL     1       6.977  -8.960 -14.304  1.00  0.00     0.059 A 
ATOM     72  F   UNL     1       8.280  -7.011 -14.246  1.00  0.00    -0.206 F 
ATOM     73  C   UNL     1       5.729  -9.563 -14.457  1.00  0.00     0.060 A 
BRANCH  73  74
ATOM     74  S   UNL     1       5.551 -11.352 -14.287  1.00  0.00     0.124 S 
ATOM     75  O   UNL     1       4.925 -11.457 -12.973  1.00  0.00    -0.237 OA
ATOM     76  O   UNL     1       4.701 -11.693 -15.424  1.00  0.00    -0.237 OA
ATOM     77  O   UNL     1       6.925 -11.838 -14.369  1.00  0.00    -0.744 OA
ENDBRANCH  73  74
ENDBRANCH  52  66
BRANCH  53  78
ATOM     78  C   UNL     1       6.806   3.154 -15.307  1.00  0.00     0.058 A 
ATOM     79  C   UNL     1       6.071   3.884 -16.252  1.00  0.00     0.135 A 
ATOM     80  C   UNL     1       7.661   3.864 -14.451  1.00  0.00     0.135 A 
ATOM     81  F   UNL     1       5.245   3.247 -17.096  1.00  0.00    -0.206 F 
ATOM     82  C   UNL     1       6.186   5.266 -16.355  1.00  0.00     0.059 A 
ATOM     83  C   UNL     1       7.779   5.248 -14.521  1.00  0.00     0.059 A 
ATOM     84  F   UNL     1       8.374   3.211 -13.520  1.00  0.00    -0.206 F 
ATOM     85  C   UNL     1       7.044   5.940 -15.484  1.00  0.00     0.060 A 
BRANCH  85  86
ATOM     86  S   UNL     1       7.149   7.740 -15.591  1.00  0.00     0.124 S 
ATOM     87  O   UNL     1       7.966   7.915 -16.785  1.00  0.00    -0.237 OA
ATOM     88  O   UNL     1       5.746   8.124 -15.715  1.00  0.00    -0.237 OA
ATOM     89  O   UNL     1       7.783   8.112 -14.330  1.00  0.00    -0.744 OA
ENDBRANCH  85  86
ENDBRANCH  53  78
BRANCH  65  90
ATOM     90  C   UNL     1       8.754  -2.108 -19.442  1.00  0.00     0.058 A 
ATOM     91  C   UNL     1      10.135  -1.888 -19.556  1.00  0.00     0.135 A 
ATOM     92  C   UNL     1       8.040  -2.432 -20.607  1.00  0.00     0.135 A 
ATOM     93  F   UNL     1      10.860  -1.569 -18.473  1.00  0.00    -0.206 F 
ATOM     94  C   UNL     1      10.783  -1.972 -20.785  1.00  0.00     0.059 A 
ATOM     95  C   UNL     1       8.671  -2.542 -21.841  1.00  0.00     0.059 A 
ATOM     96  F   UNL     1       6.718  -2.660 -20.548  1.00  0.00    -0.206 F 
ATOM     97  C   UNL     1      10.042  -2.300 -21.922  1.00  0.00     0.060 A 
BRANCH  97  98
ATOM     98  S   UNL     1      10.899  -2.447 -23.504  1.00  0.00     0.124 S 
ATOM     99  O   UNL     1      11.093  -1.047 -23.864  1.00  0.00    -0.237 OA
ATOM    100  O   UNL     1      12.107  -3.182 -23.141  1.00  0.00    -0.237 OA
ATOM    101  O   UNL     1       9.952  -3.185 -24.335  1.00  0.00    -0.744 OA
ENDBRANCH  97  98
ENDBRANCH  65  90
ENDBRANCH  39  40
ENDBRANCH  31  34
ENDBRANCH  29  30
ENDBRANCH   1  29
TORSDOF 16
