REMARK SMILES O=C(NCCCCNC(=O)c1ccc(Br)c(NC(=S)NC(=O)c2cccs2)c1)c1ccc(-c2c3nc(c(-c4c(F)cc(S(=O)(=O)[O-])cc4F)c4ccc([nH]4)c(-c4c(F)cc(S(=O)(=O)[O-])cc4F)c4nc(c(-c5c(F)cc(S(=O)(=O)[O-])cc5F)c5ccc2[nH]5)C=C4)C=C3)cc1
REMARK SMILES IDX 6 1 5 2 4 3 3 4 1 5 2 6 29 8 30 9 94 10 31 11 93 12 32 13
REMARK SMILES IDX 33 14 34 15 87 16 35 17 92 18 86 19 88 20 36 21 91 22 85 23
REMARK SMILES IDX 84 24 37 26 71 27 50 28 70 29 51 30 54 31 69 32 89 33 52 34
REMARK SMILES IDX 53 35 68 37 90 38 55 39 38 40 39 41 48 42 40 43 41 44 47 45
REMARK SMILES IDX 49 46 42 47 43 48 44 49 45 50 46 51 72 52 73 53 82 54 74 55
REMARK SMILES IDX 75 56 81 57 83 58 76 59 77 60 78 61 79 62 80 63 56 64 57 65
REMARK SMILES IDX 66 66 58 67 59 68 65 69 67 70 60 71 61 72 62 73 63 74 64 75
REMARK SMILES IDX 7 76 8 77 9 78 10 80 11 81 12 82 28 83 13 84 16 85 14 86
REMARK SMILES IDX 15 87 17 88 18 90 19 91 20 92 21 93 22 95 23 96 24 97 27 98
REMARK SMILES IDX 25 99 26 100
REMARK H PARENT 3 7 88 25 54 36 8 79 17 89 20 94
REMARK Flexibility Score: inf
ROOT
ATOM      1  C   UNL     1       4.256   2.334  -2.860  1.00  0.00     0.023 C 
ENDROOT
BRANCH   1   2
ATOM      2  C   UNL     1       4.781   1.061  -2.211  1.00  0.00     0.023 C 
BRANCH   2   3
ATOM      3  C   UNL     1       4.419   0.894  -0.746  1.00  0.00     0.116 C 
BRANCH   3   4
ATOM      4  N   UNL     1       2.982   0.858  -0.505  1.00  0.00    -0.352 N 
ATOM      5  O   UNL     1       1.023  -0.056   0.160  1.00  0.00    -0.269 OA
ATOM      6  C   UNL     1       2.247  -0.112   0.139  1.00  0.00     0.251 C 
ATOM      7  H   UNL     1       2.471   1.627  -0.847  1.00  0.00     0.163 HD
BRANCH   6   8
ATOM      8  C   UNL     1       2.970  -1.234   0.769  1.00  0.00     0.039 A 
ATOM      9  C   UNL     1       4.098  -0.968   1.543  1.00  0.00     0.014 A 
ATOM     10  C   UNL     1       2.583  -2.550   0.505  1.00  0.00     0.014 A 
ATOM     11  C   UNL     1       4.955  -2.005   1.869  1.00  0.00     0.010 A 
ATOM     12  C   UNL     1       3.372  -3.604   0.975  1.00  0.00     0.010 A 
ATOM     13  C   UNL     1       4.581  -3.339   1.636  1.00  0.00    -0.014 A 
BRANCH  13  14
ATOM     14  C   UNL     1       5.430  -4.412   2.213  1.00  0.00     0.031 A 
ATOM     15  C   UNL     1       6.092  -5.456   1.358  1.00  0.00     0.074 A 
ATOM     16  C   UNL     1       5.637  -4.388   3.546  1.00  0.00     0.049 A 
ATOM     17  N   UNL     1       6.886  -6.429   1.728  1.00  0.00    -0.248 NA
ATOM     18  C   UNL     1       5.831  -5.418  -0.089  1.00  0.00     0.031 C 
ATOM     19  C   UNL     1       5.026  -3.427   4.474  1.00  0.00     0.029 A 
ATOM     20  N   UNL     1       6.430  -5.159   4.353  1.00  0.00    -0.354 N 
ATOM     21  C   UNL     1       7.217  -7.120   0.568  1.00  0.00     0.074 A 
ATOM     22  C   UNL     1       6.506  -6.478  -0.517  1.00  0.00     0.031 C 
ATOM     23  C   UNL     1       5.518  -3.621   5.702  1.00  0.00     0.029 A 
ATOM     24  C   UNL     1       6.394  -4.783   5.675  1.00  0.00     0.049 A 
ATOM     25  H   UNL     1       6.973  -5.910   4.020  1.00  0.00     0.167 HD
ATOM     26  C   UNL     1       8.047  -8.182   0.428  1.00  0.00     0.037 A 
ATOM     27  C   UNL     1       6.967  -5.332   6.761  1.00  0.00     0.037 A 
ATOM     28  C   UNL     1       8.746  -8.811   1.525  1.00  0.00     0.049 A 
ATOM     29  C   UNL     1       7.834  -6.541   6.575  1.00  0.00     0.074 A 
ATOM     30  C   UNL     1       9.620  -9.884   1.484  1.00  0.00     0.029 A 
ATOM     31  N   UNL     1       8.652  -8.430   2.857  1.00  0.00    -0.354 N 
ATOM     32  N   UNL     1       8.160  -7.159   5.464  1.00  0.00    -0.248 NA
ATOM     33  C   UNL     1       8.413  -7.129   7.787  1.00  0.00     0.031 C 
ATOM     34  C   UNL     1      10.002 -10.192   2.793  1.00  0.00     0.029 A 
ATOM     35  C   UNL     1       9.428  -9.265   3.647  1.00  0.00     0.049 A 
ATOM     36  H   UNL     1       8.113  -7.677   3.191  1.00  0.00     0.167 HD
ATOM     37  C   UNL     1       9.002  -8.197   5.844  1.00  0.00     0.074 A 
ATOM     38  C   UNL     1       9.163  -8.096   7.281  1.00  0.00     0.031 C 
ATOM     39  C   UNL     1       9.581  -9.153   5.077  1.00  0.00     0.037 A 
BRANCH  26  40
ATOM     40  C   UNL     1       8.254  -8.750  -0.953  1.00  0.00     0.058 A 
ATOM     41  C   UNL     1       8.977  -8.056  -1.936  1.00  0.00     0.135 A 
ATOM     42  C   UNL     1       7.808 -10.046  -1.267  1.00  0.00     0.135 A 
ATOM     43  F   UNL     1       9.416  -6.809  -1.699  1.00  0.00    -0.206 F 
ATOM     44  C   UNL     1       9.244  -8.621  -3.180  1.00  0.00     0.059 A 
ATOM     45  C   UNL     1       8.089 -10.642  -2.494  1.00  0.00     0.059 A 
ATOM     46  F   UNL     1       7.110 -10.757  -0.367  1.00  0.00    -0.206 F 
ATOM     47  C   UNL     1       8.805  -9.919  -3.446  1.00  0.00     0.060 A 
BRANCH  47  48
ATOM     48  S   UNL     1       9.203 -10.649  -5.048  1.00  0.00     0.124 S 
ATOM     49  O   UNL     1       8.397  -9.832  -5.950  1.00  0.00    -0.237 OA
ATOM     50  O   UNL     1      10.646 -10.448  -5.130  1.00  0.00    -0.237 OA
ATOM     51  O   UNL     1       8.772 -12.037  -4.909  1.00  0.00    -0.744 OA
ENDBRANCH  47  48
ENDBRANCH  26  40
BRANCH  27  52
ATOM     52  C   UNL     1       6.696  -4.774   8.113  1.00  0.00     0.058 A 
ATOM     53  C   UNL     1       7.722  -4.231   8.899  1.00  0.00     0.135 A 
ATOM     54  C   UNL     1       5.400  -4.797   8.657  1.00  0.00     0.135 A 
ATOM     55  F   UNL     1       8.977  -4.183   8.426  1.00  0.00    -0.206 F 
ATOM     56  C   UNL     1       7.484  -3.775  10.191  1.00  0.00     0.059 A 
ATOM     57  C   UNL     1       5.129  -4.304   9.927  1.00  0.00     0.059 A 
ATOM     58  F   UNL     1       4.375  -5.283   7.940  1.00  0.00    -0.206 F 
ATOM     59  C   UNL     1       6.184  -3.818  10.696  1.00  0.00     0.060 A 
BRANCH  59  60
ATOM     60  S   UNL     1       5.886  -3.227  12.374  1.00  0.00     0.124 S 
ATOM     61  O   UNL     1       6.532  -4.265  13.169  1.00  0.00    -0.237 OA
ATOM     62  O   UNL     1       6.547  -1.926  12.361  1.00  0.00    -0.237 OA
ATOM     63  O   UNL     1       4.429  -3.181  12.461  1.00  0.00    -0.744 OA
ENDBRANCH  59  60
ENDBRANCH  27  52
BRANCH  39  64
ATOM     64  C   UNL     1      10.473 -10.141   5.780  1.00  0.00     0.058 A 
ATOM     65  C   UNL     1       9.966 -11.082   6.692  1.00  0.00     0.135 A 
ATOM     66  C   UNL     1      11.856 -10.148   5.537  1.00  0.00     0.135 A 
ATOM     67  F   UNL     1       8.652 -11.116   6.969  1.00  0.00    -0.206 F 
ATOM     68  C   UNL     1      10.803 -11.957   7.375  1.00  0.00     0.059 A 
ATOM     69  C   UNL     1      12.707 -11.044   6.176  1.00  0.00     0.059 A 
ATOM     70  F   UNL     1      12.396  -9.279   4.668  1.00  0.00    -0.206 F 
ATOM     71  C   UNL     1      12.173 -11.931   7.109  1.00  0.00     0.060 A 
BRANCH  71  72
ATOM     72  S   UNL     1      13.244 -13.080   7.997  1.00  0.00     0.124 S 
ATOM     73  O   UNL     1      13.208 -12.532   9.348  1.00  0.00    -0.237 OA
ATOM     74  O   UNL     1      12.555 -14.353   7.810  1.00  0.00    -0.237 OA
ATOM     75  O   UNL     1      14.523 -12.957   7.304  1.00  0.00    -0.744 OA
ENDBRANCH  71  72
ENDBRANCH  39  64
ENDBRANCH  13  14
ENDBRANCH   6   8
ENDBRANCH   3   4
ENDBRANCH   2   3
ENDBRANCH   1   2
BRANCH   1  76
ATOM     76  C   UNL     1       4.457   3.607  -2.045  1.00  0.00     0.116 C 
BRANCH  76  77
ATOM     77  N   UNL     1       5.833   3.803  -1.630  1.00  0.00    -0.352 N 
ATOM     78  C   UNL     1       6.745   4.798  -1.875  1.00  0.00     0.251 C 
ATOM     79  H   UNL     1       6.181   3.079  -1.061  1.00  0.00     0.163 HD
ATOM     80  O   UNL     1       7.859   4.632  -1.389  1.00  0.00    -0.269 OA
BRANCH  78  81
ATOM     81  C   UNL     1       6.299   6.050  -2.709  1.00  0.00     0.041 A 
ATOM     82  C   UNL     1       4.778   6.725  -1.981  1.00  0.00     0.015 A 
ATOM     83  C   UNL     1       6.908   7.028  -4.415  1.00  0.00     0.041 A 
ATOM     84  C   UNL     1       4.003   8.077  -2.844  1.00  0.00     0.018 A 
ATOM     85  C   UNL     1       6.051   8.205  -5.188  1.00  0.00     0.055 A 
ATOM     86  C   UNL     1       4.623   8.757  -4.382  1.00  0.00     0.041 A 
ATOM     87  Br  UNL     1       3.531  10.031  -5.265  1.00  0.00    -0.049 Br
BRANCH  85  88
ATOM     88  N   UNL     1       6.518   8.268  -6.519  1.00  0.00    -0.331 N 
ATOM     89  H   UNL     1       6.112   8.975  -7.071  1.00  0.00     0.169 HD
BRANCH  88  90
ATOM     90  C   UNL     1       7.470   7.479  -7.171  1.00  0.00     0.177 C 
ATOM     91  S   UNL     1       7.765   7.861  -8.784  1.00  0.00    -0.040 S 
BRANCH  90  92
ATOM     92  N   UNL     1       8.264   6.382  -6.638  1.00  0.00    -0.298 N 
ATOM     93  C   UNL     1       8.720   5.418  -5.528  1.00  0.00     0.267 C 
ATOM     94  H   UNL     1       8.808   6.104  -7.411  1.00  0.00     0.172 HD
ATOM     95  O   UNL     1       9.751   4.777  -5.726  1.00  0.00    -0.268 OA
BRANCH  93  96
ATOM     96  C   UNL     1       7.870   5.284  -4.256  1.00  0.00     0.092 A 
ATOM     97  C   UNL     1       6.211   5.103  -4.605  1.00  0.00     0.025 A 
ATOM     98  S   UNL     1       8.373   6.991  -2.777  1.00  0.00    -0.139 S 
ATOM     99  C   UNL     1       5.150   6.596  -4.059  1.00  0.00     0.012 A 
ATOM    100  C   UNL     1       6.221   7.879  -2.984  1.00  0.00     0.065 A 
ENDBRANCH  93  96
ENDBRANCH  90  92
ENDBRANCH  88  90
ENDBRANCH  85  88
ENDBRANCH  78  81
ENDBRANCH  76  77
ENDBRANCH   1  76
TORSDOF 18
