REMARK SMILES Cc1noc(C)c1C[NH2+][C@H](C)[C@H](C)C(=O)NCCCCNC(=O)c1ccc(-c2c3nc(c(-c4c(F)cc(S(=O)(=O)[O-])cc4F)c4ccc([nH]4)c(-c4c(F)cc(S(=O)(=O)[O-])cc4F)c4nc(c(-c5c(F)cc(S(=O)(=O)[O-])cc5F)c5ccc2[nH]5)C=C4)C=C3)cc1
REMARK SMILES IDX 18 1 17 2 16 3 14 4 15 5 12 7 13 8 10 9 11 10 9 11 8 14 7 15
REMARK SMILES IDX 1 16 2 17 3 18 4 19 5 20 6 21 19 22 20 23 21 24 22 25 23 27
REMARK SMILES IDX 24 28 25 29 89 30 26 31 88 32 27 33 28 34 29 35 82 36 30 37
REMARK SMILES IDX 87 38 81 39 83 40 31 41 86 42 80 43 79 44 32 46 66 47 45 48
REMARK SMILES IDX 65 49 46 50 49 51 64 52 84 53 47 54 48 55 63 57 85 58 50 59
REMARK SMILES IDX 33 60 34 61 43 62 35 63 36 64 42 65 44 66 37 67 38 68 39 69
REMARK SMILES IDX 40 70 41 71 67 72 68 73 77 74 69 75 70 76 76 77 78 78 71 79
REMARK SMILES IDX 72 80 73 81 74 82 75 83 51 84 52 85 61 86 53 87 54 88 60 89
REMARK SMILES IDX 62 90 55 91 56 92 57 93 58 94 59 95
REMARK H PARENT 16 6 9 12 9 13 21 26 83 45 49 56
REMARK Flexibility Score: inf
ROOT
ATOM      1  C   UNL     1      -1.881   6.891   1.257  1.00  0.00     0.023 C 
ENDROOT
BRANCH   1   2
ATOM      2  C   UNL     1      -2.583   6.490  -0.037  1.00  0.00     0.116 C 
BRANCH   2   3
ATOM      3  N   UNL     1      -1.953   7.069  -1.209  1.00  0.00    -0.356 N 
ATOM      4  C   UNL     1      -1.446   6.488  -2.330  1.00  0.00     0.228 C 
ATOM      5  O   UNL     1      -0.985   7.226  -3.203  1.00  0.00    -0.275 OA
ATOM      6  H   UNL     1      -1.879   8.051  -1.189  1.00  0.00     0.163 HD
BRANCH   4   7
ATOM      7  C   UNL     1      -1.443   4.972  -2.529  1.00  0.00     0.133 C 
ATOM      8  C   UNL     1      -0.561   4.338  -1.444  1.00  0.00     0.024 C 
BRANCH   7   9
ATOM      9  C   UNL     1      -2.881   4.391  -2.690  1.00  0.00     0.191 C 
ATOM     10  C   UNL     1      -3.722   5.252  -3.655  1.00  0.00     0.076 C 
BRANCH   9  11
ATOM     11  N   UNL     1      -3.042   3.007  -3.175  1.00  0.00    -0.339 N 
ATOM     12  H   UNL     1      -3.942   2.669  -2.835  1.00  0.00     0.346 HD
ATOM     13  H   UNL     1      -2.949   3.081  -4.189  1.00  0.00     0.346 HD
BRANCH  11  14
ATOM     14  C   UNL     1      -2.044   2.029  -2.794  1.00  0.00     0.303 C 
BRANCH  14  15
ATOM     15  C   UNL     1      -2.558   0.687  -3.165  1.00  0.00     0.071 A 
ATOM     16  C   UNL     1      -4.218   0.229  -1.206  1.00  0.00     0.071 C 
ATOM     17  C   UNL     1      -3.503  -0.109  -2.460  1.00  0.00     0.090 A 
ATOM     18  N   UNL     1      -3.712  -1.281  -3.070  1.00  0.00    -0.085 NA
ATOM     19  O   UNL     1      -2.914  -1.264  -4.198  1.00  0.00    -0.361 OA
ATOM     20  C   UNL     1      -2.230  -0.091  -4.254  1.00  0.00     0.142 A 
ATOM     21  C   UNL     1      -1.328   0.089  -5.407  1.00  0.00     0.091 C 
ENDBRANCH  14  15
ENDBRANCH  11  14
ENDBRANCH   9  11
ENDBRANCH   7   9
ENDBRANCH   4   7
ENDBRANCH   2   3
ENDBRANCH   1   2
BRANCH   1  22
ATOM     22  C   UNL     1      -1.954   8.380   1.597  1.00  0.00     0.023 C 
BRANCH  22  23
ATOM     23  C   UNL     1      -3.358   8.975   1.632  1.00  0.00     0.116 C 
BRANCH  23  24
ATOM     24  N   UNL     1      -4.236   8.311   2.586  1.00  0.00    -0.352 N 
ATOM     25  C   UNL     1      -5.031   8.868   3.560  1.00  0.00     0.251 C 
ATOM     26  H   UNL     1      -4.264   7.329   2.525  1.00  0.00     0.163 HD
ATOM     27  O   UNL     1      -5.620   8.148   4.361  1.00  0.00    -0.269 OA
BRANCH  25  28
ATOM     28  C   UNL     1      -5.138  10.338   3.657  1.00  0.00     0.039 A 
ATOM     29  C   UNL     1      -4.908  10.953   4.890  1.00  0.00     0.014 A 
ATOM     30  C   UNL     1      -5.411  11.107   2.522  1.00  0.00     0.014 A 
ATOM     31  C   UNL     1      -4.865  12.347   4.966  1.00  0.00     0.010 A 
ATOM     32  C   UNL     1      -5.301  12.492   2.587  1.00  0.00     0.010 A 
ATOM     33  C   UNL     1      -5.014  13.126   3.806  1.00  0.00    -0.014 A 
BRANCH  33  34
ATOM     34  C   UNL     1      -4.843  14.600   3.840  1.00  0.00     0.031 A 
ATOM     35  C   UNL     1      -5.999  15.504   3.512  1.00  0.00     0.074 A 
ATOM     36  C   UNL     1      -3.625  15.123   4.086  1.00  0.00     0.049 A 
ATOM     37  N   UNL     1      -6.022  16.806   3.403  1.00  0.00    -0.248 NA
ATOM     38  C   UNL     1      -7.292  14.854   3.241  1.00  0.00     0.031 C 
ATOM     39  C   UNL     1      -2.411  14.349   4.361  1.00  0.00     0.029 A 
ATOM     40  N   UNL     1      -3.201  16.427   4.130  1.00  0.00    -0.354 N 
ATOM     41  C   UNL     1      -7.322  17.133   3.035  1.00  0.00     0.074 A 
ATOM     42  C   UNL     1      -8.046  15.887   2.894  1.00  0.00     0.031 C 
ATOM     43  C   UNL     1      -1.386  15.194   4.562  1.00  0.00     0.029 A 
ATOM     44  C   UNL     1      -1.859  16.565   4.398  1.00  0.00     0.049 A 
ATOM     45  H   UNL     1      -3.801  17.193   3.982  1.00  0.00     0.167 HD
ATOM     46  C   UNL     1      -7.867  18.358   2.852  1.00  0.00     0.037 A 
ATOM     47  C   UNL     1      -1.094  17.669   4.494  1.00  0.00     0.037 A 
ATOM     48  C   UNL     1      -7.153  19.595   3.028  1.00  0.00     0.049 A 
ATOM     49  C   UNL     1      -1.726  19.020   4.302  1.00  0.00     0.074 A 
ATOM     50  C   UNL     1      -7.637  20.889   2.939  1.00  0.00     0.029 A 
ATOM     51  N   UNL     1      -5.802  19.693   3.328  1.00  0.00    -0.354 N 
ATOM     52  N   UNL     1      -2.974  19.312   4.022  1.00  0.00    -0.248 NA
ATOM     53  C   UNL     1      -0.850  20.192   4.441  1.00  0.00     0.031 C 
ATOM     54  C   UNL     1      -6.572  21.770   3.154  1.00  0.00     0.029 A 
ATOM     55  C   UNL     1      -5.432  21.025   3.410  1.00  0.00     0.049 A 
ATOM     56  H   UNL     1      -5.197  18.929   3.462  1.00  0.00     0.167 HD
ATOM     57  C   UNL     1      -3.036  20.700   3.968  1.00  0.00     0.074 A 
ATOM     58  C   UNL     1      -1.704  21.190   4.257  1.00  0.00     0.031 C 
ATOM     59  C   UNL     1      -4.101  21.495   3.702  1.00  0.00     0.037 A 
BRANCH  46  60
ATOM     60  C   UNL     1      -9.314  18.419   2.452  1.00  0.00     0.058 A 
ATOM     61  C   UNL     1     -10.339  18.107   3.359  1.00  0.00     0.135 A 
ATOM     62  C   UNL     1      -9.683  18.816   1.157  1.00  0.00     0.135 A 
ATOM     63  F   UNL     1     -10.041  17.707   4.605  1.00  0.00    -0.206 F 
ATOM     64  C   UNL     1     -11.678  18.155   2.987  1.00  0.00     0.059 A 
ATOM     65  C   UNL     1     -11.018  18.895   0.770  1.00  0.00     0.059 A 
ATOM     66  F   UNL     1      -8.742  19.124   0.251  1.00  0.00    -0.206 F 
ATOM     67  C   UNL     1     -12.008  18.546   1.688  1.00  0.00     0.060 A 
BRANCH  67  68
ATOM     68  S   UNL     1     -13.749  18.599   1.218  1.00  0.00     0.124 S 
ATOM     69  O   UNL     1     -14.046  17.180   1.046  1.00  0.00    -0.237 OA
ATOM     70  O   UNL     1     -14.368  19.239   2.374  1.00  0.00    -0.237 OA
ATOM     71  O   UNL     1     -13.746  19.393  -0.007  1.00  0.00    -0.744 OA
ENDBRANCH  67  68
ENDBRANCH  46  60
BRANCH  47  72
ATOM     72  C   UNL     1       0.352  17.544   4.809  1.00  0.00     0.058 A 
ATOM     73  C   UNL     1       0.845  17.899   6.074  1.00  0.00     0.135 A 
ATOM     74  C   UNL     1       1.266  17.053   3.864  1.00  0.00     0.135 A 
ATOM     75  F   UNL     1       0.009  18.378   7.008  1.00  0.00    -0.206 F 
ATOM     76  C   UNL     1       2.194  17.783   6.389  1.00  0.00     0.059 A 
ATOM     77  C   UNL     1       2.617  16.909   4.162  1.00  0.00     0.059 A 
ATOM     78  F   UNL     1       0.840  16.685   2.646  1.00  0.00    -0.206 F 
ATOM     79  C   UNL     1       3.074  17.285   5.425  1.00  0.00     0.060 A 
BRANCH  79  80
ATOM     80  S   UNL     1       4.815  17.085   5.860  1.00  0.00     0.124 S 
ATOM     81  O   UNL     1       5.292  18.462   5.801  1.00  0.00    -0.237 OA
ATOM     82  O   UNL     1       4.735  16.494   7.193  1.00  0.00    -0.237 OA
ATOM     83  O   UNL     1       5.319  16.194   4.819  1.00  0.00    -0.744 OA
ENDBRANCH  79  80
ENDBRANCH  47  72
BRANCH  59  84
ATOM     84  C   UNL     1      -3.876  22.980   3.727  1.00  0.00     0.058 A 
ATOM     85  C   UNL     1      -3.219  23.638   2.676  1.00  0.00     0.135 A 
ATOM     86  C   UNL     1      -4.377  23.759   4.782  1.00  0.00     0.135 A 
ATOM     87  F   UNL     1      -2.715  22.936   1.649  1.00  0.00    -0.206 F 
ATOM     88  C   UNL     1      -3.055  25.019   2.676  1.00  0.00     0.059 A 
ATOM     89  C   UNL     1      -4.243  25.144   4.792  1.00  0.00     0.059 A 
ATOM     90  F   UNL     1      -5.020  23.177   5.806  1.00  0.00    -0.206 F 
ATOM     91  C   UNL     1      -3.572  25.764   3.738  1.00  0.00     0.060 A 
BRANCH  91  92
ATOM     92  S   UNL     1      -3.396  27.561   3.704  1.00  0.00     0.124 S 
ATOM     93  O   UNL     1      -1.995  27.725   4.080  1.00  0.00    -0.237 OA
ATOM     94  O   UNL     1      -3.723  27.883   2.319  1.00  0.00    -0.237 OA
ATOM     95  O   UNL     1      -4.369  28.015   4.693  1.00  0.00    -0.744 OA
ENDBRANCH  91  92
ENDBRANCH  59  84
ENDBRANCH  33  34
ENDBRANCH  25  28
ENDBRANCH  23  24
ENDBRANCH  22  23
ENDBRANCH   1  22
TORSDOF 18
