REMARK SMILES C[C@@H]1[C@H](C(=O)NCCCCNC(=O)c2ccc(-c3c4nc(c(-c5c(F)cc(S(=O)(=O)[O-])cc5F)c5ccc([nH]5)c(-c5c(F)cc(S(=O)(=O)[O-])cc5F)c5nc(c(-c6c(F)cc(S(=O)(=O)[O-])cc6F)c6ccc3[nH]6)C=C5)C=C4)cc2)CCN1C(=O)c1c(Cl)cccc1[N+](=O)[O-]
REMARK SMILES IDX 8 1 7 2 6 3 4 4 5 5 3 7 1 8 2 9 82 10 80 11 81 12 83 13
REMARK SMILES IDX 84 14 85 15 86 16 91 17 87 18 88 19 90 20 89 21 92 22 93 23
REMARK SMILES IDX 94 24 9 25 10 26 11 27 12 28 13 30 14 31 15 32 79 33 16 34
REMARK SMILES IDX 78 35 17 36 18 37 19 38 72 39 20 40 77 41 71 42 73 43 21 44
REMARK SMILES IDX 76 45 70 46 69 47 22 49 56 50 35 51 55 52 36 53 39 54 54 55
REMARK SMILES IDX 74 56 37 57 38 58 53 60 75 61 40 62 23 63 24 64 33 65 25 66
REMARK SMILES IDX 26 67 32 68 34 69 27 70 28 71 29 72 30 73 31 74 57 75 58 76
REMARK SMILES IDX 67 77 59 78 60 79 66 80 68 81 61 82 62 83 63 84 64 85 65 86
REMARK SMILES IDX 41 87 42 88 51 89 43 90 44 91 50 92 52 93 45 94 46 95 47 96
REMARK SMILES IDX 48 97 49 98
REMARK H PARENT 6 6 11 29 73 48 39 59
REMARK Flexibility Score: inf
ROOT
ATOM      1  C   UNL     1       2.831   1.107   2.386  1.00  0.00     0.023 C 
ENDROOT
BRANCH   1   2
ATOM      2  C   UNL     1       1.374   1.440   2.061  1.00  0.00     0.116 C 
BRANCH   2   3
ATOM      3  N   UNL     1       1.252   2.412   0.987  1.00  0.00    -0.356 N 
ATOM      4  C   UNL     1       0.619   2.362  -0.213  1.00  0.00     0.225 C 
ATOM      5  O   UNL     1       0.718   3.355  -0.942  1.00  0.00    -0.275 OA
ATOM      6  H   UNL     1       1.714   3.263   1.162  1.00  0.00     0.163 HD
BRANCH   4   7
ATOM      7  C   UNL     1      -0.177   1.159  -0.701  1.00  0.00     0.102 C 
ATOM      8  C   UNL     1       2.100  -0.091  -0.875  1.00  0.00     0.032 C 
ATOM      9  C   UNL     1       0.595  -0.126  -1.078  1.00  0.00     0.094 C 
ATOM     10  N   UNL     1      -0.126  -1.213  -0.388  1.00  0.00    -0.335 N 
ATOM     11  C   UNL     1      -1.316   0.744   0.231  1.00  0.00     0.037 C 
ATOM     12  C   UNL     1      -1.426  -0.756   0.067  1.00  0.00     0.121 C 
BRANCH  10  13
ATOM     13  C   UNL     1       0.078  -2.586  -0.424  1.00  0.00     0.262 C 
ATOM     14  O   UNL     1      -0.761  -3.411  -0.071  1.00  0.00    -0.269 OA
BRANCH  13  15
ATOM     15  C   UNL     1       1.355  -3.126  -0.899  1.00  0.00     0.136 A 
ATOM     16  C   UNL     1       1.477  -3.537  -2.232  1.00  0.00     0.060 A 
ATOM     17  C   UNL     1       2.444  -3.297  -0.035  1.00  0.00     0.283 A 
ATOM     18  Cl  UNL     1       0.184  -3.391  -3.369  1.00  0.00    -0.083 Cl
ATOM     19  C   UNL     1       2.687  -4.070  -2.695  1.00  0.00     0.022 A 
ATOM     20  C   UNL     1       3.663  -3.815  -0.503  1.00  0.00     0.086 A 
ATOM     21  C   UNL     1       3.780  -4.201  -1.837  1.00  0.00     0.009 A 
BRANCH  17  22
ATOM     22  N   UNL     1       2.380  -2.890   1.363  1.00  0.00     0.063 N 
ATOM     23  O   UNL     1       3.368  -2.291   1.810  1.00  0.00    -0.258 OA
ATOM     24  O   UNL     1       1.374  -3.178   2.016  1.00  0.00    -0.258 OA
ENDBRANCH  17  22
ENDBRANCH  13  15
ENDBRANCH  10  13
ENDBRANCH   4   7
ENDBRANCH   2   3
ENDBRANCH   1   2
BRANCH   1  25
ATOM     25  C   UNL     1       3.662   2.243   2.967  1.00  0.00     0.023 C 
BRANCH  25  26
ATOM     26  C   UNL     1       3.149   2.816   4.277  1.00  0.00     0.116 C 
BRANCH  26  27
ATOM     27  N   UNL     1       3.034   1.821   5.333  1.00  0.00    -0.352 N 
ATOM     28  C   UNL     1       3.517   1.862   6.622  1.00  0.00     0.251 C 
ATOM     29  H   UNL     1       2.541   1.004   5.092  1.00  0.00     0.163 HD
ATOM     30  O   UNL     1       3.426   0.879   7.346  1.00  0.00    -0.269 OA
BRANCH  28  31
ATOM     31  C   UNL     1       4.178   3.091   7.109  1.00  0.00     0.039 A 
ATOM     32  C   UNL     1       5.396   2.985   7.784  1.00  0.00     0.014 A 
ATOM     33  C   UNL     1       3.617   4.345   6.858  1.00  0.00     0.014 A 
ATOM     34  C   UNL     1       6.088   4.144   8.142  1.00  0.00     0.010 A 
ATOM     35  C   UNL     1       4.351   5.493   7.127  1.00  0.00     0.010 A 
ATOM     36  C   UNL     1       5.589   5.406   7.781  1.00  0.00    -0.014 A 
BRANCH  36  37
ATOM     37  C   UNL     1       6.322   6.656   8.103  1.00  0.00     0.031 A 
ATOM     38  C   UNL     1       5.681   7.679   9.003  1.00  0.00     0.074 A 
ATOM     39  C   UNL     1       7.515   6.907   7.529  1.00  0.00     0.049 A 
ATOM     40  N   UNL     1       6.094   8.878   9.319  1.00  0.00    -0.248 NA
ATOM     41  C   UNL     1       4.380   7.319   9.592  1.00  0.00     0.031 C 
ATOM     42  C   UNL     1       8.211   6.019   6.595  1.00  0.00     0.029 A 
ATOM     43  N   UNL     1       8.349   7.991   7.637  1.00  0.00    -0.354 N 
ATOM     44  C   UNL     1       5.094   9.424  10.116  1.00  0.00     0.074 A 
ATOM     45  C   UNL     1       4.029   8.448  10.187  1.00  0.00     0.031 C 
ATOM     46  C   UNL     1       9.377   6.583   6.238  1.00  0.00     0.029 A 
ATOM     47  C   UNL     1       9.496   7.884   6.888  1.00  0.00     0.049 A 
ATOM     48  H   UNL     1       8.144   8.773   8.200  1.00  0.00     0.167 HD
ATOM     49  C   UNL     1       5.077  10.617  10.756  1.00  0.00     0.037 A 
ATOM     50  C   UNL     1      10.527   8.740   6.742  1.00  0.00     0.037 A 
ATOM     51  C   UNL     1       6.162  11.560  10.721  1.00  0.00     0.049 A 
ATOM     52  C   UNL     1      10.506  10.041   7.496  1.00  0.00     0.074 A 
ATOM     53  C   UNL     1       6.274  12.771  11.380  1.00  0.00     0.029 A 
ATOM     54  N   UNL     1       7.331  11.389   9.994  1.00  0.00    -0.354 N 
ATOM     55  N   UNL     1       9.574  10.521   8.286  1.00  0.00    -0.248 NA
ATOM     56  C   UNL     1      11.679  10.914   7.350  1.00  0.00     0.031 C 
ATOM     57  C   UNL     1       7.500  13.345  11.031  1.00  0.00     0.029 A 
ATOM     58  C   UNL     1       8.169  12.474  10.185  1.00  0.00     0.049 A 
ATOM     59  H   UNL     1       7.534  10.612   9.425  1.00  0.00     0.167 HD
ATOM     60  C   UNL     1      10.061  11.736   8.755  1.00  0.00     0.074 A 
ATOM     61  C   UNL     1      11.373  11.914   8.165  1.00  0.00     0.031 C 
ATOM     62  C   UNL     1       9.478  12.622   9.600  1.00  0.00     0.037 A 
BRANCH  49  63
ATOM     63  C   UNL     1       3.849  10.953  11.557  1.00  0.00     0.058 A 
ATOM     64  C   UNL     1       3.536  10.274  12.745  1.00  0.00     0.135 A 
ATOM     65  C   UNL     1       2.974  11.967  11.133  1.00  0.00     0.135 A 
ATOM     66  F   UNL     1       4.328   9.283  13.187  1.00  0.00    -0.206 F 
ATOM     67  C   UNL     1       2.379  10.557  13.463  1.00  0.00     0.059 A 
ATOM     68  C   UNL     1       1.826  12.288  11.852  1.00  0.00     0.059 A 
ATOM     69  F   UNL     1       3.224  12.649  10.005  1.00  0.00    -0.206 F 
ATOM     70  C   UNL     1       1.527  11.563  13.006  1.00  0.00     0.060 A 
BRANCH  70  71
ATOM     71  S   UNL     1       0.023  11.912  13.940  1.00  0.00     0.124 S 
ATOM     72  O   UNL     1      -0.822  10.783  13.561  1.00  0.00    -0.237 OA
ATOM     73  O   UNL     1       0.501  11.908  15.319  1.00  0.00    -0.237 OA
ATOM     74  O   UNL     1      -0.400  13.212  13.430  1.00  0.00    -0.744 OA
ENDBRANCH  70  71
ENDBRANCH  49  63
BRANCH  50  75
ATOM     75  C   UNL     1      11.683   8.371   5.884  1.00  0.00     0.058 A 
ATOM     76  C   UNL     1      12.918   8.026   6.454  1.00  0.00     0.135 A 
ATOM     77  C   UNL     1      11.576   8.334   4.485  1.00  0.00     0.135 A 
ATOM     78  F   UNL     1      13.071   8.051   7.786  1.00  0.00    -0.206 F 
ATOM     79  C   UNL     1      14.010   7.671   5.669  1.00  0.00     0.059 A 
ATOM     80  C   UNL     1      12.648   7.961   3.680  1.00  0.00     0.059 A 
ATOM     81  F   UNL     1      10.411   8.637   3.892  1.00  0.00    -0.206 F 
ATOM     82  C   UNL     1      13.865   7.639   4.281  1.00  0.00     0.060 A 
BRANCH  82  83
ATOM     83  S   UNL     1      15.273   7.123   3.274  1.00  0.00     0.124 S 
ATOM     84  O   UNL     1      16.129   8.301   3.341  1.00  0.00    -0.237 OA
ATOM     85  O   UNL     1      15.749   5.945   3.991  1.00  0.00    -0.237 OA
ATOM     86  O   UNL     1      14.671   6.853   1.972  1.00  0.00    -0.744 OA
ENDBRANCH  82  83
ENDBRANCH  50  75
BRANCH  62  87
ATOM     87  C   UNL     1      10.271  13.842   9.974  1.00  0.00     0.058 A 
ATOM     88  C   UNL     1      10.453  14.907   9.079  1.00  0.00     0.135 A 
ATOM     89  C   UNL     1      10.806  13.967  11.266  1.00  0.00     0.135 A 
ATOM     90  F   UNL     1       9.964  14.833   7.832  1.00  0.00    -0.206 F 
ATOM     91  C   UNL     1      11.159  16.048   9.446  1.00  0.00     0.059 A 
ATOM     92  C   UNL     1      11.495  15.109  11.662  1.00  0.00     0.059 A 
ATOM     93  F   UNL     1      10.650  12.980  12.162  1.00  0.00    -0.206 F 
ATOM     94  C   UNL     1      11.675  16.140  10.740  1.00  0.00     0.060 A 
BRANCH  94  95
ATOM     95  S   UNL     1      12.560  17.640  11.217  1.00  0.00     0.124 S 
ATOM     96  O   UNL     1      13.844  17.447  10.551  1.00  0.00    -0.237 OA
ATOM     97  O   UNL     1      11.712  18.693  10.666  1.00  0.00    -0.237 OA
ATOM     98  O   UNL     1      12.590  17.567  12.674  1.00  0.00    -0.744 OA
ENDBRANCH  94  95
ENDBRANCH  62  87
ENDBRANCH  36  37
ENDBRANCH  28  31
ENDBRANCH  26  27
ENDBRANCH  25  26
ENDBRANCH   1  25
TORSDOF 17
