REMARK SMILES COc1ccc2c(c1)OC[C@@]1(C(=O)NCCCCNC(=O)c3ccc(-c4c5nc(c(-c6c(F)cc(S(=O)(=O)[O-])cc6F)c6ccc([nH]6)c(-c6c(F)cc(S(=O)(=O)[O-])cc6F)c6nc(c(-c7c(F)cc(S(=O)(=O)[O-])cc7F)c7ccc4[nH]7)C=C6)C=C5)cc3)C[N@@H+](Cc3cc(C(C)(C)C)n[nH]3)C[C@H]21
REMARK SMILES IDX 16 1 15 2 14 3 12 4 13 5 11 7 3 8 4 9 8 10 5 11 7 12 6 13
REMARK SMILES IDX 9 14 101 15 10 16 100 17 88 18 89 19 2 21 1 22 90 23 91 24
REMARK SMILES IDX 92 25 99 26 93 27 98 28 94 30 95 31 96 32 97 33 17 34 18 35
REMARK SMILES IDX 19 36 20 37 21 39 22 40 23 41 87 42 24 43 86 44 25 45 26 46
REMARK SMILES IDX 27 47 80 48 28 49 85 50 79 51 81 52 29 53 84 54 78 55 77 56
REMARK SMILES IDX 30 58 64 59 43 60 63 61 44 62 47 63 62 64 82 65 45 66 46 67
REMARK SMILES IDX 61 69 83 70 48 71 31 72 32 73 41 74 33 75 34 76 40 77 42 78
REMARK SMILES IDX 35 79 36 80 37 81 38 82 39 83 65 84 66 85 75 86 67 87 68 88
REMARK SMILES IDX 74 89 76 90 69 91 70 92 71 93 72 94 73 95 49 96 50 97 59 98
REMARK SMILES IDX 51 99 52 100 58 101 60 102 53 103 54 104 55 105 56 106
REMARK SMILES IDX 57 107
REMARK H PARENT 14 6 89 20 99 29 19 38 81 57 47 68
REMARK Flexibility Score: inf
ROOT
ATOM      1  C   UNL     1       5.109   4.537   7.102  1.00  0.00     0.023 C 
ENDROOT
BRANCH   1   2
ATOM      2  C   UNL     1       4.556   5.452   6.020  1.00  0.00     0.116 C 
BRANCH   2   3
ATOM      3  N   UNL     1       5.352   5.508   4.809  1.00  0.00    -0.355 N 
ATOM      4  C   UNL     1       4.870   5.905   3.587  1.00  0.00     0.236 C 
ATOM      5  O   UNL     1       5.614   6.587   2.875  1.00  0.00    -0.274 OA
ATOM      6  H   UNL     1       6.298   5.244   4.867  1.00  0.00     0.163 HD
BRANCH   4   7
ATOM      7  C   UNL     1       3.434   5.466   3.201  1.00  0.00     0.144 C 
ATOM      8  C   UNL     1       0.662   2.029   0.333  1.00  0.00     0.122 A 
ATOM      9  C   UNL     1      -0.204   3.109   0.515  1.00  0.00     0.047 A 
ATOM     10  C   UNL     1       1.958   2.098   0.844  1.00  0.00     0.093 A 
ATOM     11  C   UNL     1       0.199   4.224   1.252  1.00  0.00     0.012 A 
ATOM     12  C   UNL     1       2.364   3.241   1.533  1.00  0.00     0.126 A 
ATOM     13  C   UNL     1       1.487   4.281   1.798  1.00  0.00     0.005 A 
ATOM     14  O   UNL     1       3.670   3.344   1.907  1.00  0.00    -0.492 OA
ATOM     15  C   UNL     1       1.999   5.500   2.531  1.00  0.00     0.103 C 
ATOM     16  C   UNL     1       4.098   4.734   1.942  1.00  0.00     0.253 C 
ATOM     17  C   UNL     1       1.055   5.884   3.670  1.00  0.00     0.272 C 
ATOM     18  C   UNL     1       3.089   7.009   3.639  1.00  0.00     0.284 C 
ATOM     19  N   UNL     1       1.837   6.852   4.412  1.00  0.00    -0.328 N 
ATOM     20  H   UNL     1       2.045   6.515   5.351  1.00  0.00     0.348 HD
BRANCH   8  21
ATOM     21  O   UNL     1       0.148   0.999  -0.406  1.00  0.00    -0.497 OA
ATOM     22  C   UNL     1       0.750  -0.272  -0.191  1.00  0.00     0.278 C 
ENDBRANCH   8  21
BRANCH  19  23
ATOM     23  C   UNL     1       1.141   8.078   4.795  1.00  0.00     0.319 C 
BRANCH  23  24
ATOM     24  C   UNL     1       0.958   9.012   3.661  1.00  0.00     0.090 A 
ATOM     25  C   UNL     1       0.176   8.948   2.531  1.00  0.00     0.055 A 
ATOM     26  N   UNL     1       1.722  10.135   3.514  1.00  0.00    -0.277 N 
ATOM     27  C   UNL     1       0.710   9.930   1.666  1.00  0.00     0.068 A 
ATOM     28  N   UNL     1       1.594  10.707   2.308  1.00  0.00    -0.180 NA
ATOM     29  H   UNL     1       2.308  10.488   4.222  1.00  0.00     0.190 HD
BRANCH  27  30
ATOM     30  C   UNL     1       0.458  10.114   0.183  1.00  0.00     0.006 C 
ATOM     31  C   UNL     1      -0.271  11.443  -0.069  1.00  0.00     0.017 C 
ATOM     32  C   UNL     1       1.802  10.110  -0.579  1.00  0.00     0.017 C 
ATOM     33  C   UNL     1      -0.399   8.964  -0.392  1.00  0.00     0.017 C 
ENDBRANCH  27  30
ENDBRANCH  23  24
ENDBRANCH  19  23
ENDBRANCH   4   7
ENDBRANCH   2   3
ENDBRANCH   1   2
BRANCH   1  34
ATOM     34  C   UNL     1       6.601   4.653   7.396  1.00  0.00     0.023 C 
BRANCH  34  35
ATOM     35  C   UNL     1       7.169   6.059   7.548  1.00  0.00     0.116 C 
BRANCH  35  36
ATOM     36  N   UNL     1       6.640   6.805   8.678  1.00  0.00    -0.352 N 
ATOM     37  C   UNL     1       7.310   7.359   9.748  1.00  0.00     0.251 C 
ATOM     38  H   UNL     1       5.663   6.933   8.679  1.00  0.00     0.163 HD
ATOM     39  O   UNL     1       6.688   7.935  10.636  1.00  0.00    -0.269 OA
BRANCH  37  40
ATOM     40  C   UNL     1       8.777   7.197   9.849  1.00  0.00     0.039 A 
ATOM     41  C   UNL     1       9.604   7.503   8.767  1.00  0.00     0.014 A 
ATOM     42  C   UNL     1       9.315   6.638  11.011  1.00  0.00     0.014 A 
ATOM     43  C   UNL     1      10.917   7.045   8.763  1.00  0.00     0.010 A 
ATOM     44  C   UNL     1      10.663   6.266  11.039  1.00  0.00     0.010 A 
ATOM     45  C   UNL     1      11.457   6.401   9.889  1.00  0.00    -0.014 A 
BRANCH  45  46
ATOM     46  C   UNL     1      12.833   5.835   9.824  1.00  0.00     0.031 A 
ATOM     47  C   UNL     1      13.059   4.346   9.940  1.00  0.00     0.074 A 
ATOM     48  C   UNL     1      13.874   6.654   9.580  1.00  0.00     0.049 A 
ATOM     49  N   UNL     1      14.185   3.678   9.907  1.00  0.00    -0.248 NA
ATOM     50  C   UNL     1      11.870   3.496  10.118  1.00  0.00     0.031 C 
ATOM     51  C   UNL     1      13.783   8.106   9.416  1.00  0.00     0.029 A 
ATOM     52  N   UNL     1      15.206   6.382   9.390  1.00  0.00    -0.354 N 
ATOM     53  C   UNL     1      13.845   2.340  10.078  1.00  0.00     0.074 A 
ATOM     54  C   UNL     1      12.408   2.290  10.242  1.00  0.00     0.031 C 
ATOM     55  C   UNL     1      14.990   8.588   9.084  1.00  0.00     0.029 A 
ATOM     56  C   UNL     1      15.954   7.493   9.079  1.00  0.00     0.049 A 
ATOM     57  H   UNL     1      15.588   5.479   9.469  1.00  0.00     0.167 HD
ATOM     58  C   UNL     1      14.652   1.252  10.085  1.00  0.00     0.037 A 
ATOM     59  C   UNL     1      17.270   7.621   8.828  1.00  0.00     0.037 A 
ATOM     60  C   UNL     1      16.079   1.300   9.891  1.00  0.00     0.049 A 
ATOM     61  C   UNL     1      18.150   6.406   8.888  1.00  0.00     0.074 A 
ATOM     62  C   UNL     1      16.984   0.252   9.889  1.00  0.00     0.029 A 
ATOM     63  N   UNL     1      16.807   2.456   9.652  1.00  0.00    -0.354 N 
ATOM     64  N   UNL     1      17.814   5.156   9.098  1.00  0.00    -0.248 NA
ATOM     65  C   UNL     1      19.591   6.621   8.700  1.00  0.00     0.031 C 
ATOM     66  C   UNL     1      18.263   0.777   9.675  1.00  0.00     0.029 A 
ATOM     67  C   UNL     1      18.151   2.148   9.510  1.00  0.00     0.049 A 
ATOM     68  H   UNL     1      16.426   3.361   9.591  1.00  0.00     0.167 HD
ATOM     69  C   UNL     1      19.000   4.434   9.063  1.00  0.00     0.074 A 
ATOM     70  C   UNL     1      20.061   5.384   8.791  1.00  0.00     0.031 C 
ATOM     71  C   UNL     1      19.194   3.106   9.246  1.00  0.00     0.037 A 
BRANCH  58  72
ATOM     72  C   UNL     1      14.018  -0.093  10.312  1.00  0.00     0.058 A 
ATOM     73  C   UNL     1      13.278  -0.735   9.308  1.00  0.00     0.135 A 
ATOM     74  C   UNL     1      14.201  -0.773  11.527  1.00  0.00     0.135 A 
ATOM     75  F   UNL     1      13.059  -0.123   8.133  1.00  0.00    -0.206 F 
ATOM     76  C   UNL     1      12.728  -1.998   9.505  1.00  0.00     0.059 A 
ATOM     77  C   UNL     1      13.678  -2.046  11.739  1.00  0.00     0.059 A 
ATOM     78  F   UNL     1      14.900  -0.204  12.521  1.00  0.00    -0.206 F 
ATOM     79  C   UNL     1      12.934  -2.646  10.724  1.00  0.00     0.060 A 
BRANCH  79  80
ATOM     80  S   UNL     1      12.223  -4.290  10.958  1.00  0.00     0.124 S 
ATOM     81  O   UNL     1      10.803  -3.975  11.093  1.00  0.00    -0.237 OA
ATOM     82  O   UNL     1      12.605  -4.974   9.728  1.00  0.00    -0.237 OA
ATOM     83  O   UNL     1      12.875  -4.774  12.171  1.00  0.00    -0.744 OA
ENDBRANCH  79  80
ENDBRANCH  58  72
BRANCH  59  84
ATOM     84  C   UNL     1      17.831   8.957   8.501  1.00  0.00     0.058 A 
ATOM     85  C   UNL     1      18.264   9.255   7.202  1.00  0.00     0.135 A 
ATOM     86  C   UNL     1      17.909   9.970   9.468  1.00  0.00     0.135 A 
ATOM     87  F   UNL     1      18.215   8.314   6.246  1.00  0.00    -0.206 F 
ATOM     88  C   UNL     1      18.758  10.512   6.871  1.00  0.00     0.059 A 
ATOM     89  C   UNL     1      18.377  11.242   9.156  1.00  0.00     0.059 A 
ATOM     90  F   UNL     1      17.494   9.736  10.723  1.00  0.00    -0.206 F 
ATOM     91  C   UNL     1      18.805  11.501   7.855  1.00  0.00     0.060 A 
BRANCH  91  92
ATOM     92  S   UNL     1      19.384  13.150   7.401  1.00  0.00     0.124 S 
ATOM     93  O   UNL     1      20.822  12.938   7.298  1.00  0.00    -0.237 OA
ATOM     94  O   UNL     1      18.681  13.388   6.144  1.00  0.00    -0.237 OA
ATOM     95  O   UNL     1      18.945  13.979   8.520  1.00  0.00    -0.744 OA
ENDBRANCH  91  92
ENDBRANCH  59  84
BRANCH  71  96
ATOM     96  C   UNL     1      20.603   2.597   9.155  1.00  0.00     0.058 A 
ATOM     97  C   UNL     1      21.516   2.791  10.202  1.00  0.00     0.135 A 
ATOM     98  C   UNL     1      21.028   1.864   8.036  1.00  0.00     0.135 A 
ATOM     99  F   UNL     1      21.159   3.493  11.289  1.00  0.00    -0.206 F 
ATOM    100  C   UNL     1      22.810   2.285  10.138  1.00  0.00     0.059 A 
ATOM    101  C   UNL     1      22.311   1.331   7.959  1.00  0.00     0.059 A 
ATOM    102  F   UNL     1      20.188   1.646   7.011  1.00  0.00    -0.206 F 
ATOM    103  C   UNL     1      23.197   1.554   9.013  1.00  0.00     0.060 A 
BRANCH 103 104
ATOM    104  S   UNL     1      24.867   0.869   8.961  1.00  0.00     0.124 S 
ATOM    105  O   UNL     1      25.666   2.062   8.702  1.00  0.00    -0.237 OA
ATOM    106  O   UNL     1      25.008   0.288  10.292  1.00  0.00    -0.237 OA
ATOM    107  O   UNL     1      24.804  -0.095   7.866  1.00  0.00    -0.744 OA
ENDBRANCH 103 104
ENDBRANCH  71  96
ENDBRANCH  45  46
ENDBRANCH  37  40
ENDBRANCH  35  36
ENDBRANCH  34  35
ENDBRANCH   1  34
TORSDOF 18
