REMARK SMILES COc1ccc(C2=NN(C(=O)CCC(=O)NCCCCNC(=O)c3ccc(-c4c5nc(c(-c6c(F)cc(S(=O)(=O)[O-])cc6F)c6ccc([nH]6)c(-c6c(F)cc(S(=O)(=O)[O-])cc6F)c6nc(c(-c7c(F)cc(S(=O)(=O)[O-])cc7F)c7ccc4[nH]7)C=C6)C=C5)cc3)[C@H](c3ccc(Cl)cc3Cl)C2)cc1
REMARK SMILES IDX 17 1 16 2 14 3 15 4 13 6 12 7 10 8 11 9 9 10 7 11 8 12 99 13
REMARK SMILES IDX 90 14 6 15 3 16 4 17 101 18 5 19 100 20 2 21 1 22 91 23
REMARK SMILES IDX 92 24 97 25 93 26 96 27 98 28 94 29 95 30 18 31 19 32 20 33
REMARK SMILES IDX 21 34 22 35 23 37 24 38 25 39 89 40 26 41 88 42 27 43 28 44
REMARK SMILES IDX 29 45 82 46 30 47 87 48 81 49 83 50 31 51 86 52 80 53 79 54
REMARK SMILES IDX 32 56 66 57 45 58 65 59 46 60 49 61 64 62 84 63 47 64 48 65
REMARK SMILES IDX 63 67 85 68 50 69 33 70 34 71 43 72 35 73 36 74 42 75 44 76
REMARK SMILES IDX 37 77 38 78 39 79 40 80 41 81 67 82 68 83 77 84 69 85 70 86
REMARK SMILES IDX 76 87 78 88 71 89 72 90 73 91 74 92 75 93 51 94 52 95 61 96
REMARK SMILES IDX 53 97 54 98 60 99 62 100 55 101 56 102 57 103 58 104 59 105
REMARK H PARENT 16 5 21 36 83 55 49 66
REMARK Flexibility Score: inf
ROOT
ATOM      1  C   UNL     1       4.081   5.781   5.171  1.00  0.00     0.116 C 
ENDROOT
BRANCH   1   2
ATOM      2  N   UNL     1       5.152   6.514   6.093  1.00  0.00    -0.356 N 
ATOM      3  C   UNL     1       5.462   6.642   7.417  1.00  0.00     0.220 C 
ATOM      4  O   UNL     1       6.547   7.200   7.637  1.00  0.00    -0.275 OA
ATOM      5  H   UNL     1       5.782   7.033   5.541  1.00  0.00     0.163 HD
BRANCH   3   6
ATOM      6  C   UNL     1       4.664   6.141   8.628  1.00  0.00     0.110 C 
BRANCH   6   7
ATOM      7  C   UNL     1       3.154   6.282   8.710  1.00  0.00     0.112 C 
BRANCH   7   8
ATOM      8  C   UNL     1       2.621   5.267   7.775  1.00  0.00     0.243 C 
ATOM      9  O   UNL     1       2.187   4.181   8.134  1.00  0.00    -0.273 OA
BRANCH   8  10
ATOM     10  N   UNL     1       2.801   5.702   6.490  1.00  0.00    -0.225 N 
ATOM     11  C   UNL     1       2.926   5.130   3.580  1.00  0.00     0.071 C 
ATOM     12  N   UNL     1       2.893   4.395   5.052  1.00  0.00    -0.174 NA
ATOM     13  C   UNL     1       3.263   7.024   3.740  1.00  0.00     0.091 C 
ATOM     14  C   UNL     1       2.989   7.465   5.620  1.00  0.00     0.149 C 
BRANCH  11  15
ATOM     15  C   UNL     1       1.900   4.873   2.387  1.00  0.00    -0.002 A 
ATOM     16  C   UNL     1      -0.366   3.617   1.229  1.00  0.00     0.118 A 
ATOM     17  C   UNL     1      -0.508   4.861   1.771  1.00  0.00     0.047 A 
ATOM     18  C   UNL     1       0.931   3.247   0.948  1.00  0.00     0.047 A 
ATOM     19  C   UNL     1       0.633   5.520   2.277  1.00  0.00     0.014 A 
ATOM     20  C   UNL     1       2.069   3.833   1.543  1.00  0.00     0.014 A 
BRANCH  16  21
ATOM     21  O   UNL     1      -1.470   2.886   0.907  1.00  0.00    -0.497 OA
ATOM     22  C   UNL     1      -1.436   1.500   1.282  1.00  0.00     0.278 C 
ENDBRANCH  16  21
ENDBRANCH  11  15
BRANCH  14  23
ATOM     23  C   UNL     1       2.220   8.837   5.751  1.00  0.00    -0.004 A 
ATOM     24  C   UNL     1       1.603   9.364   4.584  1.00  0.00     0.009 A 
ATOM     25  C   UNL     1       2.620   9.830   6.695  1.00  0.00     0.047 A 
ATOM     26  C   UNL     1       1.505  10.745   4.323  1.00  0.00     0.021 A 
ATOM     27  C   UNL     1       2.418  11.210   6.476  1.00  0.00     0.041 A 
ATOM     28  Cl  UNL     1       3.627   9.531   8.069  1.00  0.00    -0.084 Cl
ATOM     29  C   UNL     1       1.906  11.664   5.275  1.00  0.00     0.042 A 
ATOM     30  Cl  UNL     1       1.844  13.350   4.945  1.00  0.00    -0.084 Cl
ENDBRANCH  14  23
ENDBRANCH   8  10
ENDBRANCH   7   8
ENDBRANCH   6   7
ENDBRANCH   3   6
ENDBRANCH   1   2
BRANCH   1  31
ATOM     31  C   UNL     1       1.845   5.898   4.967  1.00  0.00     0.023 C 
BRANCH  31  32
ATOM     32  C   UNL     1       0.813   4.233   4.886  1.00  0.00     0.023 C 
BRANCH  32  33
ATOM     33  C   UNL     1       1.538   2.630   4.476  1.00  0.00     0.116 C 
BRANCH  33  34
ATOM     34  N   UNL     1       0.961   1.578   3.585  1.00  0.00    -0.352 N 
ATOM     35  C   UNL     1       1.753   0.510   3.025  1.00  0.00     0.251 C 
ATOM     36  H   UNL     1       0.000   1.615   3.372  1.00  0.00     0.163 HD
ATOM     37  O   UNL     1       1.732  -0.601   3.554  1.00  0.00    -0.269 OA
BRANCH  35  38
ATOM     38  C   UNL     1       2.340   0.594   1.613  1.00  0.00     0.039 A 
ATOM     39  C   UNL     1       1.585   0.128   0.517  1.00  0.00     0.014 A 
ATOM     40  C   UNL     1       3.575   1.177   1.309  1.00  0.00     0.014 A 
ATOM     41  C   UNL     1       1.857   0.566  -0.807  1.00  0.00     0.010 A 
ATOM     42  C   UNL     1       3.859   1.611  -0.027  1.00  0.00     0.010 A 
ATOM     43  C   UNL     1       2.937   1.423  -1.082  1.00  0.00    -0.014 A 
BRANCH  43  44
ATOM     44  C   UNL     1       3.216   1.824  -2.511  1.00  0.00     0.031 A 
ATOM     45  C   UNL     1       4.096   0.854  -3.252  1.00  0.00     0.074 A 
ATOM     46  C   UNL     1       2.672   2.871  -3.192  1.00  0.00     0.049 A 
ATOM     47  N   UNL     1       4.512   0.858  -4.487  1.00  0.00    -0.248 NA
ATOM     48  C   UNL     1       4.556  -0.300  -2.461  1.00  0.00     0.031 C 
ATOM     49  C   UNL     1       1.737   3.864  -2.659  1.00  0.00     0.029 A 
ATOM     50  N   UNL     1       2.804   3.264  -4.520  1.00  0.00    -0.354 N 
ATOM     51  C   UNL     1       5.282  -0.292  -4.613  1.00  0.00     0.074 A 
ATOM     52  C   UNL     1       5.310  -0.943  -3.328  1.00  0.00     0.031 C 
ATOM     53  C   UNL     1       1.360   4.714  -3.639  1.00  0.00     0.029 A 
ATOM     54  C   UNL     1       2.041   4.365  -4.884  1.00  0.00     0.049 A 
ATOM     55  H   UNL     1       3.394   2.795  -5.154  1.00  0.00     0.167 HD
ATOM     56  C   UNL     1       5.901  -0.789  -5.705  1.00  0.00     0.037 A 
ATOM     57  C   UNL     1       1.908   5.011  -6.074  1.00  0.00     0.037 A 
ATOM     58  C   UNL     1       5.878  -0.154  -6.987  1.00  0.00     0.049 A 
ATOM     59  C   UNL     1       2.687   4.486  -7.270  1.00  0.00     0.074 A 
ATOM     60  C   UNL     1       6.532  -0.529  -8.143  1.00  0.00     0.029 A 
ATOM     61  N   UNL     1       5.157   0.994  -7.278  1.00  0.00    -0.354 N 
ATOM     62  N   UNL     1       3.452   3.421  -7.351  1.00  0.00    -0.248 NA
ATOM     63  C   UNL     1       2.600   5.247  -8.529  1.00  0.00     0.031 C 
ATOM     64  C   UNL     1       6.244   0.421  -9.126  1.00  0.00     0.029 A 
ATOM     65  C   UNL     1       5.360   1.351  -8.597  1.00  0.00     0.049 A 
ATOM     66  H   UNL     1       4.586   1.481  -6.641  1.00  0.00     0.167 HD
ATOM     67  C   UNL     1       3.912   3.372  -8.665  1.00  0.00     0.074 A 
ATOM     68  C   UNL     1       3.329   4.505  -9.353  1.00  0.00     0.031 C 
ATOM     69  C   UNL     1       4.745   2.477  -9.254  1.00  0.00     0.037 A 
BRANCH  56  70
ATOM     70  C   UNL     1       6.705  -2.039  -5.498  1.00  0.00     0.058 A 
ATOM     71  C   UNL     1       6.098  -3.278  -5.229  1.00  0.00     0.135 A 
ATOM     72  C   UNL     1       8.105  -1.970  -5.464  1.00  0.00     0.135 A 
ATOM     73  F   UNL     1       4.760  -3.383  -5.192  1.00  0.00    -0.206 F 
ATOM     74  C   UNL     1       6.854  -4.395  -4.892  1.00  0.00     0.059 A 
ATOM     75  C   UNL     1       8.881  -3.083  -5.166  1.00  0.00     0.059 A 
ATOM     76  F   UNL     1       8.730  -0.802  -5.685  1.00  0.00    -0.206 F 
ATOM     77  C   UNL     1       8.245  -4.286  -4.862  1.00  0.00     0.060 A 
BRANCH  77  78
ATOM     78  S   UNL     1       9.214  -5.740  -4.416  1.00  0.00     0.124 S 
ATOM     79  O   UNL     1       8.945  -5.842  -2.985  1.00  0.00    -0.237 OA
ATOM     80  O   UNL     1       8.614  -6.778  -5.249  1.00  0.00    -0.237 OA
ATOM     81  O   UNL     1      10.577  -5.362  -4.774  1.00  0.00    -0.744 OA
ENDBRANCH  77  78
ENDBRANCH  56  70
BRANCH  57  82
ATOM     82  C   UNL     1       1.044   6.239  -6.237  1.00  0.00     0.058 A 
ATOM     83  C   UNL     1      -0.055   6.279  -7.118  1.00  0.00     0.135 A 
ATOM     84  C   UNL     1       1.352   7.439  -5.572  1.00  0.00     0.135 A 
ATOM     85  F   UNL     1      -0.388   5.185  -7.822  1.00  0.00    -0.206 F 
ATOM     86  C   UNL     1      -0.802   7.443  -7.335  1.00  0.00     0.059 A 
ATOM     87  C   UNL     1       0.606   8.608  -5.750  1.00  0.00     0.059 A 
ATOM     88  F   UNL     1       2.398   7.490  -4.734  1.00  0.00    -0.206 F 
ATOM     89  C   UNL     1      -0.467   8.605  -6.639  1.00  0.00     0.060 A 
BRANCH  89  90
ATOM     90  S   UNL     1      -1.466  10.097  -6.877  1.00  0.00     0.124 S 
ATOM     91  O   UNL     1      -1.099  10.493  -8.232  1.00  0.00    -0.237 OA
ATOM     92  O   UNL     1      -2.823   9.588  -6.706  1.00  0.00    -0.237 OA
ATOM     93  O   UNL     1      -1.001  10.985  -5.814  1.00  0.00    -0.744 OA
ENDBRANCH  89  90
ENDBRANCH  57  82
BRANCH  69  94
ATOM     94  C   UNL     1       5.054   2.651 -10.716  1.00  0.00     0.058 A 
ATOM     95  C   UNL     1       5.910   3.663 -11.175  1.00  0.00     0.135 A 
ATOM     96  C   UNL     1       4.581   1.714 -11.651  1.00  0.00     0.135 A 
ATOM     97  F   UNL     1       6.393   4.579 -10.320  1.00  0.00    -0.206 F 
ATOM     98  C   UNL     1       6.275   3.750 -12.514  1.00  0.00     0.059 A 
ATOM     99  C   UNL     1       4.957   1.764 -12.988  1.00  0.00     0.059 A 
ATOM    100  F   UNL     1       3.776   0.714 -11.258  1.00  0.00    -0.206 F 
ATOM    101  C   UNL     1       5.798   2.791 -13.411  1.00  0.00     0.060 A 
BRANCH 101 102
ATOM    102  S   UNL     1       6.324   2.886 -15.135  1.00  0.00     0.124 S 
ATOM    103  O   UNL     1       5.570   4.042 -15.608  1.00  0.00    -0.237 OA
ATOM    104  O   UNL     1       7.766   3.076 -15.012  1.00  0.00    -0.237 OA
ATOM    105  O   UNL     1       5.912   1.599 -15.688  1.00  0.00    -0.744 OA
ENDBRANCH 101 102
ENDBRANCH  69  94
ENDBRANCH  43  44
ENDBRANCH  35  38
ENDBRANCH  33  34
ENDBRANCH  32  33
ENDBRANCH  31  32
ENDBRANCH   1  31
TORSDOF 20
