REMARK SMILES Cc1ccc(C(=O)NCCCCNC(=O)c2ccc(-c3c4nc(c(-c5c(F)cc(S(=O)(=O)[O-])cc5F)c5ccc([nH]5)c(-c5c(F)cc(S(=O)(=O)[O-])cc5F)c5nc(c(-c6c(F)cc(S(=O)(=O)[O-])cc6F)c6ccc3[nH]6)C=C5)C=C4)cc2)cc1N1C(=O)/C(=C\c2nc3ccccc3n2C)SC1=S
REMARK SMILES IDX 11 1 10 2 9 3 8 4 6 5 7 6 5 8 1 9 2 10 3 11 83 12 4 13 82 14
REMARK SMILES IDX 84 15 85 16 100 17 86 18 87 19 99 20 101 21 88 22 89 23
REMARK SMILES IDX 90 24 97 25 91 26 96 27 98 28 92 29 95 30 93 31 94 32 12 33
REMARK SMILES IDX 13 34 14 35 15 37 16 38 17 39 81 40 18 41 80 42 19 43 20 44
REMARK SMILES IDX 21 45 74 46 22 47 79 48 73 49 75 50 23 51 78 52 72 53 71 54
REMARK SMILES IDX 24 56 58 57 37 58 57 59 38 60 41 61 56 62 76 63 39 64 40 65
REMARK SMILES IDX 55 67 77 68 42 69 25 70 26 71 35 72 27 73 28 74 34 75 36 76
REMARK SMILES IDX 29 77 30 78 31 79 32 80 33 81 59 82 60 83 69 84 61 85 62 86
REMARK SMILES IDX 68 87 70 88 63 89 64 90 65 91 66 92 67 93 43 94 44 95 53 96
REMARK SMILES IDX 45 97 46 98 52 99 54 100 47 101 48 102 49 103 50 104 51 105
REMARK H PARENT 8 7 13 36 75 55 41 66
REMARK Flexibility Score: inf
ROOT
ATOM      1  C   UNL     1      -4.696   3.548  -2.170  1.00  0.00     0.023 C 
ENDROOT
BRANCH   1   2
ATOM      2  C   UNL     1      -3.417   3.384  -1.339  1.00  0.00     0.023 C 
BRANCH   2   3
ATOM      3  C   UNL     1      -3.547   2.518  -0.071  1.00  0.00     0.116 C 
BRANCH   3   4
ATOM      4  N   UNL     1      -3.848   1.124  -0.374  1.00  0.00    -0.352 N 
ATOM      5  C   UNL     1      -3.076  -0.005  -0.498  1.00  0.00     0.251 C 
ATOM      6  O   UNL     1      -3.665  -1.076  -0.667  1.00  0.00    -0.269 OA
ATOM      7  H   UNL     1      -4.807   0.956  -0.520  1.00  0.00     0.163 HD
BRANCH   5   8
ATOM      8  C   UNL     1      -1.585  -0.023  -0.429  1.00  0.00     0.041 A 
ATOM      9  C   UNL     1       2.721  -0.342   0.050  1.00  0.00     0.046 C 
ATOM     10  C   UNL     1       1.244  -0.192  -0.182  1.00  0.00    -0.027 A 
ATOM     11  C   UNL     1       0.438  -1.335  -0.063  1.00  0.00     0.006 A 
ATOM     12  C   UNL     1       0.623   1.034  -0.475  1.00  0.00     0.054 A 
ATOM     13  C   UNL     1      -0.956  -1.248  -0.166  1.00  0.00     0.014 A 
ATOM     14  C   UNL     1      -0.774   1.089  -0.624  1.00  0.00     0.041 A 
BRANCH  12  15
ATOM     15  N   UNL     1       1.327   2.269  -0.416  1.00  0.00    -0.261 N 
ATOM     16  C   UNL     1       0.980   3.170   0.581  1.00  0.00     0.270 C 
ATOM     17  C   UNL     1       2.240   2.723  -1.347  1.00  0.00     0.152 C 
ATOM     18  O   UNL     1      -0.057   3.173   1.229  1.00  0.00    -0.268 OA
ATOM     19  C   UNL     1       2.005   4.250   0.652  1.00  0.00     0.084 C 
ATOM     20  S   UNL     1       2.857   4.312  -0.842  1.00  0.00    -0.054 SA
ATOM     21  S   UNL     1       2.717   2.014  -2.784  1.00  0.00    -0.051 S 
ATOM     22  C   UNL     1       2.300   4.969   1.747  1.00  0.00     0.068 C 
BRANCH  22  23
ATOM     23  C   UNL     1       1.758   4.554   2.988  1.00  0.00     0.134 A 
ATOM     24  N   UNL     1       1.947   3.401   3.605  1.00  0.00    -0.229 NA
ATOM     25  N   UNL     1       0.735   5.250   3.583  1.00  0.00    -0.328 N 
ATOM     26  C   UNL     1       0.826   3.228   4.382  1.00  0.00     0.089 A 
ATOM     27  C   UNL     1      -0.001   4.342   4.306  1.00  0.00     0.068 A 
ATOM     28  C   UNL     1       0.474   6.664   3.508  1.00  0.00     0.152 C 
ATOM     29  C   UNL     1       0.412   2.115   5.128  1.00  0.00     0.030 A 
ATOM     30  C   UNL     1      -1.280   4.375   4.862  1.00  0.00     0.028 A 
ATOM     31  C   UNL     1      -0.865   2.128   5.702  1.00  0.00     0.002 A 
ATOM     32  C   UNL     1      -1.705   3.230   5.543  1.00  0.00     0.002 A 
ENDBRANCH  22  23
ENDBRANCH  12  15
ENDBRANCH   5   8
ENDBRANCH   3   4
ENDBRANCH   2   3
ENDBRANCH   1   2
BRANCH   1  33
ATOM     33  C   UNL     1      -5.789   4.338  -1.477  1.00  0.00     0.116 C 
BRANCH  33  34
ATOM     34  N   UNL     1      -5.626   5.783  -1.472  1.00  0.00    -0.352 N 
ATOM     35  C   UNL     1      -6.769   6.568  -1.281  1.00  0.00     0.251 C 
ATOM     36  H   UNL     1      -4.741   6.196  -1.598  1.00  0.00     0.163 HD
ATOM     37  O   UNL     1      -7.492   6.979  -2.162  1.00  0.00    -0.269 OA
BRANCH  35  38
ATOM     38  C   UNL     1      -7.139   6.684   0.149  1.00  0.00     0.039 A 
ATOM     39  C   UNL     1      -6.941   7.854   0.881  1.00  0.00     0.014 A 
ATOM     40  C   UNL     1      -7.512   5.497   0.779  1.00  0.00     0.014 A 
ATOM     41  C   UNL     1      -6.982   7.791   2.278  1.00  0.00     0.010 A 
ATOM     42  C   UNL     1      -7.437   5.412   2.145  1.00  0.00     0.010 A 
ATOM     43  C   UNL     1      -7.149   6.555   2.899  1.00  0.00    -0.014 A 
BRANCH  43  44
ATOM     44  C   UNL     1      -7.036   6.281   4.324  1.00  0.00     0.031 A 
ATOM     45  C   UNL     1      -8.249   5.885   5.079  1.00  0.00     0.074 A 
ATOM     46  C   UNL     1      -5.806   6.041   4.825  1.00  0.00     0.049 A 
ATOM     47  N   UNL     1      -8.252   5.499   6.308  1.00  0.00    -0.248 NA
ATOM     48  C   UNL     1      -9.593   5.937   4.498  1.00  0.00     0.031 C 
ATOM     49  C   UNL     1      -5.460   5.178   5.950  1.00  0.00     0.029 A 
ATOM     50  N   UNL     1      -4.633   6.734   4.558  1.00  0.00    -0.354 N 
ATOM     51  C   UNL     1      -9.490   4.965   6.572  1.00  0.00     0.074 A 
ATOM     52  C   UNL     1     -10.320   5.383   5.473  1.00  0.00     0.031 C 
ATOM     53  C   UNL     1      -4.260   5.540   6.425  1.00  0.00     0.029 A 
ATOM     54  C   UNL     1      -3.881   6.763   5.736  1.00  0.00     0.049 A 
ATOM     55  H   UNL     1      -4.378   7.133   3.695  1.00  0.00     0.167 HD
ATOM     56  C   UNL     1      -9.620   4.109   7.622  1.00  0.00     0.037 A 
ATOM     57  C   UNL     1      -3.614   7.933   6.392  1.00  0.00     0.037 A 
ATOM     58  C   UNL     1      -8.469   4.223   8.520  1.00  0.00     0.049 A 
ATOM     59  C   UNL     1      -4.167   7.939   7.792  1.00  0.00     0.074 A 
ATOM     60  C   UNL     1      -7.386   3.409   8.797  1.00  0.00     0.029 A 
ATOM     61  N   UNL     1      -8.185   5.465   9.095  1.00  0.00    -0.354 N 
ATOM     62  N   UNL     1      -5.227   7.266   8.152  1.00  0.00    -0.248 NA
ATOM     63  C   UNL     1      -3.518   8.620   8.906  1.00  0.00     0.031 C 
ATOM     64  C   UNL     1      -6.390   4.216   9.418  1.00  0.00     0.029 A 
ATOM     65  C   UNL     1      -6.893   5.500   9.577  1.00  0.00     0.049 A 
ATOM     66  H   UNL     1      -8.822   6.214   9.148  1.00  0.00     0.167 HD
ATOM     67  C   UNL     1      -5.378   7.363   9.507  1.00  0.00     0.074 A 
ATOM     68  C   UNL     1      -4.299   8.240   9.932  1.00  0.00     0.031 C 
ATOM     69  C   UNL     1      -6.349   6.701  10.201  1.00  0.00     0.037 A 
BRANCH  56  70
ATOM     70  C   UNL     1     -10.699   3.045   7.743  1.00  0.00     0.058 A 
ATOM     71  C   UNL     1     -10.814   2.267   8.917  1.00  0.00     0.135 A 
ATOM     72  C   UNL     1     -11.565   2.647   6.696  1.00  0.00     0.135 A 
ATOM     73  F   UNL     1     -10.024   2.498   9.976  1.00  0.00    -0.206 F 
ATOM     74  C   UNL     1     -11.717   1.200   9.043  1.00  0.00     0.059 A 
ATOM     75  C   UNL     1     -12.508   1.624   6.817  1.00  0.00     0.059 A 
ATOM     76  F   UNL     1     -11.494   3.176   5.470  1.00  0.00    -0.206 F 
ATOM     77  C   UNL     1     -12.566   0.888   7.988  1.00  0.00     0.060 A 
BRANCH  77  78
ATOM     78  S   UNL     1     -13.724  -0.487   8.133  1.00  0.00     0.124 S 
ATOM     79  O   UNL     1     -12.836  -1.640   8.016  1.00  0.00    -0.237 OA
ATOM     80  O   UNL     1     -14.313  -0.267   9.449  1.00  0.00    -0.237 OA
ATOM     81  O   UNL     1     -14.633  -0.284   7.008  1.00  0.00    -0.744 OA
ENDBRANCH  77  78
ENDBRANCH  56  70
BRANCH  57  82
ATOM     82  C   UNL     1      -3.437   9.104   5.488  1.00  0.00     0.058 A 
ATOM     83  C   UNL     1      -2.235   9.131   4.761  1.00  0.00     0.135 A 
ATOM     84  C   UNL     1      -4.551   9.735   4.915  1.00  0.00     0.135 A 
ATOM     85  F   UNL     1      -1.116   8.642   5.314  1.00  0.00    -0.206 F 
ATOM     86  C   UNL     1      -2.209   9.479   3.417  1.00  0.00     0.059 A 
ATOM     87  C   UNL     1      -4.539  10.127   3.574  1.00  0.00     0.059 A 
ATOM     88  F   UNL     1      -5.713   9.792   5.581  1.00  0.00    -0.206 F 
ATOM     89  C   UNL     1      -3.399   9.871   2.812  1.00  0.00     0.060 A 
BRANCH  89  90
ATOM     90  S   UNL     1      -3.495   9.802   1.005  1.00  0.00     0.124 S 
ATOM     91  O   UNL     1      -2.237  10.422   0.602  1.00  0.00    -0.237 OA
ATOM     92  O   UNL     1      -3.583   8.359   0.780  1.00  0.00    -0.237 OA
ATOM     93  O   UNL     1      -4.702  10.562   0.705  1.00  0.00    -0.744 OA
ENDBRANCH  89  90
ENDBRANCH  57  82
BRANCH  69  94
ATOM     94  C   UNL     1      -6.778   7.089  11.592  1.00  0.00     0.058 A 
ATOM     95  C   UNL     1      -6.710   8.412  12.069  1.00  0.00     0.135 A 
ATOM     96  C   UNL     1      -7.429   6.165  12.440  1.00  0.00     0.135 A 
ATOM     97  F   UNL     1      -6.232   9.407  11.307  1.00  0.00    -0.206 F 
ATOM     98  C   UNL     1      -7.171   8.778  13.331  1.00  0.00     0.059 A 
ATOM     99  C   UNL     1      -7.948   6.522  13.682  1.00  0.00     0.059 A 
ATOM    100  F   UNL     1      -7.600   4.885  12.078  1.00  0.00    -0.206 F 
ATOM    101  C   UNL     1      -7.789   7.826  14.132  1.00  0.00     0.060 A 
BRANCH 101 102
ATOM    102  S   UNL     1      -8.447   8.315  15.735  1.00  0.00     0.124 S 
ATOM    103  O   UNL     1      -7.300   8.072  16.605  1.00  0.00    -0.237 OA
ATOM    104  O   UNL     1      -8.795   9.718  15.530  1.00  0.00    -0.237 OA
ATOM    105  O   UNL     1      -9.583   7.417  15.916  1.00  0.00    -0.744 OA
ENDBRANCH 101 102
ENDBRANCH  69  94
ENDBRANCH  43  44
ENDBRANCH  35  38
ENDBRANCH  33  34
ENDBRANCH   1  33
TORSDOF 16
