REMARK SMILES Cc1c(CC(=O)NCCCCNC(=O)c2ccc(-c3c4nc(c(-c5c(F)cc(S(=O)(=O)[O-])cc5F)c5ccc([nH]5)c(-c5c(F)cc(S(=O)(=O)[O-])cc5F)c5nc(c(-c6c(F)cc(S(=O)(=O)[O-])cc6F)c6ccc3[nH]6)C=C5)C=C4)cc2)c2ccccc2n1C(=O)c1ccc(Cl)cc1
REMARK SMILES IDX 9 1 8 2 7 3 5 4 6 5 4 7 3 8 1 9 2 10 87 11 81 12 86 13 82 14
REMARK SMILES IDX 85 15 83 16 84 17 88 18 89 19 90 20 91 21 96 22 92 23 95 24
REMARK SMILES IDX 93 25 94 26 10 27 11 28 12 29 13 30 14 32 15 33 16 34 80 35
REMARK SMILES IDX 17 36 79 37 18 38 19 39 20 40 73 41 21 42 78 43 72 44 74 45
REMARK SMILES IDX 22 46 77 47 71 48 70 49 23 51 57 52 36 53 56 54 37 55 40 56
REMARK SMILES IDX 55 57 75 58 38 59 39 60 54 62 76 63 41 64 24 65 25 66 34 67
REMARK SMILES IDX 26 68 27 69 33 70 35 71 28 72 29 73 30 74 31 75 32 76 58 77
REMARK SMILES IDX 59 78 68 79 60 80 61 81 67 82 69 83 62 84 63 85 64 86 65 87
REMARK SMILES IDX 66 88 42 89 43 90 52 91 44 92 45 93 51 94 53 95 46 96 47 97
REMARK SMILES IDX 48 98 49 99 50 100
REMARK H PARENT 7 6 12 31 74 50 40 61
REMARK Flexibility Score: inf
ROOT
ATOM      1  C   UNL     1       2.919   0.760   3.382  1.00  0.00     0.023 C 
ENDROOT
BRANCH   1   2
ATOM      2  C   UNL     1       1.861  -0.337   3.298  1.00  0.00     0.116 C 
BRANCH   2   3
ATOM      3  N   UNL     1       0.745  -0.089   4.187  1.00  0.00    -0.356 N 
ATOM      4  C   UNL     1      -0.546   0.206   3.855  1.00  0.00     0.224 C 
ATOM      5  O   UNL     1      -1.368   0.356   4.763  1.00  0.00    -0.275 OA
ATOM      6  H   UNL     1       0.942  -0.141   5.150  1.00  0.00     0.163 HD
BRANCH   4   7
ATOM      7  C   UNL     1      -0.958   0.274   2.392  1.00  0.00     0.138 C 
BRANCH   7   8
ATOM      8  C   UNL     1      -0.308   1.400   1.637  1.00  0.00    -0.010 A 
ATOM      9  C   UNL     1       0.866   0.095  -0.286  1.00  0.00     0.065 C 
ATOM     10  C   UNL     1       0.475   1.315   0.491  1.00  0.00     0.028 A 
ATOM     11  N   UNL     1       0.942   2.599   0.166  1.00  0.00    -0.280 N 
ATOM     12  C   UNL     1      -0.405   2.778   1.978  1.00  0.00     0.004 A 
ATOM     13  C   UNL     1       0.306   3.511   1.023  1.00  0.00     0.056 A 
ATOM     14  C   UNL     1      -1.064   3.460   3.027  1.00  0.00     0.010 A 
ATOM     15  C   UNL     1       0.285   4.921   1.066  1.00  0.00     0.027 A 
ATOM     16  C   UNL     1      -1.014   4.851   3.103  1.00  0.00     0.001 A 
ATOM     17  C   UNL     1      -0.356   5.573   2.123  1.00  0.00     0.002 A 
BRANCH  11  18
ATOM     18  C   UNL     1       1.885   2.892  -0.870  1.00  0.00     0.262 C 
ATOM     19  O   UNL     1       2.243   1.997  -1.616  1.00  0.00    -0.268 OA
BRANCH  18  20
ATOM     20  C   UNL     1       2.439   4.229  -1.156  1.00  0.00     0.040 A 
ATOM     21  C   UNL     1       3.236   4.908  -0.228  1.00  0.00     0.015 A 
ATOM     22  C   UNL     1       2.113   4.813  -2.385  1.00  0.00     0.015 A 
ATOM     23  C   UNL     1       3.630   6.222  -0.499  1.00  0.00     0.021 A 
ATOM     24  C   UNL     1       2.516   6.120  -2.653  1.00  0.00     0.021 A 
ATOM     25  C   UNL     1       3.253   6.826  -1.701  1.00  0.00     0.041 A 
ATOM     26  Cl  UNL     1       3.672   8.464  -2.013  1.00  0.00    -0.084 Cl
ENDBRANCH  18  20
ENDBRANCH  11  18
ENDBRANCH   7   8
ENDBRANCH   4   7
ENDBRANCH   2   3
ENDBRANCH   1   2
BRANCH   1  27
ATOM     27  C   UNL     1       3.720   0.762   4.693  1.00  0.00     0.023 C 
BRANCH  27  28
ATOM     28  C   UNL     1       4.255  -0.613   5.103  1.00  0.00     0.116 C 
BRANCH  28  29
ATOM     29  N   UNL     1       5.050  -1.242   4.067  1.00  0.00    -0.352 N 
ATOM     30  C   UNL     1       6.385  -1.305   3.785  1.00  0.00     0.251 C 
ATOM     31  H   UNL     1       4.502  -1.740   3.418  1.00  0.00     0.163 HD
ATOM     32  O   UNL     1       6.704  -2.058   2.861  1.00  0.00    -0.269 OA
BRANCH  30  33
ATOM     33  C   UNL     1       7.441  -0.510   4.466  1.00  0.00     0.039 A 
ATOM     34  C   UNL     1       7.216   0.433   5.469  1.00  0.00     0.014 A 
ATOM     35  C   UNL     1       8.751  -0.674   3.978  1.00  0.00     0.014 A 
ATOM     36  C   UNL     1       8.242   1.261   5.900  1.00  0.00     0.010 A 
ATOM     37  C   UNL     1       9.785   0.145   4.415  1.00  0.00     0.010 A 
ATOM     38  C   UNL     1       9.508   1.158   5.328  1.00  0.00    -0.014 A 
BRANCH  38  39
ATOM     39  C   UNL     1      10.480   2.178   5.701  1.00  0.00     0.031 A 
ATOM     40  C   UNL     1      10.822   2.271   7.151  1.00  0.00     0.074 A 
ATOM     41  C   UNL     1      11.065   2.977   4.787  1.00  0.00     0.049 A 
ATOM     42  N   UNL     1      10.638   3.260   7.966  1.00  0.00    -0.248 NA
ATOM     43  C   UNL     1      11.356   1.060   7.791  1.00  0.00     0.031 C 
ATOM     44  C   UNL     1      11.049   2.861   3.325  1.00  0.00     0.029 A 
ATOM     45  N   UNL     1      11.901   4.027   5.001  1.00  0.00    -0.354 N 
ATOM     46  C   UNL     1      11.194   2.867   9.183  1.00  0.00     0.074 A 
ATOM     47  C   UNL     1      11.514   1.467   9.051  1.00  0.00     0.031 C 
ATOM     48  C   UNL     1      12.029   3.636   2.810  1.00  0.00     0.029 A 
ATOM     49  C   UNL     1      12.632   4.403   3.886  1.00  0.00     0.049 A 
ATOM     50  H   UNL     1      11.981   4.479   5.871  1.00  0.00     0.167 HD
ATOM     51  C   UNL     1      11.516   3.748  10.172  1.00  0.00     0.037 A 
ATOM     52  C   UNL     1      13.723   5.206   3.880  1.00  0.00     0.037 A 
ATOM     53  C   UNL     1      10.868   5.019  10.005  1.00  0.00     0.049 A 
ATOM     54  C   UNL     1      13.681   6.019   5.125  1.00  0.00     0.074 A 
ATOM     55  C   UNL     1       9.555   5.445   9.990  1.00  0.00     0.029 A 
ATOM     56  N   UNL     1      11.598   6.064   9.492  1.00  0.00    -0.354 N 
ATOM     57  N   UNL     1      12.774   6.923   5.378  1.00  0.00    -0.248 NA
ATOM     58  C   UNL     1      14.398   5.516   6.288  1.00  0.00     0.031 C 
ATOM     59  C   UNL     1       9.516   6.487   9.018  1.00  0.00     0.029 A 
ATOM     60  C   UNL     1      10.813   6.650   8.530  1.00  0.00     0.049 A 
ATOM     61  H   UNL     1      12.504   6.338   9.761  1.00  0.00     0.167 HD
ATOM     62  C   UNL     1      12.523   6.812   6.739  1.00  0.00     0.074 A 
ATOM     63  C   UNL     1      13.611   5.988   7.258  1.00  0.00     0.031 C 
ATOM     64  C   UNL     1      11.319   7.168   7.279  1.00  0.00     0.037 A 
BRANCH  51  65
ATOM     65  C   UNL     1      12.655   3.546  11.138  1.00  0.00     0.058 A 
ATOM     66  C   UNL     1      12.741   4.321  12.311  1.00  0.00     0.135 A 
ATOM     67  C   UNL     1      13.809   2.804  10.805  1.00  0.00     0.135 A 
ATOM     68  F   UNL     1      11.705   5.077  12.709  1.00  0.00    -0.206 F 
ATOM     69  C   UNL     1      13.912   4.396  13.069  1.00  0.00     0.059 A 
ATOM     70  C   UNL     1      14.968   2.824  11.572  1.00  0.00     0.059 A 
ATOM     71  F   UNL     1      13.893   2.105   9.664  1.00  0.00    -0.206 F 
ATOM     72  C   UNL     1      15.026   3.656  12.678  1.00  0.00     0.060 A 
BRANCH  72  73
ATOM     73  S   UNL     1      16.578   3.855  13.573  1.00  0.00     0.124 S 
ATOM     74  O   UNL     1      16.942   5.223  13.222  1.00  0.00    -0.237 OA
ATOM     75  O   UNL     1      16.163   3.638  14.955  1.00  0.00    -0.237 OA
ATOM     76  O   UNL     1      17.428   2.811  13.009  1.00  0.00    -0.744 OA
ENDBRANCH  72  73
ENDBRANCH  51  65
BRANCH  52  77
ATOM     77  C   UNL     1      14.971   4.969   3.107  1.00  0.00     0.058 A 
ATOM     78  C   UNL     1      15.946   5.971   2.975  1.00  0.00     0.135 A 
ATOM     79  C   UNL     1      15.356   3.669   2.712  1.00  0.00     0.135 A 
ATOM     80  F   UNL     1      15.675   7.229   3.355  1.00  0.00    -0.206 F 
ATOM     81  C   UNL     1      17.238   5.694   2.514  1.00  0.00     0.059 A 
ATOM     82  C   UNL     1      16.630   3.373   2.237  1.00  0.00     0.059 A 
ATOM     83  F   UNL     1      14.530   2.623   2.862  1.00  0.00    -0.206 F 
ATOM     84  C   UNL     1      17.576   4.386   2.165  1.00  0.00     0.060 A 
BRANCH  84  85
ATOM     85  S   UNL     1      19.285   3.994   1.726  1.00  0.00     0.124 S 
ATOM     86  O   UNL     1      19.445   4.713   0.467  1.00  0.00    -0.237 OA
ATOM     87  O   UNL     1      20.023   4.528   2.865  1.00  0.00    -0.237 OA
ATOM     88  O   UNL     1      19.282   2.537   1.617  1.00  0.00    -0.744 OA
ENDBRANCH  84  85
ENDBRANCH  52  77
BRANCH  64  89
ATOM     89  C   UNL     1      10.339   7.919   6.414  1.00  0.00     0.058 A 
ATOM     90  C   UNL     1       9.731   7.374   5.269  1.00  0.00     0.135 A 
ATOM     91  C   UNL     1       9.866   9.164   6.856  1.00  0.00     0.135 A 
ATOM     92  F   UNL     1      10.044   6.142   4.844  1.00  0.00    -0.206 F 
ATOM     93  C   UNL     1       8.728   8.050   4.573  1.00  0.00     0.059 A 
ATOM     94  C   UNL     1       8.845   9.844   6.194  1.00  0.00     0.059 A 
ATOM     95  F   UNL     1      10.357   9.708   7.982  1.00  0.00    -0.206 F 
ATOM     96  C   UNL     1       8.287   9.285   5.047  1.00  0.00     0.060 A 
BRANCH  96  97
ATOM     97  S   UNL     1       6.922  10.108   4.196  1.00  0.00     0.124 S 
ATOM     98  O   UNL     1       7.547  10.530   2.948  1.00  0.00    -0.237 OA
ATOM     99  O   UNL     1       5.931   9.041   4.077  1.00  0.00    -0.237 OA
ATOM    100  O   UNL     1       6.553  11.189   5.107  1.00  0.00    -0.744 OA
ENDBRANCH  96  97
ENDBRANCH  64  89
ENDBRANCH  38  39
ENDBRANCH  30  33
ENDBRANCH  28  29
ENDBRANCH  27  28
ENDBRANCH   1  27
TORSDOF 17
