REMARK SMILES CCC(CC)(CC)NC(=O)NC[C@@H]1CC[C@H](C(=O)NCCCCNC(=O)c2ccc(-c3c4nc(c(-c5c(F)cc(S(=O)(=O)[O-])cc5F)c5ccc([nH]5)c(-c5c(F)cc(S(=O)(=O)[O-])cc5F)c5nc(c(-c6c(F)cc(S(=O)(=O)[O-])cc6F)c6ccc3[nH]6)C=C5)C=C4)cc2)O1
REMARK SMILES IDX 21 1 20 2 19 3 17 4 18 5 16 7 13 8 14 9 93 10 15 11 12 12
REMARK SMILES IDX 11 13 8 14 9 15 10 17 3 19 2 20 1 21 4 22 5 23 6 24 7 25
REMARK SMILES IDX 22 26 23 27 24 28 25 29 26 31 27 32 28 33 92 34 29 35 91 36
REMARK SMILES IDX 30 37 31 38 32 39 85 40 33 41 90 42 84 43 86 44 34 45 89 46
REMARK SMILES IDX 83 47 82 48 35 50 69 51 48 52 68 53 49 54 52 55 67 56 87 57
REMARK SMILES IDX 50 58 51 59 66 61 88 62 53 63 36 64 37 65 46 66 38 67 39 68
REMARK SMILES IDX 45 69 47 70 40 71 41 72 42 73 43 74 44 75 70 76 71 77 80 78
REMARK SMILES IDX 72 79 73 80 79 81 81 82 74 83 75 84 76 85 77 86 78 87 54 88
REMARK SMILES IDX 55 89 64 90 56 91 57 92 63 93 65 94 58 95 59 96 60 97 61 98
REMARK SMILES IDX 62 99
REMARK H PARENT 19 6 8 16 11 18 24 30 86 49 52 60
REMARK Flexibility Score: inf
ROOT
ATOM      1  C   UNL     1       3.333  -3.093   3.312  1.00  0.00     0.023 C 
ENDROOT
BRANCH   1   2
ATOM      2  C   UNL     1       3.807  -2.678   1.920  1.00  0.00     0.116 C 
BRANCH   2   3
ATOM      3  N   UNL     1       3.636  -3.726   0.938  1.00  0.00    -0.354 N 
ATOM      4  C   UNL     1       2.639  -3.924   0.030  1.00  0.00     0.249 C 
ATOM      5  O   UNL     1       2.764  -4.855  -0.771  1.00  0.00    -0.272 OA
ATOM      6  H   UNL     1       4.352  -4.402   0.923  1.00  0.00     0.163 HD
BRANCH   4   7
ATOM      7  C   UNL     1       1.350  -3.081   0.049  1.00  0.00     0.207 C 
ATOM      8  C   UNL     1       0.513  -1.186   1.118  1.00  0.00     0.138 C 
ATOM      9  C   UNL     1       0.072  -2.369   1.966  1.00  0.00     0.037 C 
ATOM     10  O   UNL     1       1.534  -1.685   0.248  1.00  0.00    -0.363 OA
ATOM     11  C   UNL     1       0.351  -3.570   1.089  1.00  0.00     0.045 C 
BRANCH   8  12
ATOM     12  C   UNL     1       0.996   0.046   1.923  1.00  0.00     0.149 C 
BRANCH  12  13
ATOM     13  N   UNL     1       2.207   0.696   1.429  1.00  0.00    -0.336 N 
ATOM     14  N   UNL     1       1.928   2.386  -0.240  1.00  0.00    -0.333 N 
ATOM     15  C   UNL     1       2.631   1.597   0.559  1.00  0.00     0.315 C 
ATOM     16  H   UNL     1       2.544   2.852  -0.851  1.00  0.00     0.165 HD
ATOM     17  O   UNL     1       3.860   1.726   0.487  1.00  0.00    -0.249 OA
ATOM     18  H   UNL     1       2.983   0.336   1.917  1.00  0.00     0.165 HD
BRANCH  14  19
ATOM     19  C   UNL     1       0.542   2.814  -0.536  1.00  0.00     0.041 C 
BRANCH  19  20
ATOM     20  C   UNL     1      -0.447   1.637  -0.640  1.00  0.00     0.025 C 
ATOM     21  C   UNL     1      -0.042   0.572  -1.661  1.00  0.00     0.006 C 
ENDBRANCH  19  20
BRANCH  19  22
ATOM     22  C   UNL     1       0.605   3.523  -1.945  1.00  0.00     0.025 C 
ATOM     23  C   UNL     1      -0.740   3.864  -2.584  1.00  0.00     0.006 C 
ENDBRANCH  19  22
BRANCH  19  24
ATOM     24  C   UNL     1       0.066   3.894   0.489  1.00  0.00     0.025 C 
ATOM     25  C   UNL     1       0.526   3.755   1.933  1.00  0.00     0.006 C 
ENDBRANCH  19  24
ENDBRANCH  14  19
ENDBRANCH  12  13
ENDBRANCH   8  12
ENDBRANCH   4   7
ENDBRANCH   2   3
ENDBRANCH   1   2
BRANCH   1  26
ATOM     26  C   UNL     1       4.457  -3.142   4.342  1.00  0.00     0.023 C 
BRANCH  26  27
ATOM     27  C   UNL     1       5.134  -1.800   4.594  1.00  0.00     0.116 C 
BRANCH  27  28
ATOM     28  N   UNL     1       4.277  -0.811   5.236  1.00  0.00    -0.352 N 
ATOM     29  C   UNL     1       4.654   0.137   6.164  1.00  0.00     0.251 C 
ATOM     30  H   UNL     1       3.326  -0.821   4.979  1.00  0.00     0.163 HD
ATOM     31  O   UNL     1       3.824   0.876   6.683  1.00  0.00    -0.269 OA
BRANCH  29  32
ATOM     32  C   UNL     1       6.076   0.190   6.566  1.00  0.00     0.039 A 
ATOM     33  C   UNL     1       6.406  -0.025   7.905  1.00  0.00     0.014 A 
ATOM     34  C   UNL     1       7.073   0.293   5.592  1.00  0.00     0.014 A 
ATOM     35  C   UNL     1       7.742  -0.234   8.254  1.00  0.00     0.010 A 
ATOM     36  C   UNL     1       8.391   0.004   5.932  1.00  0.00     0.010 A 
ATOM     37  C   UNL     1       8.738  -0.276   7.263  1.00  0.00    -0.014 A 
BRANCH  37  38
ATOM     38  C   UNL     1      10.142  -0.634   7.595  1.00  0.00     0.031 A 
ATOM     39  C   UNL     1      11.248   0.357   7.355  1.00  0.00     0.074 A 
ATOM     40  C   UNL     1      10.433  -1.879   8.029  1.00  0.00     0.049 A 
ATOM     41  N   UNL     1      12.538   0.207   7.507  1.00  0.00    -0.248 NA
ATOM     42  C   UNL     1      10.855   1.681   6.843  1.00  0.00     0.031 C 
ATOM     43  C   UNL     1       9.461  -2.958   8.230  1.00  0.00     0.029 A 
ATOM     44  N   UNL     1      11.634  -2.454   8.364  1.00  0.00    -0.354 N 
ATOM     45  C   UNL     1      13.111   1.401   7.086  1.00  0.00     0.074 A 
ATOM     46  C   UNL     1      12.032   2.250   6.630  1.00  0.00     0.031 C 
ATOM     47  C   UNL     1      10.102  -4.054   8.668  1.00  0.00     0.029 A 
ATOM     48  C   UNL     1      11.531  -3.771   8.751  1.00  0.00     0.049 A 
ATOM     49  H   UNL     1      12.491  -1.969   8.331  1.00  0.00     0.167 HD
ATOM     50  C   UNL     1      14.414   1.766   7.100  1.00  0.00     0.037 A 
ATOM     51  C   UNL     1      12.481  -4.651   9.125  1.00  0.00     0.037 A 
ATOM     52  C   UNL     1      15.478   0.939   7.604  1.00  0.00     0.049 A 
ATOM     53  C   UNL     1      13.918  -4.204   9.177  1.00  0.00     0.074 A 
ATOM     54  C   UNL     1      16.816   1.257   7.753  1.00  0.00     0.029 A 
ATOM     55  N   UNL     1      15.326  -0.369   8.040  1.00  0.00    -0.354 N 
ATOM     56  N   UNL     1      14.428  -3.036   8.867  1.00  0.00    -0.248 NA
ATOM     57  C   UNL     1      14.907  -5.189   9.639  1.00  0.00     0.031 C 
ATOM     58  C   UNL     1      17.481   0.130   8.246  1.00  0.00     0.029 A 
ATOM     59  C   UNL     1      16.550  -0.877   8.441  1.00  0.00     0.049 A 
ATOM     60  H   UNL     1      14.475  -0.862   8.061  1.00  0.00     0.167 HD
ATOM     61  C   UNL     1      15.792  -3.139   9.120  1.00  0.00     0.074 A 
ATOM     62  C   UNL     1      16.025  -4.477   9.620  1.00  0.00     0.031 C 
ATOM     63  C   UNL     1      16.763  -2.208   8.951  1.00  0.00     0.037 A 
BRANCH  50  64
ATOM     64  C   UNL     1      14.764   3.127   6.569  1.00  0.00     0.058 A 
ATOM     65  C   UNL     1      14.442   4.298   7.273  1.00  0.00     0.135 A 
ATOM     66  C   UNL     1      15.473   3.260   5.364  1.00  0.00     0.135 A 
ATOM     67  F   UNL     1      13.751   4.227   8.422  1.00  0.00    -0.206 F 
ATOM     68  C   UNL     1      14.790   5.555   6.792  1.00  0.00     0.059 A 
ATOM     69  C   UNL     1      15.854   4.507   4.876  1.00  0.00     0.059 A 
ATOM     70  F   UNL     1      15.804   2.173   4.650  1.00  0.00    -0.206 F 
ATOM     71  C   UNL     1      15.498   5.649   5.592  1.00  0.00     0.060 A 
BRANCH  71  72
ATOM     72  S   UNL     1      15.963   7.287   4.992  1.00  0.00     0.124 S 
ATOM     73  O   UNL     1      14.685   7.791   4.501  1.00  0.00    -0.237 OA
ATOM     74  O   UNL     1      16.475   7.928   6.200  1.00  0.00    -0.237 OA
ATOM     75  O   UNL     1      16.962   7.002   3.967  1.00  0.00    -0.744 OA
ENDBRANCH  71  72
ENDBRANCH  50  64
BRANCH  51  76
ATOM     76  C   UNL     1      12.108  -6.042   9.500  1.00  0.00     0.058 A 
ATOM     77  C   UNL     1      12.180  -6.475  10.833  1.00  0.00     0.135 A 
ATOM     78  C   UNL     1      11.686  -6.968   8.535  1.00  0.00     0.135 A 
ATOM     79  F   UNL     1      12.584  -5.628  11.791  1.00  0.00    -0.206 F 
ATOM     80  C   UNL     1      11.871  -7.783  11.193  1.00  0.00     0.059 A 
ATOM     81  C   UNL     1      11.348  -8.276   8.874  1.00  0.00     0.059 A 
ATOM     82  F   UNL     1      11.583  -6.600   7.248  1.00  0.00    -0.206 F 
ATOM     83  C   UNL     1      11.458  -8.677  10.205  1.00  0.00     0.060 A 
BRANCH  83  84
ATOM     84  S   UNL     1      11.027 -10.365  10.684  1.00  0.00     0.124 S 
ATOM     85  O   UNL     1      12.344 -10.957  10.886  1.00  0.00    -0.237 OA
ATOM     86  O   UNL     1      10.232 -10.150  11.889  1.00  0.00    -0.237 OA
ATOM     87  O   UNL     1      10.281 -10.859   9.531  1.00  0.00    -0.744 OA
ENDBRANCH  83  84
ENDBRANCH  51  76
BRANCH  63  88
ATOM     88  C   UNL     1      18.162  -2.588   9.344  1.00  0.00     0.058 A 
ATOM     89  C   UNL     1      18.937  -3.455   8.560  1.00  0.00     0.135 A 
ATOM     90  C   UNL     1      18.754  -2.031  10.489  1.00  0.00     0.135 A 
ATOM     91  F   UNL     1      18.415  -4.019   7.458  1.00  0.00    -0.206 F 
ATOM     92  C   UNL     1      20.245  -3.774   8.908  1.00  0.00     0.059 A 
ATOM     93  C   UNL     1      20.068  -2.317  10.843  1.00  0.00     0.059 A 
ATOM     94  F   UNL     1      18.058  -1.187  11.268  1.00  0.00    -0.206 F 
ATOM     95  C   UNL     1      20.803  -3.199  10.051  1.00  0.00     0.060 A 
BRANCH  95  96
ATOM     96  S   UNL     1      22.514  -3.590  10.474  1.00  0.00     0.124 S 
ATOM     97  O   UNL     1      22.379  -4.932  11.030  1.00  0.00    -0.237 OA
ATOM     98  O   UNL     1      23.185  -3.503   9.181  1.00  0.00    -0.237 OA
ATOM     99  O   UNL     1      22.874  -2.546  11.430  1.00  0.00    -0.744 OA
ENDBRANCH  95  96
ENDBRANCH  63  88
ENDBRANCH  37  38
ENDBRANCH  29  32
ENDBRANCH  27  28
ENDBRANCH  26  27
ENDBRANCH   1  26
TORSDOF 20
