REMARK SMILES CC(C)[NH2+][C@@]1(C(=O)NCCCCNC(=O)c2ccc(-c3c4nc(c(-c5c(F)cc(S(=O)(=O)[O-])cc5F)c5ccc([nH]5)c(-c5c(F)cc(S(=O)(=O)[O-])cc5F)c5nc(c(-c6c(F)cc(S(=O)(=O)[O-])cc6F)c6ccc3[nH]6)C=C5)C=C4)cc2)CC[C@@H](Sc2ccncc2)C1
REMARK SMILES IDX 11 1 10 2 9 3 8 4 6 5 7 6 5 8 82 9 92 10 83 11 84 12 4 13
REMARK SMILES IDX 2 16 1 17 3 18 85 19 86 20 87 21 91 22 88 23 90 24 89 25
REMARK SMILES IDX 12 26 13 27 14 28 15 30 16 31 17 32 81 33 18 34 80 35 19 36
REMARK SMILES IDX 20 37 21 38 74 39 22 40 79 41 73 42 75 43 23 44 78 45 72 46
REMARK SMILES IDX 71 47 24 49 58 50 37 51 57 52 38 53 41 54 56 55 76 56 39 57
REMARK SMILES IDX 40 58 55 60 77 61 42 62 25 63 26 64 35 65 27 66 28 67 34 68
REMARK SMILES IDX 36 69 29 70 30 71 31 72 32 73 33 74 59 75 60 76 69 77 61 78
REMARK SMILES IDX 62 79 68 80 70 81 63 82 64 83 65 84 66 85 67 86 43 87 44 88
REMARK SMILES IDX 53 89 45 90 46 91 52 92 54 93 47 94 48 95 49 96 50 97 51 98
REMARK H PARENT 8 7 4 14 4 15 13 29 75 48 41 59
REMARK Flexibility Score: inf
ROOT
ATOM      1  C   UNL     1      -5.792   5.365  -2.219  1.00  0.00     0.023 C 
ENDROOT
BRANCH   1   2
ATOM      2  C   UNL     1      -4.283   5.281  -1.995  1.00  0.00     0.023 C 
BRANCH   2   3
ATOM      3  C   UNL     1      -3.877   4.926  -0.564  1.00  0.00     0.116 C 
BRANCH   3   4
ATOM      4  N   UNL     1      -3.857   3.494  -0.380  1.00  0.00    -0.351 N 
ATOM      5  C   UNL     1      -2.882   2.557  -0.472  1.00  0.00     0.281 C 
ATOM      6  O   UNL     1      -3.301   1.388  -0.474  1.00  0.00    -0.268 OA
ATOM      7  H   UNL     1      -4.735   3.120  -0.136  1.00  0.00     0.163 HD
BRANCH   5   8
ATOM      8  C   UNL     1      -1.319   2.850  -0.619  1.00  0.00     0.176 C 
ATOM      9  C   UNL     1      -0.837   3.919   0.377  1.00  0.00     0.080 C 
ATOM     10  C   UNL     1      -1.012   3.388  -2.036  1.00  0.00     0.094 C 
ATOM     11  C   UNL     1      -0.252   5.074  -0.439  1.00  0.00     0.022 C 
ATOM     12  C   UNL     1      -0.717   4.880  -1.877  1.00  0.00     0.058 C 
BRANCH   8  13
ATOM     13  N   UNL     1      -0.717   1.522  -0.368  1.00  0.00    -0.332 N 
ATOM     14  H   UNL     1      -1.199   1.163   0.456  1.00  0.00     0.347 HD
ATOM     15  H   UNL     1      -0.821   1.111  -1.296  1.00  0.00     0.347 HD
BRANCH  13  16
ATOM     16  C   UNL     1       0.686   1.244  -0.137  1.00  0.00     0.176 C 
ATOM     17  C   UNL     1       0.785  -0.222   0.310  1.00  0.00     0.075 C 
ATOM     18  C   UNL     1       1.576   1.435  -1.354  1.00  0.00     0.075 C 
ENDBRANCH  13  16
ENDBRANCH   8  13
BRANCH  12  19
ATOM     19  S   UNL     1       0.296   5.616  -3.230  1.00  0.00    -0.122 SA
BRANCH  19  20
ATOM     20  C   UNL     1       1.958   5.507  -2.606  1.00  0.00     0.011 A 
ATOM     21  C   UNL     1       2.758   4.415  -2.923  1.00  0.00     0.035 A 
ATOM     22  C   UNL     1       2.480   6.520  -1.804  1.00  0.00     0.035 A 
ATOM     23  C   UNL     1       4.017   4.337  -2.351  1.00  0.00     0.112 A 
ATOM     24  C   UNL     1       3.754   6.355  -1.286  1.00  0.00     0.112 A 
ATOM     25  N   UNL     1       4.529   5.277  -1.530  1.00  0.00    -0.265 NA
ENDBRANCH  19  20
ENDBRANCH  12  19
ENDBRANCH   5   8
ENDBRANCH   3   4
ENDBRANCH   2   3
ENDBRANCH   1   2
BRANCH   1  26
ATOM     26  C   UNL     1      -6.507   6.410  -1.368  1.00  0.00     0.116 C 
BRANCH  26  27
ATOM     27  N   UNL     1      -5.932   7.744  -1.468  1.00  0.00    -0.352 N 
ATOM     28  C   UNL     1      -6.571   8.951  -1.293  1.00  0.00     0.251 C 
ATOM     29  H   UNL     1      -4.973   7.788  -1.687  1.00  0.00     0.163 HD
ATOM     30  O   UNL     1      -5.983  10.005  -1.483  1.00  0.00    -0.269 OA
BRANCH  28  31
ATOM     31  C   UNL     1      -7.999   8.933  -0.922  1.00  0.00     0.039 A 
ATOM     32  C   UNL     1      -8.917   9.586  -1.745  1.00  0.00     0.014 A 
ATOM     33  C   UNL     1      -8.426   8.181   0.175  1.00  0.00     0.014 A 
ATOM     34  C   UNL     1     -10.282   9.419  -1.510  1.00  0.00     0.010 A 
ATOM     35  C   UNL     1      -9.784   7.955   0.359  1.00  0.00     0.010 A 
ATOM     36  C   UNL     1     -10.724   8.567  -0.484  1.00  0.00    -0.014 A 
BRANCH  36  37
ATOM     37  C   UNL     1     -12.167   8.295  -0.277  1.00  0.00     0.031 A 
ATOM     38  C   UNL     1     -12.828   8.708   1.008  1.00  0.00     0.074 A 
ATOM     39  C   UNL     1     -12.856   7.605  -1.206  1.00  0.00     0.049 A 
ATOM     40  N   UNL     1     -14.050   8.486   1.416  1.00  0.00    -0.248 NA
ATOM     41  C   UNL     1     -11.993   9.437   1.976  1.00  0.00     0.031 C 
ATOM     42  C   UNL     1     -12.305   7.091  -2.463  1.00  0.00     0.029 A 
ATOM     43  N   UNL     1     -14.168   7.203  -1.232  1.00  0.00    -0.354 N 
ATOM     44  C   UNL     1     -14.126   9.031   2.692  1.00  0.00     0.074 A 
ATOM     45  C   UNL     1     -12.810   9.540   3.013  1.00  0.00     0.031 C 
ATOM     46  C   UNL     1     -13.275   6.459  -3.143  1.00  0.00     0.029 A 
ATOM     47  C   UNL     1     -14.507   6.495  -2.360  1.00  0.00     0.049 A 
ATOM     48  H   UNL     1     -14.806   7.403  -0.509  1.00  0.00     0.167 HD
ATOM     49  C   UNL     1     -15.200   9.125   3.510  1.00  0.00     0.037 A 
ATOM     50  C   UNL     1     -15.678   5.936  -2.722  1.00  0.00     0.037 A 
ATOM     51  C   UNL     1     -16.512   8.642   3.171  1.00  0.00     0.049 A 
ATOM     52  C   UNL     1     -16.867   6.080  -1.814  1.00  0.00     0.074 A 
ATOM     53  C   UNL     1     -17.682   8.736   3.904  1.00  0.00     0.029 A 
ATOM     54  N   UNL     1     -16.829   7.975   1.996  1.00  0.00    -0.354 N 
ATOM     55  N   UNL     1     -16.939   6.655  -0.636  1.00  0.00    -0.248 NA
ATOM     56  C   UNL     1     -18.137   5.512  -2.285  1.00  0.00     0.031 C 
ATOM     57  C   UNL     1     -18.700   8.100   3.185  1.00  0.00     0.029 A 
ATOM     58  C   UNL     1     -18.173   7.644   1.987  1.00  0.00     0.049 A 
ATOM     59  H   UNL     1     -16.192   7.768   1.275  1.00  0.00     0.167 HD
ATOM     60  C   UNL     1     -18.264   6.535  -0.234  1.00  0.00     0.074 A 
ATOM     61  C   UNL     1     -18.962   5.844  -1.300  1.00  0.00     0.031 C 
ATOM     62  C   UNL     1     -18.850   6.958   0.913  1.00  0.00     0.037 A 
BRANCH  49  63
ATOM     63  C   UNL     1     -14.991   9.787   4.843  1.00  0.00     0.058 A 
ATOM     64  C   UNL     1     -14.746  11.167   4.946  1.00  0.00     0.135 A 
ATOM     65  C   UNL     1     -15.025   9.039   6.030  1.00  0.00     0.135 A 
ATOM     66  F   UNL     1     -14.685  11.927   3.841  1.00  0.00    -0.206 F 
ATOM     67  C   UNL     1     -14.498  11.773   6.173  1.00  0.00     0.059 A 
ATOM     68  C   UNL     1     -14.808   9.629   7.272  1.00  0.00     0.059 A 
ATOM     69  F   UNL     1     -15.256   7.717   5.990  1.00  0.00    -0.206 F 
ATOM     70  C   UNL     1     -14.523  10.993   7.330  1.00  0.00     0.060 A 
BRANCH  70  71
ATOM     71  S   UNL     1     -14.172  11.787   8.912  1.00  0.00     0.124 S 
ATOM     72  O   UNL     1     -12.722  11.938   8.845  1.00  0.00    -0.237 OA
ATOM     73  O   UNL     1     -14.942  13.024   8.822  1.00  0.00    -0.237 OA
ATOM     74  O   UNL     1     -14.659  10.820   9.891  1.00  0.00    -0.744 OA
ENDBRANCH  70  71
ENDBRANCH  49  63
BRANCH  50  75
ATOM     75  C   UNL     1     -15.783   5.222  -4.021  1.00  0.00     0.058 A 
ATOM     76  C   UNL     1     -16.462   5.795  -5.105  1.00  0.00     0.135 A 
ATOM     77  C   UNL     1     -15.172   3.974  -4.217  1.00  0.00     0.135 A 
ATOM     78  F   UNL     1     -17.066   6.985  -4.964  1.00  0.00    -0.206 F 
ATOM     79  C   UNL     1     -16.539   5.155  -6.338  1.00  0.00     0.059 A 
ATOM     80  C   UNL     1     -15.217   3.323  -5.446  1.00  0.00     0.059 A 
ATOM     81  F   UNL     1     -14.494   3.392  -3.215  1.00  0.00    -0.206 F 
ATOM     82  C   UNL     1     -15.909   3.921  -6.500  1.00  0.00     0.060 A 
BRANCH  82  83
ATOM     83  S   UNL     1     -15.951   3.132  -8.125  1.00  0.00     0.124 S 
ATOM     84  O   UNL     1     -17.322   2.636  -8.174  1.00  0.00    -0.237 OA
ATOM     85  O   UNL     1     -15.643   4.247  -9.015  1.00  0.00    -0.237 OA
ATOM     86  O   UNL     1     -14.912   2.112  -8.028  1.00  0.00    -0.744 OA
ENDBRANCH  82  83
ENDBRANCH  50  75
BRANCH  62  87
ATOM     87  C   UNL     1     -20.323   6.708   1.068  1.00  0.00     0.058 A 
ATOM     88  C   UNL     1     -20.825   5.430   1.354  1.00  0.00     0.135 A 
ATOM     89  C   UNL     1     -21.236   7.772   0.985  1.00  0.00     0.135 A 
ATOM     90  F   UNL     1     -19.993   4.380   1.437  1.00  0.00    -0.206 F 
ATOM     91  C   UNL     1     -22.187   5.210   1.535  1.00  0.00     0.059 A 
ATOM     92  C   UNL     1     -22.599   7.579   1.186  1.00  0.00     0.059 A 
ATOM     93  F   UNL     1     -20.804   9.015   0.723  1.00  0.00    -0.206 F 
ATOM     94  C   UNL     1     -23.066   6.292   1.451  1.00  0.00     0.060 A 
BRANCH  94  95
ATOM     95  S   UNL     1     -24.826   6.002   1.727  1.00  0.00     0.124 S 
ATOM     96  O   UNL     1     -25.222   5.379   0.468  1.00  0.00    -0.237 OA
ATOM     97  O   UNL     1     -24.821   5.126   2.894  1.00  0.00    -0.237 OA
ATOM     98  O   UNL     1     -25.358   7.342   1.960  1.00  0.00    -0.744 OA
ENDBRANCH  94  95
ENDBRANCH  62  87
ENDBRANCH  36  37
ENDBRANCH  28  31
ENDBRANCH  26  27
ENDBRANCH   1  26
TORSDOF 18
