REMARK SMILES Cc1ccc([C@H](C)Nc2ccc(C(=O)NCCCCNC(=O)c3ccc(-c4c5nc(c(-c6c(F)cc(S(=O)(=O)[O-])cc6F)c6ccc([nH]6)c(-c6c(F)cc(S(=O)(=O)[O-])cc6F)c6nc(c(-c7c(F)cc(S(=O)(=O)[O-])cc7F)c7ccc4[nH]7)C=C6)C=C5)cc3)cc2Cl)cc1F
REMARK SMILES IDX 17 1 16 2 15 3 13 4 14 5 12 7 9 8 10 9 90 10 11 11 89 12
REMARK SMILES IDX 91 13 8 14 6 16 7 17 5 18 1 19 2 20 3 21 93 22 4 23 92 24
REMARK SMILES IDX 94 25 18 26 19 27 20 28 21 29 22 31 23 32 24 33 88 34 25 35
REMARK SMILES IDX 87 36 26 37 27 38 28 39 81 40 29 41 86 42 80 43 82 44 30 45
REMARK SMILES IDX 85 46 79 47 78 48 31 50 65 51 44 52 64 53 45 54 48 55 63 56
REMARK SMILES IDX 83 57 46 58 47 59 62 61 84 62 49 63 32 64 33 65 42 66 34 67
REMARK SMILES IDX 35 68 41 69 43 70 36 71 37 72 38 73 39 74 40 75 66 76 67 77
REMARK SMILES IDX 76 78 68 79 69 80 75 81 77 82 70 83 71 84 72 85 73 86 74 87
REMARK SMILES IDX 50 88 51 89 60 90 52 91 53 92 59 93 61 94 54 95 55 96 56 97
REMARK SMILES IDX 57 98 58 99
REMARK H PARENT 15 6 8 15 20 30 82 49 48 60
REMARK Flexibility Score: inf
ROOT
ATOM      1  C   UNL     1      -9.405  -3.627   3.353  1.00  0.00     0.023 C 
ENDROOT
BRANCH   1   2
ATOM      2  C   UNL     1      -9.127  -2.210   3.870  1.00  0.00     0.116 C 
BRANCH   2   3
ATOM      3  N   UNL     1      -8.254  -2.241   5.031  1.00  0.00    -0.352 N 
ATOM      4  C   UNL     1      -6.902  -2.408   5.192  1.00  0.00     0.251 C 
ATOM      5  O   UNL     1      -6.484  -2.479   6.351  1.00  0.00    -0.269 OA
ATOM      6  H   UNL     1      -8.735  -2.117   5.881  1.00  0.00     0.163 HD
BRANCH   4   7
ATOM      7  C   UNL     1      -5.909  -2.479   4.075  1.00  0.00     0.041 A 
ATOM      8  C   UNL     1      -3.867  -2.519   2.052  1.00  0.00     0.053 A 
ATOM      9  C   UNL     1      -3.559  -2.533   3.425  1.00  0.00     0.028 A 
ATOM     10  C   UNL     1      -5.231  -2.454   1.726  1.00  0.00     0.065 A 
ATOM     11  C   UNL     1      -4.552  -2.494   4.415  1.00  0.00     0.016 A 
ATOM     12  C   UNL     1      -6.218  -2.502   2.722  1.00  0.00     0.036 A 
ATOM     13  Cl  UNL     1      -5.878  -2.352   0.121  1.00  0.00    -0.082 Cl
BRANCH   8  14
ATOM     14  N   UNL     1      -2.792  -2.538   1.182  1.00  0.00    -0.377 N 
ATOM     15  H   UNL     1      -2.010  -3.064   1.468  1.00  0.00     0.161 HD
BRANCH  14  16
ATOM     16  C   UNL     1      -2.679  -1.871  -0.109  1.00  0.00     0.106 C 
ATOM     17  C   UNL     1      -1.555  -0.832   0.035  1.00  0.00     0.036 C 
BRANCH  16  18
ATOM     18  C   UNL     1      -2.517  -2.902  -1.227  1.00  0.00    -0.023 A 
ATOM     19  C   UNL     1      -2.784  -5.486  -4.706  1.00  0.00     0.047 C 
ATOM     20  C   UNL     1      -2.621  -4.635  -3.486  1.00  0.00    -0.015 A 
ATOM     21  C   UNL     1      -1.710  -3.577  -3.438  1.00  0.00     0.007 A 
ATOM     22  C   UNL     1      -3.439  -4.848  -2.382  1.00  0.00     0.126 A 
ATOM     23  C   UNL     1      -1.661  -2.720  -2.325  1.00  0.00     0.006 A 
ATOM     24  C   UNL     1      -3.371  -4.021  -1.266  1.00  0.00     0.045 A 
ATOM     25  F   UNL     1      -4.337  -5.844  -2.397  1.00  0.00    -0.207 F 
ENDBRANCH  16  18
ENDBRANCH  14  16
ENDBRANCH   8  14
ENDBRANCH   4   7
ENDBRANCH   2   3
ENDBRANCH   1   2
BRANCH   1  26
ATOM     26  C   UNL     1     -10.467  -4.380   4.162  1.00  0.00     0.023 C 
BRANCH  26  27
ATOM     27  C   UNL     1     -11.882  -3.878   3.928  1.00  0.00     0.116 C 
BRANCH  27  28
ATOM     28  N   UNL     1     -12.328  -4.058   2.554  1.00  0.00    -0.352 N 
ATOM     29  C   UNL     1     -13.699  -4.024   2.313  1.00  0.00     0.251 C 
ATOM     30  H   UNL     1     -11.684  -4.197   1.822  1.00  0.00     0.163 HD
ATOM     31  O   UNL     1     -14.374  -5.033   2.291  1.00  0.00    -0.269 OA
BRANCH  29  32
ATOM     32  C   UNL     1     -14.292  -2.650   2.363  1.00  0.00     0.039 A 
ATOM     33  C   UNL     1     -15.675  -2.494   2.518  1.00  0.00     0.014 A 
ATOM     34  C   UNL     1     -13.442  -1.549   2.491  1.00  0.00     0.014 A 
ATOM     35  C   UNL     1     -16.193  -1.260   2.923  1.00  0.00     0.010 A 
ATOM     36  C   UNL     1     -13.937  -0.366   2.975  1.00  0.00     0.010 A 
ATOM     37  C   UNL     1     -15.308  -0.216   3.202  1.00  0.00    -0.014 A 
BRANCH  37  38
ATOM     38  C   UNL     1     -15.668   1.069   3.788  1.00  0.00     0.031 A 
ATOM     39  C   UNL     1     -16.210   1.184   5.155  1.00  0.00     0.074 A 
ATOM     40  C   UNL     1     -15.311   2.164   3.088  1.00  0.00     0.049 A 
ATOM     41  N   UNL     1     -16.742   2.257   5.630  1.00  0.00    -0.248 NA
ATOM     42  C   UNL     1     -16.209   0.080   6.106  1.00  0.00     0.031 C 
ATOM     43  C   UNL     1     -15.204   3.549   3.515  1.00  0.00     0.029 A 
ATOM     44  N   UNL     1     -15.115   2.222   1.716  1.00  0.00    -0.354 N 
ATOM     45  C   UNL     1     -16.922   2.092   6.987  1.00  0.00     0.074 A 
ATOM     46  C   UNL     1     -16.656   0.689   7.213  1.00  0.00     0.031 C 
ATOM     47  C   UNL     1     -15.215   4.334   2.422  1.00  0.00     0.029 A 
ATOM     48  C   UNL     1     -15.517   3.484   1.277  1.00  0.00     0.049 A 
ATOM     49  H   UNL     1     -14.756   1.500   1.151  1.00  0.00     0.167 HD
ATOM     50  C   UNL     1     -17.162   3.200   7.753  1.00  0.00     0.037 A 
ATOM     51  C   UNL     1     -16.659   3.552   0.519  1.00  0.00     0.037 A 
ATOM     52  C   UNL     1     -17.316   4.383   6.896  1.00  0.00     0.049 A 
ATOM     53  C   UNL     1     -17.819   4.226   1.227  1.00  0.00     0.074 A 
ATOM     54  C   UNL     1     -16.470   5.401   6.488  1.00  0.00     0.029 A 
ATOM     55  N   UNL     1     -18.425   4.459   6.077  1.00  0.00    -0.354 N 
ATOM     56  N   UNL     1     -17.793   4.631   2.467  1.00  0.00    -0.248 NA
ATOM     57  C   UNL     1     -19.120   4.460   0.600  1.00  0.00     0.031 C 
ATOM     58  C   UNL     1     -17.065   6.040   5.357  1.00  0.00     0.029 A 
ATOM     59  C   UNL     1     -18.278   5.425   5.100  1.00  0.00     0.049 A 
ATOM     60  H   UNL     1     -19.224   3.892   6.176  1.00  0.00     0.167 HD
ATOM     61  C   UNL     1     -19.019   5.115   2.823  1.00  0.00     0.074 A 
ATOM     62  C   UNL     1     -19.816   5.003   1.614  1.00  0.00     0.031 C 
ATOM     63  C   UNL     1     -19.312   5.545   4.084  1.00  0.00     0.037 A 
BRANCH  50  64
ATOM     64  C   UNL     1     -17.081   3.303   9.270  1.00  0.00     0.058 A 
ATOM     65  C   UNL     1     -16.947   4.571   9.888  1.00  0.00     0.135 A 
ATOM     66  C   UNL     1     -17.085   2.224  10.177  1.00  0.00     0.135 A 
ATOM     67  F   UNL     1     -16.999   5.707   9.178  1.00  0.00    -0.206 F 
ATOM     68  C   UNL     1     -16.744   4.742  11.261  1.00  0.00     0.059 A 
ATOM     69  C   UNL     1     -16.852   2.366  11.551  1.00  0.00     0.059 A 
ATOM     70  F   UNL     1     -17.362   0.976   9.791  1.00  0.00    -0.206 F 
ATOM     71  C   UNL     1     -16.669   3.631  12.085  1.00  0.00     0.060 A 
BRANCH  71  72
ATOM     72  S   UNL     1     -16.348   3.863  13.843  1.00  0.00     0.124 S 
ATOM     73  O   UNL     1     -15.046   4.523  13.830  1.00  0.00    -0.237 OA
ATOM     74  O   UNL     1     -17.476   4.690  14.255  1.00  0.00    -0.237 OA
ATOM     75  O   UNL     1     -16.347   2.501  14.372  1.00  0.00    -0.744 OA
ENDBRANCH  71  72
ENDBRANCH  50  64
BRANCH  51  76
ATOM     76  C   UNL     1     -16.767   2.373  -0.411  1.00  0.00     0.058 A 
ATOM     77  C   UNL     1     -15.755   2.236  -1.385  1.00  0.00     0.135 A 
ATOM     78  C   UNL     1     -17.444   1.206  -0.019  1.00  0.00     0.135 A 
ATOM     79  F   UNL     1     -15.082   3.318  -1.810  1.00  0.00    -0.206 F 
ATOM     80  C   UNL     1     -15.292   0.986  -1.789  1.00  0.00     0.059 A 
ATOM     81  C   UNL     1     -17.003  -0.059  -0.422  1.00  0.00     0.059 A 
ATOM     82  F   UNL     1     -18.434   1.270   0.884  1.00  0.00    -0.206 F 
ATOM     83  C   UNL     1     -15.874  -0.154  -1.239  1.00  0.00     0.060 A 
BRANCH  83  84
ATOM     84  S   UNL     1     -15.021  -1.734  -1.477  1.00  0.00     0.124 S 
ATOM     85  O   UNL     1     -14.890  -1.797  -2.929  1.00  0.00    -0.237 OA
ATOM     86  O   UNL     1     -13.773  -1.512  -0.746  1.00  0.00    -0.237 OA
ATOM     87  O   UNL     1     -15.933  -2.705  -0.886  1.00  0.00    -0.744 OA
ENDBRANCH  83  84
ENDBRANCH  51  76
BRANCH  63  88
ATOM     88  C   UNL     1     -20.655   6.101   4.446  1.00  0.00     0.058 A 
ATOM     89  C   UNL     1     -21.254   7.125   3.696  1.00  0.00     0.135 A 
ATOM     90  C   UNL     1     -21.332   5.695   5.613  1.00  0.00     0.135 A 
ATOM     91  F   UNL     1     -20.653   7.612   2.598  1.00  0.00    -0.206 F 
ATOM     92  C   UNL     1     -22.486   7.672   4.049  1.00  0.00     0.059 A 
ATOM     93  C   UNL     1     -22.534   6.265   6.016  1.00  0.00     0.059 A 
ATOM     94  F   UNL     1     -20.866   4.699   6.381  1.00  0.00    -0.206 F 
ATOM     95  C   UNL     1     -23.121   7.230   5.208  1.00  0.00     0.060 A 
BRANCH  95  96
ATOM     96  S   UNL     1     -24.726   7.913   5.657  1.00  0.00     0.124 S 
ATOM     97  O   UNL     1     -24.607   9.308   5.243  1.00  0.00    -0.237 OA
ATOM     98  O   UNL     1     -25.622   7.090   4.852  1.00  0.00    -0.237 OA
ATOM     99  O   UNL     1     -24.794   7.697   7.098  1.00  0.00    -0.744 OA
ENDBRANCH  95  96
ENDBRANCH  63  88
ENDBRANCH  37  38
ENDBRANCH  29  32
ENDBRANCH  27  28
ENDBRANCH  26  27
ENDBRANCH   1  26
TORSDOF 17
