REMARK SMILES Cc1ccnc(C(=O)c2[nH]c3cc(Cl)c(F)cc3c2CC(=O)NCCCCNC(=O)c2ccc(-c3c4nc(c(-c5c(F)cc(S(=O)(=O)[O-])cc5F)c5ccc([nH]5)c(-c5c(F)cc(S(=O)(=O)[O-])cc5F)c5nc(c(-c6c(F)cc(S(=O)(=O)[O-])cc6F)c6ccc3[nH]6)C=C5)C=C4)cc2)c1
REMARK SMILES IDX 25 1 24 2 23 3 21 4 22 5 20 7 19 8 9 9 10 10 11 11 18 13
REMARK SMILES IDX 12 14 17 15 13 16 15 17 14 18 16 19 7 20 8 21 6 22 1 23 2 24
REMARK SMILES IDX 3 25 97 26 4 27 5 28 26 29 27 30 28 31 29 32 30 34 31 35
REMARK SMILES IDX 32 36 96 37 33 38 95 39 34 40 35 41 36 42 89 43 37 44 94 45
REMARK SMILES IDX 88 46 90 47 38 48 93 49 87 50 86 51 39 53 73 54 52 55 72 56
REMARK SMILES IDX 53 57 56 58 71 59 91 60 54 61 55 62 70 64 92 65 57 66 40 67
REMARK SMILES IDX 41 68 50 69 42 70 43 71 49 72 51 73 44 74 45 75 46 76 47 77
REMARK SMILES IDX 48 78 74 79 75 80 84 81 76 82 77 83 83 84 85 85 78 86 79 87
REMARK SMILES IDX 80 88 81 89 82 90 58 91 59 92 68 93 60 94 61 95 67 96 69 97
REMARK SMILES IDX 62 98 63 99 64 100 65 101 66 102
REMARK H PARENT 23 6 10 12 28 33 90 52 56 63
REMARK Flexibility Score: inf
ROOT
ATOM      1  C   UNL     1      -2.712  -3.479   0.937  1.00  0.00     0.023 C 
ENDROOT
BRANCH   1   2
ATOM      2  C   UNL     1      -2.814  -3.468  -0.614  1.00  0.00     0.116 C 
BRANCH   2   3
ATOM      3  N   UNL     1      -2.170  -2.399  -1.366  1.00  0.00    -0.356 N 
ATOM      4  C   UNL     1      -1.022  -2.356  -2.111  1.00  0.00     0.224 C 
ATOM      5  O   UNL     1      -0.754  -1.304  -2.699  1.00  0.00    -0.275 OA
ATOM      6  H   UNL     1      -2.654  -1.542  -1.333  1.00  0.00     0.163 HD
BRANCH   4   7
ATOM      7  C   UNL     1      -0.130  -3.562  -2.265  1.00  0.00     0.138 C 
BRANCH   7   8
ATOM      8  C   UNL     1       0.271  -4.199  -0.976  1.00  0.00    -0.002 A 
ATOM      9  C   UNL     1       1.086  -3.689   0.036  1.00  0.00     0.093 A 
ATOM     10  N   UNL     1       1.234  -4.716   0.958  1.00  0.00    -0.351 N 
ATOM     11  C   UNL     1       0.425  -5.792   0.647  1.00  0.00     0.048 A 
ATOM     12  H   UNL     1       1.838  -4.683   1.734  1.00  0.00     0.167 HD
ATOM     13  C   UNL     1      -0.157  -5.513  -0.582  1.00  0.00     0.007 A 
ATOM     14  C   UNL     1       0.163  -6.988   1.341  1.00  0.00     0.050 A 
ATOM     15  C   UNL     1      -1.039  -6.460  -1.153  1.00  0.00     0.051 A 
ATOM     16  C   UNL     1      -0.750  -7.891   0.772  1.00  0.00     0.078 A 
ATOM     17  C   UNL     1      -1.350  -7.620  -0.450  1.00  0.00     0.142 A 
ATOM     18  Cl  UNL     1      -1.128  -9.353   1.603  1.00  0.00    -0.081 Cl
ATOM     19  F   UNL     1      -2.261  -8.454  -0.977  1.00  0.00    -0.205 F 
BRANCH   9  20
ATOM     20  C   UNL     1       1.829  -2.421   0.152  1.00  0.00     0.227 C 
ATOM     21  O   UNL     1       3.058  -2.454   0.201  1.00  0.00    -0.285 OA
BRANCH  20  22
ATOM     22  C   UNL     1       1.115  -1.070   0.231  1.00  0.00     0.113 A 
ATOM     23  C   UNL     1      -2.395   0.466   0.166  1.00  0.00     0.044 C 
ATOM     24  C   UNL     1      -0.907   0.284   0.262  1.00  0.00    -0.047 A 
ATOM     25  C   UNL     1      -0.113   1.403   0.078  1.00  0.00     0.023 A 
ATOM     26  C   UNL     1      -0.257  -0.950   0.441  1.00  0.00     0.036 A 
ATOM     27  C   UNL     1       1.257   1.231   0.003  1.00  0.00     0.112 A 
ATOM     28  N   UNL     1       1.885   0.031   0.041  1.00  0.00    -0.253 NA
ENDBRANCH  20  22
ENDBRANCH   9  20
ENDBRANCH   7   8
ENDBRANCH   4   7
ENDBRANCH   2   3
ENDBRANCH   1   2
BRANCH   1  29
ATOM     29  C   UNL     1      -3.488  -2.417   1.743  1.00  0.00     0.023 C 
BRANCH  29  30
ATOM     30  C   UNL     1      -4.905  -2.191   1.244  1.00  0.00     0.116 C 
BRANCH  30  31
ATOM     31  N   UNL     1      -5.711  -3.353   1.496  1.00  0.00    -0.352 N 
ATOM     32  C   UNL     1      -6.749  -3.622   2.323  1.00  0.00     0.251 C 
ATOM     33  H   UNL     1      -5.450  -4.127   0.945  1.00  0.00     0.163 HD
ATOM     34  O   UNL     1      -7.283  -4.722   2.153  1.00  0.00    -0.269 OA
BRANCH  32  35
ATOM     35  C   UNL     1      -7.129  -2.816   3.503  1.00  0.00     0.039 A 
ATOM     36  C   UNL     1      -6.721  -1.546   3.902  1.00  0.00     0.014 A 
ATOM     37  C   UNL     1      -7.754  -3.598   4.470  1.00  0.00     0.014 A 
ATOM     38  C   UNL     1      -6.527  -1.366   5.310  1.00  0.00     0.010 A 
ATOM     39  C   UNL     1      -7.979  -3.079   5.711  1.00  0.00     0.010 A 
ATOM     40  C   UNL     1      -6.895  -2.415   6.235  1.00  0.00    -0.014 A 
BRANCH  40  41
ATOM     41  C   UNL     1      -6.966  -2.414   7.799  1.00  0.00     0.031 A 
ATOM     42  C   UNL     1      -7.807  -0.991   7.935  1.00  0.00     0.074 A 
ATOM     43  C   UNL     1      -6.527  -3.427   8.797  1.00  0.00     0.049 A 
ATOM     44  N   UNL     1      -7.233   0.174   8.076  1.00  0.00    -0.248 NA
ATOM     45  C   UNL     1      -9.195  -0.661   7.359  1.00  0.00     0.031 C 
ATOM     46  C   UNL     1      -5.790  -4.820   8.802  1.00  0.00     0.029 A 
ATOM     47  N   UNL     1      -6.584  -3.412  10.242  1.00  0.00    -0.354 N 
ATOM     48  C   UNL     1      -8.267   1.086   8.335  1.00  0.00     0.074 A 
ATOM     49  C   UNL     1      -9.385   0.644   7.603  1.00  0.00     0.031 C 
ATOM     50  C   UNL     1      -5.886  -5.520  10.005  1.00  0.00     0.029 A 
ATOM     51  C   UNL     1      -6.519  -4.693  11.019  1.00  0.00     0.049 A 
ATOM     52  H   UNL     1      -6.666  -2.554  10.719  1.00  0.00     0.167 HD
ATOM     53  C   UNL     1      -8.216   1.815   9.476  1.00  0.00     0.037 A 
ATOM     54  C   UNL     1      -6.599  -4.915  12.427  1.00  0.00     0.037 A 
ATOM     55  C   UNL     1      -6.873   1.705   9.983  1.00  0.00     0.049 A 
ATOM     56  C   UNL     1      -6.546  -3.544  13.000  1.00  0.00     0.074 A 
ATOM     57  C   UNL     1      -5.637   2.058   9.479  1.00  0.00     0.029 A 
ATOM     58  N   UNL     1      -6.700   0.560  10.710  1.00  0.00    -0.354 N 
ATOM     59  N   UNL     1      -5.451  -2.836  12.935  1.00  0.00    -0.248 NA
ATOM     60  C   UNL     1      -7.826  -2.846  12.898  1.00  0.00     0.031 C 
ATOM     61  C   UNL     1      -4.760   0.979   9.785  1.00  0.00     0.029 A 
ATOM     62  C   UNL     1      -5.417   0.111  10.646  1.00  0.00     0.049 A 
ATOM     63  H   UNL     1      -7.416   0.115  11.217  1.00  0.00     0.167 HD
ATOM     64  C   UNL     1      -5.853  -1.700  12.257  1.00  0.00     0.074 A 
ATOM     65  C   UNL     1      -7.351  -1.762  12.269  1.00  0.00     0.031 C 
ATOM     66  C   UNL     1      -5.005  -1.044  11.391  1.00  0.00     0.037 A 
BRANCH  53  67
ATOM     67  C   UNL     1      -9.386   2.151  10.369  1.00  0.00     0.058 A 
ATOM     68  C   UNL     1      -9.152   3.114  11.363  1.00  0.00     0.135 A 
ATOM     69  C   UNL     1     -10.621   1.459  10.459  1.00  0.00     0.135 A 
ATOM     70  F   UNL     1      -8.000   3.801  11.382  1.00  0.00    -0.206 F 
ATOM     71  C   UNL     1     -10.066   3.384  12.372  1.00  0.00     0.059 A 
ATOM     72  C   UNL     1     -11.575   1.744  11.443  1.00  0.00     0.059 A 
ATOM     73  F   UNL     1     -10.928   0.445   9.636  1.00  0.00    -0.206 F 
ATOM     74  C   UNL     1     -11.280   2.707  12.399  1.00  0.00     0.060 A 
BRANCH  74  75
ATOM     75  S   UNL     1     -12.445   3.139  13.703  1.00  0.00     0.124 S 
ATOM     76  O   UNL     1     -11.691   2.798  14.904  1.00  0.00    -0.237 OA
ATOM     77  O   UNL     1     -12.637   4.566  13.457  1.00  0.00    -0.237 OA
ATOM     78  O   UNL     1     -13.603   2.299  13.420  1.00  0.00    -0.744 OA
ENDBRANCH  74  75
ENDBRANCH  53  67
BRANCH  54  79
ATOM     79  C   UNL     1      -7.304  -6.007  13.329  1.00  0.00     0.058 A 
ATOM     80  C   UNL     1      -7.290  -6.189  14.767  1.00  0.00     0.135 A 
ATOM     81  C   UNL     1      -8.354  -6.693  12.714  1.00  0.00     0.135 A 
ATOM     82  F   UNL     1      -6.332  -5.630  15.528  1.00  0.00    -0.206 F 
ATOM     83  C   UNL     1      -8.284  -6.943  15.489  1.00  0.00     0.059 A 
ATOM     84  C   UNL     1      -9.351  -7.410  13.403  1.00  0.00     0.059 A 
ATOM     85  F   UNL     1      -8.491  -6.608  11.387  1.00  0.00    -0.206 F 
ATOM     86  C   UNL     1      -9.340  -7.519  14.788  1.00  0.00     0.060 A 
BRANCH  86  87
ATOM     87  S   UNL     1     -10.745  -8.341  15.631  1.00  0.00     0.124 S 
ATOM     88  O   UNL     1     -10.106  -9.470  16.298  1.00  0.00    -0.237 OA
ATOM     89  O   UNL     1     -11.254  -7.292  16.508  1.00  0.00    -0.237 OA
ATOM     90  O   UNL     1     -11.633  -8.703  14.527  1.00  0.00    -0.744 OA
ENDBRANCH  86  87
ENDBRANCH  54  79
BRANCH  66  91
ATOM     91  C   UNL     1      -3.537  -1.437  11.247  1.00  0.00     0.058 A 
ATOM     92  C   UNL     1      -2.981  -2.458  10.440  1.00  0.00     0.135 A 
ATOM     93  C   UNL     1      -2.616  -0.545  11.801  1.00  0.00     0.135 A 
ATOM     94  F   UNL     1      -3.753  -3.222   9.661  1.00  0.00    -0.206 F 
ATOM     95  C   UNL     1      -1.594  -2.663  10.317  1.00  0.00     0.059 A 
ATOM     96  C   UNL     1      -1.239  -0.688  11.647  1.00  0.00     0.059 A 
ATOM     97  F   UNL     1      -3.061   0.553  12.430  1.00  0.00    -0.206 F 
ATOM     98  C   UNL     1      -0.729  -1.775  10.947  1.00  0.00     0.060 A 
BRANCH  98  99
ATOM     99  S   UNL     1       1.056  -2.030  10.814  1.00  0.00     0.124 S 
ATOM    100  O   UNL     1       1.243  -3.288  11.515  1.00  0.00    -0.237 OA
ATOM    101  O   UNL     1       1.270  -2.057   9.377  1.00  0.00    -0.237 OA
ATOM    102  O   UNL     1       1.615  -0.845  11.500  1.00  0.00    -0.744 OA
ENDBRANCH  98  99
ENDBRANCH  66  91
ENDBRANCH  40  41
ENDBRANCH  32  35
ENDBRANCH  30  31
ENDBRANCH  29  30
ENDBRANCH   1  29
TORSDOF 17
