REMARK SMILES CCOC(=O)c1ccc(NC(=O)[C@H]2CC(C)=C(C)C[C@@H]2C(=O)NCCCCNC(=O)c2ccc(-c3c4nc(c(-c5c(F)cc(S(=O)(=O)[O-])cc5F)c5ccc([nH]5)c(-c5c(F)cc(S(=O)(=O)[O-])cc5F)c5nc(c(-c6c(F)cc(S(=O)(=O)[O-])cc6F)c6ccc3[nH]6)C=C5)C=C4)cc2)cc1
REMARK SMILES IDX 24 1 23 2 21 3 22 4 20 6 13 7 14 8 15 9 19 10 16 11 17 12
REMARK SMILES IDX 18 13 11 14 10 15 12 17 9 18 6 19 7 20 98 21 8 22 97 23 4 24
REMARK SMILES IDX 5 25 3 26 2 27 1 28 25 29 26 30 27 31 28 32 29 33 30 35
REMARK SMILES IDX 31 36 32 37 96 38 33 39 95 40 34 41 35 42 36 43 89 44 37 45
REMARK SMILES IDX 94 46 88 47 90 48 38 49 93 50 87 51 86 52 39 54 73 55 52 56
REMARK SMILES IDX 72 57 53 58 56 59 71 60 91 61 54 62 55 63 70 65 92 66 57 67
REMARK SMILES IDX 40 68 41 69 50 70 42 71 43 72 49 73 51 74 44 75 45 76 46 77
REMARK SMILES IDX 47 78 48 79 74 80 75 81 84 82 76 83 77 84 83 85 85 86 78 87
REMARK SMILES IDX 79 88 80 89 81 90 82 91 58 92 59 93 68 94 60 95 61 96 67 97
REMARK SMILES IDX 69 98 62 99 63 100 64 101 65 102 66 103
REMARK H PARENT 23 5 10 16 28 34 90 53 56 64
REMARK Flexibility Score: inf
ROOT
ATOM      1  C   UNL     1       7.190   9.833   0.545  1.00  0.00     0.116 C 
ENDROOT
BRANCH   1   2
ATOM      2  N   UNL     1       7.202   9.096  -0.694  1.00  0.00    -0.356 N 
ATOM      3  C   UNL     1       6.723   7.881  -1.050  1.00  0.00     0.224 C 
ATOM      4  O   UNL     1       7.020   7.562  -2.207  1.00  0.00    -0.275 OA
ATOM      5  H   UNL     1       7.648   9.573  -1.430  1.00  0.00     0.163 HD
BRANCH   3   6
ATOM      6  C   UNL     1       5.756   7.016  -0.182  1.00  0.00     0.095 C 
ATOM      7  C   UNL     1       6.140   6.794   1.297  1.00  0.00     0.095 C 
ATOM      8  C   UNL     1       6.642   5.416   1.738  1.00  0.00     0.045 C 
ATOM      9  C   UNL     1       6.298   4.232   0.884  1.00  0.00    -0.074 C 
ATOM     10  C   UNL     1       5.484   5.704  -0.982  1.00  0.00     0.045 C 
ATOM     11  C   UNL     1       6.655   2.915   1.529  1.00  0.00     0.039 C 
ATOM     12  C   UNL     1       5.765   4.364  -0.344  1.00  0.00    -0.074 C 
ATOM     13  C   UNL     1       5.421   3.191  -1.228  1.00  0.00     0.039 C 
BRANCH   7  14
ATOM     14  C   UNL     1       5.221   7.441   2.365  1.00  0.00     0.228 C 
ATOM     15  N   UNL     1       4.097   6.919   2.918  1.00  0.00    -0.326 N 
ATOM     16  H   UNL     1       3.724   7.481   3.635  1.00  0.00     0.169 HD
ATOM     17  O   UNL     1       5.580   8.506   2.893  1.00  0.00    -0.274 OA
BRANCH  15  18
ATOM     18  C   UNL     1       3.357   5.760   2.695  1.00  0.00     0.041 A 
ATOM     19  C   UNL     1       2.154   3.269   2.422  1.00  0.00     0.060 A 
ATOM     20  C   UNL     1       2.587   3.955   1.289  1.00  0.00     0.018 A 
ATOM     21  C   UNL     1       2.202   3.871   3.678  1.00  0.00     0.018 A 
ATOM     22  C   UNL     1       3.166   5.215   1.437  1.00  0.00     0.027 A 
ATOM     23  C   UNL     1       2.781   5.135   3.807  1.00  0.00     0.027 A 
BRANCH  19  24
ATOM     24  C   UNL     1       1.770   1.858   2.311  1.00  0.00     0.338 C 
ATOM     25  O   UNL     1       2.414   0.952   2.811  1.00  0.00    -0.246 OA
BRANCH  24  26
ATOM     26  O   UNL     1       0.644   1.766   1.569  1.00  0.00    -0.462 OA
BRANCH  26  27
ATOM     27  C   UNL     1       0.237   0.428   1.258  1.00  0.00     0.230 C 
ATOM     28  C   UNL     1       0.806   0.053  -0.097  1.00  0.00     0.049 C 
ENDBRANCH  26  27
ENDBRANCH  24  26
ENDBRANCH  19  24
ENDBRANCH  15  18
ENDBRANCH   7  14
ENDBRANCH   3   6
ENDBRANCH   1   2
BRANCH   1  29
ATOM     29  C   UNL     1       8.470   9.570   1.345  1.00  0.00     0.023 C 
BRANCH  29  30
ATOM     30  C   UNL     1       9.724  10.218   0.753  1.00  0.00     0.023 C 
BRANCH  30  31
ATOM     31  C   UNL     1       9.667  11.735   0.651  1.00  0.00     0.116 C 
BRANCH  31  32
ATOM     32  N   UNL     1       9.397  12.379   1.927  1.00  0.00    -0.352 N 
ATOM     33  C   UNL     1       9.836  13.603   2.366  1.00  0.00     0.251 C 
ATOM     34  H   UNL     1       8.828  11.875   2.553  1.00  0.00     0.163 HD
ATOM     35  O   UNL     1       9.623  13.967   3.518  1.00  0.00    -0.269 OA
BRANCH  33  36
ATOM     36  C   UNL     1      10.608  14.455   1.440  1.00  0.00     0.039 A 
ATOM     37  C   UNL     1      11.841  14.957   1.859  1.00  0.00     0.014 A 
ATOM     38  C   UNL     1      10.138  14.704   0.147  1.00  0.00     0.014 A 
ATOM     39  C   UNL     1      12.635  15.662   0.955  1.00  0.00     0.010 A 
ATOM     40  C   UNL     1      10.960  15.348  -0.770  1.00  0.00     0.010 A 
ATOM     41  C   UNL     1      12.216  15.832  -0.376  1.00  0.00    -0.014 A 
BRANCH  41  42
ATOM     42  C   UNL     1      13.084  16.509  -1.370  1.00  0.00     0.031 A 
ATOM     43  C   UNL     1      12.648  17.808  -1.989  1.00  0.00     0.074 A 
ATOM     44  C   UNL     1      14.226  15.913  -1.766  1.00  0.00     0.049 A 
ATOM     45  N   UNL     1      13.236  18.515  -2.918  1.00  0.00    -0.248 NA
ATOM     46  C   UNL     1      11.368  18.371  -1.526  1.00  0.00     0.031 C 
ATOM     47  C   UNL     1      14.715  14.616  -1.290  1.00  0.00     0.029 A 
ATOM     48  N   UNL     1      15.176  16.310  -2.673  1.00  0.00    -0.354 N 
ATOM     49  C   UNL     1      12.392  19.590  -3.166  1.00  0.00     0.074 A 
ATOM     50  C   UNL     1      11.230  19.422  -2.321  1.00  0.00     0.031 C 
ATOM     51  C   UNL     1      15.878  14.332  -1.900  1.00  0.00     0.029 A 
ATOM     52  C   UNL     1      16.204  15.409  -2.828  1.00  0.00     0.049 A 
ATOM     53  H   UNL     1      15.127  17.161  -3.166  1.00  0.00     0.167 HD
ATOM     54  C   UNL     1      12.579  20.634  -4.008  1.00  0.00     0.037 A 
ATOM     55  C   UNL     1      17.283  15.446  -3.633  1.00  0.00     0.037 A 
ATOM     56  C   UNL     1      13.761  20.819  -4.809  1.00  0.00     0.049 A 
ATOM     57  C   UNL     1      17.491  16.643  -4.521  1.00  0.00     0.074 A 
ATOM     58  C   UNL     1      14.089  21.890  -5.621  1.00  0.00     0.029 A 
ATOM     59  N   UNL     1      14.807  19.914  -4.897  1.00  0.00    -0.354 N 
ATOM     60  N   UNL     1      16.725  17.697  -4.676  1.00  0.00    -0.248 NA
ATOM     61  C   UNL     1      18.715  16.663  -5.335  1.00  0.00     0.031 C 
ATOM     62  C   UNL     1      15.318  21.617  -6.229  1.00  0.00     0.029 A 
ATOM     63  C   UNL     1      15.774  20.393  -5.765  1.00  0.00     0.049 A 
ATOM     64  H   UNL     1      14.856  19.057  -4.415  1.00  0.00     0.167 HD
ATOM     65  C   UNL     1      17.384  18.514  -5.587  1.00  0.00     0.074 A 
ATOM     66  C   UNL     1      18.618  17.841  -5.937  1.00  0.00     0.031 C 
ATOM     67  C   UNL     1      17.001  19.712  -6.092  1.00  0.00     0.037 A 
BRANCH  54  68
ATOM     68  C   UNL     1      11.495  21.669  -4.098  1.00  0.00     0.058 A 
ATOM     69  C   UNL     1      11.263  22.585  -3.059  1.00  0.00     0.135 A 
ATOM     70  C   UNL     1      10.719  21.789  -5.263  1.00  0.00     0.135 A 
ATOM     71  F   UNL     1      11.965  22.503  -1.918  1.00  0.00    -0.206 F 
ATOM     72  C   UNL     1      10.293  23.575  -3.166  1.00  0.00     0.059 A 
ATOM     73  C   UNL     1       9.758  22.786  -5.401  1.00  0.00     0.059 A 
ATOM     74  F   UNL     1      10.897  20.935  -6.284  1.00  0.00    -0.206 F 
ATOM     75  C   UNL     1       9.547  23.670  -4.343  1.00  0.00     0.060 A 
BRANCH  75  76
ATOM     76  S   UNL     1       8.316  24.983  -4.480  1.00  0.00     0.124 S 
ATOM     77  O   UNL     1       7.256  24.480  -3.612  1.00  0.00    -0.237 OA
ATOM     78  O   UNL     1       9.044  26.147  -3.982  1.00  0.00    -0.237 OA
ATOM     79  O   UNL     1       8.002  25.008  -5.905  1.00  0.00    -0.744 OA
ENDBRANCH  75  76
ENDBRANCH  54  68
BRANCH  55  80
ATOM     80  C   UNL     1      18.257  14.323  -3.629  1.00  0.00     0.058 A 
ATOM     81  C   UNL     1      19.539  14.479  -3.081  1.00  0.00     0.135 A 
ATOM     82  C   UNL     1      17.929  13.075  -4.180  1.00  0.00     0.135 A 
ATOM     83  F   UNL     1      19.900  15.655  -2.545  1.00  0.00    -0.206 F 
ATOM     84  C   UNL     1      20.472  13.448  -3.103  1.00  0.00     0.059 A 
ATOM     85  C   UNL     1      18.837  12.020  -4.193  1.00  0.00     0.059 A 
ATOM     86  F   UNL     1      16.709  12.868  -4.699  1.00  0.00    -0.206 F 
ATOM     87  C   UNL     1      20.112  12.222  -3.665  1.00  0.00     0.060 A 
BRANCH  87  88
ATOM     88  S   UNL     1      21.319  10.878  -3.667  1.00  0.00     0.124 S 
ATOM     89  O   UNL     1      22.205  11.283  -4.752  1.00  0.00    -0.237 OA
ATOM     90  O   UNL     1      21.877  10.962  -2.321  1.00  0.00    -0.237 OA
ATOM     91  O   UNL     1      20.502   9.696  -3.925  1.00  0.00    -0.744 OA
ENDBRANCH  87  88
ENDBRANCH  55  80
BRANCH  67  92
ATOM     92  C   UNL     1      17.938  20.386  -7.054  1.00  0.00     0.058 A 
ATOM     93  C   UNL     1      18.088  19.932  -8.373  1.00  0.00     0.135 A 
ATOM     94  C   UNL     1      18.657  21.527  -6.664  1.00  0.00     0.135 A 
ATOM     95  F   UNL     1      17.426  18.841  -8.792  1.00  0.00    -0.206 F 
ATOM     96  C   UNL     1      18.938  20.573  -9.268  1.00  0.00     0.059 A 
ATOM     97  C   UNL     1      19.493  22.199  -7.550  1.00  0.00     0.059 A 
ATOM     98  F   UNL     1      18.538  22.008  -5.416  1.00  0.00    -0.206 F 
ATOM     99  C   UNL     1      19.637  21.706  -8.846  1.00  0.00     0.060 A 
BRANCH  99 100
ATOM    100  S   UNL     1      20.715  22.548 -10.024  1.00  0.00     0.124 S 
ATOM    101  O   UNL     1      21.872  21.660 -10.048  1.00  0.00    -0.237 OA
ATOM    102  O   UNL     1      19.903  22.565 -11.237  1.00  0.00    -0.237 OA
ATOM    103  O   UNL     1      20.936  23.853  -9.408  1.00  0.00    -0.744 OA
ENDBRANCH  99 100
ENDBRANCH  67  92
ENDBRANCH  41  42
ENDBRANCH  33  36
ENDBRANCH  31  32
ENDBRANCH  30  31
ENDBRANCH  29  30
ENDBRANCH   1  29
TORSDOF 19
