REMARK SMILES C[C@H](C(=O)NCCCCNC(=O)c1ccc(-c2c3nc(c(-c4c(F)cc(S(=O)(=O)[O-])cc4F)c4ccc([nH]4)c(-c4c(F)cc(S(=O)(=O)[O-])cc4F)c4nc(c(-c5c(F)cc(S(=O)(=O)[O-])cc5F)c5ccc2[nH]5)C=C4)C=C3)cc1)[C@@H](C)C(=O)[C@H]1CC[C@H](C)CC1
REMARK SMILES IDX 7 1 6 2 5 3 3 4 4 5 2 7 1 8 79 9 80 10 81 11 82 12 83 13
REMARK SMILES IDX 87 14 86 15 85 16 88 17 84 18 89 19 8 20 9 21 10 22 11 23
REMARK SMILES IDX 12 25 13 26 14 27 78 28 15 29 77 30 16 31 17 32 18 33 71 34
REMARK SMILES IDX 19 35 76 36 70 37 72 38 20 39 75 40 69 41 68 42 21 44 55 45
REMARK SMILES IDX 34 46 54 47 35 48 38 49 53 50 73 51 36 52 37 53 52 55 74 56
REMARK SMILES IDX 39 57 22 58 23 59 32 60 24 61 25 62 31 63 33 64 26 65 27 66
REMARK SMILES IDX 28 67 29 68 30 69 56 70 57 71 66 72 58 73 59 74 65 75 67 76
REMARK SMILES IDX 60 77 61 78 62 79 63 80 64 81 40 82 41 83 50 84 42 85 43 86
REMARK SMILES IDX 49 87 51 88 44 89 45 90 46 91 47 92 48 93
REMARK H PARENT 5 6 10 24 72 43 38 54
REMARK Flexibility Score: inf
ROOT
ATOM      1  C   UNL     1      -6.802  -0.358   3.527  1.00  0.00     0.023 C 
ENDROOT
BRANCH   1   2
ATOM      2  C   UNL     1      -5.921   0.858   3.268  1.00  0.00     0.116 C 
BRANCH   2   3
ATOM      3  N   UNL     1      -4.699   0.819   4.043  1.00  0.00    -0.356 N 
ATOM      4  C   UNL     1      -3.407   1.010   3.664  1.00  0.00     0.223 C 
ATOM      5  O   UNL     1      -2.535   0.988   4.536  1.00  0.00    -0.275 OA
ATOM      6  H   UNL     1      -4.824   0.623   4.999  1.00  0.00     0.163 HD
BRANCH   4   7
ATOM      7  C   UNL     1      -3.020   1.158   2.194  1.00  0.00     0.085 C 
ATOM      8  C   UNL     1      -3.303  -0.170   1.470  1.00  0.00     0.019 C 
BRANCH   7   9
ATOM      9  C   UNL     1      -3.414   2.496   1.472  1.00  0.00     0.065 C 
ATOM     10  C   UNL     1      -3.555   2.320  -0.032  1.00  0.00     0.017 C 
BRANCH   9  11
ATOM     11  C   UNL     1      -4.375   3.432   2.241  1.00  0.00     0.139 C 
ATOM     12  O   UNL     1      -4.078   3.696   3.419  1.00  0.00    -0.299 OA
BRANCH  11  13
ATOM     13  C   UNL     1      -5.653   4.110   1.685  1.00  0.00     0.056 C 
ATOM     14  C   UNL     1      -8.213   7.114  -0.343  1.00  0.00     0.007 C 
ATOM     15  C   UNL     1      -7.042   6.252   0.117  1.00  0.00    -0.014 C 
ATOM     16  C   UNL     1      -7.285   4.768  -0.171  1.00  0.00     0.004 C 
ATOM     17  C   UNL     1      -6.773   6.432   1.610  1.00  0.00     0.004 C 
ATOM     18  C   UNL     1      -6.060   3.937   0.223  1.00  0.00     0.012 C 
ATOM     19  C   UNL     1      -5.566   5.611   2.055  1.00  0.00     0.012 C 
ENDBRANCH  11  13
ENDBRANCH   9  11
ENDBRANCH   7   9
ENDBRANCH   4   7
ENDBRANCH   2   3
ENDBRANCH   1   2
BRANCH   1  20
ATOM     20  C   UNL     1      -7.427  -0.393   4.923  1.00  0.00     0.023 C 
BRANCH  20  21
ATOM     21  C   UNL     1      -8.214   0.856   5.316  1.00  0.00     0.116 C 
BRANCH  21  22
ATOM     22  N   UNL     1      -9.287   1.166   4.382  1.00  0.00    -0.352 N 
ATOM     23  C   UNL     1     -10.611   1.435   4.644  1.00  0.00     0.251 C 
ATOM     24  H   UNL     1      -9.030   1.186   3.432  1.00  0.00     0.163 HD
ATOM     25  O   UNL     1     -11.411   1.541   3.724  1.00  0.00    -0.269 OA
BRANCH  23  26
ATOM     26  C   UNL     1     -11.056   1.560   6.048  1.00  0.00     0.039 A 
ATOM     27  C   UNL     1     -12.165   0.825   6.474  1.00  0.00     0.014 A 
ATOM     28  C   UNL     1     -10.351   2.364   6.947  1.00  0.00     0.014 A 
ATOM     29  C   UNL     1     -12.521   0.839   7.824  1.00  0.00     0.010 A 
ATOM     30  C   UNL     1     -10.662   2.318   8.302  1.00  0.00     0.010 A 
ATOM     31  C   UNL     1     -11.748   1.552   8.756  1.00  0.00    -0.014 A 
BRANCH  31  32
ATOM     32  C   UNL     1     -12.048   1.499  10.210  1.00  0.00     0.031 A 
ATOM     33  C   UNL     1     -12.444   2.750  10.945  1.00  0.00     0.074 A 
ATOM     34  C   UNL     1     -11.890   0.341  10.881  1.00  0.00     0.049 A 
ATOM     35  N   UNL     1     -12.671   2.919  12.222  1.00  0.00    -0.248 NA
ATOM     36  C   UNL     1     -12.574   3.978  10.145  1.00  0.00     0.031 C 
ATOM     37  C   UNL     1     -11.453  -0.927  10.291  1.00  0.00     0.029 A 
ATOM     38  N   UNL     1     -12.064   0.043  12.210  1.00  0.00    -0.354 N 
ATOM     39  C   UNL     1     -12.951   4.271  12.381  1.00  0.00     0.074 A 
ATOM     40  C   UNL     1     -12.817   4.886  11.079  1.00  0.00     0.031 C 
ATOM     41  C   UNL     1     -11.410  -1.868  11.248  1.00  0.00     0.029 A 
ATOM     42  C   UNL     1     -11.781  -1.266  12.525  1.00  0.00     0.049 A 
ATOM     43  H   UNL     1     -12.363   0.704  12.875  1.00  0.00     0.167 HD
ATOM     44  C   UNL     1     -13.307   4.935  13.507  1.00  0.00     0.037 A 
ATOM     45  C   UNL     1     -11.808  -1.907  13.710  1.00  0.00     0.037 A 
ATOM     46  C   UNL     1     -13.468   4.311  14.794  1.00  0.00     0.049 A 
ATOM     47  C   UNL     1     -12.225  -1.152  14.943  1.00  0.00     0.074 A 
ATOM     48  C   UNL     1     -13.896   4.883  15.979  1.00  0.00     0.029 A 
ATOM     49  N   UNL     1     -13.206   2.976  15.066  1.00  0.00    -0.354 N 
ATOM     50  N   UNL     1     -12.558   0.111  15.062  1.00  0.00    -0.248 NA
ATOM     51  C   UNL     1     -12.279  -1.910  16.201  1.00  0.00     0.031 C 
ATOM     52  C   UNL     1     -13.853   3.905  16.978  1.00  0.00     0.029 A 
ATOM     53  C   UNL     1     -13.445   2.711  16.405  1.00  0.00     0.049 A 
ATOM     54  H   UNL     1     -12.897   2.315  14.406  1.00  0.00     0.167 HD
ATOM     55  C   UNL     1     -12.884   0.294  16.401  1.00  0.00     0.074 A 
ATOM     56  C   UNL     1     -12.721  -0.991  17.049  1.00  0.00     0.031 C 
ATOM     57  C   UNL     1     -13.284   1.424  17.035  1.00  0.00     0.037 A 
BRANCH  44  58
ATOM     58  C   UNL     1     -13.555   6.415  13.395  1.00  0.00     0.058 A 
ATOM     59  C   UNL     1     -14.677   6.926  12.723  1.00  0.00     0.135 A 
ATOM     60  C   UNL     1     -12.681   7.332  14.000  1.00  0.00     0.135 A 
ATOM     61  F   UNL     1     -15.537   6.095  12.113  1.00  0.00    -0.206 F 
ATOM     62  C   UNL     1     -14.909   8.294  12.630  1.00  0.00     0.059 A 
ATOM     63  C   UNL     1     -12.909   8.705  13.944  1.00  0.00     0.059 A 
ATOM     64  F   UNL     1     -11.592   6.899  14.655  1.00  0.00    -0.206 F 
ATOM     65  C   UNL     1     -14.018   9.176  13.245  1.00  0.00     0.060 A 
BRANCH  65  66
ATOM     66  S   UNL     1     -14.340  10.948  13.124  1.00  0.00     0.124 S 
ATOM     67  O   UNL     1     -13.989  11.213  11.732  1.00  0.00    -0.237 OA
ATOM     68  O   UNL     1     -15.762  11.030  13.444  1.00  0.00    -0.237 OA
ATOM     69  O   UNL     1     -13.442  11.526  14.118  1.00  0.00    -0.744 OA
ENDBRANCH  65  66
ENDBRANCH  44  58
BRANCH  45  70
ATOM     70  C   UNL     1     -11.450  -3.349  13.780  1.00  0.00     0.058 A 
ATOM     71  C   UNL     1     -12.431  -4.325  14.013  1.00  0.00     0.135 A 
ATOM     72  C   UNL     1     -10.129  -3.783  13.595  1.00  0.00     0.135 A 
ATOM     73  F   UNL     1     -13.708  -3.960  14.204  1.00  0.00    -0.206 F 
ATOM     74  C   UNL     1     -12.114  -5.678  14.072  1.00  0.00     0.059 A 
ATOM     75  C   UNL     1      -9.790  -5.132  13.624  1.00  0.00     0.059 A 
ATOM     76  F   UNL     1      -9.156  -2.890  13.352  1.00  0.00    -0.206 F 
ATOM     77  C   UNL     1     -10.790  -6.072  13.872  1.00  0.00     0.060 A 
BRANCH  77  78
ATOM     78  S   UNL     1     -10.399  -7.836  13.891  1.00  0.00     0.124 S 
ATOM     79  O   UNL     1     -10.491  -8.142  15.313  1.00  0.00    -0.237 OA
ATOM     80  O   UNL     1     -11.453  -8.392  13.048  1.00  0.00    -0.237 OA
ATOM     81  O   UNL     1      -9.057  -7.888  13.318  1.00  0.00    -0.744 OA
ENDBRANCH  77  78
ENDBRANCH  45  70
BRANCH  57  82
ATOM     82  C   UNL     1     -13.605   1.320  18.501  1.00  0.00     0.058 A 
ATOM     83  C   UNL     1     -12.599   1.178  19.469  1.00  0.00     0.135 A 
ATOM     84  C   UNL     1     -14.934   1.422  18.944  1.00  0.00     0.135 A 
ATOM     85  F   UNL     1     -11.314   1.071  19.097  1.00  0.00    -0.206 F 
ATOM     86  C   UNL     1     -12.901   1.119  20.826  1.00  0.00     0.059 A 
ATOM     87  C   UNL     1     -15.256   1.392  20.297  1.00  0.00     0.059 A 
ATOM     88  F   UNL     1     -15.933   1.569  18.059  1.00  0.00    -0.206 F 
ATOM     89  C   UNL     1     -14.233   1.229  21.230  1.00  0.00     0.060 A 
BRANCH  89  90
ATOM     90  S   UNL     1     -14.609   1.188  22.995  1.00  0.00     0.124 S 
ATOM     91  O   UNL     1     -14.433  -0.229  23.300  1.00  0.00    -0.237 OA
ATOM     92  O   UNL     1     -13.601   2.086  23.552  1.00  0.00    -0.237 OA
ATOM     93  O   UNL     1     -15.982   1.678  23.062  1.00  0.00    -0.744 OA
ENDBRANCH  89  90
ENDBRANCH  57  82
ENDBRANCH  31  32
ENDBRANCH  23  26
ENDBRANCH  21  22
ENDBRANCH  20  21
ENDBRANCH   1  20
TORSDOF 17
