REMARK SMILES COC[C@H](C)Oc1cnc2ccccc2c1C(=O)NCCCCNC(=O)c1ccc(-c2c3nc(c(-c4c(F)cc(S(=O)(=O)[O-])cc4F)c4ccc([nH]4)c(-c4c(F)cc(S(=O)(=O)[O-])cc4F)c4nc(c(-c5c(F)cc(S(=O)(=O)[O-])cc5F)c5ccc2[nH]5)C=C4)C=C3)cc1
REMARK SMILES IDX 21 1 20 2 19 3 17 4 18 5 16 7 7 8 8 9 9 10 15 11 10 12 14 13
REMARK SMILES IDX 11 14 13 15 12 16 6 17 4 18 5 19 3 20 2 21 1 22 22 23 23 24
REMARK SMILES IDX 24 25 25 26 26 28 27 29 28 30 92 31 29 32 91 33 30 34 31 35
REMARK SMILES IDX 32 36 85 37 33 38 90 39 84 40 86 41 34 42 89 43 83 44 82 45
REMARK SMILES IDX 35 47 69 48 48 49 68 50 49 51 52 52 67 53 87 54 50 55 51 56
REMARK SMILES IDX 66 58 88 59 53 60 36 61 37 62 46 63 38 64 39 65 45 66 47 67
REMARK SMILES IDX 40 68 41 69 42 70 43 71 44 72 70 73 71 74 80 75 72 76 73 77
REMARK SMILES IDX 79 78 81 79 74 80 75 81 76 82 77 83 78 84 54 85 55 86 64 87
REMARK SMILES IDX 56 88 57 89 63 90 65 91 58 92 59 93 60 94 61 95 62 96
REMARK H PARENT 19 6 24 27 86 46 52 57
REMARK Flexibility Score: inf
ROOT
ATOM      1  C   UNL     1       3.981   5.882  -7.024  1.00  0.00     0.023 C 
ENDROOT
BRANCH   1   2
ATOM      2  C   UNL     1       3.539   5.683  -5.563  1.00  0.00     0.116 C 
BRANCH   2   3
ATOM      3  N   UNL     1       2.421   4.753  -5.533  1.00  0.00    -0.352 N 
ATOM      4  C   UNL     1       2.279   3.390  -5.401  1.00  0.00     0.255 C 
ATOM      5  O   UNL     1       1.192   2.958  -5.793  1.00  0.00    -0.269 OA
ATOM      6  H   UNL     1       1.555   5.210  -5.631  1.00  0.00     0.163 HD
BRANCH   4   7
ATOM      7  C   UNL     1       3.258   2.447  -4.743  1.00  0.00     0.092 A 
ATOM      8  C   UNL     1       2.698   1.463  -3.893  1.00  0.00     0.151 A 
ATOM      9  C   UNL     1       3.569   0.617  -3.232  1.00  0.00     0.159 A 
ATOM     10  N   UNL     1       4.911   0.712  -3.270  1.00  0.00    -0.252 NA
ATOM     11  C   UNL     1       4.676   2.447  -4.931  1.00  0.00     0.017 A 
ATOM     12  C   UNL     1       5.447   1.601  -4.103  1.00  0.00     0.071 A 
ATOM     13  C   UNL     1       5.392   3.155  -5.919  1.00  0.00     0.011 A 
ATOM     14  C   UNL     1       6.834   1.633  -4.161  1.00  0.00     0.029 A 
ATOM     15  C   UNL     1       6.787   3.205  -5.957  1.00  0.00     0.001 A 
ATOM     16  C   UNL     1       7.515   2.456  -5.053  1.00  0.00     0.002 A 
BRANCH   8  17
ATOM     17  O   UNL     1       1.344   1.298  -3.844  1.00  0.00    -0.486 OA
BRANCH  17  18
ATOM     18  C   UNL     1       0.645   0.955  -2.639  1.00  0.00     0.196 C 
ATOM     19  C   UNL     1       0.707  -0.532  -2.287  1.00  0.00     0.055 C 
BRANCH  18  20
ATOM     20  C   UNL     1       0.941   1.905  -1.466  1.00  0.00     0.204 C 
BRANCH  20  21
ATOM     21  O   UNL     1       0.335   1.502  -0.237  1.00  0.00    -0.381 OA
ATOM     22  C   UNL     1      -1.071   1.707  -0.205  1.00  0.00     0.195 C 
ENDBRANCH  20  21
ENDBRANCH  18  20
ENDBRANCH  17  18
ENDBRANCH   8  17
ENDBRANCH   4   7
ENDBRANCH   2   3
ENDBRANCH   1   2
BRANCH   1  23
ATOM     23  C   UNL     1       3.420   7.106  -7.739  1.00  0.00     0.023 C 
BRANCH  23  24
ATOM     24  C   UNL     1       3.982   8.436  -7.262  1.00  0.00     0.116 C 
BRANCH  24  25
ATOM     25  N   UNL     1       5.437   8.521  -7.323  1.00  0.00    -0.352 N 
ATOM     26  C   UNL     1       6.218   9.615  -7.615  1.00  0.00     0.251 C 
ATOM     27  H   UNL     1       5.923   7.687  -7.131  1.00  0.00     0.163 HD
ATOM     28  O   UNL     1       7.439   9.506  -7.687  1.00  0.00    -0.269 OA
BRANCH  26  29
ATOM     29  C   UNL     1       5.559  10.905  -7.892  1.00  0.00     0.039 A 
ATOM     30  C   UNL     1       5.871  11.584  -9.072  1.00  0.00     0.014 A 
ATOM     31  C   UNL     1       4.560  11.380  -7.039  1.00  0.00     0.014 A 
ATOM     32  C   UNL     1       5.107  12.690  -9.446  1.00  0.00     0.010 A 
ATOM     33  C   UNL     1       3.746  12.423  -7.457  1.00  0.00     0.010 A 
ATOM     34  C   UNL     1       4.006  13.082  -8.668  1.00  0.00    -0.014 A 
BRANCH  34  35
ATOM     35  C   UNL     1       3.090  14.160  -9.113  1.00  0.00     0.031 A 
ATOM     36  C   UNL     1       2.933  15.403  -8.286  1.00  0.00     0.074 A 
ATOM     37  C   UNL     1       2.322  13.969 -10.204  1.00  0.00     0.049 A 
ATOM     38  N   UNL     1       2.123  16.414  -8.460  1.00  0.00    -0.248 NA
ATOM     39  C   UNL     1       3.768  15.501  -7.078  1.00  0.00     0.031 C 
ATOM     40  C   UNL     1       2.320  12.764 -11.038  1.00  0.00     0.029 A 
ATOM     41  N   UNL     1       1.379  14.776 -10.787  1.00  0.00    -0.354 N 
ATOM     42  C   UNL     1       2.331  17.254  -7.374  1.00  0.00     0.074 A 
ATOM     43  C   UNL     1       3.301  16.607  -6.518  1.00  0.00     0.031 C 
ATOM     44  C   UNL     1       1.434  12.920 -12.034  1.00  0.00     0.029 A 
ATOM     45  C   UNL     1       0.785  14.220 -11.895  1.00  0.00     0.049 A 
ATOM     46  H   UNL     1       1.150  15.670 -10.445  1.00  0.00     0.167 HD
ATOM     47  C   UNL     1       1.782  18.467  -7.124  1.00  0.00     0.037 A 
ATOM     48  C   UNL     1      -0.176  14.702 -12.706  1.00  0.00     0.037 A 
ATOM     49  C   UNL     1       0.846  19.119  -8.000  1.00  0.00     0.049 A 
ATOM     50  C   UNL     1      -0.733  16.072 -12.446  1.00  0.00     0.074 A 
ATOM     51  C   UNL     1       0.305  20.387  -7.894  1.00  0.00     0.029 A 
ATOM     52  N   UNL     1       0.308  18.549  -9.146  1.00  0.00    -0.354 N 
ATOM     53  N   UNL     1      -0.455  16.899 -11.466  1.00  0.00    -0.248 NA
ATOM     54  C   UNL     1      -1.723  16.581 -13.403  1.00  0.00     0.031 C 
ATOM     55  C   UNL     1      -0.586  20.572  -8.958  1.00  0.00     0.029 A 
ATOM     56  C   UNL     1      -0.574  19.431  -9.746  1.00  0.00     0.049 A 
ATOM     57  H   UNL     1       0.523  17.649  -9.483  1.00  0.00     0.167 HD
ATOM     58  C   UNL     1      -1.229  18.030 -11.691  1.00  0.00     0.074 A 
ATOM     59  C   UNL     1      -1.974  17.788 -12.912  1.00  0.00     0.031 C 
ATOM     60  C   UNL     1      -1.315  19.166 -10.955  1.00  0.00     0.037 A 
BRANCH  47  61
ATOM     61  C   UNL     1       2.192  19.152  -5.851  1.00  0.00     0.058 A 
ATOM     62  C   UNL     1       3.491  19.657  -5.673  1.00  0.00     0.135 A 
ATOM     63  C   UNL     1       1.289  19.276  -4.784  1.00  0.00     0.135 A 
ATOM     64  F   UNL     1       4.399  19.550  -6.656  1.00  0.00    -0.206 F 
ATOM     65  C   UNL     1       3.897  20.209  -4.463  1.00  0.00     0.059 A 
ATOM     66  C   UNL     1       1.666  19.851  -3.573  1.00  0.00     0.059 A 
ATOM     67  F   UNL     1       0.035  18.813  -4.901  1.00  0.00    -0.206 F 
ATOM     68  C   UNL     1       2.980  20.289  -3.414  1.00  0.00     0.060 A 
BRANCH  68  69
ATOM     69  S   UNL     1       3.531  20.961  -1.832  1.00  0.00     0.124 S 
ATOM     70  O   UNL     1       4.261  19.826  -1.276  1.00  0.00    -0.237 OA
ATOM     71  O   UNL     1       4.348  22.100  -2.238  1.00  0.00    -0.237 OA
ATOM     72  O   UNL     1       2.283  21.298  -1.155  1.00  0.00    -0.744 OA
ENDBRANCH  68  69
ENDBRANCH  47  61
BRANCH  48  73
ATOM     73  C   UNL     1      -0.632  13.883 -13.858  1.00  0.00     0.058 A 
ATOM     74  C   UNL     1      -0.209  14.181 -15.162  1.00  0.00     0.135 A 
ATOM     75  C   UNL     1      -1.433  12.746 -13.672  1.00  0.00     0.135 A 
ATOM     76  F   UNL     1       0.554  15.260 -15.389  1.00  0.00    -0.206 F 
ATOM     77  C   UNL     1      -0.556  13.375 -16.241  1.00  0.00     0.059 A 
ATOM     78  C   UNL     1      -1.779  11.915 -14.733  1.00  0.00     0.059 A 
ATOM     79  F   UNL     1      -1.848  12.412 -12.440  1.00  0.00    -0.206 F 
ATOM     80  C   UNL     1      -1.333  12.237 -16.014  1.00  0.00     0.060 A 
BRANCH  80  81
ATOM     81  S   UNL     1      -1.690  11.141 -17.405  1.00  0.00     0.124 S 
ATOM     82  O   UNL     1      -2.709  11.897 -18.123  1.00  0.00    -0.237 OA
ATOM     83  O   UNL     1      -0.388  11.041 -18.059  1.00  0.00    -0.237 OA
ATOM     84  O   UNL     1      -2.149   9.916 -16.756  1.00  0.00    -0.744 OA
ENDBRANCH  80  81
ENDBRANCH  48  73
BRANCH  60  85
ATOM     85  C   UNL     1      -2.248  20.235 -11.448  1.00  0.00     0.058 A 
ATOM     86  C   UNL     1      -3.639  20.113 -11.307  1.00  0.00     0.135 A 
ATOM     87  C   UNL     1      -1.745  21.415 -12.016  1.00  0.00     0.135 A 
ATOM     88  F   UNL     1      -4.169  18.999 -10.776  1.00  0.00    -0.206 F 
ATOM     89  C   UNL     1      -4.501  21.119 -11.727  1.00  0.00     0.059 A 
ATOM     90  C   UNL     1      -2.587  22.444 -12.424  1.00  0.00     0.059 A 
ATOM     91  F   UNL     1      -0.421  21.583 -12.165  1.00  0.00    -0.206 F 
ATOM     92  C   UNL     1      -3.966  22.282 -12.284  1.00  0.00     0.060 A 
BRANCH  92  93
ATOM     93  S   UNL     1      -5.091  23.600 -12.790  1.00  0.00     0.124 S 
ATOM     94  O   UNL     1      -5.617  23.070 -14.044  1.00  0.00    -0.237 OA
ATOM     95  O   UNL     1      -6.035  23.652 -11.678  1.00  0.00    -0.237 OA
ATOM     96  O   UNL     1      -4.217  24.762 -12.916  1.00  0.00    -0.744 OA
ENDBRANCH  92  93
ENDBRANCH  60  85
ENDBRANCH  34  35
ENDBRANCH  26  29
ENDBRANCH  24  25
ENDBRANCH  23  24
ENDBRANCH   1  23
TORSDOF 18
