REMARK SMILES Cc1cc2c(c(C)c1Cl)C=C(C(=O)NCCCCNC(=O)c1ccc(-c3c4nc(c(-c5c(F)cc(S(=O)(=O)[O-])cc5F)c5ccc([nH]5)c(-c5c(F)cc(S(=O)(=O)[O-])cc5F)c5nc(c(-c6c(F)cc(S(=O)(=O)[O-])cc6F)c6ccc3[nH]6)C=C5)C=C4)cc1)[C@@H](C(F)(F)F)O2
REMARK SMILES IDX 17 1 16 2 15 3 14 4 12 5 13 6 11 8 1 9 2 10 3 11 8 12 4 13
REMARK SMILES IDX 6 14 9 15 5 16 93 17 7 18 10 19 88 20 89 21 90 22 91 23
REMARK SMILES IDX 92 24 18 25 19 26 20 27 21 29 22 30 23 31 87 32 24 33 86 34
REMARK SMILES IDX 25 35 26 36 27 37 80 38 28 39 85 40 79 41 81 42 29 43 84 44
REMARK SMILES IDX 78 45 77 46 30 48 64 49 43 50 63 51 44 52 47 53 62 54 82 55
REMARK SMILES IDX 45 56 46 57 61 59 83 60 48 61 31 62 32 63 41 64 33 65 34 66
REMARK SMILES IDX 40 67 42 68 35 69 36 70 37 71 38 72 39 73 65 74 66 75 75 76
REMARK SMILES IDX 67 77 68 78 74 79 76 80 69 81 70 82 71 83 72 84 73 85 49 86
REMARK SMILES IDX 50 87 59 88 51 89 52 90 58 91 60 92 53 93 54 94 55 95 56 96
REMARK SMILES IDX 57 97
REMARK H PARENT 14 7 19 28 81 47 47 58
REMARK Flexibility Score: inf
ROOT
ATOM      1  C   UNL     1      -0.094  -5.463   9.524  1.00  0.00     0.023 C 
ENDROOT
BRANCH   1   2
ATOM      2  C   UNL     1       0.020  -5.009   8.066  1.00  0.00     0.023 C 
BRANCH   2   3
ATOM      3  C   UNL     1      -1.270  -4.436   7.486  1.00  0.00     0.116 C 
BRANCH   3   4
ATOM      4  N   UNL     1      -1.428  -3.027   7.801  1.00  0.00    -0.352 N 
ATOM      5  C   UNL     1      -1.282  -1.848   7.155  1.00  0.00     0.251 C 
ATOM      6  O   UNL     1      -1.526  -0.844   7.833  1.00  0.00    -0.270 OA
ATOM      7  H   UNL     1      -1.719  -2.896   8.732  1.00  0.00     0.163 HD
BRANCH   5   8
ATOM      8  C   UNL     1      -0.866  -1.685   5.729  1.00  0.00     0.067 C 
ATOM      9  C   UNL     1       1.086   0.354  -0.143  1.00  0.00     0.046 C 
ATOM     10  C   UNL     1       0.591   0.223   1.272  1.00  0.00    -0.028 A 
ATOM     11  C   UNL     1       0.517  -1.057   1.831  1.00  0.00     0.052 A 
ATOM     12  C   UNL     1       0.255   1.334   2.071  1.00  0.00     0.047 A 
ATOM     13  C   UNL     1       0.092  -1.233   3.143  1.00  0.00     0.128 A 
ATOM     14  C   UNL     1      -0.191   1.168   3.407  1.00  0.00    -0.021 A 
ATOM     15  Cl  UNL     1       0.426   2.925   1.390  1.00  0.00    -0.084 Cl
ATOM     16  C   UNL     1      -0.255  -0.141   3.944  1.00  0.00     0.022 A 
ATOM     17  O   UNL     1       0.091  -2.522   3.593  1.00  0.00    -0.475 OA
ATOM     18  C   UNL     1      -0.572   2.347   4.271  1.00  0.00     0.047 C 
ATOM     19  C   UNL     1      -0.626  -0.420   5.335  1.00  0.00     0.026 C 
ATOM     20  C   UNL     1      -0.749  -2.808   4.744  1.00  0.00     0.314 C 
BRANCH  20  21
ATOM     21  C   UNL     1      -2.116  -3.323   4.259  1.00  0.00     0.429 C 
ATOM     22  F   UNL     1      -1.973  -4.507   3.611  1.00  0.00    -0.167 F 
ATOM     23  F   UNL     1      -2.980  -3.545   5.277  1.00  0.00    -0.167 F 
ATOM     24  F   UNL     1      -2.721  -2.467   3.405  1.00  0.00    -0.167 F 
ENDBRANCH  20  21
ENDBRANCH   5   8
ENDBRANCH   3   4
ENDBRANCH   2   3
ENDBRANCH   1   2
BRANCH   1  25
ATOM     25  C   UNL     1      -1.207  -6.468   9.816  1.00  0.00     0.116 C 
BRANCH  25  26
ATOM     26  N   UNL     1      -1.210  -7.617   8.922  1.00  0.00    -0.352 N 
ATOM     27  C   UNL     1      -1.609  -8.904   9.199  1.00  0.00     0.251 C 
ATOM     28  H   UNL     1      -0.887  -7.453   8.007  1.00  0.00     0.163 HD
ATOM     29  O   UNL     1      -1.487  -9.789   8.360  1.00  0.00    -0.269 OA
BRANCH  27  30
ATOM     30  C   UNL     1      -2.141  -9.205  10.541  1.00  0.00     0.039 A 
ATOM     31  C   UNL     1      -1.518 -10.194  11.304  1.00  0.00     0.014 A 
ATOM     32  C   UNL     1      -3.199  -8.456  11.065  1.00  0.00     0.014 A 
ATOM     33  C   UNL     1      -1.909 -10.382  12.629  1.00  0.00     0.010 A 
ATOM     34  C   UNL     1      -3.549  -8.607  12.402  1.00  0.00     0.010 A 
ATOM     35  C   UNL     1      -2.900  -9.564  13.197  1.00  0.00    -0.014 A 
BRANCH  35  36
ATOM     36  C   UNL     1      -3.265  -9.693  14.627  1.00  0.00     0.031 A 
ATOM     37  C   UNL     1      -4.625 -10.201  15.010  1.00  0.00     0.074 A 
ATOM     38  C   UNL     1      -2.390  -9.304  15.575  1.00  0.00     0.049 A 
ATOM     39  N   UNL     1      -5.149 -10.335  16.200  1.00  0.00    -0.248 NA
ATOM     40  C   UNL     1      -5.521 -10.589  13.908  1.00  0.00     0.031 C 
ATOM     41  C   UNL     1      -1.054  -8.758  15.321  1.00  0.00     0.029 A 
ATOM     42  N   UNL     1      -2.491  -9.309  16.943  1.00  0.00    -0.354 N 
ATOM     43  C   UNL     1      -6.435 -10.816  15.992  1.00  0.00     0.074 A 
ATOM     44  C   UNL     1      -6.631 -10.901  14.561  1.00  0.00     0.031 C 
ATOM     45  C   UNL     1      -0.450  -8.511  16.495  1.00  0.00     0.029 A 
ATOM     46  C   UNL     1      -1.362  -8.854  17.582  1.00  0.00     0.049 A 
ATOM     47  H   UNL     1      -3.296  -9.611  17.422  1.00  0.00     0.167 HD
ATOM     48  C   UNL     1      -7.360 -11.179  16.912  1.00  0.00     0.037 A 
ATOM     49  C   UNL     1      -1.093  -8.733  18.896  1.00  0.00     0.037 A 
ATOM     50  C   UNL     1      -7.151 -11.117  18.333  1.00  0.00     0.049 A 
ATOM     51  C   UNL     1      -2.136  -9.139  19.898  1.00  0.00     0.074 A 
ATOM     52  C   UNL     1      -8.011 -11.498  19.347  1.00  0.00     0.029 A 
ATOM     53  N   UNL     1      -5.995 -10.650  18.941  1.00  0.00    -0.354 N 
ATOM     54  N   UNL     1      -3.337  -9.623  19.685  1.00  0.00    -0.248 NA
ATOM     55  C   UNL     1      -1.793  -8.981  21.319  1.00  0.00     0.031 C 
ATOM     56  C   UNL     1      -7.383 -11.241  20.571  1.00  0.00     0.029 A 
ATOM     57  C   UNL     1      -6.122 -10.725  20.317  1.00  0.00     0.049 A 
ATOM     58  H   UNL     1      -5.202 -10.315  18.464  1.00  0.00     0.167 HD
ATOM     59  C   UNL     1      -3.886  -9.843  20.942  1.00  0.00     0.074 A 
ATOM     60  C   UNL     1      -2.884  -9.448  21.912  1.00  0.00     0.031 C 
ATOM     61  C   UNL     1      -5.110 -10.328  21.264  1.00  0.00     0.037 A 
BRANCH  48  62
ATOM     62  C   UNL     1      -8.673 -11.694  16.398  1.00  0.00     0.058 A 
ATOM     63  C   UNL     1      -8.778 -12.969  15.820  1.00  0.00     0.135 A 
ATOM     64  C   UNL     1      -9.837 -10.916  16.493  1.00  0.00     0.135 A 
ATOM     65  F   UNL     1      -7.689 -13.743  15.689  1.00  0.00    -0.206 F 
ATOM     66  C   UNL     1      -9.987 -13.445  15.326  1.00  0.00     0.059 A 
ATOM     67  C   UNL     1     -11.063 -11.382  16.025  1.00  0.00     0.059 A 
ATOM     68  F   UNL     1      -9.789  -9.689  17.033  1.00  0.00    -0.206 F 
ATOM     69  C   UNL     1     -11.124 -12.641  15.429  1.00  0.00     0.060 A 
BRANCH  69  70
ATOM     70  S   UNL     1     -12.684 -13.269  14.775  1.00  0.00     0.124 S 
ATOM     71  O   UNL     1     -12.479 -13.116  13.338  1.00  0.00    -0.237 OA
ATOM     72  O   UNL     1     -12.702 -14.643  15.269  1.00  0.00    -0.237 OA
ATOM     73  O   UNL     1     -13.681 -12.382  15.365  1.00  0.00    -0.744 OA
ENDBRANCH  69  70
ENDBRANCH  48  62
BRANCH  49  74
ATOM     74  C   UNL     1       0.239  -8.244  19.335  1.00  0.00     0.058 A 
ATOM     75  C   UNL     1       1.188  -9.135  19.857  1.00  0.00     0.135 A 
ATOM     76  C   UNL     1       0.602  -6.895  19.212  1.00  0.00     0.135 A 
ATOM     77  F   UNL     1       0.882 -10.434  19.997  1.00  0.00    -0.206 F 
ATOM     78  C   UNL     1       2.452  -8.706  20.246  1.00  0.00     0.059 A 
ATOM     79  C   UNL     1       1.867  -6.444  19.579  1.00  0.00     0.059 A 
ATOM     80  F   UNL     1      -0.267  -6.008  18.704  1.00  0.00    -0.206 F 
ATOM     81  C   UNL     1       2.784  -7.358  20.099  1.00  0.00     0.060 A 
BRANCH  81  82
ATOM     82  S   UNL     1       4.451  -6.824  20.544  1.00  0.00     0.124 S 
ATOM     83  O   UNL     1       4.388  -6.846  22.001  1.00  0.00    -0.237 OA
ATOM     84  O   UNL     1       5.279  -7.856  19.925  1.00  0.00    -0.237 OA
ATOM     85  O   UNL     1       4.553  -5.502  19.934  1.00  0.00    -0.744 OA
ENDBRANCH  81  82
ENDBRANCH  49  74
BRANCH  61  86
ATOM     86  C   UNL     1      -5.437 -10.469  22.721  1.00  0.00     0.058 A 
ATOM     87  C   UNL     1      -5.803  -9.358  23.495  1.00  0.00     0.135 A 
ATOM     88  C   UNL     1      -5.464 -11.735  23.326  1.00  0.00     0.135 A 
ATOM     89  F   UNL     1      -5.785  -8.127  22.962  1.00  0.00    -0.206 F 
ATOM     90  C   UNL     1      -6.185  -9.498  24.825  1.00  0.00     0.059 A 
ATOM     91  C   UNL     1      -5.860 -11.900  24.650  1.00  0.00     0.059 A 
ATOM     92  F   UNL     1      -5.128 -12.828  22.623  1.00  0.00    -0.206 F 
ATOM     93  C   UNL     1      -6.215 -10.774  25.392  1.00  0.00     0.060 A 
BRANCH  93  94
ATOM     94  S   UNL     1      -6.774 -10.948  27.100  1.00  0.00     0.124 S 
ATOM     95  O   UNL     1      -5.612 -10.466  27.839  1.00  0.00    -0.237 OA
ATOM     96  O   UNL     1      -7.951 -10.086  27.135  1.00  0.00    -0.237 OA
ATOM     97  O   UNL     1      -7.048 -12.377  27.223  1.00  0.00    -0.744 OA
ENDBRANCH  93  94
ENDBRANCH  61  86
ENDBRANCH  35  36
ENDBRANCH  27  30
ENDBRANCH  25  26
ENDBRANCH   1  25
TORSDOF 15
