REMARK SMILES Cc1ccc2c(c1)C=C(C(=O)NCCCCNC(=O)c1ccc(-c3c4nc(c(-c5c(F)cc(S(=O)(=O)[O-])cc5F)c5ccc([nH]5)c(-c5c(F)cc(S(=O)(=O)[O-])cc5F)c5nc(c(-c6c(F)cc(S(=O)(=O)[O-])cc6F)c6ccc3[nH]6)C=C5)C=C4)cc1)[C@@H](C(F)(F)F)O2
REMARK SMILES IDX 15 1 14 2 13 3 12 4 10 5 11 6 9 8 1 9 2 10 3 11 7 12 4 13
REMARK SMILES IDX 6 14 5 15 8 16 91 17 86 18 87 19 88 20 89 21 90 22 16 23
REMARK SMILES IDX 17 24 18 25 19 27 20 28 21 29 85 30 22 31 84 32 23 33 24 34
REMARK SMILES IDX 25 35 78 36 26 37 83 38 77 39 79 40 27 41 82 42 76 43 75 44
REMARK SMILES IDX 28 46 62 47 41 48 61 49 42 50 45 51 60 52 80 53 43 54 44 55
REMARK SMILES IDX 59 57 81 58 46 59 29 60 30 61 39 62 31 63 32 64 38 65 40 66
REMARK SMILES IDX 33 67 34 68 35 69 36 70 37 71 63 72 64 73 73 74 65 75 66 76
REMARK SMILES IDX 72 77 74 78 67 79 68 80 69 81 70 82 71 83 47 84 48 85 57 86
REMARK SMILES IDX 49 87 50 88 56 89 58 90 51 91 52 92 53 93 54 94 55 95
REMARK H PARENT 12 7 17 26 79 45 45 56
REMARK Flexibility Score: inf
ROOT
ATOM      1  C   UNL     1       1.289   7.518   8.079  1.00  0.00     0.023 C 
ENDROOT
BRANCH   1   2
ATOM      2  C   UNL     1       0.798   6.185   7.506  1.00  0.00     0.023 C 
BRANCH   2   3
ATOM      3  C   UNL     1      -0.274   6.316   6.428  1.00  0.00     0.116 C 
BRANCH   3   4
ATOM      4  N   UNL     1       0.294   6.564   5.115  1.00  0.00    -0.352 N 
ATOM      5  C   UNL     1       0.562   5.844   4.001  1.00  0.00     0.251 C 
ATOM      6  O   UNL     1       1.067   6.481   3.071  1.00  0.00    -0.270 OA
ATOM      7  H   UNL     1       0.553   7.508   5.006  1.00  0.00     0.163 HD
BRANCH   5   8
ATOM      8  C   UNL     1       0.296   4.383   3.828  1.00  0.00     0.067 C 
ATOM      9  C   UNL     1       1.103  -0.134  -0.324  1.00  0.00     0.044 C 
ATOM     10  C   UNL     1       0.706   0.476   0.988  1.00  0.00    -0.050 A 
ATOM     11  C   UNL     1       0.176  -0.315   2.014  1.00  0.00     0.007 A 
ATOM     12  C   UNL     1       0.911   1.845   1.216  1.00  0.00     0.015 A 
ATOM     13  C   UNL     1      -0.162   0.257   3.241  1.00  0.00     0.047 A 
ATOM     14  C   UNL     1       0.569   2.422   2.444  1.00  0.00     0.017 A 
ATOM     15  C   UNL     1       0.025   1.621   3.446  1.00  0.00     0.128 A 
ATOM     16  C   UNL     1       0.809   3.833   2.711  1.00  0.00     0.025 C 
ATOM     17  O   UNL     1      -0.302   2.108   4.680  1.00  0.00    -0.475 OA
ATOM     18  C   UNL     1      -0.522   3.545   4.771  1.00  0.00     0.314 C 
BRANCH  18  19
ATOM     19  C   UNL     1      -2.032   3.827   4.654  1.00  0.00     0.429 C 
ATOM     20  F   UNL     1      -2.696   3.288   5.709  1.00  0.00    -0.167 F 
ATOM     21  F   UNL     1      -2.318   5.149   4.657  1.00  0.00    -0.167 F 
ATOM     22  F   UNL     1      -2.575   3.308   3.530  1.00  0.00    -0.167 F 
ENDBRANCH  18  19
ENDBRANCH   5   8
ENDBRANCH   3   4
ENDBRANCH   2   3
ENDBRANCH   1   2
BRANCH   1  23
ATOM     23  C   UNL     1       0.205   8.435   8.645  1.00  0.00     0.116 C 
BRANCH  23  24
ATOM     24  N   UNL     1      -0.677   7.796   9.612  1.00  0.00    -0.352 N 
ATOM     25  C   UNL     1      -1.383   8.394  10.633  1.00  0.00     0.251 C 
ATOM     26  H   UNL     1      -0.780   6.820   9.527  1.00  0.00     0.163 HD
ATOM     27  O   UNL     1      -2.047   7.720  11.415  1.00  0.00    -0.269 OA
BRANCH  25  28
ATOM     28  C   UNL     1      -1.276   9.857  10.800  1.00  0.00     0.039 A 
ATOM     29  C   UNL     1      -1.525  10.705   9.720  1.00  0.00     0.014 A 
ATOM     30  C   UNL     1      -0.814  10.367  12.016  1.00  0.00     0.014 A 
ATOM     31  C   UNL     1      -1.145  12.040   9.801  1.00  0.00     0.010 A 
ATOM     32  C   UNL     1      -0.496  11.723  12.115  1.00  0.00     0.010 A 
ATOM     33  C   UNL     1      -0.602  12.555  10.989  1.00  0.00    -0.014 A 
BRANCH  33  34
ATOM     34  C   UNL     1      -0.100  13.952  11.012  1.00  0.00     0.031 A 
ATOM     35  C   UNL     1       1.375  14.231  11.141  1.00  0.00     0.074 A 
ATOM     36  C   UNL     1      -0.966  14.967  10.835  1.00  0.00     0.049 A 
ATOM     37  N   UNL     1       1.998  15.382  11.156  1.00  0.00    -0.248 NA
ATOM     38  C   UNL     1       2.269  13.068  11.271  1.00  0.00     0.031 C 
ATOM     39  C   UNL     1      -2.414  14.819  10.675  1.00  0.00     0.029 A 
ATOM     40  N   UNL     1      -0.755  16.317  10.727  1.00  0.00    -0.354 N 
ATOM     41  C   UNL     1       3.346  15.086  11.318  1.00  0.00     0.074 A 
ATOM     42  C   UNL     1       3.454  13.646  11.415  1.00  0.00     0.031 C 
ATOM     43  C   UNL     1      -2.953  16.023  10.432  1.00  0.00     0.029 A 
ATOM     44  C   UNL     1      -1.899  17.032  10.470  1.00  0.00     0.049 A 
ATOM     45  H   UNL     1       0.132  16.734  10.823  1.00  0.00     0.167 HD
ATOM     46  C   UNL     1       4.399  15.936  11.372  1.00  0.00     0.037 A 
ATOM     47  C   UNL     1      -2.082  18.354  10.291  1.00  0.00     0.037 A 
ATOM     48  C   UNL     1       4.294  17.366  11.243  1.00  0.00     0.049 A 
ATOM     49  C   UNL     1      -0.902  19.277  10.374  1.00  0.00     0.074 A 
ATOM     50  C   UNL     1       5.305  18.311  11.278  1.00  0.00     0.029 A 
ATOM     51  N   UNL     1       3.108  18.057  11.044  1.00  0.00    -0.354 N 
ATOM     52  N   UNL     1       0.361  18.980  10.561  1.00  0.00    -0.248 NA
ATOM     53  C   UNL     1      -1.174  20.714  10.242  1.00  0.00     0.031 C 
ATOM     54  C   UNL     1       4.727  19.576  11.123  1.00  0.00     0.029 A 
ATOM     55  C   UNL     1       3.360  19.416  10.964  1.00  0.00     0.049 A 
ATOM     56  H   UNL     1       2.219  17.642  10.971  1.00  0.00     0.167 HD
ATOM     57  C   UNL     1       1.037  20.193  10.573  1.00  0.00     0.074 A 
ATOM     58  C   UNL     1       0.045  21.227  10.352  1.00  0.00     0.031 C 
ATOM     59  C   UNL     1       2.358  20.430  10.758  1.00  0.00     0.037 A 
BRANCH  46  60
ATOM     60  C   UNL     1       5.763  15.344  11.588  1.00  0.00     0.058 A 
ATOM     61  C   UNL     1       6.458  14.702  10.552  1.00  0.00     0.135 A 
ATOM     62  C   UNL     1       6.401  15.461  12.834  1.00  0.00     0.135 A 
ATOM     63  F   UNL     1       5.885  14.548   9.348  1.00  0.00    -0.206 F 
ATOM     64  C   UNL     1       7.734  14.182  10.747  1.00  0.00     0.059 A 
ATOM     65  C   UNL     1       7.684  14.963  13.046  1.00  0.00     0.059 A 
ATOM     66  F   UNL     1       5.777  16.063  13.858  1.00  0.00    -0.206 F 
ATOM     67  C   UNL     1       8.338  14.316  11.999  1.00  0.00     0.060 A 
BRANCH  67  68
ATOM     68  S   UNL     1       9.996  13.640  12.236  1.00  0.00     0.124 S 
ATOM     69  O   UNL     1       9.717  12.210  12.315  1.00  0.00    -0.237 OA
ATOM     70  O   UNL     1      10.691  14.084  11.033  1.00  0.00    -0.237 OA
ATOM     71  O   UNL     1      10.441  14.262  13.479  1.00  0.00    -0.744 OA
ENDBRANCH  67  68
ENDBRANCH  46  60
BRANCH  47  72
ATOM     72  C   UNL     1      -3.445  18.870  10.013  1.00  0.00     0.058 A 
ATOM     73  C   UNL     1      -3.803  19.297   8.728  1.00  0.00     0.135 A 
ATOM     74  C   UNL     1      -4.430  18.890  11.012  1.00  0.00     0.135 A 
ATOM     75  F   UNL     1      -2.891  19.299   7.744  1.00  0.00    -0.206 F 
ATOM     76  C   UNL     1      -5.094  19.723   8.437  1.00  0.00     0.059 A 
ATOM     77  C   UNL     1      -5.733  19.293  10.742  1.00  0.00     0.059 A 
ATOM     78  F   UNL     1      -4.136  18.477  12.255  1.00  0.00    -0.206 F 
ATOM     79  C   UNL     1      -6.055  19.710   9.451  1.00  0.00     0.060 A 
BRANCH  79  80
ATOM     80  S   UNL     1      -7.752  20.180   9.048  1.00  0.00     0.124 S 
ATOM     81  O   UNL     1      -7.651  21.634   9.007  1.00  0.00    -0.237 OA
ATOM     82  O   UNL     1      -7.959  19.517   7.763  1.00  0.00    -0.237 OA
ATOM     83  O   UNL     1      -8.522  19.628  10.158  1.00  0.00    -0.744 OA
ENDBRANCH  79  80
ENDBRANCH  47  72
BRANCH  59  84
ATOM     84  C   UNL     1       2.806  21.861  10.741  1.00  0.00     0.058 A 
ATOM     85  C   UNL     1       2.613  22.694  11.854  1.00  0.00     0.135 A 
ATOM     86  C   UNL     1       3.479  22.389   9.629  1.00  0.00     0.135 A 
ATOM     87  F   UNL     1       1.968  22.234  12.938  1.00  0.00    -0.206 F 
ATOM     88  C   UNL     1       3.062  24.009  11.860  1.00  0.00     0.059 A 
ATOM     89  C   UNL     1       3.952  23.697   9.620  1.00  0.00     0.059 A 
ATOM     90  F   UNL     1       3.693  21.628   8.545  1.00  0.00    -0.206 F 
ATOM     91  C   UNL     1       3.731  24.502  10.738  1.00  0.00     0.060 A 
BRANCH  91  92
ATOM     92  S   UNL     1       4.344  26.200  10.771  1.00  0.00     0.124 S 
ATOM     93  O   UNL     1       3.117  26.959  10.552  1.00  0.00    -0.237 OA
ATOM     94  O   UNL     1       4.921  26.301  12.108  1.00  0.00    -0.237 OA
ATOM     95  O   UNL     1       5.308  26.234   9.676  1.00  0.00    -0.744 OA
ENDBRANCH  91  92
ENDBRANCH  59  84
ENDBRANCH  33  34
ENDBRANCH  25  28
ENDBRANCH  23  24
ENDBRANCH   1  23
TORSDOF 15
