REMARK SMILES CC(C)N(c1cc2c(cc1Cl)C=C(C(=O)NCCCCNC(=O)c1ccc(-c3c4nc(c(-c5c(F)cc(S(=O)(=O)[O-])cc5F)c5ccc([nH]5)c(-c5c(F)cc(S(=O)(=O)[O-])cc5F)c5nc(c(-c6c(F)cc(S(=O)(=O)[O-])cc6F)c6ccc3[nH]6)C=C5)C=C4)cc1)[C@@H](C(F)(F)F)O2)C(C)C
REMARK SMILES IDX 19 1 18 2 17 3 16 4 14 5 15 6 13 8 5 9 6 10 10 11 7 12 9 13
REMARK SMILES IDX 11 14 8 15 95 16 12 17 90 18 4 19 2 20 1 21 3 22 96 23 97 24
REMARK SMILES IDX 98 25 91 26 92 27 93 28 94 29 20 30 21 31 22 32 23 34 24 35
REMARK SMILES IDX 25 36 89 37 26 38 88 39 27 40 28 41 29 42 82 43 30 44 87 45
REMARK SMILES IDX 81 46 83 47 31 48 86 49 80 50 79 51 32 53 66 54 45 55 65 56
REMARK SMILES IDX 46 57 49 58 64 59 84 60 47 61 48 62 63 64 85 65 50 66 33 67
REMARK SMILES IDX 34 68 43 69 35 70 36 71 42 72 44 73 37 74 38 75 39 76 40 77
REMARK SMILES IDX 41 78 67 79 68 80 77 81 69 82 70 83 76 84 78 85 71 86 72 87
REMARK SMILES IDX 73 88 74 89 75 90 51 91 52 92 61 93 53 94 54 95 60 96 62 97
REMARK SMILES IDX 55 98 56 99 57 100 58 101 59 102
REMARK H PARENT 16 7 21 33 83 52 49 63
REMARK Flexibility Score: inf
ROOT
ATOM      1  C   UNL     1      -7.030  -8.487   3.131  1.00  0.00     0.023 C 
ENDROOT
BRANCH   1   2
ATOM      2  C   UNL     1      -6.476  -7.129   2.688  1.00  0.00     0.023 C 
BRANCH   2   3
ATOM      3  C   UNL     1      -7.019  -5.935   3.470  1.00  0.00     0.116 C 
BRANCH   3   4
ATOM      4  N   UNL     1      -6.260  -5.677   4.682  1.00  0.00    -0.352 N 
ATOM      5  C   UNL     1      -5.277  -4.831   5.072  1.00  0.00     0.251 C 
ATOM      6  O   UNL     1      -4.917  -4.944   6.248  1.00  0.00    -0.270 OA
ATOM      7  H   UNL     1      -6.532  -6.276   5.414  1.00  0.00     0.163 HD
BRANCH   5   8
ATOM      8  C   UNL     1      -4.620  -3.810   4.203  1.00  0.00     0.067 C 
ATOM      9  C   UNL     1      -1.542  -0.227   2.342  1.00  0.00     0.060 A 
ATOM     10  C   UNL     1      -2.441  -1.160   1.794  1.00  0.00     0.074 A 
ATOM     11  C   UNL     1      -1.362  -0.264   3.746  1.00  0.00     0.065 A 
ATOM     12  C   UNL     1      -3.129  -2.070   2.597  1.00  0.00     0.130 A 
ATOM     13  C   UNL     1      -2.022  -1.212   4.545  1.00  0.00     0.034 A 
ATOM     14  Cl  UNL     1      -0.381   0.895   4.585  1.00  0.00    -0.082 Cl
ATOM     15  C   UNL     1      -2.910  -2.119   3.970  1.00  0.00     0.019 A 
ATOM     16  O   UNL     1      -3.992  -2.921   1.965  1.00  0.00    -0.475 OA
ATOM     17  C   UNL     1      -3.593  -3.138   4.760  1.00  0.00     0.025 C 
ATOM     18  C   UNL     1      -5.049  -3.476   2.802  1.00  0.00     0.314 C 
BRANCH   9  19
ATOM     19  N   UNL     1      -0.881   0.679   1.487  1.00  0.00    -0.365 N 
BRANCH  19  20
ATOM     20  C   UNL     1       0.593   0.560   1.432  1.00  0.00     0.076 C 
ATOM     21  C   UNL     1       1.081  -0.206   0.203  1.00  0.00     0.030 C 
ATOM     22  C   UNL     1       1.311   1.900   1.561  1.00  0.00     0.030 C 
ENDBRANCH  19  20
BRANCH  19  23
ATOM     23  C   UNL     1      -1.738   1.465   0.574  1.00  0.00     0.076 C 
ATOM     24  C   UNL     1      -1.562   2.971   0.755  1.00  0.00     0.030 C 
ATOM     25  C   UNL     1      -1.601   1.070  -0.894  1.00  0.00     0.030 C 
ENDBRANCH  19  23
ENDBRANCH   9  19
BRANCH  18  26
ATOM     26  C   UNL     1      -6.278  -2.544   2.772  1.00  0.00     0.429 C 
ATOM     27  F   UNL     1      -6.811  -2.502   1.525  1.00  0.00    -0.167 F 
ATOM     28  F   UNL     1      -7.265  -2.961   3.599  1.00  0.00    -0.167 F 
ATOM     29  F   UNL     1      -5.981  -1.273   3.125  1.00  0.00    -0.167 F 
ENDBRANCH  18  26
ENDBRANCH   5   8
ENDBRANCH   3   4
ENDBRANCH   2   3
ENDBRANCH   1   2
BRANCH   1  30
ATOM     30  C   UNL     1      -8.552  -8.621   3.100  1.00  0.00     0.116 C 
BRANCH  30  31
ATOM     31  N   UNL     1      -9.164  -8.279   1.821  1.00  0.00    -0.352 N 
ATOM     32  C   UNL     1     -10.416  -8.640   1.367  1.00  0.00     0.251 C 
ATOM     33  H   UNL     1      -8.621  -7.728   1.212  1.00  0.00     0.163 HD
ATOM     34  O   UNL     1     -10.778  -8.349   0.232  1.00  0.00    -0.269 OA
BRANCH  32  35
ATOM     35  C   UNL     1     -11.284  -9.442   2.255  1.00  0.00     0.039 A 
ATOM     36  C   UNL     1     -11.521  -9.023   3.564  1.00  0.00     0.014 A 
ATOM     37  C   UNL     1     -11.758 -10.678   1.809  1.00  0.00     0.014 A 
ATOM     38  C   UNL     1     -12.050  -9.922   4.480  1.00  0.00     0.010 A 
ATOM     39  C   UNL     1     -12.368 -11.550   2.716  1.00  0.00     0.010 A 
ATOM     40  C   UNL     1     -12.449 -11.208   4.075  1.00  0.00    -0.014 A 
BRANCH  40  41
ATOM     41  C   UNL     1     -12.878 -12.184   5.112  1.00  0.00     0.031 A 
ATOM     42  C   UNL     1     -12.045 -13.405   5.407  1.00  0.00     0.074 A 
ATOM     43  C   UNL     1     -13.960 -11.909   5.866  1.00  0.00     0.049 A 
ATOM     44  N   UNL     1     -12.203 -14.300   6.349  1.00  0.00    -0.248 NA
ATOM     45  C   UNL     1     -10.887 -13.661   4.534  1.00  0.00     0.031 C 
ATOM     46  C   UNL     1     -14.843 -10.756   5.680  1.00  0.00     0.029 A 
ATOM     47  N   UNL     1     -14.476 -12.549   6.964  1.00  0.00    -0.354 N 
ATOM     48  C   UNL     1     -11.183 -15.229   6.172  1.00  0.00     0.074 A 
ATOM     49  C   UNL     1     -10.426 -14.807   5.014  1.00  0.00     0.031 C 
ATOM     50  C   UNL     1     -15.743 -10.728   6.674  1.00  0.00     0.029 A 
ATOM     51  C   UNL     1     -15.535 -11.887   7.538  1.00  0.00     0.049 A 
ATOM     52  H   UNL     1     -14.121 -13.401   7.309  1.00  0.00     0.167 HD
ATOM     53  C   UNL     1     -10.893 -16.323   6.915  1.00  0.00     0.037 A 
ATOM     54  C   UNL     1     -16.256 -12.173   8.639  1.00  0.00     0.037 A 
ATOM     55  C   UNL     1     -11.619 -16.719   8.092  1.00  0.00     0.049 A 
ATOM     56  C   UNL     1     -15.925 -13.401   9.437  1.00  0.00     0.074 A 
ATOM     57  C   UNL     1     -11.369 -17.785   8.938  1.00  0.00     0.029 A 
ATOM     58  N   UNL     1     -12.734 -16.063   8.592  1.00  0.00    -0.354 N 
ATOM     59  N   UNL     1     -14.946 -14.254   9.261  1.00  0.00    -0.248 NA
ATOM     60  C   UNL     1     -16.808 -13.716  10.569  1.00  0.00     0.031 C 
ATOM     61  C   UNL     1     -12.354 -17.795   9.931  1.00  0.00     0.029 A 
ATOM     62  C   UNL     1     -13.199 -16.717   9.720  1.00  0.00     0.049 A 
ATOM     63  H   UNL     1     -13.135 -15.253   8.202  1.00  0.00     0.167 HD
ATOM     64  C   UNL     1     -15.098 -15.214  10.255  1.00  0.00     0.074 A 
ATOM     65  C   UNL     1     -16.249 -14.823  11.043  1.00  0.00     0.031 C 
ATOM     66  C   UNL     1     -14.355 -16.323  10.484  1.00  0.00     0.037 A 
BRANCH  53  67
ATOM     67  C   UNL     1      -9.736 -17.178   6.480  1.00  0.00     0.058 A 
ATOM     68  C   UNL     1      -8.408 -16.783   6.695  1.00  0.00     0.135 A 
ATOM     69  C   UNL     1      -9.961 -18.431   5.886  1.00  0.00     0.135 A 
ATOM     70  F   UNL     1      -8.139 -15.588   7.245  1.00  0.00    -0.206 F 
ATOM     71  C   UNL     1      -7.340 -17.591   6.320  1.00  0.00     0.059 A 
ATOM     72  C   UNL     1      -8.908 -19.264   5.519  1.00  0.00     0.059 A 
ATOM     73  F   UNL     1     -11.214 -18.856   5.658  1.00  0.00    -0.206 F 
ATOM     74  C   UNL     1      -7.600 -18.829   5.730  1.00  0.00     0.060 A 
BRANCH  74  75
ATOM     75  S   UNL     1      -6.202 -19.866   5.249  1.00  0.00     0.124 S 
ATOM     76  O   UNL     1      -5.718 -19.168   4.062  1.00  0.00    -0.237 OA
ATOM     77  O   UNL     1      -5.338 -19.793   6.423  1.00  0.00    -0.237 OA
ATOM     78  O   UNL     1      -6.813 -21.169   5.004  1.00  0.00    -0.744 OA
ENDBRANCH  74  75
ENDBRANCH  53  67
BRANCH  54  79
ATOM     79  C   UNL     1     -17.356 -11.264   9.046  1.00  0.00     0.058 A 
ATOM     80  C   UNL     1     -17.217 -10.416  10.153  1.00  0.00     0.135 A 
ATOM     81  C   UNL     1     -18.543 -11.184   8.300  1.00  0.00     0.135 A 
ATOM     82  F   UNL     1     -16.102 -10.462  10.898  1.00  0.00    -0.206 F 
ATOM     83  C   UNL     1     -18.213  -9.511  10.504  1.00  0.00     0.059 A 
ATOM     84  C   UNL     1     -19.544 -10.274   8.620  1.00  0.00     0.059 A 
ATOM     85  F   UNL     1     -18.714 -11.967   7.224  1.00  0.00    -0.206 F 
ATOM     86  C   UNL     1     -19.371  -9.443   9.726  1.00  0.00     0.060 A 
BRANCH  86  87
ATOM     87  S   UNL     1     -20.622  -8.207  10.136  1.00  0.00     0.124 S 
ATOM     88  O   UNL     1     -21.260  -8.811  11.299  1.00  0.00    -0.237 OA
ATOM     89  O   UNL     1     -19.811  -7.021  10.396  1.00  0.00    -0.237 OA
ATOM     90  O   UNL     1     -21.438  -8.144   8.927  1.00  0.00    -0.744 OA
ENDBRANCH  86  87
ENDBRANCH  54  79
BRANCH  66  91
ATOM     91  C   UNL     1     -14.772 -17.218  11.614  1.00  0.00     0.058 A 
ATOM     92  C   UNL     1     -15.839 -18.117  11.463  1.00  0.00     0.135 A 
ATOM     93  C   UNL     1     -14.042 -17.252  12.812  1.00  0.00     0.135 A 
ATOM     94  F   UNL     1     -16.570 -18.115  10.338  1.00  0.00    -0.206 F 
ATOM     95  C   UNL     1     -16.165 -19.027  12.463  1.00  0.00     0.059 A 
ATOM     96  C   UNL     1     -14.341 -18.165  13.818  1.00  0.00     0.059 A 
ATOM     97  F   UNL     1     -13.010 -16.415  12.998  1.00  0.00    -0.206 F 
ATOM     98  C   UNL     1     -15.404 -19.049  13.633  1.00  0.00     0.060 A 
BRANCH  98  99
ATOM     99  S   UNL     1     -15.789 -20.289  14.888  1.00  0.00     0.124 S 
ATOM    100  O   UNL     1     -17.018 -19.753  15.464  1.00  0.00    -0.237 OA
ATOM    101  O   UNL     1     -15.939 -21.503  14.092  1.00  0.00    -0.237 OA
ATOM    102  O   UNL     1     -14.621 -20.261  15.763  1.00  0.00    -0.744 OA
ENDBRANCH  98  99
ENDBRANCH  66  91
ENDBRANCH  40  41
ENDBRANCH  32  35
ENDBRANCH  30  31
ENDBRANCH   1  30
TORSDOF 18
