REMARK SMILES CC1(C)OC(=O)C(/C=N/[C@@H](CCC(N)=O)C(=O)NCCCCNC(=O)c2ccc(-c3c4nc(c(-c5c(F)cc(S(=O)(=O)[O-])cc5F)c5ccc([nH]5)c(-c5c(F)cc(S(=O)(=O)[O-])cc5F)c5nc(c(-c6c(F)cc(S(=O)(=O)[O-])cc6F)c6ccc3[nH]6)C=C5)C=C4)cc2)C(=O)O1
REMARK SMILES IDX 20 1 19 2 18 3 16 4 17 5 10 7 9 8 8 9 7 10 1 11 2 12 3 13
REMARK SMILES IDX 4 14 94 15 5 16 92 17 6 18 93 19 11 20 12 21 13 22 14 23
REMARK SMILES IDX 15 24 21 27 22 28 23 29 24 30 25 32 26 33 27 34 91 35 28 36
REMARK SMILES IDX 90 37 29 38 30 39 31 40 84 41 32 42 89 43 83 44 85 45 33 46
REMARK SMILES IDX 88 47 82 48 81 49 34 51 68 52 47 53 67 54 48 55 51 56 66 57
REMARK SMILES IDX 86 58 49 59 50 60 65 62 87 63 52 64 35 65 36 66 45 67 37 68
REMARK SMILES IDX 38 69 44 70 46 71 39 72 40 73 41 74 42 75 43 76 69 77 70 78
REMARK SMILES IDX 79 79 71 80 72 81 78 82 80 83 73 84 74 85 75 86 76 87 77 88
REMARK SMILES IDX 53 89 54 90 63 91 55 92 56 93 62 94 64 95 57 96 58 97 59 98
REMARK SMILES IDX 60 99 61 100
REMARK H PARENT 18 6 14 25 14 26 23 31 85 50 51 61
REMARK Flexibility Score: inf
ROOT
ATOM      1  C   UNL     1       2.033   0.768   2.655  1.00  0.00     0.023 C 
ENDROOT
BRANCH   1   2
ATOM      2  C   UNL     1       1.305   1.726   3.583  1.00  0.00     0.116 C 
BRANCH   2   3
ATOM      3  N   UNL     1       1.842   3.059   3.568  1.00  0.00    -0.354 N 
ATOM      4  C   UNL     1       1.283   4.215   3.107  1.00  0.00     0.244 C 
ATOM      5  O   UNL     1       1.903   5.266   3.303  1.00  0.00    -0.273 OA
ATOM      6  H   UNL     1       2.746   3.152   3.946  1.00  0.00     0.163 HD
BRANCH   4   7
ATOM      7  C   UNL     1      -0.061   4.228   2.352  1.00  0.00     0.194 C 
BRANCH   7   8
ATOM      8  N   UNL     1       0.007   3.381   1.140  1.00  0.00    -0.283 NA
ATOM      9  C   UNL     1      -0.725   2.365   0.900  1.00  0.00     0.105 C 
BRANCH   9  10
ATOM     10  C   UNL     1      -0.599   1.616  -0.406  1.00  0.00     0.250 C 
ATOM     11  C   UNL     1      -0.344  -2.015   0.884  1.00  0.00     0.106 C 
ATOM     12  C   UNL     1      -0.242  -1.190  -0.398  1.00  0.00     0.252 C 
ATOM     13  C   UNL     1       0.083  -2.097  -1.583  1.00  0.00     0.106 C 
ATOM     14  O   UNL     1       0.851  -0.293  -0.239  1.00  0.00    -0.422 OA
ATOM     15  O   UNL     1      -1.524  -0.615  -0.654  1.00  0.00    -0.422 OA
ATOM     16  C   UNL     1       0.731   0.990  -0.606  1.00  0.00     0.329 C 
ATOM     17  C   UNL     1      -1.749   0.701  -0.588  1.00  0.00     0.329 C 
ATOM     18  O   UNL     1       1.713   1.617  -0.987  1.00  0.00    -0.251 OA
ATOM     19  O   UNL     1      -2.899   1.131  -0.640  1.00  0.00    -0.251 OA
ENDBRANCH   9  10
ENDBRANCH   7   8
BRANCH   7  20
ATOM     20  C   UNL     1      -1.371   4.269   3.159  1.00  0.00     0.047 C 
BRANCH  20  21
ATOM     21  C   UNL     1      -1.752   3.161   4.143  1.00  0.00     0.102 C 
BRANCH  21  22
ATOM     22  C   UNL     1      -0.977   3.162   5.442  1.00  0.00     0.217 C 
ATOM     23  N   UNL     1      -1.109   2.019   6.176  1.00  0.00    -0.370 N 
ATOM     24  O   UNL     1      -0.301   4.096   5.847  1.00  0.00    -0.275 OA
ATOM     25  H   UNL     1      -1.657   1.276   5.835  1.00  0.00     0.159 HD
ATOM     26  H   UNL     1      -0.655   1.937   7.046  1.00  0.00     0.159 HD
ENDBRANCH  21  22
ENDBRANCH  20  21
ENDBRANCH   7  20
ENDBRANCH   4   7
ENDBRANCH   2   3
ENDBRANCH   1   2
BRANCH   1  27
ATOM     27  C   UNL     1       3.111  -0.082   3.317  1.00  0.00     0.023 C 
BRANCH  27  28
ATOM     28  C   UNL     1       2.660  -0.889   4.531  1.00  0.00     0.116 C 
BRANCH  28  29
ATOM     29  N   UNL     1       1.484  -1.721   4.299  1.00  0.00    -0.352 N 
ATOM     30  C   UNL     1       1.208  -2.960   4.841  1.00  0.00     0.251 C 
ATOM     31  H   UNL     1       0.808  -1.357   3.682  1.00  0.00     0.163 HD
ATOM     32  O   UNL     1       0.209  -3.579   4.509  1.00  0.00    -0.269 OA
BRANCH  30  33
ATOM     33  C   UNL     1       2.182  -3.521   5.801  1.00  0.00     0.039 A 
ATOM     34  C   UNL     1       2.813  -4.729   5.500  1.00  0.00     0.014 A 
ATOM     35  C   UNL     1       2.572  -2.762   6.906  1.00  0.00     0.014 A 
ATOM     36  C   UNL     1       3.918  -5.126   6.257  1.00  0.00     0.010 A 
ATOM     37  C   UNL     1       3.717  -3.121   7.606  1.00  0.00     0.010 A 
ATOM     38  C   UNL     1       4.412  -4.297   7.278  1.00  0.00    -0.014 A 
BRANCH  38  39
ATOM     39  C   UNL     1       5.669  -4.613   8.003  1.00  0.00     0.031 A 
ATOM     40  C   UNL     1       5.636  -4.836   9.489  1.00  0.00     0.074 A 
ATOM     41  C   UNL     1       6.846  -4.593   7.346  1.00  0.00     0.049 A 
ATOM     42  N   UNL     1       6.631  -4.988  10.324  1.00  0.00    -0.248 NA
ATOM     43  C   UNL     1       4.309  -4.849  10.126  1.00  0.00     0.031 C 
ATOM     44  C   UNL     1       7.019  -4.321   5.916  1.00  0.00     0.029 A 
ATOM     45  N   UNL     1       8.127  -4.787   7.800  1.00  0.00    -0.354 N 
ATOM     46  C   UNL     1       6.055  -5.082  11.584  1.00  0.00     0.074 A 
ATOM     47  C   UNL     1       4.627  -4.925  11.410  1.00  0.00     0.031 C 
ATOM     48  C   UNL     1       8.325  -4.387   5.609  1.00  0.00     0.029 A 
ATOM     49  C   UNL     1       9.086  -4.671   6.821  1.00  0.00     0.049 A 
ATOM     50  H   UNL     1       8.340  -4.990   8.739  1.00  0.00     0.167 HD
ATOM     51  C   UNL     1       6.657  -5.304  12.776  1.00  0.00     0.037 A 
ATOM     52  C   UNL     1      10.428  -4.777   6.893  1.00  0.00     0.037 A 
ATOM     53  C   UNL     1       8.070  -5.512  12.938  1.00  0.00     0.049 A 
ATOM     54  C   UNL     1      11.070  -5.074   8.221  1.00  0.00     0.074 A 
ATOM     55  C   UNL     1       8.769  -5.815  14.094  1.00  0.00     0.029 A 
ATOM     56  N   UNL     1       9.001  -5.448  11.912  1.00  0.00    -0.354 N 
ATOM     57  N   UNL     1      10.502  -5.218   9.395  1.00  0.00    -0.248 NA
ATOM     58  C   UNL     1      12.531  -5.229   8.234  1.00  0.00     0.031 C 
ATOM     59  C   UNL     1      10.127  -5.916  13.769  1.00  0.00     0.029 A 
ATOM     60  C   UNL     1      10.268  -5.704  12.406  1.00  0.00     0.049 A 
ATOM     61  H   UNL     1       8.791  -5.250  10.971  1.00  0.00     0.167 HD
ATOM     62  C   UNL     1      11.534  -5.505  10.281  1.00  0.00     0.074 A 
ATOM     63  C   UNL     1      12.759  -5.521   9.508  1.00  0.00     0.031 C 
ATOM     64  C   UNL     1      11.473  -5.733  11.616  1.00  0.00     0.037 A 
BRANCH  51  65
ATOM     65  C   UNL     1       5.778  -5.352  13.993  1.00  0.00     0.058 A 
ATOM     66  C   UNL     1       4.910  -6.430  14.228  1.00  0.00     0.135 A 
ATOM     67  C   UNL     1       5.809  -4.315  14.940  1.00  0.00     0.135 A 
ATOM     68  F   UNL     1       4.829  -7.437  13.344  1.00  0.00    -0.206 F 
ATOM     69  C   UNL     1       4.076  -6.462  15.340  1.00  0.00     0.059 A 
ATOM     70  C   UNL     1       5.002  -4.339  16.073  1.00  0.00     0.059 A 
ATOM     71  F   UNL     1       6.620  -3.261  14.761  1.00  0.00    -0.206 F 
ATOM     72  C   UNL     1       4.125  -5.409  16.254  1.00  0.00     0.060 A 
BRANCH  72  73
ATOM     73  S   UNL     1       3.028  -5.457  17.686  1.00  0.00     0.124 S 
ATOM     74  O   UNL     1       1.754  -5.070  17.087  1.00  0.00    -0.237 OA
ATOM     75  O   UNL     1       3.128  -6.849  18.114  1.00  0.00    -0.237 OA
ATOM     76  O   UNL     1       3.617  -4.481  18.597  1.00  0.00    -0.744 OA
ENDBRANCH  72  73
ENDBRANCH  51  65
BRANCH  52  77
ATOM     77  C   UNL     1      11.253  -4.638   5.665  1.00  0.00     0.058 A 
ATOM     78  C   UNL     1      11.845  -5.762   5.071  1.00  0.00     0.135 A 
ATOM     79  C   UNL     1      11.456  -3.391   5.055  1.00  0.00     0.135 A 
ATOM     80  F   UNL     1      11.682  -6.974   5.622  1.00  0.00    -0.206 F 
ATOM     81  C   UNL     1      12.624  -5.655   3.924  1.00  0.00     0.059 A 
ATOM     82  C   UNL     1      12.215  -3.261   3.895  1.00  0.00     0.059 A 
ATOM     83  F   UNL     1      10.895  -2.288   5.576  1.00  0.00    -0.206 F 
ATOM     84  C   UNL     1      12.803  -4.399   3.343  1.00  0.00     0.060 A 
BRANCH  84  85
ATOM     85  S   UNL     1      13.772  -4.277   1.823  1.00  0.00     0.124 S 
ATOM     86  O   UNL     1      15.133  -4.391   2.333  1.00  0.00    -0.237 OA
ATOM     87  O   UNL     1      13.281  -5.416   1.052  1.00  0.00    -0.237 OA
ATOM     88  O   UNL     1      13.400  -2.968   1.295  1.00  0.00    -0.744 OA
ENDBRANCH  84  85
ENDBRANCH  52  77
BRANCH  64  89
ATOM     89  C   UNL     1      12.757  -6.057  12.321  1.00  0.00     0.058 A 
ATOM     90  C   UNL     1      13.696  -5.062  12.630  1.00  0.00     0.135 A 
ATOM     91  C   UNL     1      13.019  -7.368  12.749  1.00  0.00     0.135 A 
ATOM     92  F   UNL     1      13.493  -3.795  12.236  1.00  0.00    -0.206 F 
ATOM     93  C   UNL     1      14.861  -5.359  13.329  1.00  0.00     0.059 A 
ATOM     94  C   UNL     1      14.168  -7.684  13.467  1.00  0.00     0.059 A 
ATOM     95  F   UNL     1      12.146  -8.353  12.484  1.00  0.00    -0.206 F 
ATOM     96  C   UNL     1      15.088  -6.673  13.745  1.00  0.00     0.060 A 
BRANCH  96  97
ATOM     97  S   UNL     1      16.579  -7.040  14.694  1.00  0.00     0.124 S 
ATOM     98  O   UNL     1      17.594  -7.068  13.646  1.00  0.00    -0.237 OA
ATOM     99  O   UNL     1      16.652  -5.911  15.616  1.00  0.00    -0.237 OA
ATOM    100  O   UNL     1      16.278  -8.327  15.313  1.00  0.00    -0.744 OA
ENDBRANCH  96  97
ENDBRANCH  64  89
ENDBRANCH  38  39
ENDBRANCH  30  33
ENDBRANCH  28  29
ENDBRANCH  27  28
ENDBRANCH   1  27
TORSDOF 19
