REMARK SMILES O=C(CNC(=O)N1CC(NCCCCNC(=O)c2ccc(-c3c4nc(c(-c5c(F)cc(S(=O)(=O)[O-])cc5F)c5ccc([nH]5)c(-c5c(F)cc(S(=O)(=O)[O-])cc5F)c5nc(c(-c6c(F)cc(S(=O)(=O)[O-])cc6F)c6ccc3[nH]6)C=C5)C=C4)cc2)=[NH+]c2ccccc21)N[C@H](C(=O)[O-])c1ccccc1
REMARK SMILES IDX 12 1 11 2 10 3 7 4 8 5 90 6 9 7 85 8 89 9 84 10 86 11 88 12
REMARK SMILES IDX 87 15 5 16 4 17 6 19 3 20 2 21 1 22 91 23 92 25 96 26 97 27
REMARK SMILES IDX 101 28 98 29 100 30 99 31 93 32 94 33 95 34 13 35 14 36
REMARK SMILES IDX 15 37 16 38 17 40 18 41 19 42 83 43 20 44 82 45 21 46 22 47
REMARK SMILES IDX 23 48 76 49 24 50 81 51 75 52 77 53 25 54 80 55 74 56 73 57
REMARK SMILES IDX 26 59 60 60 39 61 59 62 40 63 43 64 58 65 78 66 41 67 42 68
REMARK SMILES IDX 57 70 79 71 44 72 27 73 28 74 37 75 29 76 30 77 36 78 38 79
REMARK SMILES IDX 31 80 32 81 33 82 34 83 35 84 61 85 62 86 71 87 63 88 64 89
REMARK SMILES IDX 70 90 72 91 65 92 66 93 67 94 68 95 69 96 45 97 46 98 55 99
REMARK SMILES IDX 47 100 48 101 54 102 56 103 49 104 50 105 51 106 52 107
REMARK SMILES IDX 53 108
REMARK H PARENT 10 13 84 14 4 18 91 24 15 39 77 58 43 69
REMARK Flexibility Score: inf
ROOT
ATOM      1  C   UNL     1      -0.709   4.179   5.070  1.00  0.00     0.048 C 
ENDROOT
BRANCH   1   2
ATOM      2  C   UNL     1      -0.905   3.650   6.490  1.00  0.00     0.233 C 
BRANCH   2   3
ATOM      3  N   UNL     1      -0.790   2.212   6.520  1.00  0.00    -0.277 N 
ATOM      4  N   UNL     1       2.654   1.296   7.280  1.00  0.00    -0.278 N 
ATOM      5  C   UNL     1       1.489   2.091   7.630  1.00  0.00     0.255 C 
ATOM      6  C   UNL     1       2.503  -0.095   7.511  1.00  0.00     0.093 A 
ATOM      7  C   UNL     1       0.248   1.450   6.994  1.00  0.00     0.268 C 
ATOM      8  C   UNL     1       1.213  -0.637   7.345  1.00  0.00     0.148 A 
ATOM      9  C   UNL     1       3.581  -0.915   7.862  1.00  0.00     0.031 A 
ATOM     10  N   UNL     1       0.125   0.150   6.908  1.00  0.00    -0.241 N 
ATOM     11  C   UNL     1       1.038  -2.014   7.493  1.00  0.00     0.054 A 
ATOM     12  C   UNL     1       3.384  -2.286   8.026  1.00  0.00     0.002 A 
ATOM     13  H   UNL     1      -1.555   1.713   6.153  1.00  0.00     0.304 HD
ATOM     14  H   UNL     1      -0.696  -0.264   6.553  1.00  0.00     0.312 HD
ATOM     15  C   UNL     1       2.117  -2.836   7.832  1.00  0.00     0.005 A 
BRANCH   4  16
ATOM     16  C   UNL     1       3.779   1.935   6.831  1.00  0.00     0.323 C 
ATOM     17  N   UNL     1       4.535   1.336   5.873  1.00  0.00    -0.329 N 
ATOM     18  H   UNL     1       5.475   1.624   5.819  1.00  0.00     0.165 HD
ATOM     19  O   UNL     1       4.082   3.076   7.183  1.00  0.00    -0.248 OA
BRANCH  17  20
ATOM     20  C   UNL     1       4.121   0.319   4.918  1.00  0.00     0.218 C 
BRANCH  20  21
ATOM     21  C   UNL     1       4.044   0.924   3.519  1.00  0.00     0.240 C 
ATOM     22  O   UNL     1       5.056   1.187   2.874  1.00  0.00    -0.273 OA
ATOM     23  N   UNL     1       2.761   1.172   3.082  1.00  0.00    -0.342 N 
ATOM     24  H   UNL     1       2.013   1.031   3.707  1.00  0.00     0.164 HD
BRANCH  23  25
ATOM     25  C   UNL     1       2.467   1.636   1.729  1.00  0.00     0.158 C 
BRANCH  25  26
ATOM     26  C   UNL     1       2.758   3.112   1.530  1.00  0.00    -0.020 A 
ATOM     27  C   UNL     1       4.017   3.572   1.117  1.00  0.00     0.006 A 
ATOM     28  C   UNL     1       1.747   4.062   1.764  1.00  0.00     0.006 A 
ATOM     29  C   UNL     1       4.252   4.934   0.919  1.00  0.00     0.000 A 
ATOM     30  C   UNL     1       1.984   5.424   1.569  1.00  0.00     0.000 A 
ATOM     31  C   UNL     1       3.236   5.859   1.142  1.00  0.00     0.000 A 
ENDBRANCH  25  26
BRANCH  25  32
ATOM     32  C   UNL     1       2.988   0.700   0.615  1.00  0.00     0.068 C 
ATOM     33  O   UNL     1       3.072   0.947  -0.578  1.00  0.00    -0.548 OA
ATOM     34  O   UNL     1       3.237  -0.565   1.038  1.00  0.00    -0.548 OA
ENDBRANCH  25  32
ENDBRANCH  23  25
ENDBRANCH  20  21
ENDBRANCH  17  20
ENDBRANCH   4  16
ENDBRANCH   2   3
ENDBRANCH   1   2
BRANCH   1  35
ATOM     35  C   UNL     1      -1.809   3.788   4.079  1.00  0.00     0.025 C 
BRANCH  35  36
ATOM     36  C   UNL     1      -3.232   4.141   4.505  1.00  0.00     0.116 C 
BRANCH  36  37
ATOM     37  N   UNL     1      -3.418   5.564   4.737  1.00  0.00    -0.352 N 
ATOM     38  C   UNL     1      -4.452   6.381   4.345  1.00  0.00     0.251 C 
ATOM     39  H   UNL     1      -2.702   6.005   5.248  1.00  0.00     0.163 HD
ATOM     40  O   UNL     1      -4.362   7.593   4.522  1.00  0.00    -0.269 OA
BRANCH  38  41
ATOM     41  C   UNL     1      -5.649   5.811   3.686  1.00  0.00     0.039 A 
ATOM     42  C   UNL     1      -6.185   6.473   2.578  1.00  0.00     0.014 A 
ATOM     43  C   UNL     1      -6.249   4.639   4.154  1.00  0.00     0.014 A 
ATOM     44  C   UNL     1      -7.283   5.928   1.908  1.00  0.00     0.010 A 
ATOM     45  C   UNL     1      -7.292   4.056   3.438  1.00  0.00     0.010 A 
ATOM     46  C   UNL     1      -7.827   4.697   2.311  1.00  0.00    -0.014 A 
BRANCH  46  47
ATOM     47  C   UNL     1      -8.955   4.077   1.565  1.00  0.00     0.031 A 
ATOM     48  C   UNL     1     -10.283   3.853   2.240  1.00  0.00     0.074 A 
ATOM     49  C   UNL     1      -8.772   3.675   0.291  1.00  0.00     0.049 A 
ATOM     50  N   UNL     1     -11.371   3.307   1.761  1.00  0.00    -0.248 NA
ATOM     51  C   UNL     1     -10.396   4.275   3.646  1.00  0.00     0.031 C 
ATOM     52  C   UNL     1      -7.518   3.786  -0.459  1.00  0.00     0.029 A 
ATOM     53  N   UNL     1      -9.637   3.089  -0.600  1.00  0.00    -0.354 N 
ATOM     54  C   UNL     1     -12.291   3.312   2.803  1.00  0.00     0.074 A 
ATOM     55  C   UNL     1     -11.614   3.858   3.959  1.00  0.00     0.031 C 
ATOM     56  C   UNL     1      -7.704   3.314  -1.702  1.00  0.00     0.029 A 
ATOM     57  C   UNL     1      -9.076   2.832  -1.829  1.00  0.00     0.049 A 
ATOM     58  H   UNL     1     -10.572   2.873  -0.379  1.00  0.00     0.167 HD
ATOM     59  C   UNL     1     -13.589   2.922   2.793  1.00  0.00     0.037 A 
ATOM     60  C   UNL     1      -9.604   2.268  -2.933  1.00  0.00     0.037 A 
ATOM     61  C   UNL     1     -14.264   2.397   1.634  1.00  0.00     0.049 A 
ATOM     62  C   UNL     1     -11.047   1.842  -2.920  1.00  0.00     0.074 A 
ATOM     63  C   UNL     1     -15.591   2.026   1.506  1.00  0.00     0.029 A 
ATOM     64  N   UNL     1     -13.666   2.165   0.404  1.00  0.00    -0.354 N 
ATOM     65  N   UNL     1     -11.921   1.918  -1.944  1.00  0.00    -0.248 NA
ATOM     66  C   UNL     1     -11.580   1.262  -4.160  1.00  0.00     0.031 C 
ATOM     67  C   UNL     1     -15.783   1.520   0.216  1.00  0.00     0.029 A 
ATOM     68  C   UNL     1     -14.591   1.633  -0.481  1.00  0.00     0.049 A 
ATOM     69  H   UNL     1     -12.723   2.350   0.191  1.00  0.00     0.167 HD
ATOM     70  C   UNL     1     -13.115   1.427  -2.463  1.00  0.00     0.074 A 
ATOM     71  C   UNL     1     -12.852   1.069  -3.842  1.00  0.00     0.031 C 
ATOM     72  C   UNL     1     -14.319   1.286  -1.854  1.00  0.00     0.037 A 
BRANCH  59  73
ATOM     73  C   UNL     1     -14.369   3.053   4.075  1.00  0.00     0.058 A 
ATOM     74  C   UNL     1     -14.709   4.307   4.609  1.00  0.00     0.135 A 
ATOM     75  C   UNL     1     -14.815   1.911   4.761  1.00  0.00     0.135 A 
ATOM     76  F   UNL     1     -14.297   5.434   4.005  1.00  0.00    -0.206 F 
ATOM     77  C   UNL     1     -15.433   4.424   5.791  1.00  0.00     0.059 A 
ATOM     78  C   UNL     1     -15.568   2.005   5.927  1.00  0.00     0.059 A 
ATOM     79  F   UNL     1     -14.520   0.686   4.297  1.00  0.00    -0.206 F 
ATOM     80  C   UNL     1     -15.859   3.266   6.443  1.00  0.00     0.060 A 
BRANCH  80  81
ATOM     81  S   UNL     1     -16.802   3.438   7.973  1.00  0.00     0.124 S 
ATOM     82  O   UNL     1     -15.771   3.894   8.900  1.00  0.00    -0.237 OA
ATOM     83  O   UNL     1     -17.809   4.428   7.608  1.00  0.00    -0.237 OA
ATOM     84  O   UNL     1     -17.309   2.090   8.213  1.00  0.00    -0.744 OA
ENDBRANCH  80  81
ENDBRANCH  59  73
BRANCH  60  85
ATOM     85  C   UNL     1      -8.769   2.098  -4.154  1.00  0.00     0.058 A 
ATOM     86  C   UNL     1      -9.018   2.851  -5.312  1.00  0.00     0.135 A 
ATOM     87  C   UNL     1      -7.703   1.185  -4.187  1.00  0.00     0.135 A 
ATOM     88  F   UNL     1     -10.029   3.733  -5.333  1.00  0.00    -0.206 F 
ATOM     89  C   UNL     1      -8.255   2.692  -6.464  1.00  0.00     0.059 A 
ATOM     90  C   UNL     1      -6.907   1.029  -5.317  1.00  0.00     0.059 A 
ATOM     91  F   UNL     1      -7.411   0.453  -3.101  1.00  0.00    -0.206 F 
ATOM     92  C   UNL     1      -7.199   1.779  -6.456  1.00  0.00     0.060 A 
BRANCH  92  93
ATOM     93  S   UNL     1      -6.189   1.612  -7.943  1.00  0.00     0.124 S 
ATOM     94  O   UNL     1      -7.104   0.921  -8.844  1.00  0.00    -0.237 OA
ATOM     95  O   UNL     1      -5.897   3.003  -8.272  1.00  0.00    -0.237 OA
ATOM     96  O   UNL     1      -5.044   0.830  -7.484  1.00  0.00    -0.744 OA
ENDBRANCH  92  93
ENDBRANCH  60  85
BRANCH  72  97
ATOM     97  C   UNL     1     -15.458   0.758  -2.685  1.00  0.00     0.058 A 
ATOM     98  C   UNL     1     -15.510  -0.578  -3.112  1.00  0.00     0.135 A 
ATOM     99  C   UNL     1     -16.532   1.597  -3.028  1.00  0.00     0.135 A 
ATOM    100  F   UNL     1     -14.509  -1.422  -2.817  1.00  0.00    -0.206 F 
ATOM    101  C   UNL     1     -16.569  -1.055  -3.879  1.00  0.00     0.059 A 
ATOM    102  C   UNL     1     -17.616   1.133  -3.765  1.00  0.00     0.059 A 
ATOM    103  F   UNL     1     -16.541   2.881  -2.635  1.00  0.00    -0.206 F 
ATOM    104  C   UNL     1     -17.617  -0.191  -4.201  1.00  0.00     0.060 A 
BRANCH 104 105
ATOM    105  S   UNL     1     -18.993  -0.828  -5.182  1.00  0.00     0.124 S 
ATOM    106  O   UNL     1     -18.383  -0.943  -6.503  1.00  0.00    -0.237 OA
ATOM    107  O   UNL     1     -19.297  -2.089  -4.512  1.00  0.00    -0.237 OA
ATOM    108  O   UNL     1     -20.013   0.207  -5.049  1.00  0.00    -0.744 OA
ENDBRANCH 104 105
ENDBRANCH  72  97
ENDBRANCH  46  47
ENDBRANCH  38  41
ENDBRANCH  36  37
ENDBRANCH  35  36
ENDBRANCH   1  35
TORSDOF 19
