REMARK SMILES O=C(NCCCCNC(=O)[C@H]1CC2(CCN(C(=O)C3CC3)CC2)CN1C(=O)CCn1cccn1)c1ccc(-c2c3nc(c(-c4c(F)cc(S(=O)(=O)[O-])cc4F)c4ccc([nH]4)c(-c4c(F)cc(S(=O)(=O)[O-])cc4F)c4nc(c(-c5c(F)cc(S(=O)(=O)[O-])cc5F)c5ccc2[nH]5)C=C4)C=C3)cc1
REMARK SMILES IDX 6 1 5 2 4 3 3 4 1 5 2 6 35 8 36 9 100 10 37 11 99 12 38 13
REMARK SMILES IDX 39 14 40 15 93 16 41 17 98 18 92 19 94 20 42 21 97 22 91 23
REMARK SMILES IDX 90 24 43 26 77 27 56 28 76 29 57 30 60 31 75 32 95 33 58 34
REMARK SMILES IDX 59 35 74 37 96 38 61 39 44 40 45 41 54 42 46 43 47 44 53 45
REMARK SMILES IDX 55 46 48 47 49 48 50 49 51 50 52 51 78 52 79 53 88 54 80 55
REMARK SMILES IDX 81 56 87 57 89 58 82 59 83 60 84 61 85 62 86 63 62 64 63 65
REMARK SMILES IDX 72 66 64 67 65 68 71 69 73 70 66 71 67 72 68 73 69 74 70 75
REMARK SMILES IDX 7 76 8 77 9 78 10 80 11 81 12 82 25 83 13 84 24 85 14 86
REMARK SMILES IDX 23 87 15 88 22 89 16 90 17 91 18 92 26 93 27 94 28 95 29 96
REMARK SMILES IDX 30 97 31 98 34 99 32 100 33 101 19 102 20 103 21 104
REMARK H PARENT 3 7 94 25 60 36 8 79
REMARK Flexibility Score: inf
ROOT
ATOM      1  C   UNL     1       9.785  -2.614  -4.389  1.00  0.00     0.023 C 
ENDROOT
BRANCH   1   2
ATOM      2  C   UNL     1      10.673  -2.848  -5.618  1.00  0.00     0.023 C 
BRANCH   2   3
ATOM      3  C   UNL     1      10.097  -2.362  -6.949  1.00  0.00     0.116 C 
BRANCH   3   4
ATOM      4  N   UNL     1       9.727  -0.962  -6.991  1.00  0.00    -0.352 N 
ATOM      5  O   UNL     1       9.773   1.241  -7.190  1.00  0.00    -0.269 OA
ATOM      6  C   UNL     1      10.434   0.209  -7.052  1.00  0.00     0.251 C 
ATOM      7  H   UNL     1       8.753  -0.822  -6.971  1.00  0.00     0.163 HD
BRANCH   6   8
ATOM      8  C   UNL     1      11.908   0.311  -6.892  1.00  0.00     0.039 A 
ATOM      9  C   UNL     1      12.808  -0.737  -7.087  1.00  0.00     0.014 A 
ATOM     10  C   UNL     1      12.407   1.569  -6.511  1.00  0.00     0.014 A 
ATOM     11  C   UNL     1      14.155  -0.573  -6.788  1.00  0.00     0.010 A 
ATOM     12  C   UNL     1      13.762   1.752  -6.254  1.00  0.00     0.010 A 
ATOM     13  C   UNL     1      14.629   0.666  -6.356  1.00  0.00    -0.014 A 
BRANCH  13  14
ATOM     14  C   UNL     1      16.074   0.821  -6.199  1.00  0.00     0.031 A 
ATOM     15  C   UNL     1      16.855   0.673  -7.462  1.00  0.00     0.074 A 
ATOM     16  C   UNL     1      16.661   1.233  -5.058  1.00  0.00     0.049 A 
ATOM     17  N   UNL     1      17.799  -0.168  -7.740  1.00  0.00    -0.248 NA
ATOM     18  C   UNL     1      16.445   1.505  -8.605  1.00  0.00     0.031 C 
ATOM     19  C   UNL     1      15.998   1.712  -3.843  1.00  0.00     0.029 A 
ATOM     20  N   UNL     1      17.984   1.434  -4.791  1.00  0.00    -0.354 N 
ATOM     21  C   UNL     1      18.251   0.175  -9.015  1.00  0.00     0.074 A 
ATOM     22  C   UNL     1      17.274   1.081  -9.557  1.00  0.00     0.031 C 
ATOM     23  C   UNL     1      16.902   2.359  -3.075  1.00  0.00     0.029 A 
ATOM     24  C   UNL     1      18.217   2.240  -3.684  1.00  0.00     0.049 A 
ATOM     25  H   UNL     1      18.707   1.044  -5.333  1.00  0.00     0.167 HD
ATOM     26  C   UNL     1      19.513  -0.120  -9.435  1.00  0.00     0.037 A 
ATOM     27  C   UNL     1      19.385   2.844  -3.346  1.00  0.00     0.037 A 
ATOM     28  C   UNL     1      20.094  -1.178  -8.647  1.00  0.00     0.049 A 
ATOM     29  C   UNL     1      20.482   2.130  -4.049  1.00  0.00     0.074 A 
ATOM     30  C   UNL     1      19.747  -2.482  -8.349  1.00  0.00     0.029 A 
ATOM     31  N   UNL     1      21.082  -0.848  -7.751  1.00  0.00    -0.354 N 
ATOM     32  N   UNL     1      20.848   0.905  -3.791  1.00  0.00    -0.248 NA
ATOM     33  C   UNL     1      20.926   2.653  -5.332  1.00  0.00     0.031 C 
ATOM     34  C   UNL     1      20.190  -2.691  -7.010  1.00  0.00     0.029 A 
ATOM     35  C   UNL     1      20.815  -1.517  -6.588  1.00  0.00     0.049 A 
ATOM     36  H   UNL     1      21.840  -0.242  -7.916  1.00  0.00     0.167 HD
ATOM     37  C   UNL     1      21.190   0.369  -5.023  1.00  0.00     0.074 A 
ATOM     38  C   UNL     1      21.326   1.519  -5.911  1.00  0.00     0.031 C 
ATOM     39  C   UNL     1      21.058  -0.967  -5.274  1.00  0.00     0.037 A 
BRANCH  26  40
ATOM     40  C   UNL     1      20.369   0.816 -10.274  1.00  0.00     0.058 A 
ATOM     41  C   UNL     1      21.660   0.393 -10.662  1.00  0.00     0.135 A 
ATOM     42  C   UNL     1      20.120   2.199 -10.424  1.00  0.00     0.135 A 
ATOM     43  F   UNL     1      22.004  -0.903 -10.600  1.00  0.00    -0.206 F 
ATOM     44  C   UNL     1      22.667   1.291 -11.020  1.00  0.00     0.059 A 
ATOM     45  C   UNL     1      21.093   3.104 -10.832  1.00  0.00     0.059 A 
ATOM     46  F   UNL     1      18.956   2.766 -10.091  1.00  0.00    -0.206 F 
ATOM     47  C   UNL     1      22.379   2.650 -11.066  1.00  0.00     0.060 A 
BRANCH  47  48
ATOM     48  S   UNL     1      23.708   3.831 -11.347  1.00  0.00     0.124 S 
ATOM     49  O   UNL     1      24.441   3.738 -10.090  1.00  0.00    -0.237 OA
ATOM     50  O   UNL     1      24.370   3.269 -12.520  1.00  0.00    -0.237 OA
ATOM     51  O   UNL     1      22.997   5.085 -11.576  1.00  0.00    -0.744 OA
ENDBRANCH  47  48
ENDBRANCH  26  40
BRANCH  27  52
ATOM     52  C   UNL     1      19.574   4.181  -2.720  1.00  0.00     0.058 A 
ATOM     53  C   UNL     1      20.823   4.580  -2.211  1.00  0.00     0.135 A 
ATOM     54  C   UNL     1      18.606   5.199  -2.846  1.00  0.00     0.135 A 
ATOM     55  F   UNL     1      21.815   3.686  -2.080  1.00  0.00    -0.206 F 
ATOM     56  C   UNL     1      21.108   5.913  -1.888  1.00  0.00     0.059 A 
ATOM     57  C   UNL     1      18.860   6.527  -2.513  1.00  0.00     0.059 A 
ATOM     58  F   UNL     1      17.403   4.952  -3.386  1.00  0.00    -0.206 F 
ATOM     59  C   UNL     1      20.122   6.883  -2.059  1.00  0.00     0.060 A 
BRANCH  59  60
ATOM     60  S   UNL     1      20.528   8.627  -1.805  1.00  0.00     0.124 S 
ATOM     61  O   UNL     1      20.695   8.690  -0.357  1.00  0.00    -0.237 OA
ATOM     62  O   UNL     1      21.744   8.781  -2.595  1.00  0.00    -0.237 OA
ATOM     63  O   UNL     1      19.357   9.327  -2.328  1.00  0.00    -0.744 OA
ENDBRANCH  59  60
ENDBRANCH  27  52
BRANCH  39  64
ATOM     64  C   UNL     1      20.899  -1.904  -4.109  1.00  0.00     0.058 A 
ATOM     65  C   UNL     1      19.809  -1.893  -3.223  1.00  0.00     0.135 A 
ATOM     66  C   UNL     1      21.822  -2.954  -3.982  1.00  0.00     0.135 A 
ATOM     67  F   UNL     1      18.827  -0.988  -3.346  1.00  0.00    -0.206 F 
ATOM     68  C   UNL     1      19.667  -2.861  -2.227  1.00  0.00     0.059 A 
ATOM     69  C   UNL     1      21.682  -3.948  -3.018  1.00  0.00     0.059 A 
ATOM     70  F   UNL     1      22.851  -3.055  -4.841  1.00  0.00    -0.206 F 
ATOM     71  C   UNL     1      20.607  -3.887  -2.134  1.00  0.00     0.060 A 
BRANCH  71  72
ATOM     72  S   UNL     1      20.373  -5.189  -0.906  1.00  0.00     0.124 S 
ATOM     73  O   UNL     1      20.691  -4.495   0.340  1.00  0.00    -0.237 OA
ATOM     74  O   UNL     1      18.966  -5.547  -1.087  1.00  0.00    -0.237 OA
ATOM     75  O   UNL     1      21.323  -6.216  -1.308  1.00  0.00    -0.744 OA
ENDBRANCH  71  72
ENDBRANCH  39  64
ENDBRANCH  13  14
ENDBRANCH   6   8
ENDBRANCH   3   4
ENDBRANCH   2   3
ENDBRANCH   1   2
BRANCH   1  76
ATOM     76  C   UNL     1       8.344  -3.113  -4.520  1.00  0.00     0.116 C 
BRANCH  76  77
ATOM     77  N   UNL     1       8.301  -4.528  -4.820  1.00  0.00    -0.354 N 
ATOM     78  C   UNL     1       8.213  -5.483  -3.847  1.00  0.00     0.242 C 
ATOM     79  H   UNL     1       8.336  -4.814  -5.761  1.00  0.00     0.163 HD
ATOM     80  O   UNL     1       9.222  -6.130  -3.571  1.00  0.00    -0.273 OA
BRANCH  78  81
ATOM     81  C   UNL     1       6.901  -5.592  -3.054  1.00  0.00     0.175 C 
ATOM     82  C   UNL     1       5.592  -5.034  -3.630  1.00  0.00     0.044 C 
ATOM     83  N   UNL     1       6.408  -6.853  -2.478  1.00  0.00    -0.330 N 
ATOM     84  C   UNL     1       4.513  -5.437  -2.563  1.00  0.00    -0.006 C 
ATOM     85  C   UNL     1       5.266  -6.461  -1.660  1.00  0.00     0.127 C 
ATOM     86  C   UNL     1       3.272  -6.126  -3.175  1.00  0.00     0.030 C 
ATOM     87  C   UNL     1       4.046  -4.203  -1.772  1.00  0.00     0.030 C 
ATOM     88  C   UNL     1       2.325  -5.190  -3.925  1.00  0.00     0.120 C 
ATOM     89  C   UNL     1       3.159  -3.288  -2.620  1.00  0.00     0.120 C 
ATOM     90  N   UNL     1       1.992  -4.001  -3.146  1.00  0.00    -0.342 N 
ATOM     91  C   UNL     1       0.742  -3.412  -2.946  1.00  0.00     0.225 C 
ATOM     92  O   UNL     1       0.639  -2.381  -2.270  1.00  0.00    -0.275 OA
BRANCH  83  93
ATOM     93  C   UNL     1       6.327  -8.092  -3.111  1.00  0.00     0.225 C 
ATOM     94  O   UNL     1       5.401  -8.877  -2.868  1.00  0.00    -0.275 OA
BRANCH  93  95
ATOM     95  C   UNL     1       7.394  -8.562  -4.074  1.00  0.00     0.124 C 
BRANCH  95  96
ATOM     96  C   UNL     1       6.859  -8.835  -5.474  1.00  0.00     0.154 C 
BRANCH  96  97
ATOM     97  N   UNL     1       6.272  -7.701  -6.161  1.00  0.00    -0.272 N 
ATOM     98  C   UNL     1       4.981  -7.595  -6.602  1.00  0.00     0.108 A 
ATOM     99  N   UNL     1       7.038  -6.660  -6.538  1.00  0.00    -0.182 NA
ATOM    100  C   UNL     1       4.896  -6.392  -7.264  1.00  0.00     0.042 A 
ATOM    101  C   UNL     1       6.192  -5.855  -7.188  1.00  0.00     0.135 A 
ENDBRANCH  96  97
ENDBRANCH  95  96
ENDBRANCH  93  95
ENDBRANCH  83  93
BRANCH  91 102
ATOM    102  C   UNL     1      -0.557  -3.922  -3.479  1.00  0.00     0.079 C 
ATOM    103  C   UNL     1      -0.871  -4.861  -4.604  1.00  0.00     0.014 C 
ATOM    104  C   UNL     1      -1.027  -5.324  -3.178  1.00  0.00     0.014 C 
ENDBRANCH  91 102
ENDBRANCH  78  81
ENDBRANCH  76  77
ENDBRANCH   1  76
TORSDOF 19
