REMARK SMILES COC(=O)c1cc(F)cc(-c2ccccc2C(=O)NCCCCNC(=O)c2ccc(-c3c4nc(c(-c5c(F)cc(S(=O)(=O)[O-])cc5F)c5ccc([nH]5)c(-c5c(F)cc(S(=O)(=O)[O-])cc5F)c5nc(c(-c6c(F)cc(S(=O)(=O)[O-])cc6F)c6ccc3[nH]6)C=C5)C=C4)cc2)c1
REMARK SMILES IDX 21 1 20 2 19 3 17 4 18 5 16 7 11 8 12 9 13 10 15 11 14 12
REMARK SMILES IDX 10 13 5 14 6 15 93 16 7 17 8 18 9 19 3 20 4 21 2 22 1 23
REMARK SMILES IDX 22 24 23 25 24 26 25 27 26 29 27 30 28 31 92 32 29 33 91 34
REMARK SMILES IDX 30 35 31 36 32 37 85 38 33 39 90 40 84 41 86 42 34 43 89 44
REMARK SMILES IDX 83 45 82 46 35 48 69 49 48 50 68 51 49 52 52 53 67 54 87 55
REMARK SMILES IDX 50 56 51 57 66 59 88 60 53 61 36 62 37 63 46 64 38 65 39 66
REMARK SMILES IDX 45 67 47 68 40 69 41 70 42 71 43 72 44 73 70 74 71 75 80 76
REMARK SMILES IDX 72 77 73 78 79 79 81 80 74 81 75 82 76 83 77 84 78 85 54 86
REMARK SMILES IDX 55 87 64 88 56 89 57 90 63 91 65 92 58 93 59 94 60 95 61 96
REMARK SMILES IDX 62 97
REMARK H PARENT 19 6 24 28 86 47 52 58
REMARK Flexibility Score: inf
ROOT
ATOM      1  C   UNL     1       0.100  -5.370   1.767  1.00  0.00     0.023 C 
ENDROOT
BRANCH   1   2
ATOM      2  C   UNL     1       0.842  -5.450   0.441  1.00  0.00     0.116 C 
BRANCH   2   3
ATOM      3  N   UNL     1       2.274  -5.597   0.499  1.00  0.00    -0.352 N 
ATOM      4  C   UNL     1       3.138  -6.244  -0.356  1.00  0.00     0.251 C 
ATOM      5  O   UNL     1       4.345  -6.117  -0.131  1.00  0.00    -0.269 OA
ATOM      6  H   UNL     1       2.703  -5.167   1.274  1.00  0.00     0.163 HD
BRANCH   4   7
ATOM      7  C   UNL     1       2.734  -7.166  -1.473  1.00  0.00     0.047 A 
ATOM      8  C   UNL     1       1.772  -6.947  -2.490  1.00  0.00    -0.005 A 
ATOM      9  C   UNL     1       1.615  -7.944  -3.486  1.00  0.00     0.009 A 
ATOM     10  C   UNL     1       2.382  -9.108  -3.502  1.00  0.00     0.001 A 
ATOM     11  C   UNL     1       3.510  -8.349  -1.521  1.00  0.00     0.014 A 
ATOM     12  C   UNL     1       3.337  -9.309  -2.519  1.00  0.00     0.001 A 
BRANCH   8  13
ATOM     13  C   UNL     1       0.917  -5.758  -2.613  1.00  0.00    -0.014 A 
ATOM     14  C   UNL     1       0.618  -3.347  -2.735  1.00  0.00     0.063 A 
ATOM     15  C   UNL     1      -0.766  -3.488  -2.591  1.00  0.00     0.055 A 
ATOM     16  C   UNL     1       1.454  -4.475  -2.769  1.00  0.00     0.024 A 
ATOM     17  C   UNL     1      -1.302  -4.763  -2.506  1.00  0.00     0.124 A 
ATOM     18  F   UNL     1      -2.622  -4.923  -2.343  1.00  0.00    -0.207 F 
ATOM     19  C   UNL     1      -0.484  -5.888  -2.528  1.00  0.00     0.048 A 
BRANCH  14  20
ATOM     20  C   UNL     1       1.259  -2.019  -2.789  1.00  0.00     0.337 C 
ATOM     21  O   UNL     1       2.269  -1.788  -3.434  1.00  0.00    -0.246 OA
BRANCH  20  22
ATOM     22  O   UNL     1       0.625  -1.183  -1.936  1.00  0.00    -0.465 OA
ATOM     23  C   UNL     1       1.258   0.089  -1.799  1.00  0.00     0.282 C 
ENDBRANCH  20  22
ENDBRANCH  14  20
ENDBRANCH   8  13
ENDBRANCH   4   7
ENDBRANCH   2   3
ENDBRANCH   1   2
BRANCH   1  24
ATOM     24  C   UNL     1       0.288  -4.120   2.628  1.00  0.00     0.023 C 
BRANCH  24  25
ATOM     25  C   UNL     1       0.240  -2.748   1.956  1.00  0.00     0.116 C 
BRANCH  25  26
ATOM     26  N   UNL     1      -0.903  -2.505   1.094  1.00  0.00    -0.352 N 
ATOM     27  C   UNL     1      -1.552  -1.325   0.794  1.00  0.00     0.251 C 
ATOM     28  H   UNL     1      -1.271  -3.306   0.655  1.00  0.00     0.163 HD
ATOM     29  O   UNL     1      -2.469  -1.350  -0.026  1.00  0.00    -0.269 OA
BRANCH  27  30
ATOM     30  C   UNL     1      -1.215  -0.045   1.477  1.00  0.00     0.039 A 
ATOM     31  C   UNL     1      -2.267   0.812   1.829  1.00  0.00     0.014 A 
ATOM     32  C   UNL     1       0.096   0.330   1.780  1.00  0.00     0.014 A 
ATOM     33  C   UNL     1      -2.016   1.978   2.563  1.00  0.00     0.010 A 
ATOM     34  C   UNL     1       0.344   1.463   2.558  1.00  0.00     0.010 A 
ATOM     35  C   UNL     1      -0.711   2.286   2.975  1.00  0.00    -0.014 A 
BRANCH  35  36
ATOM     36  C   UNL     1      -0.439   3.418   3.898  1.00  0.00     0.031 A 
ATOM     37  C   UNL     1       0.334   4.621   3.434  1.00  0.00     0.074 A 
ATOM     38  C   UNL     1      -0.814   3.308   5.190  1.00  0.00     0.049 A 
ATOM     39  N   UNL     1       0.710   5.672   4.117  1.00  0.00    -0.248 NA
ATOM     40  C   UNL     1       0.762   4.637   2.026  1.00  0.00     0.031 C 
ATOM     41  C   UNL     1      -1.499   2.151   5.773  1.00  0.00     0.029 A 
ATOM     42  N   UNL     1      -0.654   4.165   6.250  1.00  0.00    -0.354 N 
ATOM     43  C   UNL     1       1.421   6.470   3.228  1.00  0.00     0.074 A 
ATOM     44  C   UNL     1       1.460   5.763   1.966  1.00  0.00     0.031 C 
ATOM     45  C   UNL     1      -1.701   2.371   7.082  1.00  0.00     0.029 A 
ATOM     46  C   UNL     1      -1.150   3.675   7.437  1.00  0.00     0.049 A 
ATOM     47  H   UNL     1      -0.225   5.047   6.170  1.00  0.00     0.167 HD
ATOM     48  C   UNL     1       1.971   7.689   3.444  1.00  0.00     0.037 A 
ATOM     49  C   UNL     1      -1.163   4.215   8.671  1.00  0.00     0.037 A 
ATOM     50  C   UNL     1       1.904   8.394   4.699  1.00  0.00     0.049 A 
ATOM     51  C   UNL     1      -0.601   5.595   8.867  1.00  0.00     0.074 A 
ATOM     52  C   UNL     1       2.377   9.660   5.002  1.00  0.00     0.029 A 
ATOM     53  N   UNL     1       1.323   7.898   5.857  1.00  0.00    -0.354 N 
ATOM     54  N   UNL     1       0.002   6.367   7.995  1.00  0.00    -0.248 NA
ATOM     55  C   UNL     1      -0.739   6.189  10.204  1.00  0.00     0.031 C 
ATOM     56  C   UNL     1       2.104   9.919   6.349  1.00  0.00     0.029 A 
ATOM     57  C   UNL     1       1.427   8.831   6.875  1.00  0.00     0.049 A 
ATOM     58  H   UNL     1       0.899   7.014   5.942  1.00  0.00     0.167 HD
ATOM     59  C   UNL     1       0.287   7.549   8.668  1.00  0.00     0.074 A 
ATOM     60  C   UNL     1      -0.215   7.393  10.018  1.00  0.00     0.031 C 
ATOM     61  C   UNL     1       0.908   8.663   8.209  1.00  0.00     0.037 A 
BRANCH  48  62
ATOM     62  C   UNL     1       2.667   8.369   2.297  1.00  0.00     0.058 A 
ATOM     63  C   UNL     1       4.059   8.552   2.307  1.00  0.00     0.135 A 
ATOM     64  C   UNL     1       1.941   8.930   1.234  1.00  0.00     0.135 A 
ATOM     65  F   UNL     1       4.803   8.030   3.295  1.00  0.00    -0.206 F 
ATOM     66  C   UNL     1       4.703   9.289   1.318  1.00  0.00     0.059 A 
ATOM     67  C   UNL     1       2.567   9.653   0.222  1.00  0.00     0.059 A 
ATOM     68  F   UNL     1       0.610   8.766   1.165  1.00  0.00    -0.206 F 
ATOM     69  C   UNL     1       3.947   9.844   0.284  1.00  0.00     0.060 A 
BRANCH  69  70
ATOM     70  S   UNL     1       4.794  10.806  -0.988  1.00  0.00     0.124 S 
ATOM     71  O   UNL     1       5.172  12.008  -0.254  1.00  0.00    -0.237 OA
ATOM     72  O   UNL     1       5.891   9.917  -1.364  1.00  0.00    -0.237 OA
ATOM     73  O   UNL     1       3.769  10.988  -2.012  1.00  0.00    -0.744 OA
ENDBRANCH  69  70
ENDBRANCH  48  62
BRANCH  49  74
ATOM     74  C   UNL     1      -1.777   3.467   9.799  1.00  0.00     0.058 A 
ATOM     75  C   UNL     1      -1.148   2.344  10.357  1.00  0.00     0.135 A 
ATOM     76  C   UNL     1      -3.023   3.846  10.321  1.00  0.00     0.135 A 
ATOM     77  F   UNL     1       0.039   1.933   9.885  1.00  0.00    -0.206 F 
ATOM     78  C   UNL     1      -1.739   1.614  11.383  1.00  0.00     0.059 A 
ATOM     79  C   UNL     1      -3.625   3.144  11.362  1.00  0.00     0.059 A 
ATOM     80  F   UNL     1      -3.658   4.918   9.824  1.00  0.00    -0.206 F 
ATOM     81  C   UNL     1      -2.981   2.019  11.876  1.00  0.00     0.060 A 
BRANCH  81  82
ATOM     82  S   UNL     1      -3.736   1.060  13.206  1.00  0.00     0.124 S 
ATOM     83  O   UNL     1      -4.165  -0.139  12.492  1.00  0.00    -0.237 OA
ATOM     84  O   UNL     1      -2.621   0.882  14.131  1.00  0.00    -0.237 OA
ATOM     85  O   UNL     1      -4.809   1.928  13.680  1.00  0.00    -0.744 OA
ENDBRANCH  81  82
ENDBRANCH  49  74
BRANCH  61  86
ATOM     86  C   UNL     1       1.047   9.817   9.159  1.00  0.00     0.058 A 
ATOM     87  C   UNL     1       0.263  10.969   8.992  1.00  0.00     0.135 A 
ATOM     88  C   UNL     1       1.989   9.805  10.198  1.00  0.00     0.135 A 
ATOM     89  F   UNL     1      -0.650  11.031   8.009  1.00  0.00    -0.206 F 
ATOM     90  C   UNL     1       0.411  12.074   9.822  1.00  0.00     0.059 A 
ATOM     91  C   UNL     1       2.139  10.891  11.055  1.00  0.00     0.059 A 
ATOM     92  F   UNL     1       2.755   8.722  10.403  1.00  0.00    -0.206 F 
ATOM     93  C   UNL     1       1.354  12.026  10.850  1.00  0.00     0.060 A 
BRANCH  93  94
ATOM     94  S   UNL     1       1.511  13.453  11.946  1.00  0.00     0.124 S 
ATOM     95  O   UNL     1       2.249  14.392  11.109  1.00  0.00    -0.237 OA
ATOM     96  O   UNL     1       0.117  13.797  12.211  1.00  0.00    -0.237 OA
ATOM     97  O   UNL     1       2.243  12.918  13.091  1.00  0.00    -0.744 OA
ENDBRANCH  93  94
ENDBRANCH  61  86
ENDBRANCH  35  36
ENDBRANCH  27  30
ENDBRANCH  25  26
ENDBRANCH  24  25
ENDBRANCH   1  24
TORSDOF 17
