REMARK SMILES O=C(/C=C/c1ccc(O)cc1)NC[C@@H]1CC[C@H](C(=O)NCCCCNC(=O)c2ccc(-c3c4nc(c(-c5c(F)cc(S(=O)(=O)[O-])cc5F)c5ccc([nH]5)c(-c5c(F)cc(S(=O)(=O)[O-])cc5F)c5nc(c(-c6c(F)cc(S(=O)(=O)[O-])cc6F)c6ccc3[nH]6)C=C5)C=C4)cc2)O1
REMARK SMILES IDX 21 1 20 2 18 3 19 4 17 6 14 7 15 8 94 9 16 10 13 11 12 12
REMARK SMILES IDX 1 13 2 14 3 16 4 17 5 18 6 19 11 20 7 21 10 22 8 23 9 24
REMARK SMILES IDX 22 26 23 27 24 28 25 29 26 30 27 32 28 33 29 34 93 35 30 36
REMARK SMILES IDX 92 37 31 38 32 39 33 40 86 41 34 42 91 43 85 44 87 45 35 46
REMARK SMILES IDX 90 47 84 48 83 49 36 51 70 52 49 53 69 54 50 55 53 56 68 57
REMARK SMILES IDX 88 58 51 59 52 60 67 62 89 63 54 64 37 65 38 66 47 67 39 68
REMARK SMILES IDX 40 69 46 70 48 71 41 72 42 73 43 74 44 75 45 76 71 77 72 78
REMARK SMILES IDX 81 79 73 80 74 81 80 82 82 83 75 84 76 85 77 86 78 87 79 88
REMARK SMILES IDX 55 89 56 90 65 91 57 92 58 93 64 94 66 95 59 96 60 97 61 98
REMARK SMILES IDX 62 99 63 100
REMARK H PARENT 20 5 12 15 9 25 25 31 87 50 53 61
REMARK Flexibility Score: inf
ROOT
ATOM      1  C   UNL     1      -0.214   3.161  -1.280  1.00  0.00     0.116 C 
ENDROOT
BRANCH   1   2
ATOM      2  N   UNL     1      -0.348   4.348  -2.097  1.00  0.00    -0.354 N 
ATOM      3  C   UNL     1       0.540   4.908  -2.968  1.00  0.00     0.249 C 
ATOM      4  O   UNL     1       0.195   5.941  -3.552  1.00  0.00    -0.272 OA
ATOM      5  H   UNL     1      -1.207   4.821  -2.012  1.00  0.00     0.163 HD
BRANCH   3   6
ATOM      6  C   UNL     1       1.957   4.324  -3.188  1.00  0.00     0.207 C 
ATOM      7  C   UNL     1       3.068   2.318  -2.721  1.00  0.00     0.138 C 
ATOM      8  C   UNL     1       3.268   3.216  -1.510  1.00  0.00     0.037 C 
ATOM      9  O   UNL     1       2.031   2.933  -3.507  1.00  0.00    -0.363 OA
ATOM     10  C   UNL     1       2.902   4.588  -2.025  1.00  0.00     0.045 C 
BRANCH   7  11
ATOM     11  C   UNL     1       2.681   0.853  -2.442  1.00  0.00     0.148 C 
BRANCH  11  12
ATOM     12  N   UNL     1       3.209   0.298  -1.210  1.00  0.00    -0.350 N 
ATOM     13  O   UNL     1       1.236   0.447  -0.037  1.00  0.00    -0.270 OA
ATOM     14  C   UNL     1       2.425   0.153  -0.091  1.00  0.00     0.244 C 
ATOM     15  H   UNL     1       4.153   0.019  -1.175  1.00  0.00     0.163 HD
BRANCH  14  16
ATOM     16  C   UNL     1       3.091  -0.426   1.103  1.00  0.00     0.072 C 
ATOM     17  C   UNL     1       4.406  -0.337   1.357  1.00  0.00     0.014 C 
BRANCH  17  18
ATOM     18  C   UNL     1       5.045  -0.846   2.579  1.00  0.00    -0.025 A 
ATOM     19  C   UNL     1       4.633  -2.025   3.216  1.00  0.00     0.012 A 
ATOM     20  C   UNL     1       6.146  -0.148   3.096  1.00  0.00     0.012 A 
ATOM     21  C   UNL     1       5.293  -2.484   4.361  1.00  0.00     0.047 A 
ATOM     22  C   UNL     1       6.806  -0.605   4.238  1.00  0.00     0.047 A 
ATOM     23  C   UNL     1       6.373  -1.767   4.863  1.00  0.00     0.115 A 
BRANCH  23  24
ATOM     24  O   UNL     1       7.044  -2.176   5.977  1.00  0.00    -0.508 OA
ATOM     25  H   UNL     1       6.778  -2.956   6.423  1.00  0.00     0.293 HD
ENDBRANCH  23  24
ENDBRANCH  17  18
ENDBRANCH  14  16
ENDBRANCH  11  12
ENDBRANCH   7  11
ENDBRANCH   3   6
ENDBRANCH   1   2
BRANCH   1  26
ATOM     26  C   UNL     1       0.027   3.509   0.188  1.00  0.00     0.023 C 
BRANCH  26  27
ATOM     27  C   UNL     1      -1.244   3.686   1.013  1.00  0.00     0.023 C 
BRANCH  27  28
ATOM     28  C   UNL     1      -2.187   2.485   1.029  1.00  0.00     0.116 C 
BRANCH  28  29
ATOM     29  N   UNL     1      -1.575   1.242   1.480  1.00  0.00    -0.352 N 
ATOM     30  C   UNL     1      -2.166   0.242   2.223  1.00  0.00     0.251 C 
ATOM     31  H   UNL     1      -0.634   1.101   1.226  1.00  0.00     0.163 HD
ATOM     32  O   UNL     1      -1.514  -0.710   2.642  1.00  0.00    -0.269 OA
BRANCH  30  33
ATOM     33  C   UNL     1      -3.610   0.348   2.538  1.00  0.00     0.039 A 
ATOM     34  C   UNL     1      -4.033   0.236   3.864  1.00  0.00     0.014 A 
ATOM     35  C   UNL     1      -4.536   0.616   1.524  1.00  0.00     0.014 A 
ATOM     36  C   UNL     1      -5.374   0.475   4.184  1.00  0.00     0.010 A 
ATOM     37  C   UNL     1      -5.854   0.921   1.853  1.00  0.00     0.010 A 
ATOM     38  C   UNL     1      -6.287   0.862   3.187  1.00  0.00    -0.014 A 
BRANCH  38  39
ATOM     39  C   UNL     1      -7.689   1.229   3.518  1.00  0.00     0.031 A 
ATOM     40  C   UNL     1      -8.834   0.421   2.966  1.00  0.00     0.074 A 
ATOM     41  C   UNL     1      -7.937   2.346   4.234  1.00  0.00     0.049 A 
ATOM     42  N   UNL     1     -10.120   0.638   3.064  1.00  0.00    -0.248 NA
ATOM     43  C   UNL     1      -8.488  -0.770   2.172  1.00  0.00     0.031 C 
ATOM     44  C   UNL     1      -6.919   3.259   4.761  1.00  0.00     0.029 A 
ATOM     45  N   UNL     1      -9.123   2.917   4.623  1.00  0.00    -0.354 N 
ATOM     46  C   UNL     1     -10.733  -0.365   2.322  1.00  0.00     0.074 A 
ATOM     47  C   UNL     1      -9.679  -1.174   1.753  1.00  0.00     0.031 C 
ATOM     48  C   UNL     1      -7.524   4.268   5.409  1.00  0.00     0.029 A 
ATOM     49  C   UNL     1      -8.970   4.093   5.321  1.00  0.00     0.049 A 
ATOM     50  H   UNL     1     -10.002   2.523   4.421  1.00  0.00     0.167 HD
ATOM     51  C   UNL     1     -12.055  -0.600   2.147  1.00  0.00     0.037 A 
ATOM     52  C   UNL     1      -9.890   4.940   5.825  1.00  0.00     0.037 A 
ATOM     53  C   UNL     1     -13.103   0.170   2.766  1.00  0.00     0.049 A 
ATOM     54  C   UNL     1     -11.352   4.621   5.664  1.00  0.00     0.074 A 
ATOM     55  C   UNL     1     -14.467  -0.062   2.740  1.00  0.00     0.029 A 
ATOM     56  N   UNL     1     -12.905   1.314   3.522  1.00  0.00    -0.354 N 
ATOM     57  N   UNL     1     -11.910   3.609   5.043  1.00  0.00    -0.248 NA
ATOM     58  C   UNL     1     -12.310   5.551   6.279  1.00  0.00     0.031 C 
ATOM     59  C   UNL     1     -15.098   0.963   3.452  1.00  0.00     0.029 A 
ATOM     60  C   UNL     1     -14.124   1.811   3.952  1.00  0.00     0.049 A 
ATOM     61  H   UNL     1     -12.029   1.714   3.723  1.00  0.00     0.167 HD
ATOM     62  C   UNL     1     -13.281   3.768   5.216  1.00  0.00     0.074 A 
ATOM     63  C   UNL     1     -13.468   4.964   6.009  1.00  0.00     0.031 C 
ATOM     64  C   UNL     1     -14.293   2.992   4.758  1.00  0.00     0.037 A 
BRANCH  51  65
ATOM     65  C   UNL     1     -12.458  -1.748   1.266  1.00  0.00     0.058 A 
ATOM     66  C   UNL     1     -12.330  -3.080   1.689  1.00  0.00     0.135 A 
ATOM     67  C   UNL     1     -13.054  -1.510   0.017  1.00  0.00     0.135 A 
ATOM     68  F   UNL     1     -11.753  -3.362   2.868  1.00  0.00    -0.206 F 
ATOM     69  C   UNL     1     -12.768  -4.137   0.899  1.00  0.00     0.059 A 
ATOM     70  C   UNL     1     -13.521  -2.551  -0.780  1.00  0.00     0.059 A 
ATOM     71  F   UNL     1     -13.198  -0.254  -0.435  1.00  0.00    -0.206 F 
ATOM     72  C   UNL     1     -13.367  -3.863  -0.332  1.00  0.00     0.060 A 
BRANCH  72  73
ATOM     73  S   UNL     1     -13.972  -5.245  -1.324  1.00  0.00     0.124 S 
ATOM     74  O   UNL     1     -12.724  -5.798  -1.843  1.00  0.00    -0.237 OA
ATOM     75  O   UNL     1     -14.663  -6.063  -0.334  1.00  0.00    -0.237 OA
ATOM     76  O   UNL     1     -14.833  -4.603  -2.312  1.00  0.00    -0.744 OA
ENDBRANCH  72  73
ENDBRANCH  51  65
BRANCH  52  77
ATOM     77  C   UNL     1      -9.465   6.173   6.541  1.00  0.00     0.058 A 
ATOM     78  C   UNL     1      -9.630   6.294   7.929  1.00  0.00     0.135 A 
ATOM     79  C   UNL     1      -8.913   7.262   5.850  1.00  0.00     0.135 A 
ATOM     80  F   UNL     1     -10.159   5.281   8.632  1.00  0.00    -0.206 F 
ATOM     81  C   UNL     1      -9.295   7.464   8.603  1.00  0.00     0.059 A 
ATOM     82  C   UNL     1      -8.548   8.434   6.506  1.00  0.00     0.059 A 
ATOM     83  F   UNL     1      -8.717   7.188   4.524  1.00  0.00    -0.206 F 
ATOM     84  C   UNL     1      -8.760   8.532   7.881  1.00  0.00     0.060 A 
BRANCH  84  85
ATOM     85  S   UNL     1      -8.315  10.044   8.762  1.00  0.00     0.124 S 
ATOM     86  O   UNL     1      -9.620  10.668   8.950  1.00  0.00    -0.237 OA
ATOM     87  O   UNL     1      -7.677   9.524   9.968  1.00  0.00    -0.237 OA
ATOM     88  O   UNL     1      -7.417  10.720   7.831  1.00  0.00    -0.744 OA
ENDBRANCH  84  85
ENDBRANCH  52  77
BRANCH  64  89
ATOM     89  C   UNL     1     -15.693   3.387   5.133  1.00  0.00     0.058 A 
ATOM     90  C   UNL     1     -16.339   4.474   4.525  1.00  0.00     0.135 A 
ATOM     91  C   UNL     1     -16.415   2.634   6.074  1.00  0.00     0.135 A 
ATOM     92  F   UNL     1     -15.689   5.228   3.625  1.00  0.00    -0.206 F 
ATOM     93  C   UNL     1     -17.648   4.814   4.851  1.00  0.00     0.059 A 
ATOM     94  C   UNL     1     -17.732   2.942   6.397  1.00  0.00     0.059 A 
ATOM     95  F   UNL     1     -15.845   1.578   6.676  1.00  0.00    -0.206 F 
ATOM     96  C   UNL     1     -18.337   4.041   5.788  1.00  0.00     0.060 A 
BRANCH  96  97
ATOM     97  S   UNL     1     -20.047   4.467   6.177  1.00  0.00     0.124 S 
ATOM     98  O   UNL     1     -19.870   5.616   7.059  1.00  0.00    -0.237 OA
ATOM     99  O   UNL     1     -20.607   4.759   4.861  1.00  0.00    -0.237 OA
ATOM    100  O   UNL     1     -20.561   3.258   6.815  1.00  0.00    -0.744 OA
ENDBRANCH  96  97
ENDBRANCH  64  89
ENDBRANCH  38  39
ENDBRANCH  30  33
ENDBRANCH  28  29
ENDBRANCH  27  28
ENDBRANCH  26  27
ENDBRANCH   1  26
TORSDOF 19
