REMARK SMILES O=C(NCCCCNC(=O)c1ccc(C[NH2+][C@@H]2CCCC[C@H]2O)nc1)c1ccc(-c2c3nc(c(-c4c(F)cc(S(=O)(=O)[O-])cc4F)c4ccc([nH]4)c(-c4c(F)cc(S(=O)(=O)[O-])cc4F)c4nc(c(-c5c(F)cc(S(=O)(=O)[O-])cc5F)c5ccc2[nH]5)C=C4)C=C3)cc1
REMARK SMILES IDX 6 1 5 2 4 3 3 4 1 5 2 6 26 8 27 9 91 10 28 11 90 12 29 13
REMARK SMILES IDX 30 14 31 15 84 16 32 17 89 18 83 19 85 20 33 21 88 22 82 23
REMARK SMILES IDX 81 24 34 26 68 27 47 28 67 29 48 30 51 31 66 32 86 33 49 34
REMARK SMILES IDX 50 35 65 37 87 38 52 39 35 40 36 41 45 42 37 43 38 44 44 45
REMARK SMILES IDX 46 46 39 47 40 48 41 49 42 50 43 51 69 52 70 53 79 54 71 55
REMARK SMILES IDX 72 56 78 57 80 58 73 59 74 60 75 61 76 62 77 63 53 64 54 65
REMARK SMILES IDX 63 66 55 67 56 68 62 69 64 70 57 71 58 72 59 73 60 74 61 75
REMARK SMILES IDX 7 76 8 77 9 78 10 80 11 81 12 82 25 83 13 84 24 85 14 86
REMARK SMILES IDX 15 87 16 88 17 91 18 92 22 93 19 94 21 95 20 96 23 97
REMARK H PARENT 3 7 85 25 51 36 8 79 16 89 16 90 23 98
REMARK Flexibility Score: inf
ROOT
ATOM      1  C   UNL     1       3.937 -18.174   9.533  1.00  0.00     0.023 C 
ENDROOT
BRANCH   1   2
ATOM      2  C   UNL     1       3.580 -18.649  10.939  1.00  0.00     0.023 C 
BRANCH   2   3
ATOM      3  C   UNL     1       2.217 -19.315  11.071  1.00  0.00     0.116 C 
BRANCH   3   4
ATOM      4  N   UNL     1       2.111 -20.549  10.309  1.00  0.00    -0.352 N 
ATOM      5  O   UNL     1       1.858 -22.768   9.988  1.00  0.00    -0.269 OA
ATOM      6  C   UNL     1       1.762 -21.807  10.745  1.00  0.00     0.251 C 
ATOM      7  H   UNL     1       2.318 -20.474   9.349  1.00  0.00     0.163 HD
BRANCH   6   8
ATOM      8  C   UNL     1       1.300 -21.993  12.138  1.00  0.00     0.039 A 
ATOM      9  C   UNL     1       0.354 -21.128  12.692  1.00  0.00     0.014 A 
ATOM     10  C   UNL     1       1.841 -23.028  12.905  1.00  0.00     0.014 A 
ATOM     11  C   UNL     1       0.066 -21.200  14.050  1.00  0.00     0.010 A 
ATOM     12  C   UNL     1       1.481 -23.154  14.250  1.00  0.00     0.010 A 
ATOM     13  C   UNL     1       0.616 -22.221  14.843  1.00  0.00    -0.014 A 
BRANCH  13  14
ATOM     14  C   UNL     1       0.225 -22.323  16.273  1.00  0.00     0.031 A 
ATOM     15  C   UNL     1       1.234 -22.139  17.374  1.00  0.00     0.074 A 
ATOM     16  C   UNL     1      -1.067 -22.562  16.570  1.00  0.00     0.049 A 
ATOM     17  N   UNL     1       1.056 -22.197  18.669  1.00  0.00    -0.248 NA
ATOM     18  C   UNL     1       2.622 -21.861  16.973  1.00  0.00     0.031 C 
ATOM     19  C   UNL     1      -2.132 -22.767  15.585  1.00  0.00     0.029 A 
ATOM     20  N   UNL     1      -1.710 -22.660  17.777  1.00  0.00    -0.354 N 
ATOM     21  C   UNL     1       2.306 -21.984  19.239  1.00  0.00     0.074 A 
ATOM     22  C   UNL     1       3.241 -21.817  18.146  1.00  0.00     0.031 C 
ATOM     23  C   UNL     1      -3.300 -22.926  16.224  1.00  0.00     0.029 A 
ATOM     24  C   UNL     1      -3.058 -22.899  17.662  1.00  0.00     0.049 A 
ATOM     25  H   UNL     1      -1.250 -22.569  18.642  1.00  0.00     0.167 HD
ATOM     26  C   UNL     1       2.639 -21.926  20.552  1.00  0.00     0.037 A 
ATOM     27  C   UNL     1      -3.997 -23.098  18.605  1.00  0.00     0.037 A 
ATOM     28  C   UNL     1       1.696 -22.079  21.632  1.00  0.00     0.049 A 
ATOM     29  C   UNL     1      -3.598 -23.049  20.051  1.00  0.00     0.074 A 
ATOM     30  C   UNL     1       1.929 -22.004  22.995  1.00  0.00     0.029 A 
ATOM     31  N   UNL     1       0.343 -22.342  21.475  1.00  0.00    -0.354 N 
ATOM     32  N   UNL     1      -2.416 -22.821  20.570  1.00  0.00    -0.248 NA
ATOM     33  C   UNL     1      -4.657 -23.287  21.039  1.00  0.00     0.031 C 
ATOM     34  C   UNL     1       0.727 -22.264  23.661  1.00  0.00     0.029 A 
ATOM     35  C   UNL     1      -0.267 -22.453  22.715  1.00  0.00     0.049 A 
ATOM     36  H   UNL     1      -0.117 -22.435  20.610  1.00  0.00     0.167 HD
ATOM     37  C   UNL     1      -2.590 -22.873  21.947  1.00  0.00     0.074 A 
ATOM     38  C   UNL     1      -3.996 -23.137  22.179  1.00  0.00     0.031 C 
ATOM     39  C   UNL     1      -1.669 -22.718  22.929  1.00  0.00     0.037 A 
BRANCH  26  40
ATOM     40  C   UNL     1       4.087 -21.706  20.900  1.00  0.00     0.058 A 
ATOM     41  C   UNL     1       4.714 -20.464  20.713  1.00  0.00     0.135 A 
ATOM     42  C   UNL     1       4.847 -22.740  21.472  1.00  0.00     0.135 A 
ATOM     43  F   UNL     1       4.040 -19.444  20.158  1.00  0.00    -0.206 F 
ATOM     44  C   UNL     1       6.048 -20.262  21.055  1.00  0.00     0.059 A 
ATOM     45  C   UNL     1       6.175 -22.554  21.845  1.00  0.00     0.059 A 
ATOM     46  F   UNL     1       4.298 -23.948  21.677  1.00  0.00    -0.206 F 
ATOM     47  C   UNL     1       6.772 -21.315  21.619  1.00  0.00     0.060 A 
BRANCH  47  48
ATOM     48  S   UNL     1       8.502 -21.039  22.054  1.00  0.00     0.124 S 
ATOM     49  O   UNL     1       9.133 -21.019  20.738  1.00  0.00    -0.237 OA
ATOM     50  O   UNL     1       8.450 -19.758  22.751  1.00  0.00    -0.237 OA
ATOM     51  O   UNL     1       8.831 -22.190  22.890  1.00  0.00    -0.744 OA
ENDBRANCH  47  48
ENDBRANCH  26  40
BRANCH  27  52
ATOM     52  C   UNL     1      -5.400 -23.368  18.198  1.00  0.00     0.058 A 
ATOM     53  C   UNL     1      -6.409 -22.417  18.402  1.00  0.00     0.135 A 
ATOM     54  C   UNL     1      -5.750 -24.568  17.557  1.00  0.00     0.135 A 
ATOM     55  F   UNL     1      -6.124 -21.257  19.013  1.00  0.00    -0.206 F 
ATOM     56  C   UNL     1      -7.718 -22.647  17.993  1.00  0.00     0.059 A 
ATOM     57  C   UNL     1      -7.045 -24.810  17.115  1.00  0.00     0.059 A 
ATOM     58  F   UNL     1      -4.814 -25.501  17.321  1.00  0.00    -0.206 F 
ATOM     59  C   UNL     1      -8.025 -23.846  17.346  1.00  0.00     0.060 A 
BRANCH  59  60
ATOM     60  S   UNL     1      -9.713 -24.110  16.763  1.00  0.00     0.124 S 
ATOM     61  O   UNL     1     -10.412 -24.397  18.010  1.00  0.00    -0.237 OA
ATOM     62  O   UNL     1     -10.026 -22.830  16.134  1.00  0.00    -0.237 OA
ATOM     63  O   UNL     1      -9.577 -25.234  15.841  1.00  0.00    -0.744 OA
ENDBRANCH  59  60
ENDBRANCH  27  52
BRANCH  39  64
ATOM     64  C   UNL     1      -2.159 -22.805  24.347  1.00  0.00     0.058 A 
ATOM     65  C   UNL     1      -2.519 -24.031  24.928  1.00  0.00     0.135 A 
ATOM     66  C   UNL     1      -2.233 -21.653  25.145  1.00  0.00     0.135 A 
ATOM     67  F   UNL     1      -2.474 -25.161  24.203  1.00  0.00    -0.206 F 
ATOM     68  C   UNL     1      -2.959 -24.109  26.245  1.00  0.00     0.059 A 
ATOM     69  C   UNL     1      -2.646 -21.711  26.473  1.00  0.00     0.059 A 
ATOM     70  F   UNL     1      -1.893 -20.457  24.640  1.00  0.00    -0.206 F 
ATOM     71  C   UNL     1      -3.019 -22.942  27.010  1.00  0.00     0.060 A 
BRANCH  71  72
ATOM     72  S   UNL     1      -3.564 -23.059  28.727  1.00  0.00     0.124 S 
ATOM     73  O   UNL     1      -5.003 -23.241  28.567  1.00  0.00    -0.237 OA
ATOM     74  O   UNL     1      -2.827 -24.223  29.211  1.00  0.00    -0.237 OA
ATOM     75  O   UNL     1      -3.152 -21.781  29.301  1.00  0.00    -0.744 OA
ENDBRANCH  71  72
ENDBRANCH  39  64
ENDBRANCH  13  14
ENDBRANCH   6   8
ENDBRANCH   3   4
ENDBRANCH   2   3
ENDBRANCH   1   2
BRANCH   1  76
ATOM     76  C   UNL     1       2.894 -17.284   8.862  1.00  0.00     0.116 C 
BRANCH  76  77
ATOM     77  N   UNL     1       2.608 -16.075   9.622  1.00  0.00    -0.352 N 
ATOM     78  C   UNL     1       2.678 -14.761   9.219  1.00  0.00     0.252 C 
ATOM     79  H   UNL     1       2.324 -16.218  10.554  1.00  0.00     0.163 HD
ATOM     80  O   UNL     1       2.532 -13.844  10.009  1.00  0.00    -0.269 OA
BRANCH  78  81
ATOM     81  C   UNL     1       2.958 -14.471   7.808  1.00  0.00     0.058 A 
ATOM     82  C   UNL     1       2.155 -14.976   6.789  1.00  0.00     0.017 A 
ATOM     83  C   UNL     1       4.082 -13.734   7.478  1.00  0.00     0.125 A 
ATOM     84  C   UNL     1       2.572 -14.817   5.474  1.00  0.00     0.030 A 
ATOM     85  N   UNL     1       4.513 -13.571   6.203  1.00  0.00    -0.255 NA
ATOM     86  C   UNL     1       3.774 -14.148   5.221  1.00  0.00     0.094 A 
BRANCH  86  87
ATOM     87  C   UNL     1       4.351 -14.187   3.817  1.00  0.00     0.318 C 
BRANCH  87  88
ATOM     88  N   UNL     1       4.413 -12.897   3.145  1.00  0.00    -0.337 N 
ATOM     89  H   UNL     1       5.140 -12.347   3.601  1.00  0.00     0.346 HD
ATOM     90  H   UNL     1       3.471 -12.512   3.223  1.00  0.00     0.346 HD
BRANCH  88  91
ATOM     91  C   UNL     1       4.704 -12.910   1.702  1.00  0.00     0.211 C 
ATOM     92  C   UNL     1       3.417 -12.835   0.858  1.00  0.00     0.068 C 
ATOM     93  C   UNL     1       5.643 -14.022   1.145  1.00  0.00     0.172 C 
ATOM     94  C   UNL     1       2.701 -14.174   0.733  1.00  0.00     0.006 C 
ATOM     95  C   UNL     1       4.960 -15.374   0.900  1.00  0.00     0.038 C 
ATOM     96  C   UNL     1       3.619 -15.258   0.173  1.00  0.00     0.003 C 
BRANCH  93  97
ATOM     97  O   UNL     1       6.182 -13.594  -0.116  1.00  0.00    -0.387 OA
ATOM     98  H   UNL     1       5.460 -13.481  -0.754  1.00  0.00     0.211 HD
ENDBRANCH  93  97
ENDBRANCH  88  91
ENDBRANCH  87  88
ENDBRANCH  86  87
ENDBRANCH  78  81
ENDBRANCH  76  77
ENDBRANCH   1  76
TORSDOF 18
