REMARK SMILES Cc1nc(CCC(=O)NCCCCNC(=O)c2ccc(-c3c4nc(c(-c5c(F)cc(S(=O)(=O)[O-])cc5F)c5ccc([nH]5)c(-c5c(F)cc(S(=O)(=O)[O-])cc5F)c5nc(c(-c6c(F)cc(S(=O)(=O)[O-])cc6F)c6ccc3[nH]6)C=C5)C=C4)cc2)cc([C@@H]2CCC[N@@H+]2C(C)C)n1
REMARK SMILES IDX 11 1 10 2 9 3 7 4 8 5 6 7 5 8 4 9 1 10 2 11 3 12 93 13 84 14
REMARK SMILES IDX 83 15 85 16 86 17 89 18 87 19 88 20 90 22 91 23 92 24 12 25
REMARK SMILES IDX 13 26 14 27 15 28 16 30 17 31 18 32 82 33 19 34 81 35 20 36
REMARK SMILES IDX 21 37 22 38 75 39 23 40 80 41 74 42 76 43 24 44 79 45 73 46
REMARK SMILES IDX 72 47 25 49 59 50 38 51 58 52 39 53 42 54 57 55 77 56 40 57
REMARK SMILES IDX 41 58 56 60 78 61 43 62 26 63 27 64 36 65 28 66 29 67 35 68
REMARK SMILES IDX 37 69 30 70 31 71 32 72 33 73 34 74 60 75 61 76 70 77 62 78
REMARK SMILES IDX 63 79 69 80 71 81 64 82 65 83 66 84 67 85 68 86 44 87 45 88
REMARK SMILES IDX 54 89 46 90 47 91 53 92 55 93 48 94 49 95 50 96 51 97 52 98
REMARK H PARENT 9 6 89 21 14 29 76 48 42 59
REMARK Flexibility Score: inf
ROOT
ATOM      1  C   UNL     1      -2.399  -2.200   0.377  1.00  0.00     0.023 C 
ENDROOT
BRANCH   1   2
ATOM      2  C   UNL     1      -1.404  -2.273   1.534  1.00  0.00     0.116 C 
BRANCH   2   3
ATOM      3  N   UNL     1      -0.662  -3.523   1.433  1.00  0.00    -0.356 N 
ATOM      4  C   UNL     1       0.643  -3.781   1.173  1.00  0.00     0.220 C 
ATOM      5  O   UNL     1       0.971  -4.946   0.933  1.00  0.00    -0.275 OA
ATOM      6  H   UNL     1      -1.209  -4.328   1.580  1.00  0.00     0.163 HD
BRANCH   4   7
ATOM      7  C   UNL     1       1.685  -2.691   1.229  1.00  0.00     0.106 C 
BRANCH   7   8
ATOM      8  C   UNL     1       2.082  -2.194  -0.159  1.00  0.00     0.066 C 
BRANCH   8   9
ATOM      9  C   UNL     1       1.528  -0.817  -0.411  1.00  0.00     0.045 A 
ATOM     10  C   UNL     1      -1.570   0.619  -1.745  1.00  0.00     0.089 C 
ATOM     11  C   UNL     1      -0.276   0.443  -1.020  1.00  0.00     0.126 A 
ATOM     12  N   UNL     1       0.288  -0.766  -0.932  1.00  0.00    -0.238 NA
ATOM     13  N   UNL     1       0.288   1.554  -0.552  1.00  0.00    -0.232 NA
ATOM     14  C   UNL     1       1.587   1.530  -0.217  1.00  0.00     0.102 A 
ATOM     15  C   UNL     1       2.246   0.324  -0.080  1.00  0.00     0.054 A 
BRANCH  14  16
ATOM     16  C   UNL     1       2.292   2.870  -0.054  1.00  0.00     0.234 C 
ATOM     17  C   UNL     1       2.131   3.498   1.325  1.00  0.00     0.078 C 
ATOM     18  N   UNL     1       2.014   3.969  -1.037  1.00  0.00    -0.325 N 
ATOM     19  C   UNL     1       2.461   4.968   1.118  1.00  0.00     0.068 C 
ATOM     20  C   UNL     1       2.507   5.189  -0.389  1.00  0.00     0.263 C 
ATOM     21  H   UNL     1       2.496   3.750  -1.909  1.00  0.00     0.348 HD
BRANCH  18  22
ATOM     22  C   UNL     1       0.637   4.098  -1.567  1.00  0.00     0.178 C 
ATOM     23  C   UNL     1      -0.457   4.500  -0.568  1.00  0.00     0.075 C 
ATOM     24  C   UNL     1       0.584   5.035  -2.783  1.00  0.00     0.075 C 
ENDBRANCH  18  22
ENDBRANCH  14  16
ENDBRANCH   8   9
ENDBRANCH   7   8
ENDBRANCH   4   7
ENDBRANCH   2   3
ENDBRANCH   1   2
BRANCH   1  25
ATOM     25  C   UNL     1      -3.638  -1.316   0.521  1.00  0.00     0.023 C 
BRANCH  25  26
ATOM     26  C   UNL     1      -3.752  -0.356   1.695  1.00  0.00     0.116 C 
BRANCH  26  27
ATOM     27  N   UNL     1      -3.081   0.929   1.546  1.00  0.00    -0.352 N 
ATOM     28  C   UNL     1      -3.610   2.212   1.534  1.00  0.00     0.251 C 
ATOM     29  H   UNL     1      -2.103   0.880   1.437  1.00  0.00     0.163 HD
ATOM     30  O   UNL     1      -2.887   3.180   1.401  1.00  0.00    -0.269 OA
BRANCH  28  31
ATOM     31  C   UNL     1      -5.081   2.405   1.622  1.00  0.00     0.039 A 
ATOM     32  C   UNL     1      -5.717   3.240   0.698  1.00  0.00     0.014 A 
ATOM     33  C   UNL     1      -5.837   1.707   2.559  1.00  0.00     0.014 A 
ATOM     34  C   UNL     1      -7.115   3.255   0.624  1.00  0.00     0.010 A 
ATOM     35  C   UNL     1      -7.213   1.617   2.393  1.00  0.00     0.010 A 
ATOM     36  C   UNL     1      -7.873   2.380   1.417  1.00  0.00    -0.014 A 
BRANCH  36  37
ATOM     37  C   UNL     1      -9.347   2.216   1.264  1.00  0.00     0.031 A 
ATOM     38  C   UNL     1     -10.238   2.366   2.472  1.00  0.00     0.074 A 
ATOM     39  C   UNL     1      -9.872   1.794   0.094  1.00  0.00     0.049 A 
ATOM     40  N   UNL     1     -11.489   2.022   2.630  1.00  0.00    -0.248 NA
ATOM     41  C   UNL     1      -9.611   2.918   3.685  1.00  0.00     0.031 C 
ATOM     42  C   UNL     1      -9.121   1.550  -1.141  1.00  0.00     0.029 A 
ATOM     43  N   UNL     1     -11.164   1.471  -0.242  1.00  0.00    -0.354 N 
ATOM     44  C   UNL     1     -11.776   2.252   3.972  1.00  0.00     0.074 A 
ATOM     45  C   UNL     1     -10.555   2.717   4.591  1.00  0.00     0.031 C 
ATOM     46  C   UNL     1      -9.967   1.146  -2.102  1.00  0.00     0.029 A 
ATOM     47  C   UNL     1     -11.311   1.048  -1.544  1.00  0.00     0.049 A 
ATOM     48  H   UNL     1     -11.916   1.535   0.390  1.00  0.00     0.167 HD
ATOM     49  C   UNL     1     -12.955   2.112   4.625  1.00  0.00     0.037 A 
ATOM     50  C   UNL     1     -12.402   0.619  -2.209  1.00  0.00     0.037 A 
ATOM     51  C   UNL     1     -14.185   1.734   3.982  1.00  0.00     0.049 A 
ATOM     52  C   UNL     1     -13.718   0.543  -1.485  1.00  0.00     0.074 A 
ATOM     53  C   UNL     1     -15.454   1.656   4.527  1.00  0.00     0.029 A 
ATOM     54  N   UNL     1     -14.302   1.391   2.643  1.00  0.00    -0.354 N 
ATOM     55  N   UNL     1     -13.981   0.800  -0.226  1.00  0.00    -0.248 NA
ATOM     56  C   UNL     1     -14.886   0.120  -2.270  1.00  0.00     0.031 C 
ATOM     57  C   UNL     1     -16.336   1.245   3.522  1.00  0.00     0.029 A 
ATOM     58  C   UNL     1     -15.622   1.099   2.343  1.00  0.00     0.049 A 
ATOM     59  H   UNL     1     -13.557   1.360   2.000  1.00  0.00     0.167 HD
ATOM     60  C   UNL     1     -15.347   0.596  -0.073  1.00  0.00     0.074 A 
ATOM     61  C   UNL     1     -15.858   0.202  -1.371  1.00  0.00     0.031 C 
ATOM     62  C   UNL     1     -16.111   0.723   1.040  1.00  0.00     0.037 A 
BRANCH  49  63
ATOM     63  C   UNL     1     -12.964   2.385   6.105  1.00  0.00     0.058 A 
ATOM     64  C   UNL     1     -12.778   3.678   6.621  1.00  0.00     0.135 A 
ATOM     65  C   UNL     1     -13.153   1.338   7.022  1.00  0.00     0.135 A 
ATOM     66  F   UNL     1     -12.578   4.715   5.791  1.00  0.00    -0.206 F 
ATOM     67  C   UNL     1     -12.724   3.915   7.990  1.00  0.00     0.059 A 
ATOM     68  C   UNL     1     -13.137   1.558   8.397  1.00  0.00     0.059 A 
ATOM     69  F   UNL     1     -13.341   0.082   6.586  1.00  0.00    -0.206 F 
ATOM     70  C   UNL     1     -12.897   2.847   8.871  1.00  0.00     0.060 A 
BRANCH  70  71
ATOM     71  S   UNL     1     -12.800   3.165  10.645  1.00  0.00     0.124 S 
ATOM     72  O   UNL     1     -11.358   3.290  10.837  1.00  0.00    -0.237 OA
ATOM     73  O   UNL     1     -13.566   4.398  10.787  1.00  0.00    -0.237 OA
ATOM     74  O   UNL     1     -13.412   1.979  11.236  1.00  0.00    -0.744 OA
ENDBRANCH  70  71
ENDBRANCH  49  63
BRANCH  50  75
ATOM     75  C   UNL     1     -12.302   0.268  -3.652  1.00  0.00     0.058 A 
ATOM     76  C   UNL     1     -12.838   1.121  -4.629  1.00  0.00     0.135 A 
ATOM     77  C   UNL     1     -11.650  -0.896  -4.087  1.00  0.00     0.135 A 
ATOM     78  F   UNL     1     -13.477   2.241  -4.261  1.00  0.00    -0.206 F 
ATOM     79  C   UNL     1     -12.739   0.830  -5.986  1.00  0.00     0.059 A 
ATOM     80  C   UNL     1     -11.519  -1.197  -5.440  1.00  0.00     0.059 A 
ATOM     81  F   UNL     1     -11.107  -1.736  -3.193  1.00  0.00    -0.206 F 
ATOM     82  C   UNL     1     -12.072  -0.330  -6.382  1.00  0.00     0.060 A 
BRANCH  82  83
ATOM     83  S   UNL     1     -11.890  -0.660  -8.149  1.00  0.00     0.124 S 
ATOM     84  O   UNL     1     -13.239  -1.079  -8.511  1.00  0.00    -0.237 OA
ATOM     85  O   UNL     1     -11.466   0.638  -8.662  1.00  0.00    -0.237 OA
ATOM     86  O   UNL     1     -10.871  -1.705  -8.191  1.00  0.00    -0.744 OA
ENDBRANCH  82  83
ENDBRANCH  50  75
BRANCH  62  87
ATOM     87  C   UNL     1     -17.585   0.473   0.898  1.00  0.00     0.058 A 
ATOM     88  C   UNL     1     -18.103  -0.825   0.780  1.00  0.00     0.135 A 
ATOM     89  C   UNL     1     -18.492   1.544   0.943  1.00  0.00     0.135 A 
ATOM     90  F   UNL     1     -17.276  -1.881   0.727  1.00  0.00    -0.206 F 
ATOM     91  C   UNL     1     -19.473  -1.052   0.695  1.00  0.00     0.059 A 
ATOM     92  C   UNL     1     -19.866   1.338   0.881  1.00  0.00     0.059 A 
ATOM     93  F   UNL     1     -18.045   2.804   1.064  1.00  0.00    -0.206 F 
ATOM     94  C   UNL     1     -20.346   0.036   0.748  1.00  0.00     0.060 A 
BRANCH  94  95
ATOM     95  S   UNL     1     -22.123  -0.274   0.678  1.00  0.00     0.124 S 
ATOM     96  O   UNL     1     -22.316  -0.559  -0.740  1.00  0.00    -0.237 OA
ATOM     97  O   UNL     1     -22.279  -1.411   1.580  1.00  0.00    -0.237 OA
ATOM     98  O   UNL     1     -22.704   0.979   1.153  1.00  0.00    -0.744 OA
ENDBRANCH  94  95
ENDBRANCH  62  87
ENDBRANCH  36  37
ENDBRANCH  28  31
ENDBRANCH  26  27
ENDBRANCH  25  26
ENDBRANCH   1  25
TORSDOF 18
