REMARK SMILES O=C(NCCCCNC(=O)[C@@H]1C[C@@H]1C(=O)N1CCN(c2ncc(C(F)(F)F)cc2Cl)CC1)c1ccc(-c2c3nc(c(-c4c(F)cc(S(=O)(=O)[O-])cc4F)c4ccc([nH]4)c(-c4c(F)cc(S(=O)(=O)[O-])cc4F)c4nc(c(-c5c(F)cc(S(=O)(=O)[O-])cc5F)c5ccc2[nH]5)C=C4)C=C3)cc1
REMARK SMILES IDX 5 1 4 2 3 3 1 4 2 5 33 7 34 8 98 9 35 10 97 11 36 12 37 13
REMARK SMILES IDX 38 14 91 15 39 16 96 17 90 18 92 19 40 20 95 21 89 22 88 23
REMARK SMILES IDX 41 25 75 26 54 27 74 28 55 29 58 30 73 31 93 32 56 33 57 34
REMARK SMILES IDX 72 36 94 37 59 38 42 39 43 40 52 41 44 42 45 43 51 44 53 45
REMARK SMILES IDX 46 46 47 47 48 48 49 49 50 50 76 51 77 52 86 53 78 54 79 55
REMARK SMILES IDX 85 56 87 57 80 58 81 59 82 60 83 61 84 62 60 63 61 64 70 65
REMARK SMILES IDX 62 66 63 67 69 68 71 69 64 70 65 71 66 72 67 73 68 74 6 75
REMARK SMILES IDX 7 76 8 77 9 78 10 80 11 81 12 82 13 83 14 84 15 85 16 86
REMARK SMILES IDX 17 87 32 88 18 89 31 90 19 91 20 92 21 93 29 94 22 95 28 96
REMARK SMILES IDX 30 97 23 98 24 99 25 100 26 101 27 102
REMARK H PARENT 3 6 92 24 58 35 8 79
REMARK Flexibility Score: inf
ROOT
ATOM      1  C   UNL     1       4.925   2.298  -1.326  1.00  0.00     0.023 C 
ENDROOT
BRANCH   1   2
ATOM      2  C   UNL     1       4.535   1.365  -0.186  1.00  0.00     0.116 C 
BRANCH   2   3
ATOM      3  N   UNL     1       3.094   1.227  -0.019  1.00  0.00    -0.352 N 
ATOM      4  O   UNL     1       1.104   0.163   0.017  1.00  0.00    -0.269 OA
ATOM      5  C   UNL     1       2.329   0.083  -0.005  1.00  0.00     0.251 C 
ATOM      6  H   UNL     1       2.599   2.070   0.100  1.00  0.00     0.163 HD
BRANCH   5   7
ATOM      7  C   UNL     1       2.991  -1.240  -0.048  1.00  0.00     0.039 A 
ATOM      8  C   UNL     1       4.103  -1.500   0.754  1.00  0.00     0.014 A 
ATOM      9  C   UNL     1       2.508  -2.223  -0.917  1.00  0.00     0.014 A 
ATOM     10  C   UNL     1       4.829  -2.670   0.568  1.00  0.00     0.010 A 
ATOM     11  C   UNL     1       3.183  -3.444  -1.027  1.00  0.00     0.010 A 
ATOM     12  C   UNL     1       4.369  -3.666  -0.308  1.00  0.00    -0.014 A 
BRANCH  12  13
ATOM     13  C   UNL     1       5.104  -4.954  -0.392  1.00  0.00     0.031 A 
ATOM     14  C   UNL     1       5.746  -5.411  -1.674  1.00  0.00     0.074 A 
ATOM     15  C   UNL     1       5.208  -5.706   0.723  1.00  0.00     0.049 A 
ATOM     16  N   UNL     1       6.423  -6.507  -1.908  1.00  0.00    -0.248 NA
ATOM     17  C   UNL     1       5.607  -4.534  -2.847  1.00  0.00     0.031 C 
ATOM     18  C   UNL     1       4.617  -5.368   2.022  1.00  0.00     0.029 A 
ATOM     19  N   UNL     1       5.849  -6.895   0.954  1.00  0.00    -0.354 N 
ATOM     20  C   UNL     1       6.778  -6.462  -3.251  1.00  0.00     0.074 A 
ATOM     21  C   UNL     1       6.218  -5.241  -3.791  1.00  0.00     0.031 C 
ATOM     22  C   UNL     1       4.957  -6.303   2.919  1.00  0.00     0.029 A 
ATOM     23  C   UNL     1       5.725  -7.344   2.248  1.00  0.00     0.049 A 
ATOM     24  H   UNL     1       6.351  -7.381   0.260  1.00  0.00     0.167 HD
ATOM     25  C   UNL     1       7.510  -7.354  -3.963  1.00  0.00     0.037 A 
ATOM     26  C   UNL     1       6.153  -8.480   2.828  1.00  0.00     0.037 A 
ATOM     27  C   UNL     1       8.070  -8.563  -3.410  1.00  0.00     0.049 A 
ATOM     28  C   UNL     1       6.927  -9.469   2.004  1.00  0.00     0.074 A 
ATOM     29  C   UNL     1       8.855  -9.514  -4.041  1.00  0.00     0.029 A 
ATOM     30  N   UNL     1       7.900  -8.996  -2.102  1.00  0.00    -0.354 N 
ATOM     31  N   UNL     1       7.285  -9.389   0.745  1.00  0.00    -0.248 NA
ATOM     32  C   UNL     1       7.356 -10.701   2.677  1.00  0.00     0.031 C 
ATOM     33  C   UNL     1       9.108 -10.548  -3.134  1.00  0.00     0.029 A 
ATOM     34  C   UNL     1       8.540 -10.212  -1.916  1.00  0.00     0.049 A 
ATOM     35  H   UNL     1       7.398  -8.511  -1.408  1.00  0.00     0.167 HD
ATOM     36  C   UNL     1       8.005 -10.548   0.482  1.00  0.00     0.074 A 
ATOM     37  C   UNL     1       8.045 -11.303   1.718  1.00  0.00     0.031 C 
ATOM     38  C   UNL     1       8.580 -10.950  -0.678  1.00  0.00     0.037 A 
BRANCH  25  39
ATOM     39  C   UNL     1       7.741  -7.078  -5.426  1.00  0.00     0.058 A 
ATOM     40  C   UNL     1       8.591  -6.050  -5.863  1.00  0.00     0.135 A 
ATOM     41  C   UNL     1       7.161  -7.904  -6.405  1.00  0.00     0.135 A 
ATOM     42  F   UNL     1       9.163  -5.221  -4.975  1.00  0.00    -0.206 F 
ATOM     43  C   UNL     1       8.843  -5.838  -7.216  1.00  0.00     0.059 A 
ATOM     44  C   UNL     1       7.422  -7.729  -7.762  1.00  0.00     0.059 A 
ATOM     45  F   UNL     1       6.342  -8.904  -6.046  1.00  0.00    -0.206 F 
ATOM     46  C   UNL     1       8.257  -6.686  -8.158  1.00  0.00     0.060 A 
BRANCH  46  47
ATOM     47  S   UNL     1       8.612  -6.409  -9.907  1.00  0.00     0.124 S 
ATOM     48  O   UNL     1       7.892  -5.164 -10.157  1.00  0.00    -0.237 OA
ATOM     49  O   UNL     1      10.068  -6.310  -9.916  1.00  0.00    -0.237 OA
ATOM     50  O   UNL     1       8.061  -7.592 -10.560  1.00  0.00    -0.744 OA
ENDBRANCH  46  47
ENDBRANCH  25  39
BRANCH  26  51
ATOM     51  C   UNL     1       5.838  -8.747   4.257  1.00  0.00     0.058 A 
ATOM     52  C   UNL     1       6.847  -8.787   5.229  1.00  0.00     0.135 A 
ATOM     53  C   UNL     1       4.515  -8.959   4.680  1.00  0.00     0.135 A 
ATOM     54  F   UNL     1       8.127  -8.592   4.875  1.00  0.00    -0.206 F 
ATOM     55  C   UNL     1       6.562  -9.051   6.564  1.00  0.00     0.059 A 
ATOM     56  C   UNL     1       4.201  -9.191   6.014  1.00  0.00     0.059 A 
ATOM     57  F   UNL     1       3.509  -8.911   3.793  1.00  0.00    -0.206 F 
ATOM     58  C   UNL     1       5.234  -9.251   6.947  1.00  0.00     0.060 A 
BRANCH  58  59
ATOM     59  S   UNL     1       4.872  -9.564   8.687  1.00  0.00     0.124 S 
ATOM     60  O   UNL     1       5.382 -10.921   8.852  1.00  0.00    -0.237 OA
ATOM     61  O   UNL     1       5.631  -8.510   9.352  1.00  0.00    -0.237 OA
ATOM     62  O   UNL     1       3.421  -9.422   8.759  1.00  0.00    -0.744 OA
ENDBRANCH  58  59
ENDBRANCH  26  51
BRANCH  38  63
ATOM     63  C   UNL     1       9.343 -12.247  -0.657  1.00  0.00     0.058 A 
ATOM     64  C   UNL     1       8.696 -13.488  -0.547  1.00  0.00     0.135 A 
ATOM     65  C   UNL     1      10.741 -12.247  -0.791  1.00  0.00     0.135 A 
ATOM     66  F   UNL     1       7.362 -13.545  -0.405  1.00  0.00    -0.206 F 
ATOM     67  C   UNL     1       9.411 -14.682  -0.544  1.00  0.00     0.059 A 
ATOM     68  C   UNL     1      11.472 -13.430  -0.825  1.00  0.00     0.059 A 
ATOM     69  F   UNL     1      11.410 -11.089  -0.908  1.00  0.00    -0.206 F 
ATOM     70  C   UNL     1      10.799 -14.643  -0.688  1.00  0.00     0.060 A 
BRANCH  70  71
ATOM     71  S   UNL     1      11.709 -16.201  -0.718  1.00  0.00     0.124 S 
ATOM     72  O   UNL     1      11.620 -16.621   0.677  1.00  0.00    -0.237 OA
ATOM     73  O   UNL     1      10.937 -16.994  -1.669  1.00  0.00    -0.237 OA
ATOM     74  O   UNL     1      13.040 -15.809  -1.171  1.00  0.00    -0.744 OA
ENDBRANCH  70  71
ENDBRANCH  38  63
ENDBRANCH  12  13
ENDBRANCH   5   7
ENDBRANCH   2   3
ENDBRANCH   1   2
BRANCH   1  75
ATOM     75  C   UNL     1       4.497   3.751  -1.147  1.00  0.00     0.023 C 
BRANCH  75  76
ATOM     76  C   UNL     1       5.021   4.417   0.120  1.00  0.00     0.116 C 
BRANCH  76  77
ATOM     77  N   UNL     1       6.452   4.690   0.086  1.00  0.00    -0.356 N 
ATOM     78  C   UNL     1       7.062   5.896   0.348  1.00  0.00     0.223 C 
ATOM     79  H   UNL     1       7.041   3.937  -0.149  1.00  0.00     0.163 HD
ATOM     80  O   UNL     1       8.278   6.011   0.450  1.00  0.00    -0.275 OA
BRANCH  78  81
ATOM     81  C   UNL     1       6.152   7.033   0.576  1.00  0.00     0.091 C 
ATOM     82  C   UNL     1       5.536   7.643  -0.669  1.00  0.00     0.028 C 
ATOM     83  C   UNL     1       6.337   8.490   0.283  1.00  0.00     0.092 C 
BRANCH  83  84
ATOM     84  C   UNL     1       7.546   9.184  -0.228  1.00  0.00     0.226 C 
ATOM     85  O   UNL     1       8.035   8.881  -1.309  1.00  0.00    -0.275 OA
ATOM     86  N   UNL     1       7.891  10.328   0.472  1.00  0.00    -0.339 N 
ATOM     87  C   UNL     1       8.434  11.483  -0.254  1.00  0.00     0.141 C 
ATOM     88  C   UNL     1       7.728  10.514   1.923  1.00  0.00     0.141 C 
ATOM     89  C   UNL     1       7.608  12.759   0.054  1.00  0.00     0.139 C 
ATOM     90  C   UNL     1       6.957  11.807   2.255  1.00  0.00     0.139 C 
ATOM     91  N   UNL     1       7.540  12.922   1.507  1.00  0.00    -0.352 N 
BRANCH  91  92
ATOM     92  C   UNL     1       7.691  14.163   2.075  1.00  0.00     0.147 A 
ATOM     93  N   UNL     1       6.980  15.188   1.544  1.00  0.00    -0.237 NA
ATOM     94  C   UNL     1       8.586  14.390   3.135  1.00  0.00     0.084 A 
ATOM     95  C   UNL     1       7.128  16.427   2.079  1.00  0.00     0.126 A 
ATOM     96  C   UNL     1       8.735  15.676   3.654  1.00  0.00     0.039 A 
ATOM     97  Cl  UNL     1       9.609  13.153   3.783  1.00  0.00    -0.080 Cl
ATOM     98  C   UNL     1       7.989  16.727   3.123  1.00  0.00     0.075 A 
BRANCH  98  99
ATOM     99  C   UNL     1       8.100  18.126   3.636  1.00  0.00     0.417 C 
ATOM    100  F   UNL     1       8.413  19.021   2.659  1.00  0.00    -0.166 F 
ATOM    101  F   UNL     1       6.942  18.570   4.195  1.00  0.00    -0.166 F 
ATOM    102  F   UNL     1       9.056  18.276   4.595  1.00  0.00    -0.166 F 
ENDBRANCH  98  99
ENDBRANCH  91  92
ENDBRANCH  83  84
ENDBRANCH  78  81
ENDBRANCH  76  77
ENDBRANCH  75  76
ENDBRANCH   1  75
TORSDOF 17
