REMARK SMILES COc1cc([C@@H]2[NH2+][C@H](C(=O)NCCCCNC(=O)c3ccc(-c4c5nc(c(-c6c(F)cc(S(=O)(=O)[O-])cc6F)c6ccc([nH]6)c(-c6c(F)cc(S(=O)(=O)[O-])cc6F)c6nc(c(-c7c(F)cc(S(=O)(=O)[O-])cc7F)c7ccc4[nH]7)C=C6)C=C5)cc3)CS2)ccc1OC(=O)c1ccccc1
REMARK SMILES IDX 13 1 12 2 11 3 9 4 10 5 8 7 6 8 7 9 86 10 85 13 5 14 3 15
REMARK SMILES IDX 4 16 89 17 88 18 87 19 2 20 1 21 90 22 91 23 92 24 93 25
REMARK SMILES IDX 94 26 98 27 95 28 97 29 96 30 14 31 15 32 16 33 17 34 18 36
REMARK SMILES IDX 19 37 20 38 84 39 21 40 83 41 22 42 23 43 24 44 77 45 25 46
REMARK SMILES IDX 82 47 76 48 78 49 26 50 81 51 75 52 74 53 27 55 61 56 40 57
REMARK SMILES IDX 60 58 41 59 44 60 59 61 79 62 42 63 43 64 58 66 80 67 45 68
REMARK SMILES IDX 28 69 29 70 38 71 30 72 31 73 37 74 39 75 32 76 33 77 34 78
REMARK SMILES IDX 35 79 36 80 62 81 63 82 72 83 64 84 65 85 71 86 73 87 66 88
REMARK SMILES IDX 67 89 68 90 69 91 70 92 46 93 47 94 56 95 48 96 49 97 55 98
REMARK SMILES IDX 57 99 50 100 51 101 52 102 53 103 54 104
REMARK H PARENT 11 6 7 11 7 12 16 35 78 54 44 65
REMARK Flexibility Score: inf
ROOT
ATOM      1  C   UNL     1       1.023   4.073   3.824  1.00  0.00     0.023 C 
ENDROOT
BRANCH   1   2
ATOM      2  C   UNL     1       1.361   5.528   4.128  1.00  0.00     0.116 C 
BRANCH   2   3
ATOM      3  N   UNL     1       2.402   6.055   3.265  1.00  0.00    -0.351 N 
ATOM      4  C   UNL     1       2.426   6.908   2.213  1.00  0.00     0.279 C 
ATOM      5  O   UNL     1       3.552   7.098   1.721  1.00  0.00    -0.268 OA
ATOM      6  H   UNL     1       3.296   5.714   3.497  1.00  0.00     0.163 HD
BRANCH   4   7
ATOM      7  C   UNL     1       1.218   7.594   1.529  1.00  0.00     0.283 C 
ATOM      8  C   UNL     1       0.054   5.904   0.249  1.00  0.00     0.274 C 
ATOM      9  N   UNL     1       0.964   7.047   0.173  1.00  0.00    -0.321 N 
ATOM     10  S   UNL     1      -1.043   6.240   1.678  1.00  0.00    -0.088 SA
ATOM     11  H   UNL     1       0.545   7.772  -0.409  1.00  0.00     0.348 HD
ATOM     12  H   UNL     1       1.848   6.740  -0.231  1.00  0.00     0.348 HD
ATOM     13  C   UNL     1      -0.126   7.714   2.208  1.00  0.00     0.151 C 
BRANCH   8  14
ATOM     14  C   UNL     1       0.700   4.522   0.295  1.00  0.00     0.024 A 
ATOM     15  C   UNL     1       0.429   2.060   0.383  1.00  0.00     0.162 A 
ATOM     16  C   UNL     1      -0.109   3.361   0.296  1.00  0.00     0.061 A 
ATOM     17  C   UNL     1       1.815   1.925   0.481  1.00  0.00     0.173 A 
ATOM     18  C   UNL     1       2.638   3.055   0.482  1.00  0.00     0.052 A 
ATOM     19  C   UNL     1       2.089   4.327   0.340  1.00  0.00     0.015 A 
BRANCH  15  20
ATOM     20  O   UNL     1      -0.530   1.084   0.359  1.00  0.00    -0.493 OA
ATOM     21  C   UNL     1      -0.131  -0.278   0.351  1.00  0.00     0.278 C 
ENDBRANCH  15  20
BRANCH  17  22
ATOM     22  O   UNL     1       2.454   0.692   0.624  1.00  0.00    -0.419 OA
BRANCH  22  23
ATOM     23  C   UNL     1       3.166   0.360  -0.512  1.00  0.00     0.343 C 
ATOM     24  O   UNL     1       3.217   0.970  -1.576  1.00  0.00    -0.246 OA
BRANCH  23  25
ATOM     25  C   UNL     1       3.800  -0.957  -0.324  1.00  0.00     0.060 A 
ATOM     26  C   UNL     1       3.789  -1.835  -1.414  1.00  0.00     0.015 A 
ATOM     27  C   UNL     1       4.423  -1.322   0.875  1.00  0.00     0.015 A 
ATOM     28  C   UNL     1       4.383  -3.090  -1.301  1.00  0.00     0.001 A 
ATOM     29  C   UNL     1       5.028  -2.576   0.976  1.00  0.00     0.001 A 
ATOM     30  C   UNL     1       5.003  -3.458  -0.107  1.00  0.00     0.000 A 
ENDBRANCH  23  25
ENDBRANCH  22  23
ENDBRANCH  17  22
ENDBRANCH   8  14
ENDBRANCH   4   7
ENDBRANCH   2   3
ENDBRANCH   1   2
BRANCH   1  31
ATOM     31  C   UNL     1       2.012   3.055   4.379  1.00  0.00     0.023 C 
BRANCH  31  32
ATOM     32  C   UNL     1       2.043   3.011   5.897  1.00  0.00     0.116 C 
BRANCH  32  33
ATOM     33  N   UNL     1       0.732   2.749   6.479  1.00  0.00    -0.352 N 
ATOM     34  C   UNL     1       0.409   1.923   7.526  1.00  0.00     0.251 C 
ATOM     35  H   UNL     1      -0.022   3.228   6.065  1.00  0.00     0.163 HD
ATOM     36  O   UNL     1      -0.763   1.678   7.790  1.00  0.00    -0.269 OA
BRANCH  34  37
ATOM     37  C   UNL     1       1.502   1.319   8.307  1.00  0.00     0.039 A 
ATOM     38  C   UNL     1       1.461  -0.044   8.596  1.00  0.00     0.014 A 
ATOM     39  C   UNL     1       2.595   2.100   8.689  1.00  0.00     0.014 A 
ATOM     40  C   UNL     1       2.554  -0.637   9.225  1.00  0.00     0.010 A 
ATOM     41  C   UNL     1       3.724   1.488   9.208  1.00  0.00     0.010 A 
ATOM     42  C   UNL     1       3.706   0.119   9.502  1.00  0.00    -0.014 A 
BRANCH  42  43
ATOM     43  C   UNL     1       4.901  -0.499  10.122  1.00  0.00     0.031 A 
ATOM     44  C   UNL     1       5.381  -0.010  11.461  1.00  0.00     0.074 A 
ATOM     45  C   UNL     1       5.582  -1.446   9.448  1.00  0.00     0.049 A 
ATOM     46  N   UNL     1       6.418  -0.395  12.156  1.00  0.00    -0.248 NA
ATOM     47  C   UNL     1       4.616   1.083  12.085  1.00  0.00     0.031 C 
ATOM     48  C   UNL     1       5.242  -1.946   8.114  1.00  0.00     0.029 A 
ATOM     49  N   UNL     1       6.699  -2.160   9.794  1.00  0.00    -0.354 N 
ATOM     50  C   UNL     1       6.442   0.421  13.281  1.00  0.00     0.074 A 
ATOM     51  C   UNL     1       5.360   1.368  13.142  1.00  0.00     0.031 C 
ATOM     52  C   UNL     1       6.101  -2.921   7.777  1.00  0.00     0.029 A 
ATOM     53  C   UNL     1       7.076  -3.085   8.850  1.00  0.00     0.049 A 
ATOM     54  H   UNL     1       7.186  -2.022  10.638  1.00  0.00     0.167 HD
ATOM     55  C   UNL     1       7.274   0.366  14.347  1.00  0.00     0.037 A 
ATOM     56  C   UNL     1       8.089  -3.972   8.857  1.00  0.00     0.037 A 
ATOM     57  C   UNL     1       8.325  -0.607  14.483  1.00  0.00     0.049 A 
ATOM     58  C   UNL     1       8.993  -4.025  10.058  1.00  0.00     0.074 A 
ATOM     59  C   UNL     1       9.176  -0.812  15.554  1.00  0.00     0.029 A 
ATOM     60  N   UNL     1       8.674  -1.534  13.510  1.00  0.00    -0.354 N 
ATOM     61  N   UNL     1       8.950  -3.305  11.155  1.00  0.00    -0.248 NA
ATOM     62  C   UNL     1      10.077  -5.013  10.026  1.00  0.00     0.031 C 
ATOM     63  C   UNL     1      10.076  -1.824  15.205  1.00  0.00     0.029 A 
ATOM     64  C   UNL     1       9.749  -2.292  13.941  1.00  0.00     0.049 A 
ATOM     65  H   UNL     1       8.222  -1.637  12.641  1.00  0.00     0.167 HD
ATOM     66  C   UNL     1       9.986  -3.771  11.957  1.00  0.00     0.074 A 
ATOM     67  C   UNL     1      10.625  -4.845  11.222  1.00  0.00     0.031 C 
ATOM     68  C   UNL     1      10.373  -3.353  13.188  1.00  0.00     0.037 A 
BRANCH  55  69
ATOM     69  C   UNL     1       7.080   1.389  15.435  1.00  0.00     0.058 A 
ATOM     70  C   UNL     1       5.932   1.405  16.247  1.00  0.00     0.135 A 
ATOM     71  C   UNL     1       8.056   2.370  15.669  1.00  0.00     0.135 A 
ATOM     72  F   UNL     1       4.957   0.501  16.058  1.00  0.00    -0.206 F 
ATOM     73  C   UNL     1       5.739   2.383  17.217  1.00  0.00     0.059 A 
ATOM     74  C   UNL     1       7.899   3.338  16.658  1.00  0.00     0.059 A 
ATOM     75  F   UNL     1       9.172   2.405  14.925  1.00  0.00    -0.206 F 
ATOM     76  C   UNL     1       6.727   3.348  17.412  1.00  0.00     0.060 A 
BRANCH  76  77
ATOM     77  S   UNL     1       6.454   4.621  18.663  1.00  0.00     0.124 S 
ATOM     78  O   UNL     1       5.434   5.445  18.020  1.00  0.00    -0.237 OA
ATOM     79  O   UNL     1       6.005   3.839  19.810  1.00  0.00    -0.237 OA
ATOM     80  O   UNL     1       7.765   5.245  18.806  1.00  0.00    -0.744 OA
ENDBRANCH  76  77
ENDBRANCH  55  69
BRANCH  56  81
ATOM     81  C   UNL     1       8.263  -4.909   7.716  1.00  0.00     0.058 A 
ATOM     82  C   UNL     1       7.988  -6.277   7.864  1.00  0.00     0.135 A 
ATOM     83  C   UNL     1       8.666  -4.458   6.450  1.00  0.00     0.135 A 
ATOM     84  F   UNL     1       7.603  -6.758   9.056  1.00  0.00    -0.206 F 
ATOM     85  C   UNL     1       8.113  -7.166   6.801  1.00  0.00     0.059 A 
ATOM     86  C   UNL     1       8.774  -5.323   5.365  1.00  0.00     0.059 A 
ATOM     87  F   UNL     1       8.921  -3.155   6.249  1.00  0.00    -0.206 F 
ATOM     88  C   UNL     1       8.500  -6.677   5.552  1.00  0.00     0.060 A 
BRANCH  88  89
ATOM     89  S   UNL     1       8.586  -7.826   4.161  1.00  0.00     0.124 S 
ATOM     90  O   UNL     1       9.775  -8.601   4.492  1.00  0.00    -0.237 OA
ATOM     91  O   UNL     1       7.312  -8.530   4.269  1.00  0.00    -0.237 OA
ATOM     92  O   UNL     1       8.707  -6.942   3.005  1.00  0.00    -0.744 OA
ENDBRANCH  88  89
ENDBRANCH  56  81
BRANCH  68  93
ATOM     93  C   UNL     1      11.526  -4.075  13.826  1.00  0.00     0.058 A 
ATOM     94  C   UNL     1      12.841  -3.930  13.356  1.00  0.00     0.135 A 
ATOM     95  C   UNL     1      11.317  -4.893  14.949  1.00  0.00     0.135 A 
ATOM     96  F   UNL     1      13.094  -3.164  12.283  1.00  0.00    -0.206 F 
ATOM     97  C   UNL     1      13.903  -4.596  13.956  1.00  0.00     0.059 A 
ATOM     98  C   UNL     1      12.369  -5.542  15.585  1.00  0.00     0.059 A 
ATOM     99  F   UNL     1      10.081  -5.056  15.447  1.00  0.00    -0.206 F 
ATOM    100  C   UNL     1      13.657  -5.400  15.071  1.00  0.00     0.060 A 
BRANCH 100 101
ATOM    101  S   UNL     1      15.048  -6.245  15.851  1.00  0.00     0.124 S 
ATOM    102  O   UNL     1      15.338  -7.293  14.878  1.00  0.00    -0.237 OA
ATOM    103  O   UNL     1      16.042  -5.180  15.951  1.00  0.00    -0.237 OA
ATOM    104  O   UNL     1      14.498  -6.703  17.123  1.00  0.00    -0.744 OA
ENDBRANCH 100 101
ENDBRANCH  68  93
ENDBRANCH  42  43
ENDBRANCH  34  37
ENDBRANCH  32  33
ENDBRANCH  31  32
ENDBRANCH   1  31
TORSDOF 19
