REMARK SMILES CC[C@@H](C)N(C)c1ccc(/C=C/C(=O)NCCCCNC(=O)c2ccc(-c3c4nc(c(-c5c(F)cc(S(=O)(=O)[O-])cc5F)c5ccc([nH]5)c(-c5c(F)cc(S(=O)(=O)[O-])cc5F)c5nc(c(-c6c(F)cc(S(=O)(=O)[O-])cc6F)c6ccc3[nH]6)C=C5)C=C4)cc2)cc1F
REMARK SMILES IDX 17 1 16 2 15 3 13 4 14 5 12 7 11 8 10 9 7 10 8 11 90 12 9 13
REMARK SMILES IDX 89 14 91 15 5 16 6 17 3 18 4 19 2 20 1 21 18 22 19 23 20 24
REMARK SMILES IDX 21 25 22 27 23 28 24 29 88 30 25 31 87 32 26 33 27 34 28 35
REMARK SMILES IDX 81 36 29 37 86 38 80 39 82 40 30 41 85 42 79 43 78 44 31 46
REMARK SMILES IDX 65 47 44 48 64 49 45 50 48 51 63 52 83 53 46 54 47 55 62 57
REMARK SMILES IDX 84 58 49 59 32 60 33 61 42 62 34 63 35 64 41 65 43 66 36 67
REMARK SMILES IDX 37 68 38 69 39 70 40 71 66 72 67 73 76 74 68 75 69 76 75 77
REMARK SMILES IDX 77 78 70 79 71 80 72 81 73 82 74 83 50 84 51 85 60 86 52 87
REMARK SMILES IDX 53 88 59 89 61 90 54 91 55 92 56 93 57 94 58 95
REMARK H PARENT 15 6 20 26 82 45 48 56
REMARK Flexibility Score: inf
ROOT
ATOM      1  C   UNL     1      -7.703   0.849  -4.269  1.00  0.00     0.023 C 
ENDROOT
BRANCH   1   2
ATOM      2  C   UNL     1      -7.697  -0.637  -3.909  1.00  0.00     0.116 C 
BRANCH   2   3
ATOM      3  N   UNL     1      -7.916  -1.470  -5.080  1.00  0.00    -0.353 N 
ATOM      4  C   UNL     1      -7.049  -2.277  -5.753  1.00  0.00     0.243 C 
ATOM      5  O   UNL     1      -7.451  -3.003  -6.658  1.00  0.00    -0.270 OA
ATOM      6  H   UNL     1      -8.831  -1.446  -5.443  1.00  0.00     0.163 HD
BRANCH   4   7
ATOM      7  C   UNL     1      -5.631  -2.352  -5.337  1.00  0.00     0.072 C 
ATOM      8  C   UNL     1      -4.857  -1.265  -5.212  1.00  0.00     0.014 C 
BRANCH   8   9
ATOM      9  C   UNL     1      -3.459  -1.283  -4.769  1.00  0.00    -0.022 A 
ATOM     10  C   UNL     1      -0.735  -1.163  -3.924  1.00  0.00     0.073 A 
ATOM     11  C   UNL     1      -1.209  -2.204  -4.740  1.00  0.00     0.029 A 
ATOM     12  C   UNL     1      -1.671  -0.181  -3.560  1.00  0.00     0.147 A 
ATOM     13  C   UNL     1      -2.547  -2.264  -5.161  1.00  0.00     0.010 A 
ATOM     14  C   UNL     1      -3.005  -0.235  -3.967  1.00  0.00     0.049 A 
ATOM     15  F   UNL     1      -1.293   0.895  -2.854  1.00  0.00    -0.205 F 
BRANCH  10  16
ATOM     16  N   UNL     1       0.603  -1.103  -3.538  1.00  0.00    -0.370 N 
ATOM     17  C   UNL     1       1.603  -1.270  -4.586  1.00  0.00     0.144 C 
BRANCH  16  18
ATOM     18  C   UNL     1       1.022  -1.343  -2.138  1.00  0.00     0.078 C 
ATOM     19  C   UNL     1       0.500  -2.686  -1.621  1.00  0.00     0.031 C 
BRANCH  18  20
ATOM     20  C   UNL     1       0.663  -0.168  -1.216  1.00  0.00     0.021 C 
ATOM     21  C   UNL     1       1.427  -0.174   0.102  1.00  0.00     0.006 C 
ENDBRANCH  18  20
ENDBRANCH  16  18
ENDBRANCH  10  16
ENDBRANCH   8   9
ENDBRANCH   4   7
ENDBRANCH   2   3
ENDBRANCH   1   2
BRANCH   1  22
ATOM     22  C   UNL     1      -9.094   1.436  -4.526  1.00  0.00     0.023 C 
BRANCH  22  23
ATOM     23  C   UNL     1     -10.050   1.388  -3.338  1.00  0.00     0.116 C 
BRANCH  23  24
ATOM     24  N   UNL     1      -9.542   2.072  -2.159  1.00  0.00    -0.352 N 
ATOM     25  C   UNL     1     -10.251   2.737  -1.185  1.00  0.00     0.251 C 
ATOM     26  H   UNL     1      -8.564   2.057  -2.043  1.00  0.00     0.163 HD
ATOM     27  O   UNL     1      -9.663   3.350  -0.304  1.00  0.00    -0.269 OA
BRANCH  25  28
ATOM     28  C   UNL     1     -11.729   2.737  -1.241  1.00  0.00     0.039 A 
ATOM     29  C   UNL     1     -12.405   3.956  -1.151  1.00  0.00     0.014 A 
ATOM     30  C   UNL     1     -12.437   1.546  -1.422  1.00  0.00     0.014 A 
ATOM     31  C   UNL     1     -13.791   3.988  -1.316  1.00  0.00     0.010 A 
ATOM     32  C   UNL     1     -13.809   1.588  -1.651  1.00  0.00     0.010 A 
ATOM     33  C   UNL     1     -14.498   2.809  -1.605  1.00  0.00    -0.014 A 
BRANCH  33  34
ATOM     34  C   UNL     1     -15.955   2.835  -1.884  1.00  0.00     0.031 A 
ATOM     35  C   UNL     1     -16.915   2.138  -0.961  1.00  0.00     0.074 A 
ATOM     36  C   UNL     1     -16.405   3.426  -3.008  1.00  0.00     0.049 A 
ATOM     37  N   UNL     1     -18.210   1.997  -1.073  1.00  0.00    -0.248 NA
ATOM     38  C   UNL     1     -16.339   1.492   0.228  1.00  0.00     0.031 C 
ATOM     39  C   UNL     1     -15.566   4.091  -4.006  1.00  0.00     0.029 A 
ATOM     40  N   UNL     1     -17.678   3.556  -3.505  1.00  0.00    -0.354 N 
ATOM     41  C   UNL     1     -18.602   1.234   0.020  1.00  0.00     0.074 A 
ATOM     42  C   UNL     1     -17.401   0.901   0.755  1.00  0.00     0.031 C 
ATOM     43  C   UNL     1     -16.347   4.584  -4.979  1.00  0.00     0.029 A 
ATOM     44  C   UNL     1     -17.738   4.240  -4.695  1.00  0.00     0.049 A 
ATOM     45  H   UNL     1     -18.473   3.193  -3.051  1.00  0.00     0.167 HD
ATOM     46  C   UNL     1     -19.852   0.866   0.389  1.00  0.00     0.037 A 
ATOM     47  C   UNL     1     -18.793   4.556  -5.472  1.00  0.00     0.037 A 
ATOM     48  C   UNL     1     -21.044   1.224  -0.334  1.00  0.00     0.049 A 
ATOM     49  C   UNL     1     -20.172   4.145  -5.043  1.00  0.00     0.074 A 
ATOM     50  C   UNL     1     -22.361   0.958  -0.005  1.00  0.00     0.029 A 
ATOM     51  N   UNL     1     -21.065   1.926  -1.531  1.00  0.00    -0.354 N 
ATOM     52  N   UNL     1     -20.533   3.474  -3.975  1.00  0.00    -0.248 NA
ATOM     53  C   UNL     1     -21.287   4.532  -5.917  1.00  0.00     0.031 C 
ATOM     54  C   UNL     1     -23.177   1.463  -1.024  1.00  0.00     0.029 A 
ATOM     55  C   UNL     1     -22.371   2.082  -1.966  1.00  0.00     0.049 A 
ATOM     56  H   UNL     1     -20.269   2.262  -2.002  1.00  0.00     0.167 HD
ATOM     57  C   UNL     1     -21.917   3.370  -4.040  1.00  0.00     0.074 A 
ATOM     58  C   UNL     1     -22.330   4.057  -5.248  1.00  0.00     0.031 C 
ATOM     59  C   UNL     1     -22.767   2.762  -3.176  1.00  0.00     0.037 A 
BRANCH  46  60
ATOM     60  C   UNL     1     -19.989   0.034   1.634  1.00  0.00     0.058 A 
ATOM     61  C   UNL     1     -20.372  -1.314   1.554  1.00  0.00     0.135 A 
ATOM     62  C   UNL     1     -19.755   0.574   2.909  1.00  0.00     0.135 A 
ATOM     63  F   UNL     1     -20.605  -1.883   0.361  1.00  0.00    -0.206 F 
ATOM     64  C   UNL     1     -20.513  -2.099   2.694  1.00  0.00     0.059 A 
ATOM     65  C   UNL     1     -19.863  -0.200   4.061  1.00  0.00     0.059 A 
ATOM     66  F   UNL     1     -19.366   1.852   3.040  1.00  0.00    -0.206 F 
ATOM     67  C   UNL     1     -20.251  -1.534   3.944  1.00  0.00     0.060 A 
BRANCH  67  68
ATOM     68  S   UNL     1     -20.358  -2.584   5.409  1.00  0.00     0.124 S 
ATOM     69  O   UNL     1     -21.800  -2.722   5.574  1.00  0.00    -0.237 OA
ATOM     70  O   UNL     1     -19.647  -3.785   4.981  1.00  0.00    -0.237 OA
ATOM     71  O   UNL     1     -19.677  -1.799   6.435  1.00  0.00    -0.744 OA
ENDBRANCH  67  68
ENDBRANCH  46  60
BRANCH  47  72
ATOM     72  C   UNL     1     -18.567   5.347  -6.709  1.00  0.00     0.058 A 
ATOM     73  C   UNL     1     -17.946   4.784  -7.834  1.00  0.00     0.135 A 
ATOM     74  C   UNL     1     -18.886   6.713  -6.751  1.00  0.00     0.135 A 
ATOM     75  F   UNL     1     -17.613   3.484  -7.839  1.00  0.00    -0.206 F 
ATOM     76  C   UNL     1     -17.610   5.555  -8.941  1.00  0.00     0.059 A 
ATOM     77  C   UNL     1     -18.578   7.501  -7.855  1.00  0.00     0.059 A 
ATOM     78  F   UNL     1     -19.491   7.291  -5.702  1.00  0.00    -0.206 F 
ATOM     79  C   UNL     1     -17.916   6.917  -8.935  1.00  0.00     0.060 A 
BRANCH  79  80
ATOM     80  S   UNL     1     -17.405   7.917 -10.350  1.00  0.00     0.124 S 
ATOM     81  O   UNL     1     -15.953   7.908 -10.201  1.00  0.00    -0.237 OA
ATOM     82  O   UNL     1     -17.934   7.151 -11.473  1.00  0.00    -0.237 OA
ATOM     83  O   UNL     1     -18.053   9.202 -10.107  1.00  0.00    -0.744 OA
ENDBRANCH  79  80
ENDBRANCH  47  72
BRANCH  59  84
ATOM     84  C   UNL     1     -24.235   2.809  -3.492  1.00  0.00     0.058 A 
ATOM     85  C   UNL     1     -25.103   3.604  -2.727  1.00  0.00     0.135 A 
ATOM     86  C   UNL     1     -24.795   1.999  -4.492  1.00  0.00     0.135 A 
ATOM     87  F   UNL     1     -24.619   4.394  -1.756  1.00  0.00    -0.206 F 
ATOM     88  C   UNL     1     -26.479   3.577  -2.927  1.00  0.00     0.059 A 
ATOM     89  C   UNL     1     -26.167   1.974  -4.725  1.00  0.00     0.059 A 
ATOM     90  F   UNL     1     -24.005   1.231  -5.258  1.00  0.00    -0.206 F 
ATOM     91  C   UNL     1     -27.003   2.752  -3.924  1.00  0.00     0.060 A 
BRANCH  91  92
ATOM     92  S   UNL     1     -28.791   2.726  -4.168  1.00  0.00     0.124 S 
ATOM     93  O   UNL     1     -29.243   1.996  -2.989  1.00  0.00    -0.237 OA
ATOM     94  O   UNL     1     -29.120   4.148  -4.199  1.00  0.00    -0.237 OA
ATOM     95  O   UNL     1     -28.949   2.026  -5.440  1.00  0.00    -0.744 OA
ENDBRANCH  91  92
ENDBRANCH  59  84
ENDBRANCH  33  34
ENDBRANCH  25  28
ENDBRANCH  23  24
ENDBRANCH  22  23
ENDBRANCH   1  22
TORSDOF 18
