REMARK SMILES Cc1ccc(S(=O)(=O)N[C@@H](C)C(=O)Oc2csc(C(=O)NCCCCNC(=O)c3ccc(-c4c5nc(c(-c6c(F)cc(S(=O)(=O)[O-])cc6F)c6ccc([nH]6)c(-c6c(F)cc(S(=O)(=O)[O-])cc6F)c6nc(c(-c7c(F)cc(S(=O)(=O)[O-])cc7F)c7ccc4[nH]7)C=C6)C=C5)cc3)c2C)cc1
REMARK SMILES IDX 22 1 21 2 19 3 20 4 18 6 15 7 16 8 95 9 17 10 96 11 14 12
REMARK SMILES IDX 12 13 13 14 10 15 11 16 9 17 6 19 7 20 8 21 5 22 1 23 2 24
REMARK SMILES IDX 3 25 98 26 4 27 97 28 23 29 24 30 25 31 26 32 27 33 28 35
REMARK SMILES IDX 29 36 30 37 94 38 31 39 93 40 32 41 33 42 34 43 87 44 35 45
REMARK SMILES IDX 92 46 86 47 88 48 36 49 91 50 85 51 84 52 37 54 71 55 50 56
REMARK SMILES IDX 70 57 51 58 54 59 69 60 89 61 52 62 53 63 68 65 90 66 55 67
REMARK SMILES IDX 38 68 39 69 48 70 40 71 41 72 47 73 49 74 42 75 43 76 44 77
REMARK SMILES IDX 45 78 46 79 72 80 73 81 82 82 74 83 75 84 81 85 83 86 76 87
REMARK SMILES IDX 77 88 78 89 79 90 80 91 56 92 57 93 66 94 58 95 59 96 65 97
REMARK SMILES IDX 67 98 60 99 61 100 62 101 63 102 64 103
REMARK H PARENT 21 5 9 18 26 34 88 53 54 64
REMARK Flexibility Score: inf
ROOT
ATOM      1  C   UNL     1      -3.867   8.281  -4.091  1.00  0.00     0.116 C 
ENDROOT
BRANCH   1   2
ATOM      2  N   UNL     1      -5.055   8.904  -3.549  1.00  0.00    -0.351 N 
ATOM      3  C   UNL     1      -6.048   8.513  -2.687  1.00  0.00     0.261 C 
ATOM      4  O   UNL     1      -6.893   9.403  -2.510  1.00  0.00    -0.268 OA
ATOM      5  H   UNL     1      -5.181   9.824  -3.876  1.00  0.00     0.163 HD
BRANCH   3   6
ATOM      6  C   UNL     1      -6.133   7.212  -2.000  1.00  0.00     0.099 A 
ATOM      7  C   UNL     1      -6.014   5.043  -1.097  1.00  0.00     0.145 A 
ATOM      8  C   UNL     1      -6.977   5.571  -0.285  1.00  0.00     0.113 A 
ATOM      9  C   UNL     1      -5.596   5.930  -2.155  1.00  0.00     0.015 A 
ATOM     10  S   UNL     1      -7.264   7.201  -0.661  1.00  0.00    -0.134 S 
ATOM     11  C   UNL     1      -4.733   5.393  -3.239  1.00  0.00     0.050 C 
BRANCH   7  12
ATOM     12  O   UNL     1      -5.616   3.752  -0.972  1.00  0.00    -0.424 OA
BRANCH  12  13
ATOM     13  C   UNL     1      -4.265   3.555  -0.835  1.00  0.00     0.329 C 
ATOM     14  O   UNL     1      -3.474   4.372  -0.374  1.00  0.00    -0.250 OA
BRANCH  13  15
ATOM     15  C   UNL     1      -3.861   2.132  -1.221  1.00  0.00     0.177 C 
ATOM     16  C   UNL     1      -4.526   1.649  -2.499  1.00  0.00     0.038 C 
BRANCH  15  17
ATOM     17  N   UNL     1      -4.148   1.278  -0.064  1.00  0.00    -0.197 NA
ATOM     18  H   UNL     1      -3.836   1.807   0.751  1.00  0.00     0.142 HD
BRANCH  17  19
ATOM     19  S   UNL     1      -3.550  -0.254   0.145  1.00  0.00     0.241 S 
ATOM     20  O   UNL     1      -3.888  -1.018  -1.050  1.00  0.00    -0.207 OA
ATOM     21  O   UNL     1      -3.997  -0.673   1.440  1.00  0.00    -0.207 OA
BRANCH  19  22
ATOM     22  C   UNL     1      -1.784  -0.126   0.206  1.00  0.00     0.082 A 
ATOM     23  C   UNL     1       2.509   0.004   0.001  1.00  0.00     0.044 C 
ATOM     24  C   UNL     1       1.012  -0.034   0.089  1.00  0.00    -0.051 A 
ATOM     25  C   UNL     1       0.339  -1.253  -0.058  1.00  0.00     0.005 A 
ATOM     26  C   UNL     1       0.272   1.132   0.329  1.00  0.00     0.005 A 
ATOM     27  C   UNL     1      -1.053  -1.298  -0.013  1.00  0.00     0.022 A 
ATOM     28  C   UNL     1      -1.123   1.088   0.406  1.00  0.00     0.022 A 
ENDBRANCH  19  22
ENDBRANCH  17  19
ENDBRANCH  15  17
ENDBRANCH  13  15
ENDBRANCH  12  13
ENDBRANCH   7  12
ENDBRANCH   3   6
ENDBRANCH   1   2
BRANCH   1  29
ATOM     29  C   UNL     1      -4.152   7.618  -5.450  1.00  0.00     0.023 C 
BRANCH  29  30
ATOM     30  C   UNL     1      -4.152   8.546  -6.658  1.00  0.00     0.023 C 
BRANCH  30  31
ATOM     31  C   UNL     1      -2.767   9.040  -7.011  1.00  0.00     0.116 C 
BRANCH  31  32
ATOM     32  N   UNL     1      -2.076   8.312  -8.063  1.00  0.00    -0.352 N 
ATOM     33  C   UNL     1      -0.967   8.801  -8.752  1.00  0.00     0.251 C 
ATOM     34  H   UNL     1      -2.412   7.418  -8.304  1.00  0.00     0.163 HD
ATOM     35  O   UNL     1      -0.758   8.590  -9.939  1.00  0.00    -0.269 OA
BRANCH  33  36
ATOM     36  C   UNL     1       0.058   9.470  -7.918  1.00  0.00     0.039 A 
ATOM     37  C   UNL     1       1.277   8.808  -7.718  1.00  0.00     0.014 A 
ATOM     38  C   UNL     1      -0.336  10.514  -7.091  1.00  0.00     0.014 A 
ATOM     39  C   UNL     1       1.992   9.045  -6.551  1.00  0.00     0.010 A 
ATOM     40  C   UNL     1       0.260  10.611  -5.864  1.00  0.00     0.010 A 
ATOM     41  C   UNL     1       1.405   9.856  -5.590  1.00  0.00    -0.014 A 
BRANCH  41  42
ATOM     42  C   UNL     1       1.938  10.109  -4.271  1.00  0.00     0.031 A 
ATOM     43  C   UNL     1       2.638  11.390  -4.088  1.00  0.00     0.074 A 
ATOM     44  C   UNL     1       1.521   9.316  -3.263  1.00  0.00     0.049 A 
ATOM     45  N   UNL     1       3.300  11.724  -3.045  1.00  0.00    -0.248 NA
ATOM     46  C   UNL     1       2.660  12.418  -5.128  1.00  0.00     0.031 C 
ATOM     47  C   UNL     1       1.576   9.559  -1.827  1.00  0.00     0.029 A 
ATOM     48  N   UNL     1       1.135   7.974  -3.369  1.00  0.00    -0.354 N 
ATOM     49  C   UNL     1       3.541  13.081  -3.123  1.00  0.00     0.074 A 
ATOM     50  C   UNL     1       3.236  13.432  -4.483  1.00  0.00     0.031 C 
ATOM     51  C   UNL     1       1.557   8.374  -1.190  1.00  0.00     0.029 A 
ATOM     52  C   UNL     1       1.643   7.343  -2.215  1.00  0.00     0.049 A 
ATOM     53  H   UNL     1       0.617   7.559  -4.096  1.00  0.00     0.167 HD
ATOM     54  C   UNL     1       3.811  13.739  -1.959  1.00  0.00     0.037 A 
ATOM     55  C   UNL     1       2.691   6.473  -2.349  1.00  0.00     0.037 A 
ATOM     56  C   UNL     1       4.060  12.749  -0.902  1.00  0.00     0.049 A 
ATOM     57  C   UNL     1       3.956   7.002  -1.699  1.00  0.00     0.074 A 
ATOM     58  C   UNL     1       3.273  12.243   0.119  1.00  0.00     0.029 A 
ATOM     59  N   UNL     1       5.113  11.848  -1.066  1.00  0.00    -0.354 N 
ATOM     60  N   UNL     1       4.205   8.268  -1.481  1.00  0.00    -0.248 NA
ATOM     61  C   UNL     1       4.995   6.132  -1.157  1.00  0.00     0.031 C 
ATOM     62  C   UNL     1       3.792  10.964   0.473  1.00  0.00     0.029 A 
ATOM     63  C   UNL     1       4.909  10.709  -0.307  1.00  0.00     0.049 A 
ATOM     64  H   UNL     1       5.895  12.002  -1.643  1.00  0.00     0.167 HD
ATOM     65  C   UNL     1       5.370   8.398  -0.765  1.00  0.00     0.074 A 
ATOM     66  C   UNL     1       5.819   7.027  -0.585  1.00  0.00     0.031 C 
ATOM     67  C   UNL     1       5.865   9.606  -0.349  1.00  0.00     0.037 A 
BRANCH  54  68
ATOM     68  C   UNL     1       3.574  15.223  -1.707  1.00  0.00     0.058 A 
ATOM     69  C   UNL     1       3.505  15.709  -0.380  1.00  0.00     0.135 A 
ATOM     70  C   UNL     1       3.315  16.209  -2.685  1.00  0.00     0.135 A 
ATOM     71  F   UNL     1       3.762  14.915   0.668  1.00  0.00    -0.206 F 
ATOM     72  C   UNL     1       3.155  17.026  -0.057  1.00  0.00     0.059 A 
ATOM     73  C   UNL     1       2.950  17.527  -2.389  1.00  0.00     0.059 A 
ATOM     74  F   UNL     1       3.418  15.971  -3.993  1.00  0.00    -0.206 F 
ATOM     75  C   UNL     1       2.865  17.928  -1.069  1.00  0.00     0.060 A 
BRANCH  75  76
ATOM     76  S   UNL     1       2.411  19.619  -0.648  1.00  0.00     0.124 S 
ATOM     77  O   UNL     1       1.185  19.424   0.117  1.00  0.00    -0.237 OA
ATOM     78  O   UNL     1       3.573  20.066   0.112  1.00  0.00    -0.237 OA
ATOM     79  O   UNL     1       2.235  20.260  -1.949  1.00  0.00    -0.744 OA
ENDBRANCH  75  76
ENDBRANCH  54  68
BRANCH  55  80
ATOM     80  C   UNL     1       2.570   5.642  -3.591  1.00  0.00     0.058 A 
ATOM     81  C   UNL     1       1.441   4.795  -3.681  1.00  0.00     0.135 A 
ATOM     82  C   UNL     1       3.189   5.998  -4.798  1.00  0.00     0.135 A 
ATOM     83  F   UNL     1       0.817   4.391  -2.561  1.00  0.00    -0.206 F 
ATOM     84  C   UNL     1       0.836   4.491  -4.898  1.00  0.00     0.059 A 
ATOM     85  C   UNL     1       2.611   5.679  -6.036  1.00  0.00     0.059 A 
ATOM     86  F   UNL     1       4.276   6.783  -4.794  1.00  0.00    -0.206 F 
ATOM     87  C   UNL     1       1.390   5.002  -6.067  1.00  0.00     0.060 A 
BRANCH  87  88
ATOM     88  S   UNL     1       0.394   4.912  -7.580  1.00  0.00     0.124 S 
ATOM     89  O   UNL     1       0.245   3.471  -7.756  1.00  0.00    -0.237 OA
ATOM     90  O   UNL     1      -0.824   5.628  -7.190  1.00  0.00    -0.237 OA
ATOM     91  O   UNL     1       1.226   5.584  -8.569  1.00  0.00    -0.744 OA
ENDBRANCH  87  88
ENDBRANCH  55  80
BRANCH  67  92
ATOM     92  C   UNL     1       7.276   9.861   0.159  1.00  0.00     0.058 A 
ATOM     93  C   UNL     1       8.378   9.033  -0.116  1.00  0.00     0.135 A 
ATOM     94  C   UNL     1       7.591  11.069   0.836  1.00  0.00     0.135 A 
ATOM     95  F   UNL     1       8.262   7.931  -0.868  1.00  0.00    -0.206 F 
ATOM     96  C   UNL     1       9.668   9.327   0.328  1.00  0.00     0.059 A 
ATOM     97  C   UNL     1       8.883  11.420   1.214  1.00  0.00     0.059 A 
ATOM     98  F   UNL     1       6.652  11.975   1.144  1.00  0.00    -0.206 F 
ATOM     99  C   UNL     1       9.912  10.523   0.992  1.00  0.00     0.060 A 
BRANCH  99 100
ATOM    100  S   UNL     1      11.584  10.920   1.523  1.00  0.00     0.124 S 
ATOM    101  O   UNL     1      11.655  10.214   2.798  1.00  0.00    -0.237 OA
ATOM    102  O   UNL     1      12.400  10.364   0.447  1.00  0.00    -0.237 OA
ATOM    103  O   UNL     1      11.576  12.377   1.605  1.00  0.00    -0.744 OA
ENDBRANCH  99 100
ENDBRANCH  67  92
ENDBRANCH  41  42
ENDBRANCH  33  36
ENDBRANCH  31  32
ENDBRANCH  30  31
ENDBRANCH  29  30
ENDBRANCH   1  29
TORSDOF 20
