REMARK SMILES CC[C@@H](Oc1ccc(-c2ccccc2)cc1)C(=O)N1CCC[C@H](C(=O)NCCCCNC(=O)c2ccc(-c3c4nc(c(-c5c(F)cc(S(=O)(=O)[O-])cc5F)c5ccc([nH]5)c(-c5c(F)cc(S(=O)(=O)[O-])cc5F)c5nc(c(-c6c(F)cc(S(=O)(=O)[O-])cc6F)c6ccc3[nH]6)C=C5)C=C4)cc2)C1
REMARK SMILES IDX 27 1 26 2 24 3 25 4 23 6 19 7 20 8 100 9 21 10 22 11 17 12
REMARK SMILES IDX 18 13 3 14 2 15 1 16 4 17 5 18 6 19 16 20 7 21 15 22 8 23
REMARK SMILES IDX 9 24 10 25 14 26 11 27 13 28 12 29 28 30 29 31 30 32 31 33
REMARK SMILES IDX 32 34 33 36 34 37 35 38 99 39 36 40 98 41 37 42 38 43 39 44
REMARK SMILES IDX 92 45 40 46 97 47 91 48 93 49 41 50 96 51 90 52 89 53 42 55
REMARK SMILES IDX 76 56 55 57 75 58 56 59 59 60 74 61 94 62 57 63 58 64 73 66
REMARK SMILES IDX 95 67 60 68 43 69 44 70 53 71 45 72 46 73 52 74 54 75 47 76
REMARK SMILES IDX 48 77 49 78 50 79 51 80 77 81 78 82 87 83 79 84 80 85 86 86
REMARK SMILES IDX 88 87 81 88 82 89 83 90 84 91 85 92 61 93 62 94 71 95 63 96
REMARK SMILES IDX 64 97 70 98 72 99 65 100 66 101 67 102 68 103 69 104
REMARK H PARENT 26 5 31 35 93 54 59 65
REMARK Flexibility Score: inf
ROOT
ATOM      1  C   UNL     1      -0.211   2.005   5.719  1.00  0.00     0.116 C 
ENDROOT
BRANCH   1   2
ATOM      2  N   UNL     1      -0.977   0.780   5.784  1.00  0.00    -0.356 N 
ATOM      3  C   UNL     1      -2.026   0.327   5.054  1.00  0.00     0.224 C 
ATOM      4  O   UNL     1      -2.341  -0.857   5.230  1.00  0.00    -0.275 OA
ATOM      5  H   UNL     1      -0.682   0.159   6.489  1.00  0.00     0.163 HD
BRANCH   3   6
ATOM      6  C   UNL     1      -2.832   1.162   4.048  1.00  0.00     0.098 C 
ATOM      7  N   UNL     1      -1.392   2.720   2.741  1.00  0.00    -0.339 N 
ATOM      8  C   UNL     1      -2.168   3.888   3.152  1.00  0.00     0.119 C 
ATOM      9  C   UNL     1      -2.115   1.458   2.730  1.00  0.00     0.133 C 
ATOM     10  C   UNL     1      -2.905   3.706   4.476  1.00  0.00     0.022 C 
ATOM     11  C   UNL     1      -3.590   2.353   4.631  1.00  0.00     0.017 C 
BRANCH   7  12
ATOM     12  C   UNL     1      -0.069   2.905   2.338  1.00  0.00     0.263 C 
ATOM     13  O   UNL     1       0.616   3.800   2.848  1.00  0.00    -0.271 OA
BRANCH  12  14
ATOM     14  C   UNL     1       0.512   2.088   1.162  1.00  0.00     0.261 C 
BRANCH  14  15
ATOM     15  C   UNL     1       0.636   0.573   1.378  1.00  0.00     0.052 C 
ATOM     16  C   UNL     1       1.865  -0.043   0.715  1.00  0.00     0.008 C 
ENDBRANCH  14  15
BRANCH  14  17
ATOM     17  O   UNL     1      -0.404   2.395   0.089  1.00  0.00    -0.481 OA
BRANCH  17  18
ATOM     18  C   UNL     1       0.172   2.323  -1.143  1.00  0.00     0.120 A 
ATOM     19  C   UNL     1       1.019   3.314  -1.628  1.00  0.00     0.047 A 
ATOM     20  C   UNL     1      -0.189   1.248  -1.941  1.00  0.00     0.047 A 
ATOM     21  C   UNL     1       1.536   3.202  -2.927  1.00  0.00     0.012 A 
ATOM     22  C   UNL     1       0.348   1.128  -3.219  1.00  0.00     0.012 A 
ATOM     23  C   UNL     1       1.212   2.105  -3.748  1.00  0.00    -0.018 A 
BRANCH  23  24
ATOM     24  C   UNL     1       1.734   1.961  -5.124  1.00  0.00    -0.018 A 
ATOM     25  C   UNL     1       3.062   2.279  -5.452  1.00  0.00     0.009 A 
ATOM     26  C   UNL     1       0.914   1.459  -6.153  1.00  0.00     0.009 A 
ATOM     27  C   UNL     1       3.553   2.082  -6.748  1.00  0.00     0.001 A 
ATOM     28  C   UNL     1       1.404   1.250  -7.444  1.00  0.00     0.001 A 
ATOM     29  C   UNL     1       2.726   1.560  -7.740  1.00  0.00     0.000 A 
ENDBRANCH  23  24
ENDBRANCH  17  18
ENDBRANCH  14  17
ENDBRANCH  12  14
ENDBRANCH   7  12
ENDBRANCH   3   6
ENDBRANCH   1   2
BRANCH   1  30
ATOM     30  C   UNL     1      -0.342   2.875   6.966  1.00  0.00     0.023 C 
BRANCH  30  31
ATOM     31  C   UNL     1       0.826   2.772   7.940  1.00  0.00     0.023 C 
BRANCH  31  32
ATOM     32  C   UNL     1       2.200   3.099   7.360  1.00  0.00     0.116 C 
BRANCH  32  33
ATOM     33  N   UNL     1       2.303   4.415   6.741  1.00  0.00    -0.352 N 
ATOM     34  C   UNL     1       3.371   5.285   6.781  1.00  0.00     0.251 C 
ATOM     35  H   UNL     1       1.515   4.718   6.235  1.00  0.00     0.163 HD
ATOM     36  O   UNL     1       3.293   6.404   6.283  1.00  0.00    -0.269 OA
BRANCH  34  37
ATOM     37  C   UNL     1       4.604   4.864   7.479  1.00  0.00     0.039 A 
ATOM     38  C   UNL     1       5.131   5.681   8.481  1.00  0.00     0.014 A 
ATOM     39  C   UNL     1       5.175   3.618   7.206  1.00  0.00     0.014 A 
ATOM     40  C   UNL     1       6.174   5.202   9.277  1.00  0.00     0.010 A 
ATOM     41  C   UNL     1       6.154   3.111   8.053  1.00  0.00     0.010 A 
ATOM     42  C   UNL     1       6.657   3.893   9.104  1.00  0.00    -0.014 A 
BRANCH  42  43
ATOM     43  C   UNL     1       7.667   3.317  10.030  1.00  0.00     0.031 A 
ATOM     44  C   UNL     1       9.013   2.888   9.512  1.00  0.00     0.074 A 
ATOM     45  C   UNL     1       7.344   3.112  11.323  1.00  0.00     0.049 A 
ATOM     46  N   UNL     1      10.001   2.321  10.154  1.00  0.00    -0.248 NA
ATOM     47  C   UNL     1       9.269   3.092   8.077  1.00  0.00     0.031 C 
ATOM     48  C   UNL     1       6.045   3.412  11.931  1.00  0.00     0.029 A 
ATOM     49  N   UNL     1       8.080   2.594  12.360  1.00  0.00    -0.354 N 
ATOM     50  C   UNL     1      10.986   2.086   9.201  1.00  0.00     0.074 A 
ATOM     51  C   UNL     1      10.453   2.518   7.928  1.00  0.00     0.031 C 
ATOM     52  C   UNL     1       6.087   3.104  13.238  1.00  0.00     0.029 A 
ATOM     53  C   UNL     1       7.402   2.558  13.556  1.00  0.00     0.049 A 
ATOM     54  H   UNL     1       9.007   2.279  12.257  1.00  0.00     0.167 HD
ATOM     55  C   UNL     1      12.231   1.583   9.376  1.00  0.00     0.037 A 
ATOM     56  C   UNL     1       7.797   2.136  14.774  1.00  0.00     0.037 A 
ATOM     57  C   UNL     1      12.771   1.190  10.650  1.00  0.00     0.049 A 
ATOM     58  C   UNL     1       9.199   1.621  14.950  1.00  0.00     0.074 A 
ATOM     59  C   UNL     1      14.045   0.736  10.944  1.00  0.00     0.029 A 
ATOM     60  N   UNL     1      12.068   1.209  11.846  1.00  0.00    -0.354 N 
ATOM     61  N   UNL     1      10.143   1.476  14.051  1.00  0.00    -0.248 NA
ATOM     62  C   UNL     1       9.594   1.221  16.308  1.00  0.00     0.031 C 
ATOM     63  C   UNL     1      14.103   0.451  12.312  1.00  0.00     0.029 A 
ATOM     64  C   UNL     1      12.877   0.763  12.878  1.00  0.00     0.049 A 
ATOM     65  H   UNL     1      11.132   1.496  11.947  1.00  0.00     0.167 HD
ATOM     66  C   UNL     1      11.250   0.990  14.737  1.00  0.00     0.074 A 
ATOM     67  C   UNL     1      10.863   0.880  16.129  1.00  0.00     0.031 C 
ATOM     68  C   UNL     1      12.476   0.664  14.259  1.00  0.00     0.037 A 
BRANCH  55  69
ATOM     69  C   UNL     1      13.101   1.450   8.156  1.00  0.00     0.058 A 
ATOM     70  C   UNL     1      13.628   2.576   7.504  1.00  0.00     0.135 A 
ATOM     71  C   UNL     1      13.428   0.184   7.644  1.00  0.00     0.135 A 
ATOM     72  F   UNL     1      13.333   3.811   7.942  1.00  0.00    -0.206 F 
ATOM     73  C   UNL     1      14.422   2.455   6.369  1.00  0.00     0.059 A 
ATOM     74  C   UNL     1      14.243   0.038   6.525  1.00  0.00     0.059 A 
ATOM     75  F   UNL     1      12.950  -0.926   8.228  1.00  0.00    -0.206 F 
ATOM     76  C   UNL     1      14.722   1.181   5.885  1.00  0.00     0.060 A 
BRANCH  76  77
ATOM     77  S   UNL     1      15.754   1.039   4.411  1.00  0.00     0.124 S 
ATOM     78  O   UNL     1      14.813   1.417   3.361  1.00  0.00    -0.237 OA
ATOM     79  O   UNL     1      16.820   1.998   4.680  1.00  0.00    -0.237 OA
ATOM     80  O   UNL     1      16.161  -0.363   4.415  1.00  0.00    -0.744 OA
ENDBRANCH  76  77
ENDBRANCH  55  69
BRANCH  56  81
ATOM     81  C   UNL     1       6.866   2.224  15.930  1.00  0.00     0.058 A 
ATOM     82  C   UNL     1       7.062   3.177  16.940  1.00  0.00     0.135 A 
ATOM     83  C   UNL     1       5.760   1.368  16.044  1.00  0.00     0.135 A 
ATOM     84  F   UNL     1       8.109   4.013  16.878  1.00  0.00    -0.206 F 
ATOM     85  C   UNL     1       6.206   3.269  18.032  1.00  0.00     0.059 A 
ATOM     86  C   UNL     1       4.876   1.456  17.116  1.00  0.00     0.059 A 
ATOM     87  F   UNL     1       5.518   0.451  15.095  1.00  0.00    -0.206 F 
ATOM     88  C   UNL     1       5.114   2.404  18.111  1.00  0.00     0.060 A 
BRANCH  88  89
ATOM     89  S   UNL     1       3.978   2.563  19.507  1.00  0.00     0.124 S 
ATOM     90  O   UNL     1       4.750   1.953  20.583  1.00  0.00    -0.237 OA
ATOM     91  O   UNL     1       3.795   4.009  19.592  1.00  0.00    -0.237 OA
ATOM     92  O   UNL     1       2.803   1.817  19.068  1.00  0.00    -0.744 OA
ENDBRANCH  88  89
ENDBRANCH  56  81
BRANCH  68  93
ATOM     93  C   UNL     1      13.495   0.182  15.252  1.00  0.00     0.058 A 
ATOM     94  C   UNL     1      13.421  -1.100  15.818  1.00  0.00     0.135 A 
ATOM     95  C   UNL     1      14.579   0.998  15.612  1.00  0.00     0.135 A 
ATOM     96  F   UNL     1      12.401  -1.917  15.510  1.00  0.00    -0.206 F 
ATOM     97  C   UNL     1      14.373  -1.548  16.728  1.00  0.00     0.059 A 
ATOM     98  C   UNL     1      15.556   0.562  16.501  1.00  0.00     0.059 A 
ATOM     99  F   UNL     1      14.701   2.229  15.090  1.00  0.00    -0.206 F 
ATOM    100  C   UNL     1      15.436  -0.708  17.065  1.00  0.00     0.060 A 
BRANCH 100 101
ATOM    101  S   UNL     1      16.679  -1.306  18.230  1.00  0.00     0.124 S 
ATOM    102  O   UNL     1      15.977  -1.170  19.502  1.00  0.00    -0.237 OA
ATOM    103  O   UNL     1      16.905  -2.674  17.774  1.00  0.00    -0.237 OA
ATOM    104  O   UNL     1      17.799  -0.392  18.029  1.00  0.00    -0.744 OA
ENDBRANCH 100 101
ENDBRANCH  68  93
ENDBRANCH  42  43
ENDBRANCH  34  37
ENDBRANCH  32  33
ENDBRANCH  31  32
ENDBRANCH  30  31
ENDBRANCH   1  30
TORSDOF 20
