REMARK SMILES CC1(C)S[C@H](c2ccccc2O)[NH2+][C@H]1C(=O)NCCCCNC(=O)c1ccc(-c2c3nc(c(-c4c(F)cc(S(=O)(=O)[O-])cc4F)c4ccc([nH]4)c(-c4c(F)cc(S(=O)(=O)[O-])cc4F)c4nc(c(-c5c(F)cc(S(=O)(=O)[O-])cc5F)c5ccc2[nH]5)C=C4)C=C3)cc1
REMARK SMILES IDX 20 1 19 2 18 3 17 4 15 5 16 6 14 8 1 9 2 10 3 11 4 12 5 13
REMARK SMILES IDX 13 14 6 17 7 18 11 19 8 20 10 21 9 22 12 23 21 25 22 26
REMARK SMILES IDX 23 27 24 29 25 30 26 31 90 32 27 33 89 34 28 35 29 36 30 37
REMARK SMILES IDX 83 38 31 39 88 40 82 41 84 42 32 43 87 44 81 45 80 46 33 48
REMARK SMILES IDX 67 49 46 50 66 51 47 52 50 53 65 54 85 55 48 56 49 57 64 59
REMARK SMILES IDX 86 60 51 61 34 62 35 63 44 64 36 65 37 66 43 67 45 68 38 69
REMARK SMILES IDX 39 70 40 71 41 72 42 73 68 74 69 75 78 76 70 77 71 78 77 79
REMARK SMILES IDX 79 80 72 81 73 82 74 83 75 84 76 85 52 86 53 87 62 88 54 89
REMARK SMILES IDX 55 90 61 91 63 92 56 93 57 94 58 95 59 96 60 97
REMARK H PARENT 17 7 13 15 13 16 12 24 22 28 84 47 50 58
REMARK Flexibility Score: inf
ROOT
ATOM      1  C   UNL     1       2.216   3.211   3.929  1.00  0.00     0.023 C 
ENDROOT
BRANCH   1   2
ATOM      2  C   UNL     1       1.625   1.964   3.288  1.00  0.00     0.023 C 
BRANCH   2   3
ATOM      3  C   UNL     1       0.386   2.207   2.428  1.00  0.00     0.116 C 
BRANCH   3   4
ATOM      4  N   UNL     1       0.716   2.839   1.165  1.00  0.00    -0.351 N 
ATOM      5  C   UNL     1       0.619   2.442  -0.133  1.00  0.00     0.279 C 
ATOM      6  O   UNL     1       1.086   3.222  -0.973  1.00  0.00    -0.268 OA
ATOM      7  H   UNL     1       1.087   3.745   1.269  1.00  0.00     0.163 HD
BRANCH   5   8
ATOM      8  C   UNL     1       0.017   1.100  -0.598  1.00  0.00     0.289 C 
ATOM      9  C   UNL     1       1.754  -0.308   0.786  1.00  0.00     0.030 C 
ATOM     10  C   UNL     1       0.955  -0.117  -0.496  1.00  0.00     0.077 C 
ATOM     11  C   UNL     1       1.921  -0.168  -1.687  1.00  0.00     0.030 C 
ATOM     12  S   UNL     1      -0.192  -1.525  -0.598  1.00  0.00    -0.081 SA
ATOM     13  C   UNL     1      -1.711  -0.541  -0.343  1.00  0.00     0.278 C 
ATOM     14  N   UNL     1      -1.330   0.846  -0.030  1.00  0.00    -0.320 N 
ATOM     15  H   UNL     1      -1.308   0.977   0.982  1.00  0.00     0.348 HD
ATOM     16  H   UNL     1      -2.007   1.495  -0.430  1.00  0.00     0.348 HD
BRANCH  13  17
ATOM     17  C   UNL     1      -2.655  -0.699  -1.522  1.00  0.00     0.062 A 
ATOM     18  C   UNL     1      -2.865   0.318  -2.470  1.00  0.00     0.015 A 
ATOM     19  C   UNL     1      -3.319  -1.921  -1.725  1.00  0.00     0.125 A 
ATOM     20  C   UNL     1      -3.669   0.102  -3.592  1.00  0.00     0.001 A 
ATOM     21  C   UNL     1      -4.115  -2.147  -2.848  1.00  0.00     0.047 A 
ATOM     22  C   UNL     1      -4.282  -1.133  -3.788  1.00  0.00     0.004 A 
BRANCH  19  23
ATOM     23  O   UNL     1      -3.179  -2.915  -0.793  1.00  0.00    -0.507 OA
ATOM     24  H   UNL     1      -2.646  -2.774  -0.035  1.00  0.00     0.293 HD
ENDBRANCH  19  23
ENDBRANCH  13  17
ENDBRANCH   5   8
ENDBRANCH   3   4
ENDBRANCH   2   3
ENDBRANCH   1   2
BRANCH   1  25
ATOM     25  C   UNL     1       1.268   3.946   4.860  1.00  0.00     0.116 C 
BRANCH  25  26
ATOM     26  N   UNL     1       0.730   3.093   5.912  1.00  0.00    -0.352 N 
ATOM     27  C   UNL     1       0.682   3.327   7.267  1.00  0.00     0.251 C 
ATOM     28  H   UNL     1       0.350   2.235   5.614  1.00  0.00     0.163 HD
ATOM     29  O   UNL     1       0.330   2.448   8.039  1.00  0.00    -0.269 OA
BRANCH  27  30
ATOM     30  C   UNL     1       1.094   4.654   7.765  1.00  0.00     0.039 A 
ATOM     31  C   UNL     1       2.006   4.737   8.818  1.00  0.00     0.014 A 
ATOM     32  C   UNL     1       0.626   5.809   7.133  1.00  0.00     0.014 A 
ATOM     33  C   UNL     1       2.499   5.986   9.195  1.00  0.00     0.010 A 
ATOM     34  C   UNL     1       1.196   7.034   7.439  1.00  0.00     0.010 A 
ATOM     35  C   UNL     1       2.123   7.139   8.487  1.00  0.00    -0.014 A 
BRANCH  35  36
ATOM     36  C   UNL     1       2.638   8.481   8.850  1.00  0.00     0.031 A 
ATOM     37  C   UNL     1       1.667   9.543   9.293  1.00  0.00     0.074 A 
ATOM     38  C   UNL     1       3.947   8.764   8.707  1.00  0.00     0.049 A 
ATOM     39  N   UNL     1       1.882  10.807   9.547  1.00  0.00    -0.248 NA
ATOM     40  C   UNL     1       0.256   9.139   9.423  1.00  0.00     0.031 C 
ATOM     41  C   UNL     1       4.971   7.834   8.225  1.00  0.00     0.029 A 
ATOM     42  N   UNL     1       4.639   9.923   8.945  1.00  0.00    -0.354 N 
ATOM     43  C   UNL     1       0.635  11.350   9.832  1.00  0.00     0.074 A 
ATOM     44  C   UNL     1      -0.339  10.297   9.658  1.00  0.00     0.031 C 
ATOM     45  C   UNL     1       6.164   8.451   8.230  1.00  0.00     0.029 A 
ATOM     46  C   UNL     1       5.986   9.827   8.683  1.00  0.00     0.049 A 
ATOM     47  H   UNL     1       4.212  10.748   9.271  1.00  0.00     0.167 HD
ATOM     48  C   UNL     1       0.332  12.606  10.237  1.00  0.00     0.037 A 
ATOM     49  C   UNL     1       6.962  10.747   8.800  1.00  0.00     0.037 A 
ATOM     50  C   UNL     1       1.315  13.630  10.463  1.00  0.00     0.049 A 
ATOM     51  C   UNL     1       6.610  12.120   9.306  1.00  0.00     0.074 A 
ATOM     52  C   UNL     1       1.129  14.917  10.932  1.00  0.00     0.029 A 
ATOM     53  N   UNL     1       2.678  13.473  10.249  1.00  0.00    -0.354 N 
ATOM     54  N   UNL     1       5.432  12.604   9.622  1.00  0.00    -0.248 NA
ATOM     55  C   UNL     1       7.719  13.066   9.486  1.00  0.00     0.031 C 
ATOM     56  C   UNL     1       2.377  15.548  10.980  1.00  0.00     0.029 A 
ATOM     57  C   UNL     1       3.344  14.640  10.577  1.00  0.00     0.049 A 
ATOM     58  H   UNL     1       3.106  12.653   9.913  1.00  0.00     0.167 HD
ATOM     59  C   UNL     1       5.661  13.901  10.068  1.00  0.00     0.074 A 
ATOM     60  C   UNL     1       7.091  14.121   9.988  1.00  0.00     0.031 C 
ATOM     61  C   UNL     1       4.772  14.826  10.506  1.00  0.00     0.037 A 
BRANCH  48  62
ATOM     62  C   UNL     1      -1.118  12.925  10.476  1.00  0.00     0.058 A 
ATOM     63  C   UNL     1      -1.826  12.367  11.555  1.00  0.00     0.135 A 
ATOM     64  C   UNL     1      -1.810  13.798   9.622  1.00  0.00     0.135 A 
ATOM     65  F   UNL     1      -1.219  11.509  12.390  1.00  0.00    -0.206 F 
ATOM     66  C   UNL     1      -3.175  12.633  11.755  1.00  0.00     0.059 A 
ATOM     67  C   UNL     1      -3.153  14.102   9.821  1.00  0.00     0.059 A 
ATOM     68  F   UNL     1      -1.183  14.357   8.574  1.00  0.00    -0.206 F 
ATOM     69  C   UNL     1      -3.832  13.500  10.880  1.00  0.00     0.060 A 
BRANCH  69  70
ATOM     70  S   UNL     1      -5.585  13.833  11.150  1.00  0.00     0.124 S 
ATOM     71  O   UNL     1      -6.193  12.597  10.666  1.00  0.00    -0.237 OA
ATOM     72  O   UNL     1      -5.646  14.045  12.593  1.00  0.00    -0.237 OA
ATOM     73  O   UNL     1      -5.835  15.017  10.334  1.00  0.00    -0.744 OA
ENDBRANCH  69  70
ENDBRANCH  48  62
BRANCH  49  74
ATOM     74  C   UNL     1       8.369  10.386   8.481  1.00  0.00     0.058 A 
ATOM     75  C   UNL     1       9.319  10.229   9.502  1.00  0.00     0.135 A 
ATOM     76  C   UNL     1       8.790  10.175   7.160  1.00  0.00     0.135 A 
ATOM     77  F   UNL     1       8.965  10.421  10.782  1.00  0.00    -0.206 F 
ATOM     78  C   UNL     1      10.640   9.896   9.224  1.00  0.00     0.059 A 
ATOM     79  C   UNL     1      10.101   9.820   6.858  1.00  0.00     0.059 A 
ATOM     80  F   UNL     1       7.915  10.293   6.149  1.00  0.00    -0.206 F 
ATOM     81  C   UNL     1      11.022   9.693   7.897  1.00  0.00     0.060 A 
BRANCH  81  82
ATOM     82  S   UNL     1      12.730   9.216   7.550  1.00  0.00     0.124 S 
ATOM     83  O   UNL     1      13.433  10.477   7.751  1.00  0.00    -0.237 OA
ATOM     84  O   UNL     1      12.970   8.183   8.553  1.00  0.00    -0.237 OA
ATOM     85  O   UNL     1      12.669   8.737   6.173  1.00  0.00    -0.744 OA
ENDBRANCH  81  82
ENDBRANCH  49  74
BRANCH  61  86
ATOM     86  C   UNL     1       5.323  16.140  10.978  1.00  0.00     0.058 A 
ATOM     87  C   UNL     1       5.805  17.105  10.081  1.00  0.00     0.135 A 
ATOM     88  C   UNL     1       5.323  16.455  12.347  1.00  0.00     0.135 A 
ATOM     89  F   UNL     1       5.829  16.849   8.763  1.00  0.00    -0.206 F 
ATOM     90  C   UNL     1       6.295  18.327  10.526  1.00  0.00     0.059 A 
ATOM     91  C   UNL     1       5.785  17.681  12.812  1.00  0.00     0.059 A 
ATOM     92  F   UNL     1       4.860  15.570  13.244  1.00  0.00    -0.206 F 
ATOM     93  C   UNL     1       6.281  18.606  11.895  1.00  0.00     0.060 A 
BRANCH  93  94
ATOM     94  S   UNL     1       6.896  20.206  12.460  1.00  0.00     0.124 S 
ATOM     95  O   UNL     1       8.339  20.017  12.362  1.00  0.00    -0.237 OA
ATOM     96  O   UNL     1       6.309  21.128  11.492  1.00  0.00    -0.237 OA
ATOM     97  O   UNL     1       6.366  20.311  13.817  1.00  0.00    -0.744 OA
ENDBRANCH  93  94
ENDBRANCH  61  86
ENDBRANCH  35  36
ENDBRANCH  27  30
ENDBRANCH  25  26
ENDBRANCH   1  25
TORSDOF 16
