REMARK SMILES C[C@@H]1CC(NC(=O)NCCOCC(=O)NCCCCNC(=O)c2ccc(-c3c4nc(c(-c5c(F)cc(S(=O)(=O)[O-])cc5F)c5ccc([nH]5)c(-c5c(F)cc(S(=O)(=O)[O-])cc5F)c5nc(c(-c6c(F)cc(S(=O)(=O)[O-])cc6F)c6ccc3[nH]6)C=C5)C=C4)cc2)C[C@@H](C)C1
REMARK SMILES IDX 16 1 15 2 13 3 14 4 12 6 11 7 10 8 9 9 8 10 5 11 6 12 7 14
REMARK SMILES IDX 4 16 1 17 2 18 3 19 92 20 90 21 89 22 91 23 17 24 18 25
REMARK SMILES IDX 19 26 20 27 21 28 22 30 23 31 24 32 88 33 25 34 87 35 26 36
REMARK SMILES IDX 27 37 28 38 81 39 29 40 86 41 80 42 82 43 30 44 85 45 79 46
REMARK SMILES IDX 78 47 31 49 65 50 44 51 64 52 45 53 48 54 63 55 83 56 46 57
REMARK SMILES IDX 47 58 62 60 84 61 49 62 32 63 33 64 42 65 34 66 35 67 41 68
REMARK SMILES IDX 43 69 36 70 37 71 38 72 39 73 40 74 66 75 67 76 76 77 68 78
REMARK SMILES IDX 69 79 75 80 77 81 70 82 71 83 72 84 73 85 74 86 50 87 51 88
REMARK SMILES IDX 60 89 52 90 53 91 59 92 61 93 54 94 55 95 56 96 57 97 58 98
REMARK H PARENT 15 5 5 13 8 15 20 29 82 48 48 59
REMARK Flexibility Score: inf
ROOT
ATOM      1  C   UNL     1       9.454   2.315  -4.087  1.00  0.00     0.116 C 
ENDROOT
BRANCH   1   2
ATOM      2  N   UNL     1       8.847   2.312  -2.772  1.00  0.00    -0.354 N 
ATOM      3  C   UNL     1       8.210   1.281  -2.143  1.00  0.00     0.245 C 
ATOM      4  O   UNL     1       7.754   1.462  -1.014  1.00  0.00    -0.272 OA
ATOM      5  H   UNL     1       8.899   3.158  -2.271  1.00  0.00     0.163 HD
BRANCH   3   6
ATOM      6  C   UNL     1       8.111  -0.073  -2.851  1.00  0.00     0.260 C 
BRANCH   6   7
ATOM      7  O   UNL     1       7.379  -0.096  -4.068  1.00  0.00    -0.370 OA
BRANCH   7   8
ATOM      8  C   UNL     1       5.977   0.160  -3.919  1.00  0.00     0.182 C 
BRANCH   8   9
ATOM      9  C   UNL     1       5.210  -1.065  -3.399  1.00  0.00     0.146 C 
BRANCH   9  10
ATOM     10  N   UNL     1       5.160  -1.145  -1.950  1.00  0.00    -0.336 N 
ATOM     11  N   UNL     1       3.677   0.564  -1.272  1.00  0.00    -0.335 N 
ATOM     12  C   UNL     1       4.588  -0.383  -1.009  1.00  0.00     0.315 C 
ATOM     13  H   UNL     1       3.620   1.258  -0.576  1.00  0.00     0.165 HD
ATOM     14  O   UNL     1       4.918  -0.570   0.163  1.00  0.00    -0.249 OA
ATOM     15  H   UNL     1       5.646  -1.919  -1.585  1.00  0.00     0.165 HD
BRANCH  11  16
ATOM     16  C   UNL     1       2.753   0.775  -2.379  1.00  0.00     0.084 C 
ATOM     17  C   UNL     1       0.762  -0.199   0.122  1.00  0.00     0.008 C 
ATOM     18  C   UNL     1       0.444   0.178  -1.329  1.00  0.00    -0.012 C 
ATOM     19  C   UNL     1       1.564  -0.203  -2.318  1.00  0.00     0.028 C 
ATOM     20  C   UNL     1       0.056   1.655  -1.471  1.00  0.00     0.006 C 
ATOM     21  C   UNL     1       1.255   2.603  -1.385  1.00  0.00    -0.012 C 
ATOM     22  C   UNL     1       2.298   2.238  -2.447  1.00  0.00     0.028 C 
ATOM     23  C   UNL     1       0.798   4.051  -1.568  1.00  0.00     0.008 C 
ENDBRANCH  11  16
ENDBRANCH   9  10
ENDBRANCH   8   9
ENDBRANCH   7   8
ENDBRANCH   6   7
ENDBRANCH   3   6
ENDBRANCH   1   2
BRANCH   1  24
ATOM     24  C   UNL     1       8.729   3.255  -5.046  1.00  0.00     0.023 C 
BRANCH  24  25
ATOM     25  C   UNL     1       8.767   4.733  -4.647  1.00  0.00     0.023 C 
BRANCH  25  26
ATOM     26  C   UNL     1      10.150   5.294  -4.334  1.00  0.00     0.116 C 
BRANCH  26  27
ATOM     27  N   UNL     1      11.093   5.134  -5.430  1.00  0.00    -0.352 N 
ATOM     28  C   UNL     1      12.000   6.038  -5.927  1.00  0.00     0.251 C 
ATOM     29  H   UNL     1      11.079   4.256  -5.877  1.00  0.00     0.163 HD
ATOM     30  O   UNL     1      12.638   5.773  -6.942  1.00  0.00    -0.269 OA
BRANCH  28  31
ATOM     31  C   UNL     1      12.173   7.344  -5.256  1.00  0.00     0.039 A 
ATOM     32  C   UNL     1      12.159   8.507  -6.029  1.00  0.00     0.014 A 
ATOM     33  C   UNL     1      12.316   7.423  -3.868  1.00  0.00     0.014 A 
ATOM     34  C   UNL     1      12.216   9.753  -5.403  1.00  0.00     0.010 A 
ATOM     35  C   UNL     1      12.299   8.665  -3.241  1.00  0.00     0.010 A 
ATOM     36  C   UNL     1      12.246   9.844  -4.001  1.00  0.00    -0.014 A 
BRANCH  36  37
ATOM     37  C   UNL     1      12.210  11.161  -3.314  1.00  0.00     0.031 A 
ATOM     38  C   UNL     1      13.370  11.603  -2.464  1.00  0.00     0.074 A 
ATOM     39  C   UNL     1      11.106  11.930  -3.405  1.00  0.00     0.049 A 
ATOM     40  N   UNL     1      13.498  12.685  -1.740  1.00  0.00    -0.248 NA
ATOM     41  C   UNL     1      14.529  10.698  -2.398  1.00  0.00     0.031 C 
ATOM     42  C   UNL     1       9.896  11.588  -4.156  1.00  0.00     0.029 A 
ATOM     43  N   UNL     1      10.816  13.153  -2.853  1.00  0.00    -0.354 N 
ATOM     44  C   UNL     1      14.740  12.586  -1.125  1.00  0.00     0.074 A 
ATOM     45  C   UNL     1      15.304  11.312  -1.516  1.00  0.00     0.031 C 
ATOM     46  C   UNL     1       9.006  12.586  -4.037  1.00  0.00     0.029 A 
ATOM     47  C   UNL     1       9.562  13.620  -3.171  1.00  0.00     0.049 A 
ATOM     48  H   UNL     1      11.447  13.649  -2.283  1.00  0.00     0.167 HD
ATOM     49  C   UNL     1      15.365  13.484  -0.326  1.00  0.00     0.037 A 
ATOM     50  C   UNL     1       8.928  14.750  -2.800  1.00  0.00     0.037 A 
ATOM     51  C   UNL     1      14.806  14.759   0.043  1.00  0.00     0.049 A 
ATOM     52  C   UNL     1       9.640  15.730  -1.907  1.00  0.00     0.074 A 
ATOM     53  C   UNL     1      15.383  15.764   0.799  1.00  0.00     0.029 A 
ATOM     54  N   UNL     1      13.541  15.204  -0.313  1.00  0.00    -0.354 N 
ATOM     55  N   UNL     1      10.843  15.650  -1.390  1.00  0.00    -0.248 NA
ATOM     56  C   UNL     1       8.913  16.956  -1.552  1.00  0.00     0.031 C 
ATOM     57  C   UNL     1      14.449  16.796   0.941  1.00  0.00     0.029 A 
ATOM     58  C   UNL     1      13.310  16.459   0.227  1.00  0.00     0.049 A 
ATOM     59  H   UNL     1      12.901  14.702  -0.868  1.00  0.00     0.167 HD
ATOM     60  C   UNL     1      11.027  16.827  -0.672  1.00  0.00     0.074 A 
ATOM     61  C   UNL     1       9.817  17.607  -0.832  1.00  0.00     0.031 C 
ATOM     62  C   UNL     1      12.101  17.226   0.054  1.00  0.00     0.037 A 
BRANCH  49  63
ATOM     63  C   UNL     1      16.727  13.121   0.200  1.00  0.00     0.058 A 
ATOM     64  C   UNL     1      17.848  13.048  -0.643  1.00  0.00     0.135 A 
ATOM     65  C   UNL     1      16.923  12.876   1.569  1.00  0.00     0.135 A 
ATOM     66  F   UNL     1      17.717  13.259  -1.963  1.00  0.00    -0.206 F 
ATOM     67  C   UNL     1      19.107  12.714  -0.154  1.00  0.00     0.059 A 
ATOM     68  C   UNL     1      18.180  12.570   2.085  1.00  0.00     0.059 A 
ATOM     69  F   UNL     1      15.888  12.932   2.421  1.00  0.00    -0.206 F 
ATOM     70  C   UNL     1      19.263  12.476   1.212  1.00  0.00     0.060 A 
BRANCH  70  71
ATOM     71  S   UNL     1      20.904  12.048   1.829  1.00  0.00     0.124 S 
ATOM     72  O   UNL     1      21.056  10.685   1.327  1.00  0.00    -0.237 OA
ATOM     73  O   UNL     1      21.749  13.054   1.194  1.00  0.00    -0.237 OA
ATOM     74  O   UNL     1      20.767  12.171   3.277  1.00  0.00    -0.744 OA
ENDBRANCH  70  71
ENDBRANCH  49  63
BRANCH  50  75
ATOM     75  C   UNL     1       7.550  15.024  -3.290  1.00  0.00     0.058 A 
ATOM     76  C   UNL     1       7.305  16.044  -4.221  1.00  0.00     0.135 A 
ATOM     77  C   UNL     1       6.454  14.265  -2.849  1.00  0.00     0.135 A 
ATOM     78  F   UNL     1       8.319  16.802  -4.668  1.00  0.00    -0.206 F 
ATOM     79  C   UNL     1       6.022  16.315  -4.687  1.00  0.00     0.059 A 
ATOM     80  C   UNL     1       5.166  14.499  -3.321  1.00  0.00     0.059 A 
ATOM     81  F   UNL     1       6.636  13.267  -1.972  1.00  0.00    -0.206 F 
ATOM     82  C   UNL     1       4.958  15.533  -4.232  1.00  0.00     0.060 A 
BRANCH  82  83
ATOM     83  S   UNL     1       3.305  15.860  -4.882  1.00  0.00     0.124 S 
ATOM     84  O   UNL     1       2.968  17.110  -4.213  1.00  0.00    -0.237 OA
ATOM     85  O   UNL     1       3.553  15.949  -6.318  1.00  0.00    -0.237 OA
ATOM     86  O   UNL     1       2.542  14.690  -4.458  1.00  0.00    -0.744 OA
ENDBRANCH  82  83
ENDBRANCH  50  75
BRANCH  62  87
ATOM     87  C   UNL     1      12.035  18.582   0.703  1.00  0.00     0.058 A 
ATOM     88  C   UNL     1      11.218  18.830   1.817  1.00  0.00     0.135 A 
ATOM     89  C   UNL     1      12.841  19.633   0.234  1.00  0.00     0.135 A 
ATOM     90  F   UNL     1      10.424  17.862   2.300  1.00  0.00    -0.206 F 
ATOM     91  C   UNL     1      11.185  20.078   2.429  1.00  0.00     0.059 A 
ATOM     92  C   UNL     1      12.845  20.881   0.849  1.00  0.00     0.059 A 
ATOM     93  F   UNL     1      13.649  19.447  -0.822  1.00  0.00    -0.206 F 
ATOM     94  C   UNL     1      12.004  21.097   1.939  1.00  0.00     0.060 A 
BRANCH  94  95
ATOM     95  S   UNL     1      11.976  22.703   2.765  1.00  0.00     0.124 S 
ATOM     96  O   UNL     1      10.690  23.235   2.329  1.00  0.00    -0.237 OA
ATOM     97  O   UNL     1      12.064  22.331   4.173  1.00  0.00    -0.237 OA
ATOM     98  O   UNL     1      13.151  23.382   2.227  1.00  0.00    -0.744 OA
ENDBRANCH  94  95
ENDBRANCH  62  87
ENDBRANCH  36  37
ENDBRANCH  28  31
ENDBRANCH  26  27
ENDBRANCH  25  26
ENDBRANCH  24  25
ENDBRANCH   1  24
TORSDOF 19
