REMARK SMILES COC(=O)c1cc(F)cc(-c2ccc(C(=O)NCCCCNC(=O)c3ccc(-c4c5nc(c(-c6c(F)cc(S(=O)(=O)[O-])cc6F)c6ccc([nH]6)c(-c6c(F)cc(S(=O)(=O)[O-])cc6F)c6nc(c(-c7c(F)cc(S(=O)(=O)[O-])cc7F)c7ccc4[nH]7)C=C6)C=C5)cc3)cc2C)c1
REMARK SMILES IDX 19 1 18 2 17 3 15 4 16 5 14 7 11 8 12 9 92 10 13 11 91 12
REMARK SMILES IDX 93 13 10 14 5 15 6 16 94 17 7 18 8 19 9 20 3 21 4 22 2 23
REMARK SMILES IDX 1 24 20 25 21 26 22 27 23 28 24 30 25 31 26 32 90 33 27 34
REMARK SMILES IDX 89 35 28 36 29 37 30 38 83 39 31 40 88 41 82 42 84 43 32 44
REMARK SMILES IDX 87 45 81 46 80 47 33 49 67 50 46 51 66 52 47 53 50 54 65 55
REMARK SMILES IDX 85 56 48 57 49 58 64 60 86 61 51 62 34 63 35 64 44 65 36 66
REMARK SMILES IDX 37 67 43 68 45 69 38 70 39 71 40 72 41 73 42 74 68 75 69 76
REMARK SMILES IDX 78 77 70 78 71 79 77 80 79 81 72 82 73 83 74 84 75 85 76 86
REMARK SMILES IDX 52 87 53 88 62 89 54 90 55 91 61 92 63 93 56 94 57 95 58 96
REMARK SMILES IDX 59 97 60 98
REMARK H PARENT 17 6 22 29 84 48 50 59
REMARK Flexibility Score: inf
ROOT
ATOM      1  C   UNL     1       6.313   8.426  -6.213  1.00  0.00     0.023 C 
ENDROOT
BRANCH   1   2
ATOM      2  C   UNL     1       6.207   8.051  -4.737  1.00  0.00     0.116 C 
BRANCH   2   3
ATOM      3  N   UNL     1       5.932   9.184  -3.869  1.00  0.00    -0.352 N 
ATOM      4  C   UNL     1       4.937   9.443  -2.953  1.00  0.00     0.251 C 
ATOM      5  O   UNL     1       4.926  10.558  -2.429  1.00  0.00    -0.269 OA
ATOM      6  H   UNL     1       6.589   9.912  -3.953  1.00  0.00     0.163 HD
BRANCH   4   7
ATOM      7  C   UNL     1       3.865   8.472  -2.584  1.00  0.00     0.040 A 
ATOM      8  C   UNL     1       1.709   6.744  -1.860  1.00  0.00    -0.015 A 
ATOM      9  C   UNL     1       2.923   6.257  -2.388  1.00  0.00     0.010 A 
ATOM     10  C   UNL     1       1.610   8.128  -1.626  1.00  0.00    -0.042 A 
ATOM     11  C   UNL     1       4.001   7.094  -2.676  1.00  0.00     0.014 A 
ATOM     12  C   UNL     1       2.674   8.974  -2.028  1.00  0.00     0.018 A 
ATOM     13  C   UNL     1       0.460   8.771  -0.897  1.00  0.00     0.045 C 
BRANCH   8  14
ATOM     14  C   UNL     1       0.662   5.750  -1.552  1.00  0.00    -0.014 A 
ATOM     15  C   UNL     1       0.094   3.558  -0.622  1.00  0.00     0.063 A 
ATOM     16  C   UNL     1      -1.185   3.638  -1.168  1.00  0.00     0.055 A 
ATOM     17  C   UNL     1       0.992   4.619  -0.785  1.00  0.00     0.024 A 
ATOM     18  C   UNL     1      -1.536   4.777  -1.884  1.00  0.00     0.124 A 
ATOM     19  F   UNL     1      -2.764   4.862  -2.413  1.00  0.00    -0.207 F 
ATOM     20  C   UNL     1      -0.629   5.818  -2.094  1.00  0.00     0.048 A 
BRANCH  15  21
ATOM     21  C   UNL     1       0.592   2.360   0.090  1.00  0.00     0.337 C 
ATOM     22  O   UNL     1       1.436   2.401   0.963  1.00  0.00    -0.246 OA
BRANCH  21  23
ATOM     23  O   UNL     1       0.064   1.244  -0.474  1.00  0.00    -0.465 OA
ATOM     24  C   UNL     1       0.678   0.040  -0.010  1.00  0.00     0.282 C 
ENDBRANCH  21  23
ENDBRANCH  15  21
ENDBRANCH   8  14
ENDBRANCH   4   7
ENDBRANCH   2   3
ENDBRANCH   1   2
BRANCH   1  25
ATOM     25  C   UNL     1       7.597   9.133  -6.655  1.00  0.00     0.023 C 
BRANCH  25  26
ATOM     26  C   UNL     1       8.904   8.435  -6.284  1.00  0.00     0.116 C 
BRANCH  26  27
ATOM     27  N   UNL     1       8.978   7.056  -6.733  1.00  0.00    -0.352 N 
ATOM     28  C   UNL     1      10.067   6.229  -6.871  1.00  0.00     0.251 C 
ATOM     29  H   UNL     1       8.114   6.651  -6.977  1.00  0.00     0.163 HD
ATOM     30  O   UNL     1       9.896   5.120  -7.376  1.00  0.00    -0.269 OA
BRANCH  28  31
ATOM     31  C   UNL     1      11.433   6.646  -6.460  1.00  0.00     0.039 A 
ATOM     32  C   UNL     1      12.521   6.163  -7.200  1.00  0.00     0.014 A 
ATOM     33  C   UNL     1      11.675   7.436  -5.334  1.00  0.00     0.014 A 
ATOM     34  C   UNL     1      13.830   6.485  -6.828  1.00  0.00     0.010 A 
ATOM     35  C   UNL     1      12.976   7.816  -5.004  1.00  0.00     0.010 A 
ATOM     36  C   UNL     1      14.068   7.325  -5.731  1.00  0.00    -0.014 A 
BRANCH  36  37
ATOM     37  C   UNL     1      15.447   7.667  -5.300  1.00  0.00     0.031 A 
ATOM     38  C   UNL     1      15.959   7.194  -3.965  1.00  0.00     0.074 A 
ATOM     39  C   UNL     1      16.218   8.449  -6.079  1.00  0.00     0.049 A 
ATOM     40  N   UNL     1      17.105   7.439  -3.384  1.00  0.00    -0.248 NA
ATOM     41  C   UNL     1      15.051   6.353  -3.168  1.00  0.00     0.031 C 
ATOM     42  C   UNL     1      15.820   8.998  -7.376  1.00  0.00     0.029 A 
ATOM     43  N   UNL     1      17.491   8.924  -5.892  1.00  0.00    -0.354 N 
ATOM     44  C   UNL     1      17.050   6.800  -2.151  1.00  0.00     0.074 A 
ATOM     45  C   UNL     1      15.739   6.199  -2.046  1.00  0.00     0.031 C 
ATOM     46  C   UNL     1      16.837   9.716  -7.878  1.00  0.00     0.029 A 
ATOM     47  C   UNL     1      17.944   9.709  -6.925  1.00  0.00     0.049 A 
ATOM     48  H   UNL     1      18.030   8.721  -5.093  1.00  0.00     0.167 HD
ATOM     49  C   UNL     1      18.013   6.702  -1.203  1.00  0.00     0.037 A 
ATOM     50  C   UNL     1      19.117  10.352  -7.088  1.00  0.00     0.037 A 
ATOM     51  C   UNL     1      19.325   7.283  -1.329  1.00  0.00     0.049 A 
ATOM     52  C   UNL     1      20.173  10.236  -6.026  1.00  0.00     0.074 A 
ATOM     53  C   UNL     1      20.394   7.189  -0.455  1.00  0.00     0.029 A 
ATOM     54  N   UNL     1      19.746   8.068  -2.393  1.00  0.00    -0.354 N 
ATOM     55  N   UNL     1      20.126   9.583  -4.889  1.00  0.00    -0.248 NA
ATOM     56  C   UNL     1      21.441  10.937  -6.266  1.00  0.00     0.031 C 
ATOM     57  C   UNL     1      21.446   7.955  -0.969  1.00  0.00     0.029 A 
ATOM     58  C   UNL     1      21.051   8.486  -2.187  1.00  0.00     0.049 A 
ATOM     59  H   UNL     1      19.198   8.295  -3.179  1.00  0.00     0.167 HD
ATOM     60  C   UNL     1      21.362   9.780  -4.284  1.00  0.00     0.074 A 
ATOM     61  C   UNL     1      22.139  10.605  -5.187  1.00  0.00     0.031 C 
ATOM     62  C   UNL     1      21.810   9.315  -3.091  1.00  0.00     0.037 A 
BRANCH  49  63
ATOM     63  C   UNL     1      17.683   5.939   0.051  1.00  0.00     0.058 A 
ATOM     64  C   UNL     1      17.559   6.604   1.282  1.00  0.00     0.135 A 
ATOM     65  C   UNL     1      17.514   4.544   0.044  1.00  0.00     0.135 A 
ATOM     66  F   UNL     1      17.708   7.936   1.349  1.00  0.00    -0.206 F 
ATOM     67  C   UNL     1      17.276   5.915   2.458  1.00  0.00     0.059 A 
ATOM     68  C   UNL     1      17.201   3.839   1.203  1.00  0.00     0.059 A 
ATOM     69  F   UNL     1      17.603   3.859  -1.107  1.00  0.00    -0.206 F 
ATOM     70  C   UNL     1      17.093   4.533   2.408  1.00  0.00     0.060 A 
BRANCH  70  71
ATOM     71  S   UNL     1      16.654   3.662   3.928  1.00  0.00     0.124 S 
ATOM     72  O   UNL     1      17.913   3.687   4.663  1.00  0.00    -0.237 OA
ATOM     73  O   UNL     1      15.585   4.501   4.464  1.00  0.00    -0.237 OA
ATOM     74  O   UNL     1      16.226   2.350   3.452  1.00  0.00    -0.744 OA
ENDBRANCH  70  71
ENDBRANCH  49  63
BRANCH  50  75
ATOM     75  C   UNL     1      19.349  11.120  -8.339  1.00  0.00     0.058 A 
ATOM     76  C   UNL     1      18.669  12.320  -8.596  1.00  0.00     0.135 A 
ATOM     77  C   UNL     1      20.182  10.610  -9.346  1.00  0.00     0.135 A 
ATOM     78  F   UNL     1      17.854  12.844  -7.668  1.00  0.00    -0.206 F 
ATOM     79  C   UNL     1      18.770  12.964  -9.824  1.00  0.00     0.059 A 
ATOM     80  C   UNL     1      20.316  11.247 -10.576  1.00  0.00     0.059 A 
ATOM     81  F   UNL     1      20.862   9.472  -9.139  1.00  0.00    -0.206 F 
ATOM     82  C   UNL     1      19.584  12.410 -10.814  1.00  0.00     0.060 A 
BRANCH  82  83
ATOM     83  S   UNL     1      19.638  13.217 -12.429  1.00  0.00     0.124 S 
ATOM     84  O   UNL     1      18.285  12.975 -12.920  1.00  0.00    -0.237 OA
ATOM     85  O   UNL     1      19.947  14.597 -12.070  1.00  0.00    -0.237 OA
ATOM     86  O   UNL     1      20.698  12.500 -13.130  1.00  0.00    -0.744 OA
ENDBRANCH  82  83
ENDBRANCH  50  75
BRANCH  62  87
ATOM     87  C   UNL     1      23.211   9.678  -2.683  1.00  0.00     0.058 A 
ATOM     88  C   UNL     1      24.220   8.701  -2.655  1.00  0.00     0.135 A 
ATOM     89  C   UNL     1      23.535  10.968  -2.235  1.00  0.00     0.135 A 
ATOM     90  F   UNL     1      23.962   7.450  -3.069  1.00  0.00    -0.206 F 
ATOM     91  C   UNL     1      25.494   8.985  -2.177  1.00  0.00     0.059 A 
ATOM     92  C   UNL     1      24.811  11.281  -1.775  1.00  0.00     0.059 A 
ATOM     93  F   UNL     1      22.609  11.940  -2.252  1.00  0.00    -0.206 F 
ATOM     94  C   UNL     1      25.779  10.277  -1.733  1.00  0.00     0.060 A 
BRANCH  94  95
ATOM     95  S   UNL     1      27.439  10.628  -1.116  1.00  0.00     0.124 S 
ATOM     96  O   UNL     1      27.444   9.908   0.153  1.00  0.00    -0.237 OA
ATOM     97  O   UNL     1      28.283  10.069  -2.167  1.00  0.00    -0.237 OA
ATOM     98  O   UNL     1      27.461  12.084  -1.013  1.00  0.00    -0.744 OA
ENDBRANCH  94  95
ENDBRANCH  62  87
ENDBRANCH  36  37
ENDBRANCH  28  31
ENDBRANCH  26  27
ENDBRANCH  25  26
ENDBRANCH   1  25
TORSDOF 17
