REMARK SMILES Cc1oc2c(C)c3oc(=O)c(CCC(=O)N[C@H](Cc4ccc(Cl)cc4)C(=O)NCCCCNC(=O)c4ccc(-c5c6nc(c(-c7c(F)cc(S(=O)(=O)[O-])cc7F)c7ccc([nH]7)c(-c7c(F)cc(S(=O)(=O)[O-])cc7F)c7nc(c(-c8c(F)cc(S(=O)(=O)[O-])cc8F)c8ccc5[nH]8)C=C7)C=C6)cc4)c(C)c3cc2c1C
REMARK SMILES IDX 30 1 29 2 28 3 26 4 27 5 17 7 16 8 14 9 15 10 13 12 12 13
REMARK SMILES IDX 11 14 1 15 2 16 3 17 107 18 4 19 106 20 108 21 5 22 105 23
REMARK SMILES IDX 6 24 7 25 104 26 8 27 102 28 9 29 103 30 10 31 18 32 19 33
REMARK SMILES IDX 20 34 25 35 21 36 24 37 22 38 23 39 31 40 32 41 33 42 34 43
REMARK SMILES IDX 35 45 36 46 37 47 101 48 38 49 100 50 39 51 40 52 41 53
REMARK SMILES IDX 94 54 42 55 99 56 93 57 95 58 43 59 98 60 92 61 91 62 44 64
REMARK SMILES IDX 78 65 57 66 77 67 58 68 61 69 76 70 96 71 59 72 60 73 75 75
REMARK SMILES IDX 97 76 62 77 45 78 46 79 55 80 47 81 48 82 54 83 56 84 49 85
REMARK SMILES IDX 50 86 51 87 52 88 53 89 79 90 80 91 89 92 81 93 82 94 88 95
REMARK SMILES IDX 90 96 83 97 84 98 85 99 86 100 87 101 63 102 64 103 73 104
REMARK SMILES IDX 65 105 66 106 72 107 74 108 67 109 68 110 69 111 70 112
REMARK SMILES IDX 71 113
REMARK H PARENT 28 6 16 11 33 44 95 63 61 74
REMARK Flexibility Score: inf
ROOT
ATOM      1  C   UNL     1      -2.592   2.469  -0.755  1.00  0.00     0.023 C 
ENDROOT
BRANCH   1   2
ATOM      2  C   UNL     1      -2.615   2.434  -2.263  1.00  0.00     0.116 C 
BRANCH   2   3
ATOM      3  N   UNL     1      -3.418   3.388  -3.064  1.00  0.00    -0.354 N 
ATOM      4  C   UNL     1      -3.260   4.383  -4.127  1.00  0.00     0.242 C 
ATOM      5  O   UNL     1      -4.402   4.143  -4.664  1.00  0.00    -0.273 OA
ATOM      6  H   UNL     1      -4.364   3.337  -2.794  1.00  0.00     0.163 HD
BRANCH   4   7
ATOM      7  C   UNL     1      -1.810   5.931  -4.649  1.00  0.00     0.175 C 
BRANCH   7   8
ATOM      8  N   UNL     1      -0.149   5.808  -5.016  1.00  0.00    -0.344 N 
ATOM      9  C   UNL     1       0.574   5.233  -6.032  1.00  0.00     0.220 C 
ATOM     10  O   UNL     1       1.804   5.304  -5.978  1.00  0.00    -0.275 OA
ATOM     11  H   UNL     1       0.421   6.249  -4.346  1.00  0.00     0.164 HD
BRANCH   9  12
ATOM     12  C   UNL     1      -0.109   4.455  -7.155  1.00  0.00     0.105 C 
BRANCH  12  13
ATOM     13  C   UNL     1      -1.096   3.389  -6.689  1.00  0.00     0.053 C 
BRANCH  13  14
ATOM     14  C   UNL     1      -1.788   3.958  -5.506  1.00  0.00     0.042 A 
ATOM     15  C   UNL     1      -4.938   6.403   2.420  1.00  0.00     0.088 C 
ATOM     16  C   UNL     1      -4.139   6.310   1.179  1.00  0.00     0.105 A 
ATOM     17  O   UNL     1      -4.775   6.659   0.038  1.00  0.00    -0.461 OA
ATOM     18  C   UNL     1      -2.854   5.886   0.903  1.00  0.00    -0.002 A 
ATOM     19  C   UNL     1      -3.951   6.380  -1.014  1.00  0.00     0.141 A 
ATOM     20  C   UNL     1      -2.733   5.816  -0.535  1.00  0.00     0.025 A 
ATOM     21  C   UNL     1      -1.830   5.481   1.891  1.00  0.00     0.049 C 
ATOM     22  C   UNL     1      -4.355   6.664  -2.328  1.00  0.00     0.036 A 
ATOM     23  C   UNL     1      -1.668   5.263  -1.377  1.00  0.00     0.024 A 
ATOM     24  C   UNL     1      -5.607   7.321  -2.771  1.00  0.00     0.052 C 
ATOM     25  C   UNL     1      -3.357   6.152  -3.119  1.00  0.00     0.145 A 
ATOM     26  C   UNL     1      -1.933   5.201  -2.717  1.00  0.00     0.022 A 
ATOM     27  O   UNL     1      -3.776   6.144  -4.881  1.00  0.00    -0.422 OA
ATOM     28  C   UNL     1      -1.200   3.999  -4.039  1.00  0.00    -0.030 A 
ATOM     29  C   UNL     1      -3.189   5.078  -6.168  1.00  0.00     0.339 A 
ATOM     30  C   UNL     1       0.059   3.187  -3.747  1.00  0.00     0.046 C 
ATOM     31  O   UNL     1      -3.480   5.262  -7.340  1.00  0.00    -0.246 OA
ENDBRANCH  13  14
ENDBRANCH  12  13
ENDBRANCH   9  12
ENDBRANCH   7   8
BRANCH   7  32
ATOM     32  C   UNL     1      -1.586   7.625  -4.022  1.00  0.00     0.070 C 
BRANCH  32  33
ATOM     33  C   UNL     1      -1.242   8.107  -2.592  1.00  0.00    -0.045 A 
ATOM     34  C   UNL     1      -0.076   7.762  -1.884  1.00  0.00     0.005 A 
ATOM     35  C   UNL     1      -2.182   8.917  -1.918  1.00  0.00     0.005 A 
ATOM     36  C   UNL     1       0.054   8.074  -0.513  1.00  0.00     0.021 A 
ATOM     37  C   UNL     1      -2.066   9.209  -0.551  1.00  0.00     0.021 A 
ATOM     38  C   UNL     1      -0.957   8.766   0.154  1.00  0.00     0.041 A 
ATOM     39  Cl  UNL     1      -0.867   9.025   1.855  1.00  0.00    -0.084 Cl
ENDBRANCH  32  33
ENDBRANCH   7  32
ENDBRANCH   4   7
ENDBRANCH   2   3
ENDBRANCH   1   2
BRANCH   1  40
ATOM     40  C   UNL     1      -3.918   2.465  -0.042  1.00  0.00     0.023 C 
BRANCH  40  41
ATOM     41  C   UNL     1      -3.758   1.517   1.124  1.00  0.00     0.116 C 
BRANCH  41  42
ATOM     42  N   UNL     1      -2.719   2.014   2.031  1.00  0.00    -0.352 N 
ATOM     43  C   UNL     1      -2.759   2.042   3.396  1.00  0.00     0.251 C 
ATOM     44  H   UNL     1      -1.902   2.368   1.610  1.00  0.00     0.163 HD
ATOM     45  O   UNL     1      -2.127   2.867   4.043  1.00  0.00    -0.269 OA
BRANCH  43  46
ATOM     46  C   UNL     1      -3.532   0.984   4.046  1.00  0.00     0.039 A 
ATOM     47  C   UNL     1      -4.150   1.216   5.272  1.00  0.00     0.014 A 
ATOM     48  C   UNL     1      -3.572  -0.269   3.425  1.00  0.00     0.014 A 
ATOM     49  C   UNL     1      -4.857   0.180   5.859  1.00  0.00     0.010 A 
ATOM     50  C   UNL     1      -4.335  -1.265   3.959  1.00  0.00     0.010 A 
ATOM     51  C   UNL     1      -4.965  -1.041   5.181  1.00  0.00    -0.014 A 
BRANCH  51  52
ATOM     52  C   UNL     1      -5.756  -2.117   5.775  1.00  0.00     0.031 A 
ATOM     53  C   UNL     1      -6.827  -2.576   4.792  1.00  0.00     0.074 A 
ATOM     54  C   UNL     1      -5.023  -3.044   6.427  1.00  0.00     0.049 A 
ATOM     55  N   UNL     1      -6.657  -3.355   3.762  1.00  0.00    -0.248 NA
ATOM     56  C   UNL     1      -8.123  -1.887   4.777  1.00  0.00     0.031 C 
ATOM     57  C   UNL     1      -3.698  -3.577   6.086  1.00  0.00     0.029 A 
ATOM     58  N   UNL     1      -5.290  -3.571   7.676  1.00  0.00    -0.354 N 
ATOM     59  C   UNL     1      -7.828  -3.322   3.005  1.00  0.00     0.074 A 
ATOM     60  C   UNL     1      -8.691  -2.366   3.659  1.00  0.00     0.031 C 
ATOM     61  C   UNL     1      -3.366  -4.528   6.978  1.00  0.00     0.029 A 
ATOM     62  C   UNL     1      -4.418  -4.630   7.987  1.00  0.00     0.049 A 
ATOM     63  H   UNL     1      -6.001  -3.245   8.275  1.00  0.00     0.167 HD
ATOM     64  C   UNL     1      -8.040  -4.119   1.918  1.00  0.00     0.037 A 
ATOM     65  C   UNL     1      -4.948  -5.806   8.441  1.00  0.00     0.037 A 
ATOM     66  C   UNL     1      -6.952  -4.998   1.602  1.00  0.00     0.049 A 
ATOM     67  C   UNL     1      -5.452  -6.418   7.140  1.00  0.00     0.074 A 
ATOM     68  C   UNL     1      -5.975  -5.146   0.645  1.00  0.00     0.029 A 
ATOM     69  N   UNL     1      -6.766  -6.066   2.447  1.00  0.00    -0.354 N 
ATOM     70  N   UNL     1      -4.710  -6.953   6.200  1.00  0.00    -0.248 NA
ATOM     71  C   UNL     1      -6.792  -6.027   6.695  1.00  0.00     0.031 C 
ATOM     72  C   UNL     1      -4.984  -5.986   1.249  1.00  0.00     0.029 A 
ATOM     73  C   UNL     1      -5.422  -6.303   2.537  1.00  0.00     0.049 A 
ATOM     74  H   UNL     1      -7.475  -6.571   2.908  1.00  0.00     0.167 HD
ATOM     75  C   UNL     1      -5.381  -6.705   4.995  1.00  0.00     0.074 A 
ATOM     76  C   UNL     1      -6.663  -6.148   5.379  1.00  0.00     0.031 C 
ATOM     77  C   UNL     1      -4.806  -6.788   3.756  1.00  0.00     0.037 A 
BRANCH  64  78
ATOM     78  C   UNL     1      -9.359  -4.384   1.280  1.00  0.00     0.058 A 
ATOM     79  C   UNL     1     -10.019  -5.564   1.674  1.00  0.00     0.135 A 
ATOM     80  C   UNL     1      -9.864  -3.703   0.166  1.00  0.00     0.135 A 
ATOM     81  F   UNL     1      -9.570  -6.258   2.734  1.00  0.00    -0.206 F 
ATOM     82  C   UNL     1     -11.089  -6.088   0.964  1.00  0.00     0.059 A 
ATOM     83  C   UNL     1     -10.959  -4.201  -0.555  1.00  0.00     0.059 A 
ATOM     84  F   UNL     1      -9.272  -2.579  -0.268  1.00  0.00    -0.206 F 
ATOM     85  C   UNL     1     -11.545  -5.408  -0.162  1.00  0.00     0.060 A 
BRANCH  85  86
ATOM     86  S   UNL     1     -12.892  -6.162  -1.103  1.00  0.00     0.124 S 
ATOM     87  O   UNL     1     -12.287  -7.413  -1.550  1.00  0.00    -0.237 OA
ATOM     88  O   UNL     1     -13.934  -6.289  -0.089  1.00  0.00    -0.237 OA
ATOM     89  O   UNL     1     -13.161  -5.186  -2.155  1.00  0.00    -0.744 OA
ENDBRANCH  85  86
ENDBRANCH  64  78
BRANCH  65  90
ATOM     90  C   UNL     1      -5.780  -5.605   9.681  1.00  0.00     0.058 A 
ATOM     91  C   UNL     1      -5.256  -4.775  10.702  1.00  0.00     0.135 A 
ATOM     92  C   UNL     1      -7.089  -6.067   9.880  1.00  0.00     0.135 A 
ATOM     93  F   UNL     1      -3.973  -4.377  10.661  1.00  0.00    -0.206 F 
ATOM     94  C   UNL     1      -6.040  -4.266  11.728  1.00  0.00     0.059 A 
ATOM     95  C   UNL     1      -7.902  -5.563  10.900  1.00  0.00     0.059 A 
ATOM     96  F   UNL     1      -7.628  -6.982   9.063  1.00  0.00    -0.206 F 
ATOM     97  C   UNL     1      -7.381  -4.623  11.787  1.00  0.00     0.060 A 
BRANCH  97  98
ATOM     98  S   UNL     1      -8.423  -3.785  12.997  1.00  0.00     0.124 S 
ATOM     99  O   UNL     1      -7.753  -4.113  14.251  1.00  0.00    -0.237 OA
ATOM    100  O   UNL     1      -8.312  -2.395  12.563  1.00  0.00    -0.237 OA
ATOM    101  O   UNL     1      -9.732  -4.398  12.802  1.00  0.00    -0.744 OA
ENDBRANCH  97  98
ENDBRANCH  65  90
BRANCH  77 102
ATOM    102  C   UNL     1      -3.394  -7.277   3.704  1.00  0.00     0.058 A 
ATOM    103  C   UNL     1      -3.094  -8.596   4.062  1.00  0.00     0.135 A 
ATOM    104  C   UNL     1      -2.347  -6.481   3.201  1.00  0.00     0.135 A 
ATOM    105  F   UNL     1      -4.057  -9.410   4.524  1.00  0.00    -0.206 F 
ATOM    106  C   UNL     1      -1.817  -9.120   3.901  1.00  0.00     0.059 A 
ATOM    107  C   UNL     1      -1.069  -6.996   2.998  1.00  0.00     0.059 A 
ATOM    108  F   UNL     1      -2.560  -5.199   2.857  1.00  0.00    -0.206 F 
ATOM    109  C   UNL     1      -0.817  -8.321   3.345  1.00  0.00     0.060 A 
BRANCH 109 110
ATOM    110  S   UNL     1       0.788  -9.074   3.011  1.00  0.00     0.124 S 
ATOM    111  O   UNL     1       1.280  -9.354   4.356  1.00  0.00    -0.237 OA
ATOM    112  O   UNL     1       0.420 -10.242   2.215  1.00  0.00    -0.237 OA
ATOM    113  O   UNL     1       1.512  -8.035   2.284  1.00  0.00    -0.744 OA
ENDBRANCH 109 110
ENDBRANCH  77 102
ENDBRANCH  51  52
ENDBRANCH  43  46
ENDBRANCH  41  42
ENDBRANCH  40  41
ENDBRANCH   1  40
TORSDOF 20
