REMARK SMILES CC[N@@H+]1CCC[C@@H]1C[N@@H+](C)C[C@H]([NH3+])C(=O)NCCCCNC(=O)c1ccc(-c2c3nc(c(-c4c(F)cc(S(=O)(=O)[O-])cc4F)c4ccc([nH]4)c(-c4c(F)cc(S(=O)(=O)[O-])cc4F)c4nc(c(-c5c(F)cc(S(=O)(=O)[O-])cc5F)c5ccc2[nH]5)C=C4)C=C3)cc1
REMARK SMILES IDX 17 1 16 2 14 3 15 4 12 6 11 7 9 8 10 9 8 11 7 12 3 13 4 14
REMARK SMILES IDX 5 16 6 17 2 18 1 19 13 20 18 24 19 25 20 26 21 27 22 28
REMARK SMILES IDX 23 30 24 31 25 32 89 33 26 34 88 35 27 36 28 37 29 38 82 39
REMARK SMILES IDX 30 40 87 41 81 42 83 43 31 44 86 45 80 46 79 47 32 49 66 50
REMARK SMILES IDX 45 51 65 52 46 53 49 54 64 55 84 56 47 57 48 58 63 60 85 61
REMARK SMILES IDX 50 62 33 63 34 64 43 65 35 66 36 67 42 68 44 69 37 70 38 71
REMARK SMILES IDX 39 72 40 73 41 74 67 75 68 76 77 77 69 78 70 79 76 80 78 81
REMARK SMILES IDX 71 82 72 83 73 84 74 85 75 86 51 87 52 88 61 89 53 90 54 91
REMARK SMILES IDX 60 92 62 93 55 94 56 95 57 96 58 97 59 98
REMARK H PARENT 16 5 9 10 3 15 13 21 13 22 13 23 21 29 83 48 49 59
REMARK Flexibility Score: inf
ROOT
ATOM      1  C   UNL     1      -0.383   5.643   1.471  1.00  0.00     0.116 C 
ENDROOT
BRANCH   1   2
ATOM      2  N   UNL     1      -1.240   5.828   0.315  1.00  0.00    -0.351 N 
ATOM      3  C   UNL     1      -1.511   5.052  -0.774  1.00  0.00     0.284 C 
ATOM      4  O   UNL     1      -2.502   5.396  -1.436  1.00  0.00    -0.268 OA
ATOM      5  H   UNL     1      -1.724   6.686   0.318  1.00  0.00     0.163 HD
BRANCH   3   6
ATOM      6  C   UNL     1      -0.667   3.841  -1.256  1.00  0.00     0.326 C 
BRANCH   6   7
ATOM      7  C   UNL     1      -0.890   2.417  -0.659  1.00  0.00     0.338 C 
BRANCH   7   8
ATOM      8  N   UNL     1      -2.197   1.878  -0.239  1.00  0.00    -0.327 N 
ATOM      9  C   UNL     1      -3.129   1.821  -1.372  1.00  0.00     0.333 C 
ATOM     10  H   UNL     1      -1.988   0.938   0.097  1.00  0.00     0.348 HD
BRANCH   8  11
ATOM     11  C   UNL     1      -2.829   2.570   0.898  1.00  0.00     0.327 C 
BRANCH  11  12
ATOM     12  C   UNL     1      -2.346   2.265   2.345  1.00  0.00     0.239 C 
ATOM     13  N   UNL     1      -2.936   3.067   3.442  1.00  0.00    -0.328 N 
ATOM     14  C   UNL     1      -1.906   3.315   4.461  1.00  0.00     0.262 C 
ATOM     15  H   UNL     1      -3.695   2.466   3.761  1.00  0.00     0.348 HD
ATOM     16  C   UNL     1      -0.604   2.703   3.993  1.00  0.00     0.068 C 
ATOM     17  C   UNL     1      -0.836   2.314   2.554  1.00  0.00     0.077 C 
BRANCH  13  18
ATOM     18  C   UNL     1      -3.704   4.282   3.155  1.00  0.00     0.259 C 
ATOM     19  C   UNL     1      -5.044   4.111   2.450  1.00  0.00     0.071 C 
ENDBRANCH  13  18
ENDBRANCH  11  12
ENDBRANCH   8  11
ENDBRANCH   7   8
ENDBRANCH   6   7
BRANCH   6  20
ATOM     20  N   UNL     1       0.783   4.175  -1.285  1.00  0.00    -0.343 N 
ATOM     21  H   UNL     1       1.125   4.289  -0.331  1.00  0.00     0.345 HD
ATOM     22  H   UNL     1       0.922   5.043  -1.802  1.00  0.00     0.345 HD
ATOM     23  H   UNL     1       1.296   3.421  -1.742  1.00  0.00     0.345 HD
ENDBRANCH   6  20
ENDBRANCH   3   6
ENDBRANCH   1   2
BRANCH   1  24
ATOM     24  C   UNL     1       0.159   6.943   2.068  1.00  0.00     0.023 C 
BRANCH  24  25
ATOM     25  C   UNL     1      -0.842   7.875   2.771  1.00  0.00     0.023 C 
BRANCH  25  26
ATOM     26  C   UNL     1      -1.546   7.391   4.044  1.00  0.00     0.116 C 
BRANCH  26  27
ATOM     27  N   UNL     1      -0.704   6.747   5.039  1.00  0.00    -0.352 N 
ATOM     28  C   UNL     1      -0.934   6.574   6.389  1.00  0.00     0.251 C 
ATOM     29  H   UNL     1       0.147   6.383   4.703  1.00  0.00     0.163 HD
ATOM     30  O   UNL     1      -0.134   5.922   7.058  1.00  0.00    -0.269 OA
BRANCH  28  31
ATOM     31  C   UNL     1      -2.089   7.229   7.052  1.00  0.00     0.039 A 
ATOM     32  C   UNL     1      -1.839   8.005   8.189  1.00  0.00     0.014 A 
ATOM     33  C   UNL     1      -3.387   7.145   6.543  1.00  0.00     0.014 A 
ATOM     34  C   UNL     1      -2.852   8.807   8.722  1.00  0.00     0.010 A 
ATOM     35  C   UNL     1      -4.387   7.984   7.044  1.00  0.00     0.010 A 
ATOM     36  C   UNL     1      -4.112   8.862   8.103  1.00  0.00    -0.014 A 
BRANCH  36  37
ATOM     37  C   UNL     1      -5.071   9.947   8.444  1.00  0.00     0.031 A 
ATOM     38  C   UNL     1      -6.401   9.663   9.080  1.00  0.00     0.074 A 
ATOM     39  C   UNL     1      -4.758  11.210   8.084  1.00  0.00     0.049 A 
ATOM     40  N   UNL     1      -7.343  10.505   9.422  1.00  0.00    -0.248 NA
ATOM     41  C   UNL     1      -6.725   8.255   9.344  1.00  0.00     0.031 C 
ATOM     42  C   UNL     1      -3.535  11.606   7.378  1.00  0.00     0.029 A 
ATOM     43  N   UNL     1      -5.440  12.390   8.246  1.00  0.00    -0.354 N 
ATOM     44  C   UNL     1      -8.378   9.732   9.934  1.00  0.00     0.074 A 
ATOM     45  C   UNL     1      -7.960   8.349   9.822  1.00  0.00     0.031 C 
ATOM     46  C   UNL     1      -3.545  12.934   7.187  1.00  0.00     0.029 A 
ATOM     47  C   UNL     1      -4.782  13.483   7.731  1.00  0.00     0.049 A 
ATOM     48  H   UNL     1      -6.317  12.450   8.688  1.00  0.00     0.167 HD
ATOM     49  C   UNL     1      -9.560  10.140  10.460  1.00  0.00     0.037 A 
ATOM     50  C   UNL     1      -5.129  14.784   7.697  1.00  0.00     0.037 A 
ATOM     51  C   UNL     1      -9.966  11.518  10.580  1.00  0.00     0.049 A 
ATOM     52  C   UNL     1      -6.422  15.216   8.327  1.00  0.00     0.074 A 
ATOM     53  C   UNL     1     -11.106  12.031  11.175  1.00  0.00     0.029 A 
ATOM     54  N   UNL     1      -9.253  12.602  10.088  1.00  0.00    -0.354 N 
ATOM     55  N   UNL     1      -7.341  14.479   8.901  1.00  0.00    -0.248 NA
ATOM     56  C   UNL     1      -6.720  16.654   8.315  1.00  0.00     0.031 C 
ATOM     57  C   UNL     1     -11.100  13.422  11.010  1.00  0.00     0.029 A 
ATOM     58  C   UNL     1      -9.938  13.779  10.345  1.00  0.00     0.049 A 
ATOM     59  H   UNL     1      -8.387  12.543   9.624  1.00  0.00     0.167 HD
ATOM     60  C   UNL     1      -8.322  15.364   9.332  1.00  0.00     0.074 A 
ATOM     61  C   UNL     1      -7.875  16.693   8.966  1.00  0.00     0.031 C 
ATOM     62  C   UNL     1      -9.488  15.097   9.970  1.00  0.00     0.037 A 
BRANCH  49  63
ATOM     63  C   UNL     1     -10.502   9.075  10.949  1.00  0.00     0.058 A 
ATOM     64  C   UNL     1     -10.241   8.345  12.120  1.00  0.00     0.135 A 
ATOM     65  C   UNL     1     -11.691   8.796  10.256  1.00  0.00     0.135 A 
ATOM     66  F   UNL     1      -9.115   8.566  12.817  1.00  0.00    -0.206 F 
ATOM     67  C   UNL     1     -11.104   7.349  12.565  1.00  0.00     0.059 A 
ATOM     68  C   UNL     1     -12.581   7.820  10.696  1.00  0.00     0.059 A 
ATOM     69  F   UNL     1     -11.993   9.468   9.134  1.00  0.00    -0.206 F 
ATOM     70  C   UNL     1     -12.269   7.088  11.841  1.00  0.00     0.060 A 
BRANCH  70  71
ATOM     71  S   UNL     1     -13.370   5.778  12.417  1.00  0.00     0.124 S 
ATOM     72  O   UNL     1     -12.646   4.585  11.992  1.00  0.00    -0.237 OA
ATOM     73  O   UNL     1     -13.414   6.013  13.857  1.00  0.00    -0.237 OA
ATOM     74  O   UNL     1     -14.616   6.045  11.704  1.00  0.00    -0.744 OA
ENDBRANCH  70  71
ENDBRANCH  49  63
BRANCH  50  75
ATOM     75  C   UNL     1      -4.214  15.771   7.069  1.00  0.00     0.058 A 
ATOM     76  C   UNL     1      -3.455  16.651   7.854  1.00  0.00     0.135 A 
ATOM     77  C   UNL     1      -4.047  15.824   5.676  1.00  0.00     0.135 A 
ATOM     78  F   UNL     1      -3.584  16.639   9.189  1.00  0.00    -0.206 F 
ATOM     79  C   UNL     1      -2.566  17.555   7.282  1.00  0.00     0.059 A 
ATOM     80  C   UNL     1      -3.150  16.705   5.082  1.00  0.00     0.059 A 
ATOM     81  F   UNL     1      -4.736  14.988   4.885  1.00  0.00    -0.206 F 
ATOM     82  C   UNL     1      -2.417  17.571   5.894  1.00  0.00     0.060 A 
BRANCH  82  83
ATOM     83  S   UNL     1      -1.206  18.695   5.163  1.00  0.00     0.124 S 
ATOM     84  O   UNL     1      -1.905  19.972   5.245  1.00  0.00    -0.237 OA
ATOM     85  O   UNL     1      -0.060  18.534   6.053  1.00  0.00    -0.237 OA
ATOM     86  O   UNL     1      -1.023  18.157   3.818  1.00  0.00    -0.744 OA
ENDBRANCH  82  83
ENDBRANCH  50  75
BRANCH  62  87
ATOM     87  C   UNL     1     -10.359  16.268  10.324  1.00  0.00     0.058 A 
ATOM     88  C   UNL     1     -11.109  16.945   9.349  1.00  0.00     0.135 A 
ATOM     89  C   UNL     1     -10.475  16.697  11.656  1.00  0.00     0.135 A 
ATOM     90  F   UNL     1     -11.026  16.580   8.059  1.00  0.00    -0.206 F 
ATOM     91  C   UNL     1     -11.928  18.020   9.679  1.00  0.00     0.059 A 
ATOM     92  C   UNL     1     -11.305  17.756  12.011  1.00  0.00     0.059 A 
ATOM     93  F   UNL     1      -9.783  16.080  12.627  1.00  0.00    -0.206 F 
ATOM     94  C   UNL     1     -12.019  18.419  11.014  1.00  0.00     0.060 A 
BRANCH  94  95
ATOM     95  S   UNL     1     -13.108  19.796  11.437  1.00  0.00     0.124 S 
ATOM     96  O   UNL     1     -12.309  20.942  11.015  1.00  0.00    -0.237 OA
ATOM     97  O   UNL     1     -14.294  19.519  10.633  1.00  0.00    -0.237 OA
ATOM     98  O   UNL     1     -13.289  19.652  12.879  1.00  0.00    -0.744 OA
ENDBRANCH  94  95
ENDBRANCH  62  87
ENDBRANCH  36  37
ENDBRANCH  28  31
ENDBRANCH  26  27
ENDBRANCH  25  26
ENDBRANCH  24  25
ENDBRANCH   1  24
TORSDOF 20
