REMARK SMILES C[C@H]1[C@H](C(=O)NCCCCNC(=O)c2ccc(-c3c4nc(c(-c5c(F)cc(S(=O)(=O)[O-])cc5F)c5ccc([nH]5)c(-c5c(F)cc(S(=O)(=O)[O-])cc5F)c5nc(c(-c6c(F)cc(S(=O)(=O)[O-])cc6F)c6ccc3[nH]6)C=C5)C=C4)cc2)CCN1C(=O)COc1ccccc1F
REMARK SMILES IDX 8 1 7 2 6 3 4 4 5 5 3 7 1 8 2 9 82 10 80 11 81 12 83 13
REMARK SMILES IDX 84 14 85 15 86 16 87 17 88 18 92 19 89 20 91 21 93 22 90 23
REMARK SMILES IDX 9 24 10 25 11 26 12 27 13 29 14 30 15 31 79 32 16 33 78 34
REMARK SMILES IDX 17 35 18 36 19 37 72 38 20 39 77 40 71 41 73 42 21 43 76 44
REMARK SMILES IDX 70 45 69 46 22 48 56 49 35 50 55 51 36 52 39 53 54 54 74 55
REMARK SMILES IDX 37 56 38 57 53 59 75 60 40 61 23 62 24 63 33 64 25 65 26 66
REMARK SMILES IDX 32 67 34 68 27 69 28 70 29 71 30 72 31 73 57 74 58 75 67 76
REMARK SMILES IDX 59 77 60 78 66 79 68 80 61 81 62 82 63 83 64 84 65 85 41 86
REMARK SMILES IDX 42 87 51 88 43 89 44 90 50 91 52 92 45 93 46 94 47 95 48 96
REMARK SMILES IDX 49 97
REMARK H PARENT 6 6 11 28 73 47 39 58
REMARK Flexibility Score: inf
ROOT
ATOM      1  C   UNL     1       0.008  -0.081   3.918  1.00  0.00     0.023 C 
ENDROOT
BRANCH   1   2
ATOM      2  C   UNL     1      -0.981   0.580   2.961  1.00  0.00     0.116 C 
BRANCH   2   3
ATOM      3  N   UNL     1      -0.498   1.863   2.485  1.00  0.00    -0.356 N 
ATOM      4  C   UNL     1      -0.076   2.260   1.256  1.00  0.00     0.225 C 
ATOM      5  O   UNL     1       0.313   3.425   1.135  1.00  0.00    -0.275 OA
ATOM      6  H   UNL     1      -0.473   2.568   3.172  1.00  0.00     0.163 HD
BRANCH   4   7
ATOM      7  C   UNL     1      -0.074   1.336   0.051  1.00  0.00     0.102 C 
ATOM      8  C   UNL     1       1.970   0.194  -0.832  1.00  0.00     0.032 C 
ATOM      9  C   UNL     1       0.860   0.120   0.218  1.00  0.00     0.094 C 
ATOM     10  N   UNL     1      -0.027  -1.037   0.061  1.00  0.00    -0.336 N 
ATOM     11  C   UNL     1      -1.460   0.806  -0.320  1.00  0.00     0.037 C 
ATOM     12  C   UNL     1      -1.257  -0.667  -0.610  1.00  0.00     0.121 C 
BRANCH  10  13
ATOM     13  C   UNL     1       0.092  -2.302   0.602  1.00  0.00     0.260 C 
ATOM     14  O   UNL     1      -0.898  -3.024   0.764  1.00  0.00    -0.271 OA
BRANCH  13  15
ATOM     15  C   UNL     1       1.469  -2.823   1.037  1.00  0.00     0.329 C 
BRANCH  15  16
ATOM     16  O   UNL     1       2.632  -2.650   0.257  1.00  0.00    -0.481 OA
BRANCH  16  17
ATOM     17  C   UNL     1       2.759  -3.301  -0.939  1.00  0.00     0.155 A 
ATOM     18  C   UNL     1       4.087  -3.534  -1.318  1.00  0.00     0.049 A 
ATOM     19  C   UNL     1       1.752  -3.639  -1.842  1.00  0.00     0.165 A 
ATOM     20  C   UNL     1       4.395  -4.088  -2.564  1.00  0.00     0.004 A 
ATOM     21  C   UNL     1       2.052  -4.178  -3.094  1.00  0.00     0.043 A 
ATOM     22  F   UNL     1       0.460  -3.418  -1.589  1.00  0.00    -0.203 F 
ATOM     23  C   UNL     1       3.375  -4.402  -3.459  1.00  0.00     0.003 A 
ENDBRANCH  16  17
ENDBRANCH  15  16
ENDBRANCH  13  15
ENDBRANCH  10  13
ENDBRANCH   4   7
ENDBRANCH   2   3
ENDBRANCH   1   2
BRANCH   1  24
ATOM     24  C   UNL     1       0.139   0.616   5.272  1.00  0.00     0.023 C 
BRANCH  24  25
ATOM     25  C   UNL     1      -1.165   0.791   6.041  1.00  0.00     0.116 C 
BRANCH  25  26
ATOM     26  N   UNL     1      -1.868  -0.462   6.273  1.00  0.00    -0.352 N 
ATOM     27  C   UNL     1      -2.537  -0.871   7.402  1.00  0.00     0.251 C 
ATOM     28  H   UNL     1      -1.863  -1.100   5.523  1.00  0.00     0.163 HD
ATOM     29  O   UNL     1      -2.981  -2.013   7.479  1.00  0.00    -0.269 OA
BRANCH  27  30
ATOM     30  C   UNL     1      -2.681   0.066   8.535  1.00  0.00     0.039 A 
ATOM     31  C   UNL     1      -2.325  -0.365   9.815  1.00  0.00     0.014 A 
ATOM     32  C   UNL     1      -3.122   1.375   8.325  1.00  0.00     0.014 A 
ATOM     33  C   UNL     1      -2.342   0.543  10.876  1.00  0.00     0.010 A 
ATOM     34  C   UNL     1      -3.073   2.294   9.368  1.00  0.00     0.010 A 
ATOM     35  C   UNL     1      -2.679   1.888  10.652  1.00  0.00    -0.014 A 
BRANCH  35  36
ATOM     36  C   UNL     1      -2.615   2.889  11.746  1.00  0.00     0.031 A 
ATOM     37  C   UNL     1      -3.868   3.575  12.214  1.00  0.00     0.074 A 
ATOM     38  C   UNL     1      -1.419   3.232  12.266  1.00  0.00     0.049 A 
ATOM     39  N   UNL     1      -4.006   4.528  13.099  1.00  0.00    -0.248 NA
ATOM     40  C   UNL     1      -5.130   3.155  11.582  1.00  0.00     0.031 C 
ATOM     41  C   UNL     1      -0.127   2.678  11.855  1.00  0.00     0.029 A 
ATOM     42  N   UNL     1      -1.094   4.138  13.243  1.00  0.00    -0.354 N 
ATOM     43  C   UNL     1      -5.362   4.833  13.119  1.00  0.00     0.074 A 
ATOM     44  C   UNL     1      -5.997   3.998  12.122  1.00  0.00     0.031 C 
ATOM     45  C   UNL     1       0.847   3.241  12.588  1.00  0.00     0.029 A 
ATOM     46  C   UNL     1       0.255   4.218  13.496  1.00  0.00     0.049 A 
ATOM     47  H   UNL     1      -1.764   4.680  13.719  1.00  0.00     0.167 HD
ATOM     48  C   UNL     1      -6.020   5.712  13.912  1.00  0.00     0.037 A 
ATOM     49  C   UNL     1       0.939   4.995  14.359  1.00  0.00     0.037 A 
ATOM     50  C   UNL     1      -5.387   6.515  14.924  1.00  0.00     0.049 A 
ATOM     51  C   UNL     1       0.183   5.949  15.243  1.00  0.00     0.074 A 
ATOM     52  C   UNL     1      -5.975   7.388  15.823  1.00  0.00     0.029 A 
ATOM     53  N   UNL     1      -4.023   6.543  15.174  1.00  0.00    -0.354 N 
ATOM     54  N   UNL     1      -1.107   6.178  15.293  1.00  0.00    -0.248 NA
ATOM     55  C   UNL     1       0.974   6.744  16.192  1.00  0.00     0.031 C 
ATOM     56  C   UNL     1      -4.962   7.969  16.594  1.00  0.00     0.029 A 
ATOM     57  C   UNL     1      -3.748   7.429  16.203  1.00  0.00     0.049 A 
ATOM     58  H   UNL     1      -3.349   6.012  14.691  1.00  0.00     0.167 HD
ATOM     59  C   UNL     1      -1.286   7.127  16.294  1.00  0.00     0.074 A 
ATOM     60  C   UNL     1       0.027   7.419  16.831  1.00  0.00     0.031 C 
ATOM     61  C   UNL     1      -2.434   7.702  16.729  1.00  0.00     0.037 A 
BRANCH  48  62
ATOM     62  C   UNL     1      -7.506   5.840  13.720  1.00  0.00     0.058 A 
ATOM     63  C   UNL     1      -8.388   4.819  14.109  1.00  0.00     0.135 A 
ATOM     64  C   UNL     1      -8.057   7.006  13.165  1.00  0.00     0.135 A 
ATOM     65  F   UNL     1      -7.912   3.677  14.631  1.00  0.00    -0.206 F 
ATOM     66  C   UNL     1      -9.761   4.936  13.926  1.00  0.00     0.059 A 
ATOM     67  C   UNL     1      -9.431   7.155  12.996  1.00  0.00     0.059 A 
ATOM     68  F   UNL     1      -7.260   8.012  12.775  1.00  0.00    -0.206 F 
ATOM     69  C   UNL     1     -10.274   6.107  13.365  1.00  0.00     0.060 A 
BRANCH  69  70
ATOM     70  S   UNL     1     -12.059   6.243  13.132  1.00  0.00     0.124 S 
ATOM     71  O   UNL     1     -12.267   5.377  11.976  1.00  0.00    -0.237 OA
ATOM     72  O   UNL     1     -12.580   5.743  14.400  1.00  0.00    -0.237 OA
ATOM     73  O   UNL     1     -12.262   7.669  12.894  1.00  0.00    -0.744 OA
ENDBRANCH  69  70
ENDBRANCH  48  62
BRANCH  49  74
ATOM     74  C   UNL     1       2.418   4.880  14.449  1.00  0.00     0.058 A 
ATOM     75  C   UNL     1       3.027   4.279  15.560  1.00  0.00     0.135 A 
ATOM     76  C   UNL     1       3.250   5.352  13.422  1.00  0.00     0.135 A 
ATOM     77  F   UNL     1       2.273   3.817  16.569  1.00  0.00    -0.206 F 
ATOM     78  C   UNL     1       4.409   4.161  15.659  1.00  0.00     0.059 A 
ATOM     79  C   UNL     1       4.634   5.226  13.488  1.00  0.00     0.059 A 
ATOM     80  F   UNL     1       2.715   5.920  12.330  1.00  0.00    -0.206 F 
ATOM     81  C   UNL     1       5.205   4.637  14.615  1.00  0.00     0.060 A 
BRANCH  81  82
ATOM     82  S   UNL     1       6.996   4.433  14.728  1.00  0.00     0.124 S 
ATOM     83  O   UNL     1       7.349   5.466  15.695  1.00  0.00    -0.237 OA
ATOM     84  O   UNL     1       7.121   3.054  15.191  1.00  0.00    -0.237 OA
ATOM     85  O   UNL     1       7.446   4.668  13.359  1.00  0.00    -0.744 OA
ENDBRANCH  81  82
ENDBRANCH  49  74
BRANCH  61  86
ATOM     86  C   UNL     1      -2.326   8.686  17.860  1.00  0.00     0.058 A 
ATOM     87  C   UNL     1      -1.817   9.979  17.664  1.00  0.00     0.135 A 
ATOM     88  C   UNL     1      -2.787   8.347  19.142  1.00  0.00     0.135 A 
ATOM     89  F   UNL     1      -1.358  10.349  16.458  1.00  0.00    -0.206 F 
ATOM     90  C   UNL     1      -1.750  10.896  18.707  1.00  0.00     0.059 A 
ATOM     91  C   UNL     1      -2.750   9.256  20.194  1.00  0.00     0.059 A 
ATOM     92  F   UNL     1      -3.291   7.125  19.378  1.00  0.00    -0.206 F 
ATOM     93  C   UNL     1      -2.220  10.526  19.969  1.00  0.00     0.060 A 
BRANCH  93  94
ATOM     94  S   UNL     1      -2.160  11.737  21.307  1.00  0.00     0.124 S 
ATOM     95  O   UNL     1      -0.743  11.719  21.655  1.00  0.00    -0.237 OA
ATOM     96  O   UNL     1      -2.637  12.952  20.653  1.00  0.00    -0.237 OA
ATOM     97  O   UNL     1      -3.062  11.178  22.310  1.00  0.00    -0.744 OA
ENDBRANCH  93  94
ENDBRANCH  61  86
ENDBRANCH  35  36
ENDBRANCH  27  30
ENDBRANCH  25  26
ENDBRANCH  24  25
ENDBRANCH   1  24
TORSDOF 18
