REMARK SMILES C[C@@H]1[C@@H](C(=O)NCCCCNC(=O)c2ccc(-c3c4nc(c(-c5c(F)cc(S(=O)(=O)[O-])cc5F)c5ccc([nH]5)c(-c5c(F)cc(S(=O)(=O)[O-])cc5F)c5nc(c(-c6c(F)cc(S(=O)(=O)[O-])cc6F)c6ccc3[nH]6)C=C5)C=C4)cc2)CC[N@@H+]1C[C@H]1Cc2ccccc2O1
REMARK SMILES IDX 9 1 8 2 7 3 6 4 4 5 5 6 3 8 1 9 2 10 82 11 80 12 81 13 83 15
REMARK SMILES IDX 84 16 85 17 92 18 86 19 91 20 87 21 90 22 88 23 89 24 10 25
REMARK SMILES IDX 11 26 12 27 13 29 14 30 15 31 79 32 16 33 78 34 17 35 18 36
REMARK SMILES IDX 19 37 72 38 20 39 77 40 71 41 73 42 21 43 76 44 70 45 69 46
REMARK SMILES IDX 22 48 56 49 35 50 55 51 36 52 39 53 54 54 74 55 37 56 38 57
REMARK SMILES IDX 53 59 75 60 40 61 23 62 24 63 33 64 25 65 26 66 32 67 34 68
REMARK SMILES IDX 27 69 28 70 29 71 30 72 31 73 57 74 58 75 67 76 59 77 60 78
REMARK SMILES IDX 66 79 68 80 61 81 62 82 63 83 64 84 65 85 41 86 42 87 51 88
REMARK SMILES IDX 43 89 44 90 50 91 52 92 45 93 46 94 47 95 48 96 49 97
REMARK H PARENT 6 7 82 14 11 28 73 47 39 58
REMARK Flexibility Score: inf
ROOT
ATOM      1  C   UNL     1       2.595   0.067  -4.314  1.00  0.00     0.023 C 
ENDROOT
BRANCH   1   2
ATOM      2  C   UNL     1       2.046  -0.210  -2.923  1.00  0.00     0.023 C 
BRANCH   2   3
ATOM      3  C   UNL     1       1.522   0.999  -2.148  1.00  0.00     0.116 C 
BRANCH   3   4
ATOM      4  N   UNL     1       0.136   1.301  -2.443  1.00  0.00    -0.356 N 
ATOM      5  C   UNL     1      -1.016   1.070  -1.766  1.00  0.00     0.229 C 
ATOM      6  O   UNL     1      -2.043   1.560  -2.253  1.00  0.00    -0.275 OA
ATOM      7  H   UNL     1       0.005   1.763  -3.303  1.00  0.00     0.163 HD
BRANCH   5   8
ATOM      8  C   UNL     1      -1.144   0.189  -0.524  1.00  0.00     0.142 C 
ATOM      9  C   UNL     1      -1.047   0.780   1.928  1.00  0.00     0.076 C 
ATOM     10  C   UNL     1      -0.224   0.461   0.675  1.00  0.00     0.193 C 
ATOM     11  N   UNL     1       0.623  -0.730   0.772  1.00  0.00    -0.329 N 
ATOM     12  C   UNL     1      -0.979  -1.288  -0.845  1.00  0.00     0.081 C 
ATOM     13  C   UNL     1       0.386  -1.655  -0.312  1.00  0.00     0.263 C 
ATOM     14  H   UNL     1       1.544  -0.305   0.667  1.00  0.00     0.348 HD
BRANCH  11  15
ATOM     15  C   UNL     1       1.195  -1.216   2.015  1.00  0.00     0.308 C 
BRANCH  15  16
ATOM     16  C   UNL     1       0.320  -2.176   2.843  1.00  0.00     0.232 C 
ATOM     17  C   UNL     1       0.061  -3.533   2.176  1.00  0.00     0.090 C 
ATOM     18  O   UNL     1       0.934  -2.453   4.138  1.00  0.00    -0.484 OA
ATOM     19  C   UNL     1      -0.177  -4.331   3.393  1.00  0.00    -0.002 A 
ATOM     20  C   UNL     1       0.379  -3.665   4.475  1.00  0.00     0.123 A 
ATOM     21  C   UNL     1      -0.799  -5.556   3.530  1.00  0.00     0.007 A 
ATOM     22  C   UNL     1       0.341  -4.200   5.742  1.00  0.00     0.047 A 
ATOM     23  C   UNL     1      -0.875  -6.100   4.811  1.00  0.00     0.001 A 
ATOM     24  C   UNL     1      -0.307  -5.428   5.909  1.00  0.00     0.004 A 
ENDBRANCH  15  16
ENDBRANCH  11  15
ENDBRANCH   5   8
ENDBRANCH   3   4
ENDBRANCH   2   3
ENDBRANCH   1   2
BRANCH   1  25
ATOM     25  C   UNL     1       3.705   1.101  -4.380  1.00  0.00     0.116 C 
BRANCH  25  26
ATOM     26  N   UNL     1       4.846   0.827  -3.517  1.00  0.00    -0.352 N 
ATOM     27  C   UNL     1       6.163   1.185  -3.738  1.00  0.00     0.251 C 
ATOM     28  H   UNL     1       4.660   0.333  -2.686  1.00  0.00     0.163 HD
ATOM     29  O   UNL     1       7.048   0.850  -2.970  1.00  0.00    -0.269 OA
BRANCH  27  30
ATOM     30  C   UNL     1       6.468   1.944  -4.971  1.00  0.00     0.039 A 
ATOM     31  C   UNL     1       7.393   1.422  -5.877  1.00  0.00     0.014 A 
ATOM     32  C   UNL     1       5.729   3.087  -5.282  1.00  0.00     0.014 A 
ATOM     33  C   UNL     1       7.512   2.004  -7.140  1.00  0.00     0.010 A 
ATOM     34  C   UNL     1       5.778   3.600  -6.570  1.00  0.00     0.010 A 
ATOM     35  C   UNL     1       6.673   3.067  -7.512  1.00  0.00    -0.014 A 
BRANCH  35  36
ATOM     36  C   UNL     1       6.723   3.662  -8.871  1.00  0.00     0.031 A 
ATOM     37  C   UNL     1       7.088   5.114  -9.027  1.00  0.00     0.074 A 
ATOM     38  C   UNL     1       6.362   2.931  -9.944  1.00  0.00     0.049 A 
ATOM     39  N   UNL     1       7.087   5.855 -10.104  1.00  0.00    -0.248 NA
ATOM     40  C   UNL     1       7.461   5.837  -7.800  1.00  0.00     0.031 C 
ATOM     41  C   UNL     1       5.925   1.533  -9.914  1.00  0.00     0.029 A 
ATOM     42  N   UNL     1       6.296   3.268 -11.273  1.00  0.00    -0.354 N 
ATOM     43  C   UNL     1       7.429   7.134  -9.679  1.00  0.00     0.074 A 
ATOM     44  C   UNL     1       7.568   7.081  -8.241  1.00  0.00     0.031 C 
ATOM     45  C   UNL     1       5.665   1.125 -11.168  1.00  0.00     0.029 A 
ATOM     46  C   UNL     1       5.886   2.237 -12.086  1.00  0.00     0.049 A 
ATOM     47  H   UNL     1       6.520   4.164 -11.613  1.00  0.00     0.167 HD
ATOM     48  C   UNL     1       7.641   8.245 -10.422  1.00  0.00     0.037 A 
ATOM     49  C   UNL     1       5.713   2.196 -13.422  1.00  0.00     0.037 A 
ATOM     50  C   UNL     1       7.553   8.278 -11.856  1.00  0.00     0.049 A 
ATOM     51  C   UNL     1       6.003   3.430 -14.234  1.00  0.00     0.074 A 
ATOM     52  C   UNL     1       7.808   9.334 -12.712  1.00  0.00     0.029 A 
ATOM     53  N   UNL     1       7.193   7.197 -12.648  1.00  0.00    -0.354 N 
ATOM     54  N   UNL     1       6.379   4.617 -13.822  1.00  0.00    -0.248 NA
ATOM     55  C   UNL     1       5.857   3.317 -15.692  1.00  0.00     0.031 C 
ATOM     56  C   UNL     1       7.580   8.898 -14.022  1.00  0.00     0.029 A 
ATOM     57  C   UNL     1       7.218   7.561 -13.983  1.00  0.00     0.049 A 
ATOM     58  H   UNL     1       6.955   6.304 -12.310  1.00  0.00     0.167 HD
ATOM     59  C   UNL     1       6.545   5.383 -14.970  1.00  0.00     0.074 A 
ATOM     60  C   UNL     1       6.234   4.523 -16.094  1.00  0.00     0.031 C 
ATOM     61  C   UNL     1       6.923   6.681 -15.086  1.00  0.00     0.037 A 
BRANCH  48  62
ATOM     62  C   UNL     1       8.005   9.505  -9.687  1.00  0.00     0.058 A 
ATOM     63  C   UNL     1       9.249   9.652  -9.052  1.00  0.00     0.135 A 
ATOM     64  C   UNL     1       7.100  10.576  -9.610  1.00  0.00     0.135 A 
ATOM     65  F   UNL     1      10.143   8.651  -9.078  1.00  0.00    -0.206 F 
ATOM     66  C   UNL     1       9.568  10.797  -8.331  1.00  0.00     0.059 A 
ATOM     67  C   UNL     1       7.410  11.744  -8.918  1.00  0.00     0.059 A 
ATOM     68  F   UNL     1       5.896  10.488 -10.197  1.00  0.00    -0.206 F 
ATOM     69  C   UNL     1       8.638  11.836  -8.265  1.00  0.00     0.060 A 
BRANCH  69  70
ATOM     70  S   UNL     1       9.058  13.311  -7.313  1.00  0.00     0.124 S 
ATOM     71  O   UNL     1       8.867  12.837  -5.946  1.00  0.00    -0.237 OA
ATOM     72  O   UNL     1      10.441  13.558  -7.709  1.00  0.00    -0.237 OA
ATOM     73  O   UNL     1       8.091  14.300  -7.777  1.00  0.00    -0.744 OA
ENDBRANCH  69  70
ENDBRANCH  48  62
BRANCH  49  74
ATOM     74  C   UNL     1       5.291   0.931 -14.080  1.00  0.00     0.058 A 
ATOM     75  C   UNL     1       6.202   0.180 -14.838  1.00  0.00     0.135 A 
ATOM     76  C   UNL     1       3.984   0.438 -13.952  1.00  0.00     0.135 A 
ATOM     77  F   UNL     1       7.462   0.613 -14.993  1.00  0.00    -0.206 F 
ATOM     78  C   UNL     1       5.829  -1.008 -15.460  1.00  0.00     0.059 A 
ATOM     79  C   UNL     1       3.593  -0.758 -14.547  1.00  0.00     0.059 A 
ATOM     80  F   UNL     1       3.080   1.110 -13.222  1.00  0.00    -0.206 F 
ATOM     81  C   UNL     1       4.521  -1.470 -15.306  1.00  0.00     0.060 A 
BRANCH  81  82
ATOM     82  S   UNL     1       4.062  -3.041 -16.072  1.00  0.00     0.124 S 
ATOM     83  O   UNL     1       3.950  -2.662 -17.475  1.00  0.00    -0.237 OA
ATOM     84  O   UNL     1       5.196  -3.893 -15.728  1.00  0.00    -0.237 OA
ATOM     85  O   UNL     1       2.808  -3.382 -15.406  1.00  0.00    -0.744 OA
ENDBRANCH  81  82
ENDBRANCH  49  74
BRANCH  61  86
ATOM     86  C   UNL     1       7.066   7.237 -16.473  1.00  0.00     0.058 A 
ATOM     87  C   UNL     1       5.949   7.565 -17.255  1.00  0.00     0.135 A 
ATOM     88  C   UNL     1       8.341   7.499 -17.001  1.00  0.00     0.135 A 
ATOM     89  F   UNL     1       4.710   7.329 -16.797  1.00  0.00    -0.206 F 
ATOM     90  C   UNL     1       6.091   8.116 -18.524  1.00  0.00     0.059 A 
ATOM     91  C   UNL     1       8.506   8.071 -18.257  1.00  0.00     0.059 A 
ATOM     92  F   UNL     1       9.441   7.213 -16.286  1.00  0.00    -0.206 F 
ATOM     93  C   UNL     1       7.374   8.366 -19.017  1.00  0.00     0.060 A 
BRANCH  93  94
ATOM     94  S   UNL     1       7.546   9.116 -20.649  1.00  0.00     0.124 S 
ATOM     95  O   UNL     1       7.277   7.979 -21.524  1.00  0.00    -0.237 OA
ATOM     96  O   UNL     1       6.523  10.156 -20.628  1.00  0.00    -0.237 OA
ATOM     97  O   UNL     1       8.923   9.601 -20.655  1.00  0.00    -0.744 OA
ENDBRANCH  93  94
ENDBRANCH  61  86
ENDBRANCH  35  36
ENDBRANCH  27  30
ENDBRANCH  25  26
ENDBRANCH   1  25
TORSDOF 16
