REMARK SMILES C[C@H](CC(=O)NCCCCNC(=O)c1ccc(-c2c3nc(c(-c4c(F)cc(S(=O)(=O)[O-])cc4F)c4ccc([nH]4)c(-c4c(F)cc(S(=O)(=O)[O-])cc4F)c4nc(c(-c5c(F)cc(S(=O)(=O)[O-])cc5F)c5ccc2[nH]5)C=C4)C=C3)cc1)NC(=O)CS[C@H]1CCS(=O)(=O)C1
REMARK SMILES IDX 7 1 6 2 4 3 5 4 3 6 2 7 1 8 80 9 81 10 82 12 83 13 84 14
REMARK SMILES IDX 85 15 86 16 91 17 87 18 88 19 89 20 90 21 8 22 9 23 10 24
REMARK SMILES IDX 11 25 12 26 13 28 14 29 15 30 79 31 16 32 78 33 17 34 18 35
REMARK SMILES IDX 19 36 72 37 20 38 77 39 71 40 73 41 21 42 76 43 70 44 69 45
REMARK SMILES IDX 22 47 56 48 35 49 55 50 36 51 39 52 54 53 74 54 37 55 38 56
REMARK SMILES IDX 53 58 75 59 40 60 23 61 24 62 33 63 25 64 26 65 32 66 34 67
REMARK SMILES IDX 27 68 28 69 29 70 30 71 31 72 57 73 58 74 67 75 59 76 60 77
REMARK SMILES IDX 66 78 68 79 61 80 62 81 63 82 64 83 65 84 41 85 42 86 51 87
REMARK SMILES IDX 43 88 44 89 50 90 52 91 45 92 46 93 47 94 48 95 49 96
REMARK H PARENT 6 5 80 11 11 27 73 46 39 57
REMARK Flexibility Score: inf
ROOT
ATOM      1  C   UNL     1      -2.589  -1.555   1.660  1.00  0.00     0.116 C 
ENDROOT
BRANCH   1   2
ATOM      2  N   UNL     1      -1.740  -0.799   0.776  1.00  0.00    -0.356 N 
ATOM      3  C   UNL     1      -1.643  -1.045  -0.559  1.00  0.00     0.222 C 
ATOM      4  O   UNL     1      -0.573  -0.891  -1.144  1.00  0.00    -0.275 OA
ATOM      5  H   UNL     1      -1.202  -0.067   1.156  1.00  0.00     0.163 HD
BRANCH   3   6
ATOM      6  C   UNL     1      -2.895  -1.491  -1.277  1.00  0.00     0.124 C 
BRANCH   6   7
ATOM      7  C   UNL     1      -2.614  -2.698  -2.161  1.00  0.00     0.088 C 
ATOM      8  C   UNL     1      -2.649  -4.013  -1.384  1.00  0.00     0.031 C 
BRANCH   7   9
ATOM      9  N   UNL     1      -3.580  -2.730  -3.251  1.00  0.00    -0.352 N 
ATOM     10  C   UNL     1      -3.346  -2.855  -4.589  1.00  0.00     0.230 C 
ATOM     11  H   UNL     1      -4.526  -2.651  -2.987  1.00  0.00     0.163 HD
ATOM     12  O   UNL     1      -4.316  -2.832  -5.349  1.00  0.00    -0.274 OA
BRANCH  10  13
ATOM     13  C   UNL     1      -1.924  -3.030  -5.101  1.00  0.00     0.169 C 
BRANCH  13  14
ATOM     14  S   UNL     1      -1.280  -1.535  -5.936  1.00  0.00    -0.148 SA
BRANCH  14  15
ATOM     15  C   UNL     1      -0.932  -0.413  -4.531  1.00  0.00     0.063 C 
ATOM     16  C   UNL     1       0.249   0.513  -4.861  1.00  0.00     0.031 C 
ATOM     17  C   UNL     1      -2.099   0.531  -4.258  1.00  0.00     0.151 C 
ATOM     18  C   UNL     1       0.311   1.537  -3.727  1.00  0.00     0.138 C 
ATOM     19  S   UNL     1      -1.397   1.886  -3.327  1.00  0.00     0.151 S 
ATOM     20  O   UNL     1      -1.624   1.666  -1.913  1.00  0.00    -0.229 OA
ATOM     21  O   UNL     1      -1.784   3.125  -3.965  1.00  0.00    -0.229 OA
ENDBRANCH  14  15
ENDBRANCH  13  14
ENDBRANCH  10  13
ENDBRANCH   7   9
ENDBRANCH   6   7
ENDBRANCH   3   6
ENDBRANCH   1   2
BRANCH   1  22
ATOM     22  C   UNL     1      -1.920  -2.905   1.928  1.00  0.00     0.023 C 
BRANCH  22  23
ATOM     23  C   UNL     1      -0.872  -2.828   3.029  1.00  0.00     0.023 C 
BRANCH  23  24
ATOM     24  C   UNL     1      -1.412  -2.203   4.303  1.00  0.00     0.116 C 
BRANCH  24  25
ATOM     25  N   UNL     1      -2.754  -2.686   4.630  1.00  0.00    -0.352 N 
ATOM     26  C   UNL     1      -3.276  -2.963   5.863  1.00  0.00     0.251 C 
ATOM     27  H   UNL     1      -3.357  -2.831   3.866  1.00  0.00     0.163 HD
ATOM     28  O   UNL     1      -4.356  -3.524   5.983  1.00  0.00    -0.269 OA
BRANCH  26  29
ATOM     29  C   UNL     1      -2.468  -2.576   7.021  1.00  0.00     0.039 A 
ATOM     30  C   UNL     1      -2.145  -3.540   7.970  1.00  0.00     0.014 A 
ATOM     31  C   UNL     1      -1.921  -1.289   7.058  1.00  0.00     0.014 A 
ATOM     32  C   UNL     1      -1.230  -3.210   8.959  1.00  0.00     0.010 A 
ATOM     33  C   UNL     1      -0.912  -1.014   7.958  1.00  0.00     0.010 A 
ATOM     34  C   UNL     1      -0.589  -1.957   8.941  1.00  0.00    -0.014 A 
BRANCH  34  35
ATOM     35  C   UNL     1       0.391  -1.606   9.988  1.00  0.00     0.031 A 
ATOM     36  C   UNL     1       0.104  -0.454  10.909  1.00  0.00     0.074 A 
ATOM     37  C   UNL     1       1.522  -2.326  10.093  1.00  0.00     0.049 A 
ATOM     38  N   UNL     1       0.794  -0.034  11.935  1.00  0.00    -0.248 NA
ATOM     39  C   UNL     1      -1.095   0.357  10.625  1.00  0.00     0.031 C 
ATOM     40  C   UNL     1       1.926  -3.408   9.189  1.00  0.00     0.029 A 
ATOM     41  N   UNL     1       2.530  -2.273  11.017  1.00  0.00    -0.354 N 
ATOM     42  C   UNL     1       0.116   1.082  12.410  1.00  0.00     0.074 A 
ATOM     43  C   UNL     1      -0.985   1.331  11.512  1.00  0.00     0.031 C 
ATOM     44  C   UNL     1       3.063  -3.958   9.643  1.00  0.00     0.029 A 
ATOM     45  C   UNL     1       3.483  -3.249  10.845  1.00  0.00     0.049 A 
ATOM     46  H   UNL     1       2.568  -1.602  11.736  1.00  0.00     0.167 HD
ATOM     47  C   UNL     1       0.365   1.806  13.524  1.00  0.00     0.037 A 
ATOM     48  C   UNL     1       4.563  -3.543  11.593  1.00  0.00     0.037 A 
ATOM     49  C   UNL     1       1.453   1.523  14.419  1.00  0.00     0.049 A 
ATOM     50  C   UNL     1       4.803  -2.742  12.843  1.00  0.00     0.074 A 
ATOM     51  C   UNL     1       1.780   2.153  15.605  1.00  0.00     0.029 A 
ATOM     52  N   UNL     1       2.393   0.519  14.223  1.00  0.00    -0.354 N 
ATOM     53  N   UNL     1       4.108  -1.738  13.326  1.00  0.00    -0.248 NA
ATOM     54  C   UNL     1       5.960  -3.124  13.659  1.00  0.00     0.031 C 
ATOM     55  C   UNL     1       2.949   1.564  16.099  1.00  0.00     0.029 A 
ATOM     56  C   UNL     1       3.313   0.525  15.256  1.00  0.00     0.049 A 
ATOM     57  H   UNL     1       2.403  -0.104  13.461  1.00  0.00     0.167 HD
ATOM     58  C   UNL     1       4.728  -1.386  14.519  1.00  0.00     0.074 A 
ATOM     59  C   UNL     1       5.840  -2.301  14.691  1.00  0.00     0.031 C 
ATOM     60  C   UNL     1       4.411  -0.399  15.396  1.00  0.00     0.037 A 
BRANCH  47  61
ATOM     61  C   UNL     1      -0.556   2.956  13.829  1.00  0.00     0.058 A 
ATOM     62  C   UNL     1      -1.901   2.754  14.186  1.00  0.00     0.135 A 
ATOM     63  C   UNL     1      -0.088   4.278  13.776  1.00  0.00     0.135 A 
ATOM     64  F   UNL     1      -2.412   1.512  14.226  1.00  0.00    -0.206 F 
ATOM     65  C   UNL     1      -2.753   3.820  14.452  1.00  0.00     0.059 A 
ATOM     66  C   UNL     1      -0.914   5.358  14.071  1.00  0.00     0.059 A 
ATOM     67  F   UNL     1       1.184   4.531  13.430  1.00  0.00    -0.206 F 
ATOM     68  C   UNL     1      -2.248   5.120  14.396  1.00  0.00     0.060 A 
BRANCH  68  69
ATOM     69  S   UNL     1      -3.363   6.491  14.763  1.00  0.00     0.124 S 
ATOM     70  O   UNL     1      -4.223   6.491  13.584  1.00  0.00    -0.237 OA
ATOM     71  O   UNL     1      -3.991   6.055  16.006  1.00  0.00    -0.237 OA
ATOM     72  O   UNL     1      -2.465   7.635  14.885  1.00  0.00    -0.744 OA
ENDBRANCH  68  69
ENDBRANCH  47  61
BRANCH  48  73
ATOM     73  C   UNL     1       5.454  -4.669  11.204  1.00  0.00     0.058 A 
ATOM     74  C   UNL     1       5.519  -5.844  11.969  1.00  0.00     0.135 A 
ATOM     75  C   UNL     1       6.244  -4.601  10.046  1.00  0.00     0.135 A 
ATOM     76  F   UNL     1       4.780  -5.961  13.083  1.00  0.00    -0.206 F 
ATOM     77  C   UNL     1       6.353  -6.900  11.615  1.00  0.00     0.059 A 
ATOM     78  C   UNL     1       7.064  -5.655   9.655  1.00  0.00     0.059 A 
ATOM     79  F   UNL     1       6.201  -3.510   9.265  1.00  0.00    -0.206 F 
ATOM     80  C   UNL     1       7.121  -6.796  10.454  1.00  0.00     0.060 A 
BRANCH  80  81
ATOM     81  S   UNL     1       8.169  -8.188   9.980  1.00  0.00     0.124 S 
ATOM     82  O   UNL     1       9.225  -8.114  10.982  1.00  0.00    -0.237 OA
ATOM     83  O   UNL     1       7.251  -9.316  10.100  1.00  0.00    -0.237 OA
ATOM     84  O   UNL     1       8.569  -7.857   8.615  1.00  0.00    -0.744 OA
ENDBRANCH  80  81
ENDBRANCH  48  73
BRANCH  60  85
ATOM     85  C   UNL     1       5.257  -0.291  16.634  1.00  0.00     0.058 A 
ATOM     86  C   UNL     1       6.592   0.139  16.585  1.00  0.00     0.135 A 
ATOM     87  C   UNL     1       4.712  -0.607  17.890  1.00  0.00     0.135 A 
ATOM     88  F   UNL     1       7.159   0.452  15.409  1.00  0.00    -0.206 F 
ATOM     89  C   UNL     1       7.374   0.202  17.732  1.00  0.00     0.059 A 
ATOM     90  C   UNL     1       5.465  -0.514  19.054  1.00  0.00     0.059 A 
ATOM     91  F   UNL     1       3.434  -1.004  17.994  1.00  0.00    -0.206 F 
ATOM     92  C   UNL     1       6.802  -0.131  18.962  1.00  0.00     0.060 A 
BRANCH  92  93
ATOM     93  S   UNL     1       7.831  -0.056  20.441  1.00  0.00     0.124 S 
ATOM     94  O   UNL     1       8.676  -1.233  20.270  1.00  0.00    -0.237 OA
ATOM     95  O   UNL     1       8.499   1.233  20.292  1.00  0.00    -0.237 OA
ATOM     96  O   UNL     1       6.864  -0.131  21.532  1.00  0.00    -0.744 OA
ENDBRANCH  92  93
ENDBRANCH  60  85
ENDBRANCH  34  35
ENDBRANCH  26  29
ENDBRANCH  24  25
ENDBRANCH  23  24
ENDBRANCH  22  23
ENDBRANCH   1  22
TORSDOF 19
