REMARK SMILES Cc1nc(NC(=O)[C@@H]2CCC[C@@H](C(=O)NCCCCNC(=O)c3ccc(-c4c5nc(c(-c6c(F)cc(S(=O)(=O)[O-])cc6F)c6ccc([nH]6)c(-c6c(F)cc(S(=O)(=O)[O-])cc6F)c6nc(c(-c7c(F)cc(S(=O)(=O)[O-])cc7F)c7ccc4[nH]7)C=C6)C=C5)cc3)C2)ccc1Br
REMARK SMILES IDX 18 1 17 2 16 3 15 4 13 5 14 6 12 8 8 9 9 10 89 11 10 12
REMARK SMILES IDX 11 13 6 14 5 15 7 17 4 18 1 19 2 20 3 21 92 22 91 23 93 24
REMARK SMILES IDX 90 25 19 26 20 27 21 28 22 30 23 31 24 32 88 33 25 34 87 35
REMARK SMILES IDX 26 36 27 37 28 38 81 39 29 40 86 41 80 42 82 43 30 44 85 45
REMARK SMILES IDX 79 46 78 47 31 49 65 50 44 51 64 52 45 53 48 54 63 55 83 56
REMARK SMILES IDX 46 57 47 58 62 60 84 61 49 62 32 63 33 64 42 65 34 66 35 67
REMARK SMILES IDX 41 68 43 69 36 70 37 71 38 72 39 73 40 74 66 75 67 76 76 77
REMARK SMILES IDX 68 78 69 79 75 80 77 81 70 82 71 83 72 84 73 85 74 86 50 87
REMARK SMILES IDX 51 88 60 89 52 90 53 91 59 92 61 93 54 94 55 95 56 96 57 97
REMARK SMILES IDX 58 98
REMARK H PARENT 15 7 5 16 20 29 82 48 48 59
REMARK Flexibility Score: inf
ROOT
ATOM      1  C   UNL     1       3.094   8.979  -4.660  1.00  0.00     0.023 C 
ENDROOT
BRANCH   1   2
ATOM      2  C   UNL     1       1.670   8.701  -5.157  1.00  0.00     0.023 C 
BRANCH   2   3
ATOM      3  C   UNL     1       1.588   8.205  -6.604  1.00  0.00     0.116 C 
BRANCH   3   4
ATOM      4  N   UNL     1       2.154   6.880  -6.716  1.00  0.00    -0.356 N 
ATOM      5  C   UNL     1       1.574   5.656  -6.763  1.00  0.00     0.223 C 
ATOM      6  O   UNL     1       2.349   4.696  -6.774  1.00  0.00    -0.275 OA
ATOM      7  H   UNL     1       3.137   6.864  -6.769  1.00  0.00     0.163 HD
BRANCH   5   8
ATOM      8  C   UNL     1       0.048   5.469  -6.883  1.00  0.00     0.079 C 
ATOM      9  C   UNL     1      -0.113   3.281  -5.603  1.00  0.00     0.079 C 
ATOM     10  C   UNL     1      -1.122   3.908  -4.636  1.00  0.00     0.013 C 
ATOM     11  C   UNL     1      -0.285   3.950  -6.981  1.00  0.00     0.027 C 
ATOM     12  C   UNL     1      -0.777   5.377  -4.444  1.00  0.00     0.002 C 
ATOM     13  C   UNL     1      -0.813   6.114  -5.779  1.00  0.00     0.013 C 
BRANCH   9  14
ATOM     14  C   UNL     1      -0.191   1.766  -5.585  1.00  0.00     0.228 C 
ATOM     15  N   UNL     1       0.176   1.063  -4.468  1.00  0.00    -0.310 N 
ATOM     16  H   UNL     1       0.064   0.092  -4.580  1.00  0.00     0.171 HD
ATOM     17  O   UNL     1      -0.637   1.142  -6.552  1.00  0.00    -0.274 OA
BRANCH  15  18
ATOM     18  C   UNL     1       0.675   1.403  -3.204  1.00  0.00     0.132 A 
ATOM     19  C   UNL     1       0.636  -0.468  -0.034  1.00  0.00     0.068 C 
ATOM     20  C   UNL     1       0.800   0.683  -0.982  1.00  0.00     0.054 A 
ATOM     21  N   UNL     1       0.508   0.423  -2.290  1.00  0.00    -0.235 NA
ATOM     22  C   UNL     1       1.245   1.929  -0.549  1.00  0.00     0.039 A 
ATOM     23  C   UNL     1       1.492   2.899  -1.506  1.00  0.00     0.021 A 
ATOM     24  Br  UNL     1       1.531   2.363   1.269  1.00  0.00    -0.049 Br
ATOM     25  C   UNL     1       1.242   2.617  -2.848  1.00  0.00     0.048 A 
ENDBRANCH  15  18
ENDBRANCH   9  14
ENDBRANCH   5   8
ENDBRANCH   3   4
ENDBRANCH   2   3
ENDBRANCH   1   2
BRANCH   1  26
ATOM     26  C   UNL     1       3.861  10.029  -5.456  1.00  0.00     0.116 C 
BRANCH  26  27
ATOM     27  N   UNL     1       3.193  11.319  -5.465  1.00  0.00    -0.352 N 
ATOM     28  C   UNL     1       3.762  12.571  -5.407  1.00  0.00     0.251 C 
ATOM     29  H   UNL     1       2.211  11.295  -5.520  1.00  0.00     0.163 HD
ATOM     30  O   UNL     1       3.066  13.565  -5.290  1.00  0.00    -0.269 OA
BRANCH  28  31
ATOM     31  C   UNL     1       5.234  12.680  -5.462  1.00  0.00     0.039 A 
ATOM     32  C   UNL     1       5.899  13.382  -4.453  1.00  0.00     0.014 A 
ATOM     33  C   UNL     1       5.948  12.062  -6.493  1.00  0.00     0.014 A 
ATOM     34  C   UNL     1       7.294  13.419  -4.449  1.00  0.00     0.010 A 
ATOM     35  C   UNL     1       7.337  12.063  -6.462  1.00  0.00     0.010 A 
ATOM     36  C   UNL     1       8.020  12.743  -5.441  1.00  0.00    -0.014 A 
BRANCH  36  37
ATOM     37  C   UNL     1       9.500  12.761  -5.465  1.00  0.00     0.031 A 
ATOM     38  C   UNL     1      10.210  13.533  -6.538  1.00  0.00     0.074 A 
ATOM     39  C   UNL     1      10.197  12.043  -4.564  1.00  0.00     0.049 A 
ATOM     40  N   UNL     1      11.487  13.593  -6.808  1.00  0.00    -0.248 NA
ATOM     41  C   UNL     1       9.363  14.332  -7.439  1.00  0.00     0.031 C 
ATOM     42  C   UNL     1       9.615  11.259  -3.474  1.00  0.00     0.029 A 
ATOM     43  N   UNL     1      11.548  11.851  -4.431  1.00  0.00    -0.354 N 
ATOM     44  C   UNL     1      11.601  14.440  -7.902  1.00  0.00     0.074 A 
ATOM     45  C   UNL     1      10.258  14.822  -8.284  1.00  0.00     0.031 C 
ATOM     46  C   UNL     1      10.606  10.685  -2.771  1.00  0.00     0.029 A 
ATOM     47  C   UNL     1      11.887  11.029  -3.383  1.00  0.00     0.049 A 
ATOM     48  H   UNL     1      12.212  12.263  -5.029  1.00  0.00     0.167 HD
ATOM     49  C   UNL     1      12.724  14.880  -8.518  1.00  0.00     0.037 A 
ATOM     50  C   UNL     1      13.094  10.600  -2.969  1.00  0.00     0.037 A 
ATOM     51  C   UNL     1      14.056  14.485  -8.142  1.00  0.00     0.049 A 
ATOM     52  C   UNL     1      14.325  11.044  -3.712  1.00  0.00     0.074 A 
ATOM     53  C   UNL     1      15.260  14.854  -8.714  1.00  0.00     0.029 A 
ATOM     54  N   UNL     1      14.358  13.630  -7.090  1.00  0.00    -0.354 N 
ATOM     55  N   UNL     1      14.418  11.834  -4.756  1.00  0.00    -0.248 NA
ATOM     56  C   UNL     1      15.613  10.539  -3.221  1.00  0.00     0.031 C 
ATOM     57  C   UNL     1      16.289  14.199  -8.027  1.00  0.00     0.029 A 
ATOM     58  C   UNL     1      15.729  13.457  -6.999  1.00  0.00     0.049 A 
ATOM     59  H   UNL     1      13.695  13.209  -6.497  1.00  0.00     0.167 HD
ATOM     60  C   UNL     1      15.777  11.946  -5.028  1.00  0.00     0.074 A 
ATOM     61  C   UNL     1      16.466  11.144  -4.036  1.00  0.00     0.031 C 
ATOM     62  C   UNL     1      16.398  12.654  -6.005  1.00  0.00     0.037 A 
BRANCH  49  63
ATOM     63  C   UNL     1      12.543  15.840  -9.661  1.00  0.00     0.058 A 
ATOM     64  C   UNL     1      12.110  17.158  -9.443  1.00  0.00     0.135 A 
ATOM     65  C   UNL     1      12.796  15.444 -10.983  1.00  0.00     0.135 A 
ATOM     66  F   UNL     1      11.833  17.582  -8.200  1.00  0.00    -0.206 F 
ATOM     67  C   UNL     1      11.897  18.038 -10.499  1.00  0.00     0.059 A 
ATOM     68  C   UNL     1      12.616  16.316 -12.053  1.00  0.00     0.059 A 
ATOM     69  F   UNL     1      13.208  14.194 -11.248  1.00  0.00    -0.206 F 
ATOM     70  C   UNL     1      12.149  17.606 -11.801  1.00  0.00     0.060 A 
BRANCH  70  71
ATOM     71  S   UNL     1      11.847  18.754 -13.161  1.00  0.00     0.124 S 
ATOM     72  O   UNL     1      10.388  18.788 -13.194  1.00  0.00    -0.237 OA
ATOM     73  O   UNL     1      12.499  19.972 -12.691  1.00  0.00    -0.237 OA
ATOM     74  O   UNL     1      12.485  18.105 -14.302  1.00  0.00    -0.744 OA
ENDBRANCH  70  71
ENDBRANCH  49  63
BRANCH  50  75
ATOM     75  C   UNL     1      13.197   9.740  -1.762  1.00  0.00     0.058 A 
ATOM     76  C   UNL     1      13.693  10.262  -0.558  1.00  0.00     0.135 A 
ATOM     77  C   UNL     1      12.771   8.403  -1.771  1.00  0.00     0.135 A 
ATOM     78  F   UNL     1      14.121  11.532  -0.505  1.00  0.00    -0.206 F 
ATOM     79  C   UNL     1      13.760   9.492   0.597  1.00  0.00     0.059 A 
ATOM     80  C   UNL     1      12.809   7.618  -0.623  1.00  0.00     0.059 A 
ATOM     81  F   UNL     1      12.278   7.861  -2.896  1.00  0.00    -0.206 F 
ATOM     82  C   UNL     1      13.306   8.172   0.557  1.00  0.00     0.060 A 
BRANCH  82  83
ATOM     83  S   UNL     1      13.323   7.210   2.086  1.00  0.00     0.124 S 
ATOM     84  O   UNL     1      14.752   6.999   2.286  1.00  0.00    -0.237 OA
ATOM     85  O   UNL     1      12.674   8.120   3.024  1.00  0.00    -0.237 OA
ATOM     86  O   UNL     1      12.550   6.020   1.742  1.00  0.00    -0.744 OA
ENDBRANCH  82  83
ENDBRANCH  50  75
BRANCH  62  87
ATOM     87  C   UNL     1      17.901  12.623  -6.026  1.00  0.00     0.058 A 
ATOM     88  C   UNL     1      18.611  11.489  -6.451  1.00  0.00     0.135 A 
ATOM     89  C   UNL     1      18.639  13.758  -5.651  1.00  0.00     0.135 A 
ATOM     90  F   UNL     1      17.953  10.377  -6.815  1.00  0.00    -0.206 F 
ATOM     91  C   UNL     1      20.002  11.472  -6.476  1.00  0.00     0.059 A 
ATOM     92  C   UNL     1      20.029  13.771  -5.693  1.00  0.00     0.059 A 
ATOM     93  F   UNL     1      18.007  14.871  -5.248  1.00  0.00    -0.206 F 
ATOM     94  C   UNL     1      20.702  12.618  -6.093  1.00  0.00     0.060 A 
BRANCH  94  95
ATOM     95  S   UNL     1      22.506  12.587  -6.145  1.00  0.00     0.124 S 
ATOM     96  O   UNL     1      22.819  11.754  -4.988  1.00  0.00    -0.237 OA
ATOM     97  O   UNL     1      22.772  11.987  -7.449  1.00  0.00    -0.237 OA
ATOM     98  O   UNL     1      22.875  13.995  -6.023  1.00  0.00    -0.744 OA
ENDBRANCH  94  95
ENDBRANCH  62  87
ENDBRANCH  36  37
ENDBRANCH  28  31
ENDBRANCH  26  27
ENDBRANCH   1  26
TORSDOF 16
