REMARK SMILES C[C@H]1CCCCN1c1nc2nc(CC(=O)NCCCCNC(=O)c3ccc(-c4c5nc(c(-c6c(F)cc(S(=O)(=O)[O-])cc6F)c6ccc([nH]6)c(-c6c(F)cc(S(=O)(=O)[O-])cc6F)c6nc(c(-c7c(F)cc(S(=O)(=O)[O-])cc7F)c7ccc4[nH]7)C=C6)C=C5)cc3)cc(O)n2n1
REMARK SMILES IDX 19 1 18 2 17 3 16 4 14 5 15 6 13 8 12 9 8 10 9 11 94 12
REMARK SMILES IDX 10 13 93 14 11 15 91 16 90 17 7 18 1 19 2 20 3 21 4 22 6 23
REMARK SMILES IDX 5 24 92 25 20 27 21 28 22 29 23 31 24 32 25 33 89 34 26 35
REMARK SMILES IDX 88 36 27 37 28 38 29 39 82 40 30 41 87 42 81 43 83 44 31 45
REMARK SMILES IDX 86 46 80 47 79 48 32 50 66 51 45 52 65 53 46 54 49 55 64 56
REMARK SMILES IDX 84 57 47 58 48 59 63 61 85 62 50 63 33 64 34 65 43 66 35 67
REMARK SMILES IDX 36 68 42 69 44 70 37 71 38 72 39 73 40 74 41 75 67 76 68 77
REMARK SMILES IDX 77 78 69 79 70 80 76 81 78 82 71 83 72 84 73 85 74 86 75 87
REMARK SMILES IDX 51 88 52 89 61 90 53 91 54 92 60 93 62 94 55 95 56 96 57 97
REMARK SMILES IDX 58 98 59 99
REMARK H PARENT 16 7 92 26 21 30 83 49 49 60
REMARK Flexibility Score: inf
ROOT
ATOM      1  C   UNL     1      -0.470  -8.133  -1.302  1.00  0.00     0.023 C 
ENDROOT
BRANCH   1   2
ATOM      2  C   UNL     1       0.881  -7.519  -1.695  1.00  0.00     0.023 C 
BRANCH   2   3
ATOM      3  C   UNL     1       1.556  -8.132  -2.928  1.00  0.00     0.116 C 
BRANCH   3   4
ATOM      4  N   UNL     1       0.818  -7.875  -4.149  1.00  0.00    -0.356 N 
ATOM      5  C   UNL     1       1.025  -6.938  -5.120  1.00  0.00     0.226 C 
ATOM      6  O   UNL     1       0.259  -6.913  -6.085  1.00  0.00    -0.275 OA
ATOM      7  H   UNL     1       0.047  -8.468  -4.301  1.00  0.00     0.163 HD
BRANCH   5   8
ATOM      8  C   UNL     1       2.227  -6.027  -5.055  1.00  0.00     0.156 C 
BRANCH   8   9
ATOM      9  C   UNL     1       2.255  -5.109  -3.855  1.00  0.00     0.059 A 
ATOM     10  C   UNL     1       0.988  -2.174  -0.947  1.00  0.00     0.247 A 
ATOM     11  N   UNL     1       0.412  -2.672  -2.078  1.00  0.00    -0.173 NA
ATOM     12  N   UNL     1       2.148  -2.734  -0.617  1.00  0.00    -0.123 NA
ATOM     13  C   UNL     1       1.295  -3.532  -2.530  1.00  0.00     0.257 A 
ATOM     14  N   UNL     1       2.357  -3.603  -1.626  1.00  0.00    -0.161 N 
ATOM     15  N   UNL     1       1.256  -4.300  -3.659  1.00  0.00    -0.215 NA
ATOM     16  C   UNL     1       3.433  -4.478  -1.841  1.00  0.00     0.217 A 
ATOM     17  C   UNL     1       3.454  -5.222  -2.956  1.00  0.00     0.092 A 
BRANCH  10  18
ATOM     18  N   UNL     1       0.365  -1.173  -0.295  1.00  0.00    -0.337 N 
ATOM     19  C   UNL     1       2.528   0.135  -0.075  1.00  0.00     0.031 C 
ATOM     20  C   UNL     1       1.051  -0.021   0.299  1.00  0.00     0.082 C 
ATOM     21  C   UNL     1       0.302   1.250  -0.155  1.00  0.00     0.025 C 
ATOM     22  C   UNL     1      -1.183   1.186   0.195  1.00  0.00     0.004 C 
ATOM     23  C   UNL     1      -1.049  -1.326   0.036  1.00  0.00     0.120 C 
ATOM     24  C   UNL     1      -1.825  -0.078  -0.368  1.00  0.00     0.022 C 
ENDBRANCH  10  18
BRANCH  16  25
ATOM     25  O   UNL     1       4.443  -4.552  -0.894  1.00  0.00    -0.493 OA
ATOM     26  H   UNL     1       5.167  -5.132  -1.026  1.00  0.00     0.295 HD
ENDBRANCH  16  25
ENDBRANCH   8   9
ENDBRANCH   5   8
ENDBRANCH   3   4
ENDBRANCH   2   3
ENDBRANCH   1   2
BRANCH   1  27
ATOM     27  C   UNL     1      -0.408  -9.615  -0.969  1.00  0.00     0.116 C 
BRANCH  27  28
ATOM     28  N   UNL     1       0.418  -9.898   0.203  1.00  0.00    -0.352 N 
ATOM     29  C   UNL     1       0.627 -11.123   0.803  1.00  0.00     0.251 C 
ATOM     30  H   UNL     1       0.877  -9.128   0.610  1.00  0.00     0.163 HD
ATOM     31  O   UNL     1       0.972 -11.182   1.985  1.00  0.00    -0.269 OA
BRANCH  29  32
ATOM     32  C   UNL     1       0.463 -12.353   0.007  1.00  0.00     0.039 A 
ATOM     33  C   UNL     1      -0.020 -13.538   0.569  1.00  0.00     0.014 A 
ATOM     34  C   UNL     1       0.840 -12.312  -1.337  1.00  0.00     0.014 A 
ATOM     35  C   UNL     1      -0.135 -14.663  -0.246  1.00  0.00     0.010 A 
ATOM     36  C   UNL     1       0.562 -13.360  -2.173  1.00  0.00     0.010 A 
ATOM     37  C   UNL     1       0.164 -14.561  -1.616  1.00  0.00    -0.014 A 
BRANCH  37  38
ATOM     38  C   UNL     1      -0.034 -15.674  -2.529  1.00  0.00     0.031 A 
ATOM     39  C   UNL     1      -1.440 -16.132  -2.580  1.00  0.00     0.074 A 
ATOM     40  C   UNL     1       0.917 -16.136  -3.371  1.00  0.00     0.049 A 
ATOM     41  N   UNL     1      -1.931 -17.147  -1.954  1.00  0.00    -0.248 NA
ATOM     42  C   UNL     1      -2.459 -15.267  -3.194  1.00  0.00     0.031 C 
ATOM     43  C   UNL     1       2.262 -15.612  -3.635  1.00  0.00     0.029 A 
ATOM     44  N   UNL     1       0.843 -17.192  -4.227  1.00  0.00    -0.354 N 
ATOM     45  C   UNL     1      -3.268 -17.212  -2.322  1.00  0.00     0.074 A 
ATOM     46  C   UNL     1      -3.581 -15.925  -2.883  1.00  0.00     0.031 C 
ATOM     47  C   UNL     1       2.787 -16.223  -4.726  1.00  0.00     0.029 A 
ATOM     48  C   UNL     1       1.893 -17.291  -5.140  1.00  0.00     0.049 A 
ATOM     49  H   UNL     1       0.102 -17.839  -4.204  1.00  0.00     0.167 HD
ATOM     50  C   UNL     1      -3.905 -18.416  -2.367  1.00  0.00     0.037 A 
ATOM     51  C   UNL     1       2.016 -18.202  -6.145  1.00  0.00     0.037 A 
ATOM     52  C   UNL     1      -3.108 -19.432  -1.715  1.00  0.00     0.049 A 
ATOM     53  C   UNL     1       1.170 -19.365  -5.758  1.00  0.00     0.074 A 
ATOM     54  C   UNL     1      -2.614 -19.607  -0.437  1.00  0.00     0.029 A 
ATOM     55  N   UNL     1      -2.360 -20.255  -2.526  1.00  0.00    -0.354 N 
ATOM     56  N   UNL     1       1.429 -20.122  -4.723  1.00  0.00    -0.248 NA
ATOM     57  C   UNL     1      -0.221 -19.351  -6.188  1.00  0.00     0.031 C 
ATOM     58  C   UNL     1      -1.302 -20.137  -0.621  1.00  0.00     0.029 A 
ATOM     59  C   UNL     1      -1.102 -20.345  -1.987  1.00  0.00     0.049 A 
ATOM     60  H   UNL     1      -2.672 -20.700  -3.346  1.00  0.00     0.167 HD
ATOM     61  C   UNL     1       0.199 -20.322  -4.112  1.00  0.00     0.074 A 
ATOM     62  C   UNL     1      -0.789 -19.867  -5.093  1.00  0.00     0.031 C 
ATOM     63  C   UNL     1       0.098 -20.553  -2.769  1.00  0.00     0.037 A 
BRANCH  50  64
ATOM     64  C   UNL     1      -5.009 -18.786  -3.329  1.00  0.00     0.058 A 
ATOM     65  C   UNL     1      -5.605 -20.060  -3.203  1.00  0.00     0.135 A 
ATOM     66  C   UNL     1      -5.290 -18.099  -4.529  1.00  0.00     0.135 A 
ATOM     67  F   UNL     1      -5.427 -20.794  -2.093  1.00  0.00    -0.206 F 
ATOM     68  C   UNL     1      -6.321 -20.655  -4.238  1.00  0.00     0.059 A 
ATOM     69  C   UNL     1      -6.045 -18.655  -5.555  1.00  0.00     0.059 A 
ATOM     70  F   UNL     1      -4.775 -16.898  -4.811  1.00  0.00    -0.206 F 
ATOM     71  C   UNL     1      -6.516 -19.951  -5.421  1.00  0.00     0.060 A 
BRANCH  71  72
ATOM     72  S   UNL     1      -7.340 -20.764  -6.798  1.00  0.00     0.124 S 
ATOM     73  O   UNL     1      -6.381 -21.810  -7.133  1.00  0.00    -0.237 OA
ATOM     74  O   UNL     1      -8.584 -21.208  -6.179  1.00  0.00    -0.237 OA
ATOM     75  O   UNL     1      -7.480 -19.696  -7.782  1.00  0.00    -0.744 OA
ENDBRANCH  71  72
ENDBRANCH  50  64
BRANCH  51  76
ATOM     76  C   UNL     1       2.475 -17.972  -7.549  1.00  0.00     0.058 A 
ATOM     77  C   UNL     1       2.717 -19.037  -8.441  1.00  0.00     0.135 A 
ATOM     78  C   UNL     1       2.408 -16.692  -8.134  1.00  0.00     0.135 A 
ATOM     79  F   UNL     1       2.774 -20.298  -7.985  1.00  0.00    -0.206 F 
ATOM     80  C   UNL     1       2.845 -18.848  -9.828  1.00  0.00     0.059 A 
ATOM     81  C   UNL     1       2.532 -16.478  -9.509  1.00  0.00     0.059 A 
ATOM     82  F   UNL     1       2.130 -15.611  -7.390  1.00  0.00    -0.206 F 
ATOM     83  C   UNL     1       2.731 -17.562 -10.355  1.00  0.00     0.060 A 
BRANCH  83  84
ATOM     84  S   UNL     1       2.751 -17.319 -12.152  1.00  0.00     0.124 S 
ATOM     85  O   UNL     1       4.114 -17.708 -12.497  1.00  0.00    -0.237 OA
ATOM     86  O   UNL     1       1.697 -18.223 -12.599  1.00  0.00    -0.237 OA
ATOM     87  O   UNL     1       2.454 -15.896 -12.304  1.00  0.00    -0.744 OA
ENDBRANCH  83  84
ENDBRANCH  51  76
BRANCH  63  88
ATOM     88  C   UNL     1       1.350 -20.860  -1.984  1.00  0.00     0.058 A 
ATOM     89  C   UNL     1       2.393 -19.945  -1.747  1.00  0.00     0.135 A 
ATOM     90  C   UNL     1       1.387 -22.067  -1.271  1.00  0.00     0.135 A 
ATOM     91  F   UNL     1       2.389 -18.732  -2.317  1.00  0.00    -0.206 F 
ATOM     92  C   UNL     1       3.430 -20.227  -0.853  1.00  0.00     0.059 A 
ATOM     93  C   UNL     1       2.393 -22.357  -0.355  1.00  0.00     0.059 A 
ATOM     94  F   UNL     1       0.390 -22.957  -1.409  1.00  0.00    -0.206 F 
ATOM     95  C   UNL     1       3.416 -21.435  -0.154  1.00  0.00     0.060 A 
BRANCH  95  96
ATOM     96  S   UNL     1       4.707 -21.767   1.065  1.00  0.00     0.124 S 
ATOM     97  O   UNL     1       5.894 -21.904   0.227  1.00  0.00    -0.237 OA
ATOM     98  O   UNL     1       4.660 -20.576   1.908  1.00  0.00    -0.237 OA
ATOM     99  O   UNL     1       4.258 -22.998   1.713  1.00  0.00    -0.744 OA
ENDBRANCH  95  96
ENDBRANCH  63  88
ENDBRANCH  37  38
ENDBRANCH  29  32
ENDBRANCH  27  28
ENDBRANCH   1  27
TORSDOF 17
