REMARK SMILES CCSc1ccc(-c2cc(Cl)cc3c2O[C@H](C(F)(F)F)C(C(=O)NCCCCNC(=O)c2ccc(-c4c5nc(c(-c6c(F)cc(S(=O)(=O)[O-])cc6F)c6ccc([nH]6)c(-c6c(F)cc(S(=O)(=O)[O-])cc6F)c6nc(c(-c7c(F)cc(S(=O)(=O)[O-])cc7F)c7ccc4[nH]7)C=C6)C=C5)cc2)=C3)cc1
REMARK SMILES IDX 26 1 25 2 24 3 22 4 23 5 21 7 8 8 9 9 14 10 10 11 13 12
REMARK SMILES IDX 15 13 11 14 12 15 98 16 16 17 7 18 4 19 5 20 100 21 6 22
REMARK SMILES IDX 99 23 3 24 2 25 1 26 17 27 18 28 19 29 20 30 27 31 28 32
REMARK SMILES IDX 29 33 30 34 31 36 32 37 33 38 97 39 34 40 96 41 35 42 36 43
REMARK SMILES IDX 37 44 90 45 38 46 95 47 89 48 91 49 39 50 94 51 88 52 87 53
REMARK SMILES IDX 40 55 74 56 53 57 73 58 54 59 57 60 72 61 92 62 55 63 56 64
REMARK SMILES IDX 71 66 93 67 58 68 41 69 42 70 51 71 43 72 44 73 50 74 52 75
REMARK SMILES IDX 45 76 46 77 47 78 48 79 49 80 75 81 76 82 85 83 77 84 78 85
REMARK SMILES IDX 84 86 86 87 79 88 80 89 81 90 82 91 83 92 59 93 60 94 69 95
REMARK SMILES IDX 61 96 62 97 68 98 70 99 63 100 64 101 65 102 66 103 67 104
REMARK H PARENT 24 6 29 35 91 54 57 65
REMARK Flexibility Score: inf
ROOT
ATOM      1  C   UNL     1      15.056  -0.877   6.555  1.00  0.00     0.023 C 
ENDROOT
BRANCH   1   2
ATOM      2  C   UNL     1      14.164   0.080   5.750  1.00  0.00     0.116 C 
BRANCH   2   3
ATOM      3  N   UNL     1      13.458  -0.656   4.723  1.00  0.00    -0.352 N 
ATOM      4  C   UNL     1      12.157  -0.605   4.359  1.00  0.00     0.251 C 
ATOM      5  O   UNL     1      11.641  -1.615   3.891  1.00  0.00    -0.270 OA
ATOM      6  H   UNL     1      14.010  -1.291   4.211  1.00  0.00     0.163 HD
BRANCH   4   7
ATOM      7  C   UNL     1      11.426   0.697   4.454  1.00  0.00     0.067 C 
ATOM      8  C   UNL     1       7.754  -0.575   3.184  1.00  0.00     0.026 A 
ATOM      9  C   UNL     1       7.972  -1.380   2.037  1.00  0.00     0.033 A 
ATOM     10  C   UNL     1       8.849   0.198   3.618  1.00  0.00     0.135 A 
ATOM     11  C   UNL     1       9.124  -1.280   1.260  1.00  0.00     0.042 A 
ATOM     12  C   UNL     1       9.961   0.372   2.756  1.00  0.00     0.019 A 
ATOM     13  O   UNL     1       8.926   0.766   4.883  1.00  0.00    -0.475 OA
ATOM     14  Cl  UNL     1       9.314  -2.295  -0.113  1.00  0.00    -0.084 Cl
ATOM     15  C   UNL     1      10.093  -0.345   1.572  1.00  0.00     0.032 A 
ATOM     16  C   UNL     1      11.095   1.191   3.243  1.00  0.00     0.025 C 
ATOM     17  C   UNL     1      10.296   0.705   5.482  1.00  0.00     0.314 C 
BRANCH   8  18
ATOM     18  C   UNL     1       6.330  -0.472   3.612  1.00  0.00    -0.015 A 
ATOM     19  C   UNL     1       3.490  -0.304   3.348  1.00  0.00     0.007 A 
ATOM     20  C   UNL     1       4.110  -1.537   3.555  1.00  0.00     0.015 A 
ATOM     21  C   UNL     1       4.279   0.849   3.392  1.00  0.00     0.015 A 
ATOM     22  C   UNL     1       5.508  -1.617   3.703  1.00  0.00     0.010 A 
ATOM     23  C   UNL     1       5.677   0.768   3.526  1.00  0.00     0.010 A 
BRANCH  19  24
ATOM     24  S   UNL     1       1.722  -0.153   3.138  1.00  0.00    -0.126 SA
BRANCH  24  25
ATOM     25  C   UNL     1       1.425  -0.969   1.520  1.00  0.00     0.071 C 
ATOM     26  C   UNL     1       1.554  -0.004   0.351  1.00  0.00     0.016 C 
ENDBRANCH  24  25
ENDBRANCH  19  24
ENDBRANCH   8  18
BRANCH  17  27
ATOM     27  C   UNL     1      10.536   1.875   6.463  1.00  0.00     0.429 C 
ATOM     28  F   UNL     1       9.647   2.882   6.303  1.00  0.00    -0.167 F 
ATOM     29  F   UNL     1      10.457   1.462   7.751  1.00  0.00    -0.167 F 
ATOM     30  F   UNL     1      11.770   2.429   6.322  1.00  0.00    -0.167 F 
ENDBRANCH  17  27
ENDBRANCH   4   7
ENDBRANCH   2   3
ENDBRANCH   1   2
BRANCH   1  31
ATOM     31  C   UNL     1      16.145  -1.598   5.747  1.00  0.00     0.023 C 
BRANCH  31  32
ATOM     32  C   UNL     1      17.108  -0.683   4.998  1.00  0.00     0.116 C 
BRANCH  32  33
ATOM     33  N   UNL     1      17.916   0.117   5.904  1.00  0.00    -0.352 N 
ATOM     34  C   UNL     1      19.282   0.159   6.046  1.00  0.00     0.251 C 
ATOM     35  H   UNL     1      17.412   0.716   6.502  1.00  0.00     0.163 HD
ATOM     36  O   UNL     1      19.780   0.753   7.000  1.00  0.00    -0.269 OA
BRANCH  34  37
ATOM     37  C   UNL     1      20.149  -0.536   5.070  1.00  0.00     0.039 A 
ATOM     38  C   UNL     1      21.171  -1.364   5.540  1.00  0.00     0.014 A 
ATOM     39  C   UNL     1      19.942  -0.388   3.695  1.00  0.00     0.014 A 
ATOM     40  C   UNL     1      21.926  -2.115   4.635  1.00  0.00     0.010 A 
ATOM     41  C   UNL     1      20.653  -1.185   2.799  1.00  0.00     0.010 A 
ATOM     42  C   UNL     1      21.638  -2.072   3.261  1.00  0.00    -0.014 A 
BRANCH  42  43
ATOM     43  C   UNL     1      22.304  -2.993   2.301  1.00  0.00     0.031 A 
ATOM     44  C   UNL     1      23.164  -2.452   1.192  1.00  0.00     0.074 A 
ATOM     45  C   UNL     1      22.045  -4.315   2.372  1.00  0.00     0.049 A 
ATOM     46  N   UNL     1      23.730  -3.093   0.203  1.00  0.00    -0.248 NA
ATOM     47  C   UNL     1      23.401  -0.999   1.179  1.00  0.00     0.031 C 
ATOM     48  C   UNL     1      21.180  -4.955   3.368  1.00  0.00     0.029 A 
ATOM     49  N   UNL     1      22.458  -5.358   1.579  1.00  0.00    -0.354 N 
ATOM     50  C   UNL     1      24.370  -2.125  -0.562  1.00  0.00     0.074 A 
ATOM     51  C   UNL     1      24.099  -0.848   0.061  1.00  0.00     0.031 C 
ATOM     52  C   UNL     1      21.127  -6.274   3.125  1.00  0.00     0.029 A 
ATOM     53  C   UNL     1      21.915  -6.572   1.934  1.00  0.00     0.049 A 
ATOM     54  H   UNL     1      23.084  -5.247   0.827  1.00  0.00     0.167 HD
ATOM     55  C   UNL     1      25.123  -2.292  -1.675  1.00  0.00     0.037 A 
ATOM     56  C   UNL     1      22.013  -7.784   1.352  1.00  0.00     0.037 A 
ATOM     57  C   UNL     1      25.418  -3.571  -2.268  1.00  0.00     0.049 A 
ATOM     58  C   UNL     1      22.853  -7.938   0.113  1.00  0.00     0.074 A 
ATOM     59  C   UNL     1      26.260  -3.849  -3.330  1.00  0.00     0.029 A 
ATOM     60  N   UNL     1      24.870  -4.780  -1.865  1.00  0.00    -0.354 N 
ATOM     61  N   UNL     1      23.540  -7.026  -0.533  1.00  0.00    -0.248 NA
ATOM     62  C   UNL     1      22.931  -9.280  -0.480  1.00  0.00     0.031 C 
ATOM     63  C   UNL     1      26.177  -5.217  -3.608  1.00  0.00     0.029 A 
ATOM     64  C   UNL     1      25.322  -5.800  -2.687  1.00  0.00     0.049 A 
ATOM     65  H   UNL     1      24.252  -4.896  -1.108  1.00  0.00     0.167 HD
ATOM     66  C   UNL     1      24.140  -7.686  -1.599  1.00  0.00     0.074 A 
ATOM     67  C   UNL     1      23.755  -9.079  -1.500  1.00  0.00     0.031 C 
ATOM     68  C   UNL     1      24.932  -7.183  -2.577  1.00  0.00     0.037 A 
BRANCH  55  69
ATOM     69  C   UNL     1      25.692  -1.069  -2.340  1.00  0.00     0.058 A 
ATOM     70  C   UNL     1      26.755  -0.348  -1.775  1.00  0.00     0.135 A 
ATOM     71  C   UNL     1      25.227  -0.668  -3.603  1.00  0.00     0.135 A 
ATOM     72  F   UNL     1      27.230  -0.680  -0.564  1.00  0.00    -0.206 F 
ATOM     73  C   UNL     1      27.331   0.734  -2.434  1.00  0.00     0.059 A 
ATOM     74  C   UNL     1      25.804   0.395  -4.292  1.00  0.00     0.059 A 
ATOM     75  F   UNL     1      24.212  -1.323  -4.188  1.00  0.00    -0.206 F 
ATOM     76  C   UNL     1      26.852   1.094  -3.695  1.00  0.00     0.060 A 
BRANCH  76  77
ATOM     77  S   UNL     1      27.639   2.475  -4.553  1.00  0.00     0.124 S 
ATOM     78  O   UNL     1      27.168   3.611  -3.767  1.00  0.00    -0.237 OA
ATOM     79  O   UNL     1      29.057   2.157  -4.419  1.00  0.00    -0.237 OA
ATOM     80  O   UNL     1      27.104   2.385  -5.907  1.00  0.00    -0.744 OA
ENDBRANCH  76  77
ENDBRANCH  55  69
BRANCH  56  81
ATOM     81  C   UNL     1      21.273  -8.946   1.916  1.00  0.00     0.058 A 
ATOM     82  C   UNL     1      21.951 -10.018   2.515  1.00  0.00     0.135 A 
ATOM     83  C   UNL     1      19.872  -9.012   1.857  1.00  0.00     0.135 A 
ATOM     84  F   UNL     1      23.291 -10.005   2.589  1.00  0.00    -0.206 F 
ATOM     85  C   UNL     1      21.271 -11.124   3.013  1.00  0.00     0.059 A 
ATOM     86  C   UNL     1      19.167 -10.095   2.373  1.00  0.00     0.059 A 
ATOM     87  F   UNL     1      19.173  -8.006   1.310  1.00  0.00    -0.206 F 
ATOM     88  C   UNL     1      19.877 -11.154   2.936  1.00  0.00     0.060 A 
BRANCH  88  89
ATOM     89  S   UNL     1      19.001 -12.582   3.609  1.00  0.00     0.124 S 
ATOM     90  O   UNL     1      19.282 -13.599   2.603  1.00  0.00    -0.237 OA
ATOM     91  O   UNL     1      19.656 -12.763   4.901  1.00  0.00    -0.237 OA
ATOM     92  O   UNL     1      17.616 -12.124   3.676  1.00  0.00    -0.744 OA
ENDBRANCH  88  89
ENDBRANCH  56  81
BRANCH  68  93
ATOM     93  C   UNL     1      25.446  -8.137  -3.619  1.00  0.00     0.058 A 
ATOM     94  C   UNL     1      24.607  -8.646  -4.622  1.00  0.00     0.135 A 
ATOM     95  C   UNL     1      26.806  -8.483  -3.663  1.00  0.00     0.135 A 
ATOM     96  F   UNL     1      23.296  -8.354  -4.618  1.00  0.00    -0.206 F 
ATOM     97  C   UNL     1      25.096  -9.470  -5.629  1.00  0.00     0.059 A 
ATOM     98  C   UNL     1      27.323  -9.284  -4.677  1.00  0.00     0.059 A 
ATOM     99  F   UNL     1      27.653  -8.017  -2.731  1.00  0.00    -0.206 F 
ATOM    100  C   UNL     1      26.458  -9.777  -5.653  1.00  0.00     0.060 A 
BRANCH 100 101
ATOM    101  S   UNL     1      27.090 -10.796  -7.003  1.00  0.00     0.124 S 
ATOM    102  O   UNL     1      26.562 -12.110  -6.653  1.00  0.00    -0.237 OA
ATOM    103  O   UNL     1      26.493 -10.164  -8.176  1.00  0.00    -0.237 OA
ATOM    104  O   UNL     1      28.538 -10.651  -6.890  1.00  0.00    -0.744 OA
ENDBRANCH 100 101
ENDBRANCH  68  93
ENDBRANCH  42  43
ENDBRANCH  34  37
ENDBRANCH  32  33
ENDBRANCH  31  32
ENDBRANCH   1  31
TORSDOF 18
