REMARK SMILES CCN1C(=O)/C(=C/c2ccccc2O[C@H](C)C(=O)NCCCCNC(=O)c2ccc(-c3c4nc(c(-c5c(F)cc(S(=O)(=O)[O-])cc5F)c5ccc([nH]5)c(-c5c(F)cc(S(=O)(=O)[O-])cc5F)c5nc(c(-c6c(F)cc(S(=O)(=O)[O-])cc6F)c6ccc3[nH]6)C=C5)C=C4)cc2)S/C1=[NH+]\c1ccc(C)cc1O
REMARK SMILES IDX 20 1 19 2 17 3 18 4 15 6 16 7 14 8 13 9 8 10 9 11 10 12
REMARK SMILES IDX 12 13 11 14 7 15 3 16 4 17 94 18 5 19 6 20 93 21 95 22 2 24
REMARK SMILES IDX 1 25 96 26 97 27 102 28 98 29 101 30 99 31 100 32 103 33
REMARK SMILES IDX 21 35 22 36 23 37 24 38 25 39 26 41 27 42 28 43 92 44 29 45
REMARK SMILES IDX 91 46 30 47 31 48 32 49 85 50 33 51 90 52 84 53 86 54 34 55
REMARK SMILES IDX 89 56 83 57 82 58 35 60 69 61 48 62 68 63 49 64 52 65 67 66
REMARK SMILES IDX 87 67 50 68 51 69 66 71 88 72 53 73 36 74 37 75 46 76 38 77
REMARK SMILES IDX 39 78 45 79 47 80 40 81 41 82 42 83 43 84 44 85 70 86 71 87
REMARK SMILES IDX 80 88 72 89 73 90 79 91 81 92 74 93 75 94 76 95 77 96 78 97
REMARK SMILES IDX 54 98 55 99 64 100 56 101 57 102 63 103 65 104 58 105 59 106
REMARK SMILES IDX 60 107 61 108 62 109
REMARK H PARENT 19 5 95 23 103 34 24 40 86 59 52 70
REMARK Flexibility Score: inf
ROOT
ATOM      1  C   UNL     1       1.262  -7.007  -0.287  1.00  0.00     0.116 C 
ENDROOT
BRANCH   1   2
ATOM      2  N   UNL     1       0.104  -6.185  -0.533  1.00  0.00    -0.353 N 
ATOM      3  C   UNL     1      -0.496  -5.272   0.281  1.00  0.00     0.260 C 
ATOM      4  O   UNL     1      -1.398  -4.585  -0.213  1.00  0.00    -0.271 OA
ATOM      5  H   UNL     1      -0.315  -6.300  -1.417  1.00  0.00     0.163 HD
BRANCH   3   6
ATOM      6  C   UNL     1      -0.158  -5.146   1.790  1.00  0.00     0.258 C 
ATOM      7  C   UNL     1      -0.869  -6.242   2.571  1.00  0.00     0.064 C 
BRANCH   6   8
ATOM      8  O   UNL     1       1.166  -4.766   2.136  1.00  0.00    -0.480 OA
BRANCH   8   9
ATOM      9  C   UNL     1       2.208  -5.542   2.541  1.00  0.00     0.127 A 
ATOM     10  C   UNL     1       3.492  -5.133   2.106  1.00  0.00     0.018 A 
ATOM     11  C   UNL     1       4.610  -5.934   2.399  1.00  0.00     0.012 A 
ATOM     12  C   UNL     1       4.472  -7.106   3.139  1.00  0.00     0.001 A 
ATOM     13  C   UNL     1       2.097  -6.689   3.327  1.00  0.00     0.047 A 
ATOM     14  C   UNL     1       3.218  -7.477   3.608  1.00  0.00     0.004 A 
BRANCH  10  15
ATOM     15  C   UNL     1       3.737  -3.951   1.252  1.00  0.00     0.036 C 
ATOM     16  N   UNL     1       3.245  -0.364   1.071  1.00  0.00    -0.186 N 
ATOM     17  C   UNL     1       3.698  -1.574   0.565  1.00  0.00     0.348 C 
ATOM     18  C   UNL     1       2.609  -0.424   2.287  1.00  0.00     0.324 C 
ATOM     19  O   UNL     1       4.332  -1.725  -0.473  1.00  0.00    -0.240 OA
ATOM     20  C   UNL     1       3.343  -2.690   1.478  1.00  0.00     0.110 C 
ATOM     21  S   UNL     1       2.456  -2.083   2.808  1.00  0.00     0.007 SA
ATOM     22  N   UNL     1       2.226   0.615   2.955  1.00  0.00    -0.231 N 
ATOM     23  H   UNL     1       2.453   1.513   2.620  1.00  0.00     0.313 HD
BRANCH  16  24
ATOM     24  C   UNL     1       3.471   0.822   0.246  1.00  0.00     0.244 C 
ATOM     25  C   UNL     1       3.015   2.176   0.758  1.00  0.00     0.055 C 
ENDBRANCH  16  24
BRANCH  22  26
ATOM     26  C   UNL     1       1.492   0.491   4.152  1.00  0.00     0.167 A 
ATOM     27  C   UNL     1       0.158   0.904   4.157  1.00  0.00     0.056 A 
ATOM     28  C   UNL     1       2.044   0.022   5.354  1.00  0.00     0.162 A 
ATOM     29  C   UNL     1      -0.619   0.797   5.316  1.00  0.00     0.008 A 
ATOM     30  C   UNL     1       1.271  -0.118   6.503  1.00  0.00     0.054 A 
ATOM     31  C   UNL     1      -0.075   0.264   6.490  1.00  0.00    -0.047 A 
ATOM     32  C   UNL     1      -0.918   0.146   7.725  1.00  0.00     0.044 C 
BRANCH  28  33
ATOM     33  O   UNL     1       3.368  -0.320   5.445  1.00  0.00    -0.504 OA
ATOM     34  H   UNL     1       3.925  -0.241   4.696  1.00  0.00     0.293 HD
ENDBRANCH  28  33
ENDBRANCH  22  26
ENDBRANCH  10  15
ENDBRANCH   8   9
ENDBRANCH   6   8
ENDBRANCH   3   6
ENDBRANCH   1   2
BRANCH   1  35
ATOM     35  C   UNL     1       0.949  -8.489  -0.161  1.00  0.00     0.023 C 
BRANCH  35  36
ATOM     36  C   UNL     1       0.645  -9.179  -1.484  1.00  0.00     0.023 C 
BRANCH  36  37
ATOM     37  C   UNL     1       1.699  -8.983  -2.567  1.00  0.00     0.116 C 
BRANCH  37  38
ATOM     38  N   UNL     1       3.033  -9.414  -2.167  1.00  0.00    -0.352 N 
ATOM     39  C   UNL     1       3.953 -10.117  -2.912  1.00  0.00     0.251 C 
ATOM     40  H   UNL     1       3.310  -9.174  -1.254  1.00  0.00     0.163 HD
ATOM     41  O   UNL     1       5.000 -10.509  -2.409  1.00  0.00    -0.269 OA
BRANCH  39  42
ATOM     42  C   UNL     1       3.628 -10.425  -4.320  1.00  0.00     0.039 A 
ATOM     43  C   UNL     1       3.668 -11.751  -4.752  1.00  0.00     0.014 A 
ATOM     44  C   UNL     1       3.184  -9.410  -5.172  1.00  0.00     0.014 A 
ATOM     45  C   UNL     1       3.180 -12.072  -6.020  1.00  0.00     0.010 A 
ATOM     46  C   UNL     1       2.620  -9.745  -6.397  1.00  0.00     0.010 A 
ATOM     47  C   UNL     1       2.607 -11.079  -6.832  1.00  0.00    -0.014 A 
BRANCH  47  48
ATOM     48  C   UNL     1       1.978 -11.410  -8.137  1.00  0.00     0.031 A 
ATOM     49  C   UNL     1       2.527 -10.811  -9.404  1.00  0.00     0.074 A 
ATOM     50  C   UNL     1       0.867 -12.174  -8.173  1.00  0.00     0.049 A 
ATOM     51  N   UNL     1       2.061 -10.890 -10.623  1.00  0.00    -0.248 NA
ATOM     52  C   UNL     1       3.741  -9.987  -9.279  1.00  0.00     0.031 C 
ATOM     53  C   UNL     1       0.206 -12.765  -7.006  1.00  0.00     0.029 A 
ATOM     54  N   UNL     1       0.084 -12.569  -9.229  1.00  0.00    -0.354 N 
ATOM     55  C   UNL     1       2.909 -10.113 -11.403  1.00  0.00     0.074 A 
ATOM     56  C   UNL     1       3.888  -9.529 -10.514  1.00  0.00     0.031 C 
ATOM     57  C   UNL     1      -0.871 -13.456  -7.412  1.00  0.00     0.029 A 
ATOM     58  C   UNL     1      -1.006 -13.324  -8.860  1.00  0.00     0.049 A 
ATOM     59  H   UNL     1       0.283 -12.334 -10.164  1.00  0.00     0.167 HD
ATOM     60  C   UNL     1       2.884  -9.920 -12.743  1.00  0.00     0.037 A 
ATOM     61  C   UNL     1      -2.010 -13.836  -9.599  1.00  0.00     0.037 A 
ATOM     62  C   UNL     1       1.927 -10.533 -13.626  1.00  0.00     0.049 A 
ATOM     63  C   UNL     1      -2.008 -13.615 -11.089  1.00  0.00     0.074 A 
ATOM     64  C   UNL     1       1.868 -10.464 -15.006  1.00  0.00     0.029 A 
ATOM     65  N   UNL     1       0.863 -11.322 -13.218  1.00  0.00    -0.354 N 
ATOM     66  N   UNL     1      -1.151 -12.943 -11.820  1.00  0.00    -0.248 NA
ATOM     67  C   UNL     1      -3.104 -14.224 -11.856  1.00  0.00     0.031 C 
ATOM     68  C   UNL     1       0.736 -11.167 -15.430  1.00  0.00     0.029 A 
ATOM     69  C   UNL     1       0.124 -11.724 -14.318  1.00  0.00     0.049 A 
ATOM     70  H   UNL     1       0.661 -11.562 -12.284  1.00  0.00     0.167 HD
ATOM     71  C   UNL     1      -1.587 -13.074 -13.135  1.00  0.00     0.074 A 
ATOM     72  C   UNL     1      -2.777 -13.899 -13.099  1.00  0.00     0.031 C 
ATOM     73  C   UNL     1      -1.051 -12.559 -14.268  1.00  0.00     0.037 A 
BRANCH  60  74
ATOM     74  C   UNL     1       3.924  -9.014 -13.343  1.00  0.00     0.058 A 
ATOM     75  C   UNL     1       5.277  -9.383 -13.411  1.00  0.00     0.135 A 
ATOM     76  C   UNL     1       3.552  -7.784 -13.912  1.00  0.00     0.135 A 
ATOM     77  F   UNL     1       5.691 -10.539 -12.868  1.00  0.00    -0.206 F 
ATOM     78  C   UNL     1       6.226  -8.558 -14.004  1.00  0.00     0.059 A 
ATOM     79  C   UNL     1       4.480  -6.957 -14.536  1.00  0.00     0.059 A 
ATOM     80  F   UNL     1       2.272  -7.381 -13.871  1.00  0.00    -0.206 F 
ATOM     81  C   UNL     1       5.817  -7.348 -14.569  1.00  0.00     0.060 A 
BRANCH  81  82
ATOM     82  S   UNL     1       7.059  -6.305 -15.360  1.00  0.00     0.124 S 
ATOM     83  O   UNL     1       7.804  -5.811 -14.206  1.00  0.00    -0.237 OA
ATOM     84  O   UNL     1       7.767  -7.256 -16.211  1.00  0.00    -0.237 OA
ATOM     85  O   UNL     1       6.264  -5.306 -16.068  1.00  0.00    -0.744 OA
ENDBRANCH  81  82
ENDBRANCH  60  74
BRANCH  61  86
ATOM     86  C   UNL     1      -3.101 -14.610  -8.946  1.00  0.00     0.058 A 
ATOM     87  C   UNL     1      -3.240 -15.990  -9.157  1.00  0.00     0.135 A 
ATOM     88  C   UNL     1      -4.031 -13.985  -8.099  1.00  0.00     0.135 A 
ATOM     89  F   UNL     1      -2.381 -16.634  -9.963  1.00  0.00    -0.206 F 
ATOM     90  C   UNL     1      -4.272 -16.719  -8.575  1.00  0.00     0.059 A 
ATOM     91  C   UNL     1      -5.055 -14.697  -7.482  1.00  0.00     0.059 A 
ATOM     92  F   UNL     1      -3.934 -12.670  -7.848  1.00  0.00    -0.206 F 
ATOM     93  C   UNL     1      -5.175 -16.062  -7.737  1.00  0.00     0.060 A 
BRANCH  93  94
ATOM     94  S   UNL     1      -6.492 -17.023  -6.959  1.00  0.00     0.124 S 
ATOM     95  O   UNL     1      -7.375 -17.282  -8.090  1.00  0.00    -0.237 OA
ATOM     96  O   UNL     1      -5.763 -18.176  -6.440  1.00  0.00    -0.237 OA
ATOM     97  O   UNL     1      -7.015 -16.113  -5.944  1.00  0.00    -0.744 OA
ENDBRANCH  93  94
ENDBRANCH  61  86
BRANCH  73  98
ATOM     98  C   UNL     1      -1.714 -12.901 -15.574  1.00  0.00     0.058 A 
ATOM     99  C   UNL     1      -2.948 -12.347 -15.946  1.00  0.00     0.135 A 
ATOM    100  C   UNL     1      -1.067 -13.740 -16.497  1.00  0.00     0.135 A 
ATOM    101  F   UNL     1      -3.611 -11.544 -15.098  1.00  0.00    -0.206 F 
ATOM    102  C   UNL     1      -3.527 -12.627 -17.179  1.00  0.00     0.059 A 
ATOM    103  C   UNL     1      -1.612 -14.009 -17.747  1.00  0.00     0.059 A 
ATOM    104  F   UNL     1       0.121 -14.288 -16.195  1.00  0.00    -0.206 F 
ATOM    105  C   UNL     1      -2.848 -13.454 -18.076  1.00  0.00     0.060 A 
BRANCH 105 106
ATOM    106  S   UNL     1      -3.588 -13.769 -19.692  1.00  0.00     0.124 S 
ATOM    107  O   UNL     1      -4.688 -14.662 -19.344  1.00  0.00    -0.237 OA
ATOM    108  O   UNL     1      -3.972 -12.429 -20.126  1.00  0.00    -0.237 OA
ATOM    109  O   UNL     1      -2.501 -14.380 -20.452  1.00  0.00    -0.744 OA
ENDBRANCH 105 106
ENDBRANCH  73  98
ENDBRANCH  47  48
ENDBRANCH  39  42
ENDBRANCH  37  38
ENDBRANCH  36  37
ENDBRANCH  35  36
ENDBRANCH   1  35
TORSDOF 20
