REMARK SMILES NS(=O)(=O)c1ccc(-n2nc(C(F)(F)F)cc2-c2ccc(C(=O)NCCCCNC(=O)c3ccc(-c4c5nc(c(-c6c(F)cc(S(=O)(=O)[O-])cc6F)c6ccc([nH]6)c(-c6c(F)cc(S(=O)(=O)[O-])cc6F)c6nc(c(-c7c(F)cc(S(=O)(=O)[O-])cc7F)c7ccc4[nH]7)C=C6)C=C5)cc3)cc2)cc1
REMARK SMILES IDX 26 1 25 2 24 3 22 4 23 5 21 7 18 8 19 9 99 10 20 11 98 12
REMARK SMILES IDX 17 13 9 14 10 15 11 16 16 17 8 18 5 19 6 20 101 21 7 22
REMARK SMILES IDX 100 23 2 24 3 25 4 26 1 27 12 30 13 31 14 32 15 33 27 34
REMARK SMILES IDX 28 35 29 36 30 37 31 39 32 40 33 41 97 42 34 43 96 44 35 45
REMARK SMILES IDX 36 46 37 47 90 48 38 49 95 50 89 51 91 52 39 53 94 54 88 55
REMARK SMILES IDX 87 56 40 58 74 59 53 60 73 61 54 62 57 63 72 64 92 65 55 66
REMARK SMILES IDX 56 67 71 69 93 70 58 71 41 72 42 73 51 74 43 75 44 76 50 77
REMARK SMILES IDX 52 78 45 79 46 80 47 81 48 82 49 83 75 84 76 85 85 86 77 87
REMARK SMILES IDX 78 88 84 89 86 90 79 91 80 92 81 93 82 94 83 95 59 96 60 97
REMARK SMILES IDX 69 98 61 99 62 100 68 101 70 102 63 103 64 104 65 105 66 106
REMARK SMILES IDX 67 107
REMARK H PARENT 24 6 1 28 1 29 29 38 91 57 57 68
REMARK Flexibility Score: inf
ROOT
ATOM      1  C   UNL     1       6.354  -0.715   6.890  1.00  0.00     0.023 C 
ENDROOT
BRANCH   1   2
ATOM      2  C   UNL     1       7.249   0.517   6.704  1.00  0.00     0.116 C 
BRANCH   2   3
ATOM      3  N   UNL     1       7.581   0.708   5.305  1.00  0.00    -0.352 N 
ATOM      4  C   UNL     1       7.028   1.483   4.317  1.00  0.00     0.251 C 
ATOM      5  O   UNL     1       7.513   1.407   3.188  1.00  0.00    -0.269 OA
ATOM      6  H   UNL     1       8.355   0.178   5.005  1.00  0.00     0.163 HD
BRANCH   4   7
ATOM      7  C   UNL     1       5.902   2.429   4.553  1.00  0.00     0.039 A 
ATOM      8  C   UNL     1       3.863   4.333   4.908  1.00  0.00     0.000 A 
ATOM      9  C   UNL     1       4.768   4.468   3.851  1.00  0.00     0.011 A 
ATOM     10  C   UNL     1       3.970   3.246   5.773  1.00  0.00     0.011 A 
ATOM     11  C   UNL     1       5.788   3.526   3.683  1.00  0.00     0.014 A 
ATOM     12  C   UNL     1       4.948   2.278   5.559  1.00  0.00     0.014 A 
BRANCH   8  13
ATOM     13  C   UNL     1       2.748   5.250   5.075  1.00  0.00     0.075 A 
ATOM     14  N   UNL     1       1.663   5.339   4.216  1.00  0.00    -0.233 N 
ATOM     15  N   UNL     1       0.849   6.378   4.539  1.00  0.00    -0.163 NA
ATOM     16  C   UNL     1       1.300   6.808   5.737  1.00  0.00     0.167 A 
ATOM     17  C   UNL     1       2.517   6.168   6.075  1.00  0.00     0.064 A 
BRANCH  14  18
ATOM     18  C   UNL     1       1.331   4.465   3.147  1.00  0.00     0.065 A 
ATOM     19  C   UNL     1       0.815   2.761   1.003  1.00  0.00     0.082 A 
ATOM     20  C   UNL     1       1.236   2.223   2.219  1.00  0.00     0.024 A 
ATOM     21  C   UNL     1       0.629   4.143   0.859  1.00  0.00     0.024 A 
ATOM     22  C   UNL     1       1.499   3.078   3.288  1.00  0.00     0.030 A 
ATOM     23  C   UNL     1       0.858   4.996   1.943  1.00  0.00     0.030 A 
BRANCH  19  24
ATOM     24  S   UNL     1       0.534   1.719  -0.396  1.00  0.00     0.238 S 
ATOM     25  O   UNL     1       1.270   2.258  -1.525  1.00  0.00    -0.207 OA
ATOM     26  O   UNL     1      -0.868   1.409  -0.458  1.00  0.00    -0.207 OA
BRANCH  24  27
ATOM     27  N   UNL     1       1.311   0.276  -0.017  1.00  0.00    -0.225 NA
ATOM     28  H   UNL     1       1.194  -0.385  -0.785  1.00  0.00     0.137 HD
ATOM     29  H   UNL     1       0.906  -0.115   0.834  1.00  0.00     0.137 HD
ENDBRANCH  24  27
ENDBRANCH  19  24
ENDBRANCH  14  18
BRANCH  16  30
ATOM     30  C   UNL     1       0.575   7.818   6.584  1.00  0.00     0.435 C 
ATOM     31  F   UNL     1       0.319   8.980   5.929  1.00  0.00    -0.164 F 
ATOM     32  F   UNL     1      -0.619   7.342   7.033  1.00  0.00    -0.164 F 
ATOM     33  F   UNL     1       1.288   8.149   7.697  1.00  0.00    -0.164 F 
ENDBRANCH  16  30
ENDBRANCH   8  13
ENDBRANCH   4   7
ENDBRANCH   2   3
ENDBRANCH   1   2
BRANCH   1  34
ATOM     34  C   UNL     1       7.080  -2.063   6.776  1.00  0.00     0.023 C 
BRANCH  34  35
ATOM     35  C   UNL     1       8.100  -2.325   7.877  1.00  0.00     0.116 C 
BRANCH  35  36
ATOM     36  N   UNL     1       7.497  -2.366   9.210  1.00  0.00    -0.352 N 
ATOM     37  C   UNL     1       8.145  -2.361  10.432  1.00  0.00     0.251 C 
ATOM     38  H   UNL     1       6.513  -2.402   9.240  1.00  0.00     0.163 HD
ATOM     39  O   UNL     1       7.604  -2.821  11.430  1.00  0.00    -0.269 OA
BRANCH  37  40
ATOM     40  C   UNL     1       9.488  -1.761  10.509  1.00  0.00     0.039 A 
ATOM     41  C   UNL     1      10.522  -2.343  11.244  1.00  0.00     0.014 A 
ATOM     42  C   UNL     1       9.701  -0.594   9.778  1.00  0.00     0.014 A 
ATOM     43  C   UNL     1      11.794  -1.777  11.170  1.00  0.00     0.010 A 
ATOM     44  C   UNL     1      10.976  -0.141   9.573  1.00  0.00     0.010 A 
ATOM     45  C   UNL     1      12.017  -0.684  10.313  1.00  0.00    -0.014 A 
BRANCH  45  46
ATOM     46  C   UNL     1      13.363  -0.183  10.051  1.00  0.00     0.031 A 
ATOM     47  C   UNL     1      14.302  -1.234   9.573  1.00  0.00     0.074 A 
ATOM     48  C   UNL     1      13.665   1.136  10.014  1.00  0.00     0.049 A 
ATOM     49  N   UNL     1      15.281  -1.765  10.226  1.00  0.00    -0.248 NA
ATOM     50  C   UNL     1      14.004  -1.920   8.302  1.00  0.00     0.031 C 
ATOM     51  C   UNL     1      12.762   2.284  10.165  1.00  0.00     0.029 A 
ATOM     52  N   UNL     1      14.852   1.741   9.734  1.00  0.00    -0.354 N 
ATOM     53  C   UNL     1      15.893  -2.647   9.341  1.00  0.00     0.074 A 
ATOM     54  C   UNL     1      14.939  -2.873   8.289  1.00  0.00     0.031 C 
ATOM     55  C   UNL     1      13.379   3.413   9.746  1.00  0.00     0.029 A 
ATOM     56  C   UNL     1      14.768   3.108   9.460  1.00  0.00     0.049 A 
ATOM     57  H   UNL     1      15.706   1.252   9.726  1.00  0.00     0.167 HD
ATOM     58  C   UNL     1      17.234  -2.879   9.407  1.00  0.00     0.037 A 
ATOM     59  C   UNL     1      15.770   3.919   9.025  1.00  0.00     0.037 A 
ATOM     60  C   UNL     1      17.768  -2.417  10.668  1.00  0.00     0.049 A 
ATOM     61  C   UNL     1      17.045   3.236   9.370  1.00  0.00     0.074 A 
ATOM     62  C   UNL     1      17.501  -2.693  11.996  1.00  0.00     0.029 A 
ATOM     63  N   UNL     1      18.445  -1.220  10.666  1.00  0.00    -0.354 N 
ATOM     64  N   UNL     1      17.443   3.032  10.596  1.00  0.00    -0.248 NA
ATOM     65  C   UNL     1      17.614   2.344   8.371  1.00  0.00     0.031 C 
ATOM     66  C   UNL     1      17.580  -1.432  12.657  1.00  0.00     0.029 A 
ATOM     67  C   UNL     1      17.984  -0.477  11.723  1.00  0.00     0.049 A 
ATOM     68  H   UNL     1      19.137  -0.946  10.022  1.00  0.00     0.167 HD
ATOM     69  C   UNL     1      17.946   1.739  10.594  1.00  0.00     0.074 A 
ATOM     70  C   UNL     1      18.086   1.391   9.179  1.00  0.00     0.031 C 
ATOM     71  C   UNL     1      17.919   0.968  11.721  1.00  0.00     0.037 A 
BRANCH  58  72
ATOM     72  C   UNL     1      18.126  -3.132   8.209  1.00  0.00     0.058 A 
ATOM     73  C   UNL     1      19.487  -3.440   8.428  1.00  0.00     0.135 A 
ATOM     74  C   UNL     1      17.789  -2.807   6.876  1.00  0.00     0.135 A 
ATOM     75  F   UNL     1      19.926  -3.768   9.653  1.00  0.00    -0.206 F 
ATOM     76  C   UNL     1      20.449  -3.343   7.422  1.00  0.00     0.059 A 
ATOM     77  C   UNL     1      18.724  -2.756   5.848  1.00  0.00     0.059 A 
ATOM     78  F   UNL     1      16.558  -2.430   6.513  1.00  0.00    -0.206 F 
ATOM     79  C   UNL     1      20.057  -2.984   6.137  1.00  0.00     0.060 A 
BRANCH  79  80
ATOM     80  S   UNL     1      21.305  -2.775   4.858  1.00  0.00     0.124 S 
ATOM     81  O   UNL     1      22.011  -1.591   5.332  1.00  0.00    -0.237 OA
ATOM     82  O   UNL     1      22.036  -4.035   4.945  1.00  0.00    -0.237 OA
ATOM     83  O   UNL     1      20.514  -2.599   3.644  1.00  0.00    -0.744 OA
ENDBRANCH  79  80
ENDBRANCH  58  72
BRANCH  59  84
ATOM     84  C   UNL     1      15.715   5.041   8.042  1.00  0.00     0.058 A 
ATOM     85  C   UNL     1      16.824   5.886   7.832  1.00  0.00     0.135 A 
ATOM     86  C   UNL     1      14.695   5.118   7.073  1.00  0.00     0.135 A 
ATOM     87  F   UNL     1      17.852   5.875   8.696  1.00  0.00    -0.206 F 
ATOM     88  C   UNL     1      16.946   6.702   6.699  1.00  0.00     0.059 A 
ATOM     89  C   UNL     1      14.791   5.928   5.939  1.00  0.00     0.059 A 
ATOM     90  F   UNL     1      13.611   4.332   7.149  1.00  0.00    -0.206 F 
ATOM     91  C   UNL     1      15.933   6.696   5.742  1.00  0.00     0.060 A 
BRANCH  91  92
ATOM     92  S   UNL     1      16.168   7.591   4.184  1.00  0.00     0.124 S 
ATOM     93  O   UNL     1      16.093   8.982   4.620  1.00  0.00    -0.237 OA
ATOM     94  O   UNL     1      17.483   7.128   3.755  1.00  0.00    -0.237 OA
ATOM     95  O   UNL     1      15.051   7.135   3.361  1.00  0.00    -0.744 OA
ENDBRANCH  91  92
ENDBRANCH  59  84
BRANCH  71  96
ATOM     96  C   UNL     1      17.613   1.632  13.041  1.00  0.00     0.058 A 
ATOM     97  C   UNL     1      16.393   2.251  13.372  1.00  0.00     0.135 A 
ATOM     98  C   UNL     1      18.555   1.493  14.071  1.00  0.00     0.135 A 
ATOM     99  F   UNL     1      15.397   2.338  12.480  1.00  0.00    -0.206 F 
ATOM    100  C   UNL     1      16.141   2.743  14.657  1.00  0.00     0.059 A 
ATOM    101  C   UNL     1      18.314   1.946  15.364  1.00  0.00     0.059 A 
ATOM    102  F   UNL     1      19.716   0.859  13.837  1.00  0.00    -0.206 F 
ATOM    103  C   UNL     1      17.110   2.583  15.648  1.00  0.00     0.060 A 
BRANCH 103 104
ATOM    104  S   UNL     1      16.767   3.162  17.324  1.00  0.00     0.124 S 
ATOM    105  O   UNL     1      16.791   4.612  17.159  1.00  0.00    -0.237 OA
ATOM    106  O   UNL     1      15.458   2.577  17.601  1.00  0.00    -0.237 OA
ATOM    107  O   UNL     1      17.867   2.606  18.109  1.00  0.00    -0.744 OA
ENDBRANCH 103 104
ENDBRANCH  71  96
ENDBRANCH  45  46
ENDBRANCH  37  40
ENDBRANCH  35  36
ENDBRANCH  34  35
ENDBRANCH   1  34
TORSDOF 19
