REMARK SMILES O=C(NCCCCNC(=O)c1cn(C2C[NH+](CC(F)(F)F)C2)nn1)c1ccc(-c2c3nc(c(-c4c(F)cc(S(=O)(=O)[O-])cc4F)c4ccc([nH]4)c(-c4c(F)cc(S(=O)(=O)[O-])cc4F)c4nc(c(-c5c(F)cc(S(=O)(=O)[O-])cc5F)c5ccc2[nH]5)C=C4)C=C3)cc1
REMARK SMILES IDX 5 1 4 2 3 3 1 4 2 5 25 7 26 8 90 9 27 10 89 11 28 12 29 13
REMARK SMILES IDX 30 14 83 15 31 16 88 17 82 18 84 19 32 20 87 21 81 22 80 23
REMARK SMILES IDX 33 25 67 26 46 27 66 28 47 29 50 30 65 31 85 32 48 33 49 34
REMARK SMILES IDX 64 36 86 37 51 38 34 39 35 40 44 41 36 42 37 43 43 44 45 45
REMARK SMILES IDX 38 46 39 47 40 48 41 49 42 50 68 51 69 52 78 53 70 54 71 55
REMARK SMILES IDX 77 56 79 57 72 58 73 59 74 60 75 61 76 62 52 63 53 64 62 65
REMARK SMILES IDX 54 66 55 67 61 68 63 69 56 70 57 71 58 72 59 73 60 74 6 75
REMARK SMILES IDX 7 76 8 77 9 78 10 80 11 81 12 82 24 83 13 84 23 85 14 86
REMARK SMILES IDX 15 87 22 88 16 89 17 91 18 92 19 93 20 94 21 95
REMARK H PARENT 3 6 84 24 50 35 8 79 16 90
REMARK Flexibility Score: inf
ROOT
ATOM      1  C   UNL     1       5.011   0.995   2.019  1.00  0.00     0.023 C 
ENDROOT
BRANCH   1   2
ATOM      2  C   UNL     1       4.668  -0.077   0.986  1.00  0.00     0.116 C 
BRANCH   2   3
ATOM      3  N   UNL     1       3.255  -0.370   0.867  1.00  0.00    -0.352 N 
ATOM      4  O   UNL     1       1.200  -0.581   0.118  1.00  0.00    -0.269 OA
ATOM      5  C   UNL     1       2.231   0.099   0.090  1.00  0.00     0.251 C 
ATOM      6  H   UNL     1       2.962  -1.071   1.493  1.00  0.00     0.163 HD
BRANCH   5   7
ATOM      7  C   UNL     1       2.235   1.361  -0.707  1.00  0.00     0.039 A 
ATOM      8  C   UNL     1       3.335   2.182  -0.951  1.00  0.00     0.014 A 
ATOM      9  C   UNL     1       0.981   1.763  -1.216  1.00  0.00     0.014 A 
ATOM     10  C   UNL     1       3.168   3.402  -1.617  1.00  0.00     0.010 A 
ATOM     11  C   UNL     1       0.809   2.979  -1.876  1.00  0.00     0.010 A 
ATOM     12  C   UNL     1       1.900   3.819  -2.050  1.00  0.00    -0.014 A 
BRANCH  12  13
ATOM     13  C   UNL     1       1.800   5.036  -2.864  1.00  0.00     0.031 A 
ATOM     14  C   UNL     1       2.494   4.919  -4.177  1.00  0.00     0.074 A 
ATOM     15  C   UNL     1       1.074   6.139  -2.575  1.00  0.00     0.049 A 
ATOM     16  N   UNL     1       3.599   5.486  -4.532  1.00  0.00    -0.248 NA
ATOM     17  C   UNL     1       1.987   3.941  -5.153  1.00  0.00     0.031 C 
ATOM     18  C   UNL     1       0.105   6.332  -1.495  1.00  0.00     0.029 A 
ATOM     19  N   UNL     1       1.004   7.326  -3.253  1.00  0.00    -0.354 N 
ATOM     20  C   UNL     1       3.810   5.120  -5.859  1.00  0.00     0.074 A 
ATOM     21  C   UNL     1       2.897   4.039  -6.125  1.00  0.00     0.031 C 
ATOM     22  C   UNL     1      -0.600   7.469  -1.718  1.00  0.00     0.029 A 
ATOM     23  C   UNL     1      -0.047   8.161  -2.872  1.00  0.00     0.049 A 
ATOM     24  H   UNL     1       1.647   7.572  -3.958  1.00  0.00     0.167 HD
ATOM     25  C   UNL     1       4.562   5.893  -6.693  1.00  0.00     0.037 A 
ATOM     26  C   UNL     1      -0.446   9.317  -3.473  1.00  0.00     0.037 A 
ATOM     27  C   UNL     1       5.346   6.847  -5.949  1.00  0.00     0.049 A 
ATOM     28  C   UNL     1       0.704   9.822  -4.265  1.00  0.00     0.074 A 
ATOM     29  C   UNL     1       6.310   6.761  -4.963  1.00  0.00     0.029 A 
ATOM     30  N   UNL     1       4.906   8.147  -5.929  1.00  0.00    -0.354 N 
ATOM     31  N   UNL     1       1.805  10.279  -3.739  1.00  0.00    -0.248 NA
ATOM     32  C   UNL     1       0.802   9.403  -5.654  1.00  0.00     0.031 C 
ATOM     33  C   UNL     1       6.037   7.853  -4.088  1.00  0.00     0.029 A 
ATOM     34  C   UNL     1       4.980   8.583  -4.632  1.00  0.00     0.049 A 
ATOM     35  H   UNL     1       4.596   8.670  -6.703  1.00  0.00     0.167 HD
ATOM     36  C   UNL     1       2.811   9.781  -4.551  1.00  0.00     0.074 A 
ATOM     37  C   UNL     1       2.130   9.322  -5.761  1.00  0.00     0.031 C 
ATOM     38  C   UNL     1       4.058   9.534  -4.055  1.00  0.00     0.037 A 
BRANCH  25  39
ATOM     39  C   UNL     1       4.317   6.056  -8.176  1.00  0.00     0.058 A 
ATOM     40  C   UNL     1       5.246   6.784  -8.951  1.00  0.00     0.135 A 
ATOM     41  C   UNL     1       3.081   5.788  -8.805  1.00  0.00     0.135 A 
ATOM     42  F   UNL     1       6.452   7.102  -8.454  1.00  0.00    -0.206 F 
ATOM     43  C   UNL     1       4.941   7.277 -10.220  1.00  0.00     0.059 A 
ATOM     44  C   UNL     1       2.776   6.225 -10.090  1.00  0.00     0.059 A 
ATOM     45  F   UNL     1       2.074   5.177  -8.171  1.00  0.00    -0.206 F 
ATOM     46  C   UNL     1       3.696   7.001 -10.775  1.00  0.00     0.060 A 
BRANCH  46  47
ATOM     47  S   UNL     1       3.272   7.700 -12.380  1.00  0.00     0.124 S 
ATOM     48  O   UNL     1       3.175   9.120 -12.062  1.00  0.00    -0.237 OA
ATOM     49  O   UNL     1       4.416   7.302 -13.193  1.00  0.00    -0.237 OA
ATOM     50  O   UNL     1       2.014   7.038 -12.711  1.00  0.00    -0.744 OA
ENDBRANCH  46  47
ENDBRANCH  25  39
BRANCH  26  51
ATOM     51  C   UNL     1      -1.821   9.863  -3.679  1.00  0.00     0.058 A 
ATOM     52  C   UNL     1      -2.031  11.174  -4.158  1.00  0.00     0.135 A 
ATOM     53  C   UNL     1      -2.940   9.011  -3.719  1.00  0.00     0.135 A 
ATOM     54  F   UNL     1      -1.021  12.057  -4.177  1.00  0.00    -0.206 F 
ATOM     55  C   UNL     1      -3.255  11.591  -4.700  1.00  0.00     0.059 A 
ATOM     56  C   UNL     1      -4.170   9.405  -4.248  1.00  0.00     0.059 A 
ATOM     57  F   UNL     1      -2.842   7.730  -3.333  1.00  0.00    -0.206 F 
ATOM     58  C   UNL     1      -4.315  10.688  -4.765  1.00  0.00     0.060 A 
BRANCH  58  59
ATOM     59  S   UNL     1      -5.834  11.149  -5.637  1.00  0.00     0.124 S 
ATOM     60  O   UNL     1      -6.414  12.139  -4.736  1.00  0.00    -0.237 OA
ATOM     61  O   UNL     1      -5.322  11.663  -6.903  1.00  0.00    -0.237 OA
ATOM     62  O   UNL     1      -6.566   9.888  -5.732  1.00  0.00    -0.744 OA
ENDBRANCH  58  59
ENDBRANCH  26  51
BRANCH  38  63
ATOM     63  C   UNL     1       4.438  10.132  -2.727  1.00  0.00     0.058 A 
ATOM     64  C   UNL     1       3.792   9.875  -1.504  1.00  0.00     0.135 A 
ATOM     65  C   UNL     1       5.602  10.916  -2.683  1.00  0.00     0.135 A 
ATOM     66  F   UNL     1       2.737   9.049  -1.436  1.00  0.00    -0.206 F 
ATOM     67  C   UNL     1       4.255  10.420  -0.303  1.00  0.00     0.059 A 
ATOM     68  C   UNL     1       6.101  11.437  -1.496  1.00  0.00     0.059 A 
ATOM     69  F   UNL     1       6.298  11.150  -3.808  1.00  0.00    -0.206 F 
ATOM     70  C   UNL     1       5.411  11.202  -0.310  1.00  0.00     0.060 A 
BRANCH  70  71
ATOM     71  S   UNL     1       6.039  11.870   1.245  1.00  0.00     0.124 S 
ATOM     72  O   UNL     1       5.037  12.879   1.571  1.00  0.00    -0.237 OA
ATOM     73  O   UNL     1       6.061  10.693   2.109  1.00  0.00    -0.237 OA
ATOM     74  O   UNL     1       7.355  12.393   0.886  1.00  0.00    -0.744 OA
ENDBRANCH  70  71
ENDBRANCH  38  63
ENDBRANCH  12  13
ENDBRANCH   5   7
ENDBRANCH   2   3
ENDBRANCH   1   2
BRANCH   1  75
ATOM     75  C   UNL     1       4.533   0.720   3.450  1.00  0.00     0.023 C 
BRANCH  75  76
ATOM     76  C   UNL     1       4.970  -0.609   4.066  1.00  0.00     0.116 C 
BRANCH  76  77
ATOM     77  N   UNL     1       6.412  -0.730   4.194  1.00  0.00    -0.351 N 
ATOM     78  C   UNL     1       7.186  -0.940   5.316  1.00  0.00     0.273 C 
ATOM     79  H   UNL     1       6.914  -0.649   3.351  1.00  0.00     0.163 HD
ATOM     80  O   UNL     1       8.405  -0.880   5.207  1.00  0.00    -0.267 OA
BRANCH  78  81
ATOM     81  C   UNL     1       6.533  -1.232   6.583  1.00  0.00     0.170 A 
ATOM     82  C   UNL     1       5.523  -2.135   6.854  1.00  0.00     0.145 A 
ATOM     83  N   UNL     1       6.904  -0.624   7.758  1.00  0.00    -0.125 NA
ATOM     84  N   UNL     1       5.249  -1.938   8.177  1.00  0.00    -0.237 N 
ATOM     85  N   UNL     1       6.101  -1.053   8.720  1.00  0.00    -0.066 NA
BRANCH  84  86
ATOM     86  C   UNL     1       4.197  -2.507   8.962  1.00  0.00     0.218 C 
ATOM     87  C   UNL     1       2.817  -2.560   8.261  1.00  0.00     0.296 C 
ATOM     88  C   UNL     1       4.123  -4.051   8.902  1.00  0.00     0.296 C 
ATOM     89  N   UNL     1       2.665  -3.967   8.683  1.00  0.00    -0.323 N 
ATOM     90  H   UNL     1       2.192  -4.646   8.086  1.00  0.00     0.348 HD
BRANCH  89  91
ATOM     91  C   UNL     1       1.873  -4.110   9.937  1.00  0.00     0.379 C 
BRANCH  91  92
ATOM     92  C   UNL     1       2.162  -3.337  11.242  1.00  0.00     0.438 C 
ATOM     93  F   UNL     1       2.045  -2.002  11.073  1.00  0.00    -0.165 F 
ATOM     94  F   UNL     1       1.285  -3.698  12.208  1.00  0.00    -0.165 F 
ATOM     95  F   UNL     1       3.401  -3.593  11.715  1.00  0.00    -0.165 F 
ENDBRANCH  91  92
ENDBRANCH  89  91
ENDBRANCH  84  86
ENDBRANCH  78  81
ENDBRANCH  76  77
ENDBRANCH  75  76
ENDBRANCH   1  75
TORSDOF 17
