REMARK SMILES C[C@@H](C(=O)NCCCCNC(=O)c1ccc(-c2c3nc(c(-c4c(F)cc(S(=O)(=O)[O-])cc4F)c4ccc([nH]4)c(-c4c(F)cc(S(=O)(=O)[O-])cc4F)c4nc(c(-c5c(F)cc(S(=O)(=O)[O-])cc5F)c5ccc2[nH]5)C=C4)C=C3)cc1)c1ccc2c3cc(Cl)ccc3n(C(=O)c3ccc(Cl)cc3)c2c1
REMARK SMILES IDX 7 1 6 2 5 3 3 4 4 5 2 7 1 8 79 9 80 10 101 11 81 12 100 13
REMARK SMILES IDX 82 14 90 15 83 16 89 17 84 18 88 19 85 20 87 21 86 22 91 23
REMARK SMILES IDX 92 24 93 25 94 26 99 27 95 28 98 29 96 30 97 31 8 32 9 33
REMARK SMILES IDX 10 34 11 35 12 37 13 38 14 39 78 40 15 41 77 42 16 43 17 44
REMARK SMILES IDX 18 45 71 46 19 47 76 48 70 49 72 50 20 51 75 52 69 53 68 54
REMARK SMILES IDX 21 56 55 57 34 58 54 59 35 60 38 61 53 62 73 63 36 64 37 65
REMARK SMILES IDX 52 67 74 68 39 69 22 70 23 71 32 72 24 73 25 74 31 75 33 76
REMARK SMILES IDX 26 77 27 78 28 79 29 80 30 81 56 82 57 83 66 84 58 85 59 86
REMARK SMILES IDX 65 87 67 88 60 89 61 90 62 91 63 92 64 93 40 94 41 95 50 96
REMARK SMILES IDX 42 97 43 98 49 99 51 100 44 101 45 102 46 103 47 104 48 105
REMARK H PARENT 5 6 10 36 72 55 38 66
REMARK Flexibility Score: inf
ROOT
ATOM      1  C   UNL     1       4.352   1.068   0.703  1.00  0.00     0.023 C 
ENDROOT
BRANCH   1   2
ATOM      2  C   UNL     1       3.626   0.319   1.823  1.00  0.00     0.116 C 
BRANCH   2   3
ATOM      3  N   UNL     1       2.643   1.170   2.455  1.00  0.00    -0.356 N 
ATOM      4  C   UNL     1       1.298   1.253   2.244  1.00  0.00     0.227 C 
ATOM      5  O   UNL     1       0.704   2.161   2.829  1.00  0.00    -0.274 OA
ATOM      6  H   UNL     1       2.998   1.782   3.140  1.00  0.00     0.163 HD
BRANCH   4   7
ATOM      7  C   UNL     1       0.604   0.204   1.363  1.00  0.00     0.105 C 
ATOM      8  C   UNL     1       0.965   0.282  -0.123  1.00  0.00     0.023 C 
BRANCH   7   9
ATOM      9  C   UNL     1      -0.917   0.245   1.444  1.00  0.00    -0.034 A 
ATOM     10  C   UNL     1      -1.629   1.406   1.139  1.00  0.00     0.005 A 
ATOM     11  C   UNL     1      -1.609  -0.941   1.728  1.00  0.00     0.032 A 
ATOM     12  C   UNL     1      -3.020   1.388   1.060  1.00  0.00     0.011 A 
ATOM     13  C   UNL     1      -3.018  -0.945   1.703  1.00  0.00     0.057 A 
ATOM     14  C   UNL     1      -3.719   0.192   1.322  1.00  0.00     0.008 A 
ATOM     15  N   UNL     1      -3.939  -1.970   1.979  1.00  0.00    -0.276 N 
ATOM     16  C   UNL     1      -5.094  -0.142   1.310  1.00  0.00     0.009 A 
ATOM     17  C   UNL     1      -5.230  -1.440   1.823  1.00  0.00     0.057 A 
ATOM     18  C   UNL     1      -6.235   0.611   0.962  1.00  0.00     0.031 A 
ATOM     19  C   UNL     1      -6.510  -1.929   2.150  1.00  0.00     0.029 A 
ATOM     20  C   UNL     1      -7.496   0.093   1.224  1.00  0.00     0.041 A 
ATOM     21  C   UNL     1      -7.633  -1.144   1.840  1.00  0.00     0.023 A 
ATOM     22  Cl  UNL     1      -8.888   1.022   0.823  1.00  0.00    -0.084 Cl
BRANCH  15  23
ATOM     23  C   UNL     1      -3.535  -3.269   2.403  1.00  0.00     0.262 C 
ATOM     24  O   UNL     1      -2.437  -3.331   2.962  1.00  0.00    -0.268 OA
BRANCH  23  25
ATOM     25  C   UNL     1      -4.205  -4.592   2.229  1.00  0.00     0.040 A 
ATOM     26  C   UNL     1      -3.642  -5.678   2.937  1.00  0.00     0.015 A 
ATOM     27  C   UNL     1      -5.226  -4.857   1.313  1.00  0.00     0.015 A 
ATOM     28  C   UNL     1      -4.086  -6.987   2.747  1.00  0.00     0.021 A 
ATOM     29  C   UNL     1      -5.696  -6.172   1.145  1.00  0.00     0.021 A 
ATOM     30  C   UNL     1      -5.120  -7.229   1.854  1.00  0.00     0.041 A 
ATOM     31  Cl  UNL     1      -5.663  -8.841   1.600  1.00  0.00    -0.084 Cl
ENDBRANCH  23  25
ENDBRANCH  15  23
ENDBRANCH   7   9
ENDBRANCH   4   7
ENDBRANCH   2   3
ENDBRANCH   1   2
BRANCH   1  32
ATOM     32  C   UNL     1       5.125   2.303   1.170  1.00  0.00     0.023 C 
BRANCH  32  33
ATOM     33  C   UNL     1       6.101   2.045   2.306  1.00  0.00     0.116 C 
BRANCH  33  34
ATOM     34  N   UNL     1       7.078   1.023   1.972  1.00  0.00    -0.352 N 
ATOM     35  C   UNL     1       8.430   1.017   2.210  1.00  0.00     0.251 C 
ATOM     36  H   UNL     1       6.723   0.227   1.514  1.00  0.00     0.163 HD
ATOM     37  O   UNL     1       9.133   0.150   1.708  1.00  0.00    -0.269 OA
BRANCH  35  38
ATOM     38  C   UNL     1       9.025   2.075   3.054  1.00  0.00     0.039 A 
ATOM     39  C   UNL     1      10.231   2.655   2.655  1.00  0.00     0.014 A 
ATOM     40  C   UNL     1       8.401   2.488   4.235  1.00  0.00     0.014 A 
ATOM     41  C   UNL     1      10.798   3.665   3.432  1.00  0.00     0.010 A 
ATOM     42  C   UNL     1       8.919   3.559   4.955  1.00  0.00     0.010 A 
ATOM     43  C   UNL     1      10.141   4.135   4.581  1.00  0.00    -0.014 A 
BRANCH  43  44
ATOM     44  C   UNL     1      10.753   5.183   5.436  1.00  0.00     0.031 A 
ATOM     45  C   UNL     1      11.140   4.857   6.856  1.00  0.00     0.074 A 
ATOM     46  C   UNL     1      10.936   6.425   4.949  1.00  0.00     0.049 A 
ATOM     47  N   UNL     1      11.688   5.627   7.761  1.00  0.00    -0.248 NA
ATOM     48  C   UNL     1      10.848   3.494   7.333  1.00  0.00     0.031 C 
ATOM     49  C   UNL     1      10.556   6.873   3.607  1.00  0.00     0.029 A 
ATOM     50  N   UNL     1      11.494   7.538   5.524  1.00  0.00    -0.354 N 
ATOM     51  C   UNL     1      11.787   4.851   8.910  1.00  0.00     0.074 A 
ATOM     52  C   UNL     1      11.185   3.572   8.610  1.00  0.00     0.031 C 
ATOM     53  C   UNL     1      10.928   8.153   3.450  1.00  0.00     0.029 A 
ATOM     54  C   UNL     1      11.540   8.628   4.687  1.00  0.00     0.049 A 
ATOM     55  H   UNL     1      11.829   7.556   6.449  1.00  0.00     0.167 HD
ATOM     56  C   UNL     1      12.355   5.165  10.099  1.00  0.00     0.037 A 
ATOM     57  C   UNL     1      12.028   9.867   4.893  1.00  0.00     0.037 A 
ATOM     58  C   UNL     1      12.979   6.431  10.378  1.00  0.00     0.049 A 
ATOM     59  C   UNL     1      12.665  10.188   6.219  1.00  0.00     0.074 A 
ATOM     60  C   UNL     1      13.639   6.831  11.526  1.00  0.00     0.029 A 
ATOM     61  N   UNL     1      13.020   7.504   9.499  1.00  0.00    -0.354 N 
ATOM     62  N   UNL     1      12.815   9.419   7.273  1.00  0.00    -0.248 NA
ATOM     63  C   UNL     1      13.215  11.540   6.379  1.00  0.00     0.031 C 
ATOM     64  C   UNL     1      14.030   8.164  11.363  1.00  0.00     0.029 A 
ATOM     65  C   UNL     1      13.675   8.573  10.087  1.00  0.00     0.049 A 
ATOM     66  H   UNL     1      12.639   7.505   8.591  1.00  0.00     0.167 HD
ATOM     67  C   UNL     1      13.516  10.180   8.203  1.00  0.00     0.074 A 
ATOM     68  C   UNL     1      13.763  11.467   7.584  1.00  0.00     0.031 C 
ATOM     69  C   UNL     1      13.926   9.843   9.452  1.00  0.00     0.037 A 
BRANCH  56  70
ATOM     70  C   UNL     1      12.321   4.123  11.187  1.00  0.00     0.058 A 
ATOM     71  C   UNL     1      13.054   2.928  11.096  1.00  0.00     0.135 A 
ATOM     72  C   UNL     1      11.561   4.334  12.349  1.00  0.00     0.135 A 
ATOM     73  F   UNL     1      13.785   2.664  10.001  1.00  0.00    -0.206 F 
ATOM     74  C   UNL     1      13.006   1.965  12.099  1.00  0.00     0.059 A 
ATOM     75  C   UNL     1      11.526   3.400  13.380  1.00  0.00     0.059 A 
ATOM     76  F   UNL     1      10.839   5.457  12.491  1.00  0.00    -0.206 F 
ATOM     77  C   UNL     1      12.238   2.211  13.238  1.00  0.00     0.060 A 
BRANCH  77  78
ATOM     78  S   UNL     1      12.188   0.952  14.531  1.00  0.00     0.124 S 
ATOM     79  O   UNL     1      11.378  -0.084  13.898  1.00  0.00    -0.237 OA
ATOM     80  O   UNL     1      13.601   0.631  14.709  1.00  0.00    -0.237 OA
ATOM     81  O   UNL     1      11.559   1.641  15.654  1.00  0.00    -0.744 OA
ENDBRANCH  77  78
ENDBRANCH  56  70
BRANCH  57  82
ATOM     82  C   UNL     1      11.981  10.879   3.803  1.00  0.00     0.058 A 
ATOM     83  C   UNL     1      13.155  11.311   3.167  1.00  0.00     0.135 A 
ATOM     84  C   UNL     1      10.765  11.432   3.372  1.00  0.00     0.135 A 
ATOM     85  F   UNL     1      14.343  10.815   3.546  1.00  0.00    -0.206 F 
ATOM     86  C   UNL     1      13.130  12.270   2.161  1.00  0.00     0.059 A 
ATOM     87  C   UNL     1      10.711  12.371   2.347  1.00  0.00     0.059 A 
ATOM     88  F   UNL     1       9.611  11.040   3.933  1.00  0.00    -0.206 F 
ATOM     89  C   UNL     1      11.901  12.793   1.756  1.00  0.00     0.060 A 
BRANCH  89  90
ATOM     90  S   UNL     1      11.878  14.008   0.420  1.00  0.00     0.124 S 
ATOM     91  O   UNL     1      12.450  15.178   1.076  1.00  0.00    -0.237 OA
ATOM     92  O   UNL     1      12.715  13.368  -0.590  1.00  0.00    -0.237 OA
ATOM     93  O   UNL     1      10.462  14.105   0.079  1.00  0.00    -0.744 OA
ENDBRANCH  89  90
ENDBRANCH  57  82
BRANCH  69  94
ATOM     94  C   UNL     1      14.744  10.855  10.209  1.00  0.00     0.058 A 
ATOM     95  C   UNL     1      14.193  12.048  10.700  1.00  0.00     0.135 A 
ATOM     96  C   UNL     1      16.102  10.605  10.471  1.00  0.00     0.135 A 
ATOM     97  F   UNL     1      12.901  12.338  10.477  1.00  0.00    -0.206 F 
ATOM     98  C   UNL     1      14.968  12.978  11.386  1.00  0.00     0.059 A 
ATOM     99  C   UNL     1      16.886  11.504  11.186  1.00  0.00     0.059 A 
ATOM    100  F   UNL     1      16.678   9.472  10.040  1.00  0.00    -0.206 F 
ATOM    101  C   UNL     1      16.315  12.698  11.621  1.00  0.00     0.060 A 
BRANCH 101 102
ATOM    102  S   UNL     1      17.310  13.910  12.515  1.00  0.00     0.124 S 
ATOM    103  O   UNL     1      17.478  14.951  11.507  1.00  0.00    -0.237 OA
ATOM    104  O   UNL     1      16.448  14.252  13.642  1.00  0.00    -0.237 OA
ATOM    105  O   UNL     1      18.519  13.169  12.860  1.00  0.00    -0.744 OA
ENDBRANCH 101 102
ENDBRANCH  69  94
ENDBRANCH  43  44
ENDBRANCH  35  38
ENDBRANCH  33  34
ENDBRANCH  32  33
ENDBRANCH   1  32
TORSDOF 17
