REMARK SMILES O=C(Cn1cccc1C(=O)N1CCC2(CCCC2)CC1)NCCCCNC(=O)c1ccc(-c2c3nc(c(-c4c(F)cc(S(=O)(=O)[O-])cc4F)c4ccc([nH]4)c(-c4c(F)cc(S(=O)(=O)[O-])cc4F)c4nc(c(-c5c(F)cc(S(=O)(=O)[O-])cc5F)c5ccc2[nH]5)C=C4)C=C3)cc1
REMARK SMILES IDX 24 1 23 2 22 3 21 4 1 5 2 6 3 8 4 9 5 10 8 11 6 12 7 13 9 14
REMARK SMILES IDX 10 15 11 16 12 17 20 18 13 19 19 20 14 21 15 22 18 23 16 24
REMARK SMILES IDX 17 25 25 26 26 27 27 28 28 30 29 31 30 32 94 33 31 34 93 35
REMARK SMILES IDX 32 36 33 37 34 38 87 39 35 40 92 41 86 42 88 43 36 44 91 45
REMARK SMILES IDX 85 46 84 47 37 49 71 50 50 51 70 52 51 53 54 54 69 55 89 56
REMARK SMILES IDX 52 57 53 58 68 60 90 61 55 62 38 63 39 64 48 65 40 66 41 67
REMARK SMILES IDX 47 68 49 69 42 70 43 71 44 72 45 73 46 74 72 75 73 76 82 77
REMARK SMILES IDX 74 78 75 79 81 80 83 81 76 82 77 83 78 84 79 85 80 86 56 87
REMARK SMILES IDX 57 88 66 89 58 90 59 91 65 92 67 93 60 94 61 95 62 96 63 97
REMARK SMILES IDX 64 98
REMARK H PARENT 21 7 26 29 88 48 54 59
REMARK Flexibility Score: inf
ROOT
ATOM      1  C   UNL     1       4.024   2.649   3.025  1.00  0.00     0.023 C 
ENDROOT
BRANCH   1   2
ATOM      2  C   UNL     1       2.541   2.459   2.678  1.00  0.00     0.023 C 
BRANCH   2   3
ATOM      3  C   UNL     1       2.216   2.466   1.183  1.00  0.00     0.116 C 
BRANCH   3   4
ATOM      4  N   UNL     1       2.896   1.400   0.473  1.00  0.00    -0.355 N 
ATOM      5  O   UNL     1       0.963   0.412  -0.247  1.00  0.00    -0.273 OA
ATOM      6  C   UNL     1       2.195   0.428  -0.203  1.00  0.00     0.239 C 
ATOM      7  H   UNL     1       3.880   1.372   0.474  1.00  0.00     0.163 HD
BRANCH   6   8
ATOM      8  C   UNL     1       2.997  -0.742  -0.706  1.00  0.00     0.222 C 
BRANCH   8   9
ATOM      9  N   UNL     1       3.916  -0.604  -1.821  1.00  0.00    -0.334 N 
ATOM     10  C   UNL     1       4.232   0.571  -2.448  1.00  0.00     0.087 A 
ATOM     11  C   UNL     1       4.562  -1.679  -2.440  1.00  0.00     0.107 A 
ATOM     12  C   UNL     1       5.090   0.288  -3.482  1.00  0.00     0.020 A 
ATOM     13  C   UNL     1       5.290  -1.108  -3.482  1.00  0.00     0.033 A 
BRANCH  11  14
ATOM     14  C   UNL     1       4.580  -3.114  -2.118  1.00  0.00     0.270 C 
ATOM     15  O   UNL     1       5.214  -3.935  -2.782  1.00  0.00    -0.267 OA
ATOM     16  N   UNL     1       3.980  -3.530  -0.929  1.00  0.00    -0.337 N 
ATOM     17  C   UNL     1       4.795  -4.320  -0.028  1.00  0.00     0.120 C 
ATOM     18  C   UNL     1       2.575  -3.910  -0.889  1.00  0.00     0.120 C 
ATOM     19  C   UNL     1       4.393  -3.982   1.399  1.00  0.00     0.028 C 
ATOM     20  C   UNL     1       1.995  -3.627   0.504  1.00  0.00     0.028 C 
ATOM     21  C   UNL     1       2.872  -4.136   1.680  1.00  0.00    -0.026 C 
ATOM     22  C   UNL     1       2.551  -3.352   2.987  1.00  0.00     0.007 C 
ATOM     23  C   UNL     1       2.501  -5.603   2.006  1.00  0.00     0.007 C 
ATOM     24  C   UNL     1       1.817  -4.319   3.897  1.00  0.00     0.001 C 
ATOM     25  C   UNL     1       2.405  -5.667   3.525  1.00  0.00     0.001 C 
ENDBRANCH  11  14
ENDBRANCH   8   9
ENDBRANCH   6   8
ENDBRANCH   3   4
ENDBRANCH   2   3
ENDBRANCH   1   2
BRANCH   1  26
ATOM     26  C   UNL     1       4.644   3.909   2.436  1.00  0.00     0.116 C 
BRANCH  26  27
ATOM     27  N   UNL     1       4.018   5.115   2.959  1.00  0.00    -0.352 N 
ATOM     28  C   UNL     1       4.370   6.419   2.719  1.00  0.00     0.251 C 
ATOM     29  H   UNL     1       3.249   4.979   3.558  1.00  0.00     0.163 HD
ATOM     30  O   UNL     1       4.026   7.302   3.511  1.00  0.00    -0.269 OA
BRANCH  28  31
ATOM     31  C   UNL     1       5.152   6.766   1.521  1.00  0.00     0.039 A 
ATOM     32  C   UNL     1       6.136   7.759   1.605  1.00  0.00     0.014 A 
ATOM     33  C   UNL     1       4.859   6.154   0.297  1.00  0.00     0.014 A 
ATOM     34  C   UNL     1       6.858   8.100   0.468  1.00  0.00     0.010 A 
ATOM     35  C   UNL     1       5.615   6.443  -0.821  1.00  0.00     0.010 A 
ATOM     36  C   UNL     1       6.598   7.429  -0.735  1.00  0.00    -0.014 A 
BRANCH  36  37
ATOM     37  C   UNL     1       7.413   7.718  -1.926  1.00  0.00     0.031 A 
ATOM     38  C   UNL     1       8.799   7.036  -1.805  1.00  0.00     0.074 A 
ATOM     39  C   UNL     1       6.800   8.513  -2.865  1.00  0.00     0.049 A 
ATOM     40  N   UNL     1       9.978   7.478  -2.116  1.00  0.00    -0.248 NA
ATOM     41  C   UNL     1       8.908   5.710  -1.126  1.00  0.00     0.031 C 
ATOM     42  C   UNL     1       5.409   9.034  -2.764  1.00  0.00     0.029 A 
ATOM     43  N   UNL     1       7.171   9.040  -4.083  1.00  0.00    -0.354 N 
ATOM     44  C   UNL     1      10.912   6.431  -1.901  1.00  0.00     0.074 A 
ATOM     45  C   UNL     1      10.219   5.438  -1.138  1.00  0.00     0.031 C 
ATOM     46  C   UNL     1       5.111   9.857  -3.795  1.00  0.00     0.029 A 
ATOM     47  C   UNL     1       6.253   9.957  -4.678  1.00  0.00     0.049 A 
ATOM     48  H   UNL     1       8.021   8.799  -4.517  1.00  0.00     0.167 HD
ATOM     49  C   UNL     1      12.130   6.376  -2.531  1.00  0.00     0.037 A 
ATOM     50  C   UNL     1       6.442  10.781  -5.761  1.00  0.00     0.037 A 
ATOM     51  C   UNL     1      12.192   7.437  -3.484  1.00  0.00     0.049 A 
ATOM     52  C   UNL     1       7.772  10.405  -6.268  1.00  0.00     0.074 A 
ATOM     53  C   UNL     1      12.288   8.796  -3.344  1.00  0.00     0.029 A 
ATOM     54  N   UNL     1      11.697   7.138  -4.735  1.00  0.00    -0.354 N 
ATOM     55  N   UNL     1       8.061   9.280  -6.853  1.00  0.00    -0.248 NA
ATOM     56  C   UNL     1       8.900  11.287  -5.944  1.00  0.00     0.031 C 
ATOM     57  C   UNL     1      11.335   9.259  -4.273  1.00  0.00     0.029 A 
ATOM     58  C   UNL     1      10.967   8.223  -5.143  1.00  0.00     0.049 A 
ATOM     59  H   UNL     1      11.841   6.304  -5.239  1.00  0.00     0.167 HD
ATOM     60  C   UNL     1       9.416   9.188  -6.651  1.00  0.00     0.074 A 
ATOM     61  C   UNL     1       9.897  10.531  -6.392  1.00  0.00     0.031 C 
ATOM     62  C   UNL     1       9.948   8.042  -6.152  1.00  0.00     0.037 A 
BRANCH  49  63
ATOM     63  C   UNL     1      13.216   5.335  -2.670  1.00  0.00     0.058 A 
ATOM     64  C   UNL     1      14.494   5.781  -3.106  1.00  0.00     0.135 A 
ATOM     65  C   UNL     1      12.989   3.956  -2.753  1.00  0.00     0.135 A 
ATOM     66  F   UNL     1      14.838   7.077  -3.008  1.00  0.00    -0.206 F 
ATOM     67  C   UNL     1      15.418   4.943  -3.723  1.00  0.00     0.059 A 
ATOM     68  C   UNL     1      13.927   3.085  -3.329  1.00  0.00     0.059 A 
ATOM     69  F   UNL     1      11.827   3.426  -2.350  1.00  0.00    -0.206 F 
ATOM     70  C   UNL     1      15.111   3.597  -3.860  1.00  0.00     0.060 A 
BRANCH  70  71
ATOM     71  S   UNL     1      16.276   2.552  -4.763  1.00  0.00     0.124 S 
ATOM     72  O   UNL     1      16.103   3.023  -6.133  1.00  0.00    -0.237 OA
ATOM     73  O   UNL     1      17.549   2.896  -4.135  1.00  0.00    -0.237 OA
ATOM     74  O   UNL     1      15.798   1.201  -4.491  1.00  0.00    -0.744 OA
ENDBRANCH  70  71
ENDBRANCH  49  63
BRANCH  50  75
ATOM     75  C   UNL     1       5.808  12.020  -6.383  1.00  0.00     0.058 A 
ATOM     76  C   UNL     1       4.588  12.609  -6.028  1.00  0.00     0.135 A 
ATOM     77  C   UNL     1       6.564  12.794  -7.315  1.00  0.00     0.135 A 
ATOM     78  F   UNL     1       3.681  11.934  -5.310  1.00  0.00    -0.206 F 
ATOM     79  C   UNL     1       4.251  13.930  -6.396  1.00  0.00     0.059 A 
ATOM     80  C   UNL     1       6.290  14.121  -7.638  1.00  0.00     0.059 A 
ATOM     81  F   UNL     1       7.650  12.297  -7.925  1.00  0.00    -0.206 F 
ATOM     82  C   UNL     1       5.146  14.703  -7.136  1.00  0.00     0.060 A 
BRANCH  82  83
ATOM     83  S   UNL     1       4.902  16.485  -7.330  1.00  0.00     0.124 S 
ATOM     84  O   UNL     1       3.953  16.548  -8.435  1.00  0.00    -0.237 OA
ATOM     85  O   UNL     1       4.384  16.873  -6.021  1.00  0.00    -0.237 OA
ATOM     86  O   UNL     1       6.246  16.977  -7.625  1.00  0.00    -0.744 OA
ENDBRANCH  82  83
ENDBRANCH  50  75
BRANCH  62  87
ATOM     87  C   UNL     1       9.180   6.761  -6.447  1.00  0.00     0.058 A 
ATOM     88  C   UNL     1       8.957   6.358  -7.773  1.00  0.00     0.135 A 
ATOM     89  C   UNL     1       8.613   5.929  -5.465  1.00  0.00     0.135 A 
ATOM     90  F   UNL     1       9.460   7.085  -8.783  1.00  0.00    -0.206 F 
ATOM     91  C   UNL     1       8.241   5.199  -8.099  1.00  0.00     0.059 A 
ATOM     92  C   UNL     1       7.894   4.764  -5.757  1.00  0.00     0.059 A 
ATOM     93  F   UNL     1       8.742   6.227  -4.177  1.00  0.00    -0.206 F 
ATOM     94  C   UNL     1       7.721   4.399  -7.083  1.00  0.00     0.060 A 
BRANCH  94  95
ATOM     95  S   UNL     1       6.870   2.864  -7.516  1.00  0.00     0.124 S 
ATOM     96  O   UNL     1       5.769   3.339  -8.348  1.00  0.00    -0.237 OA
ATOM     97  O   UNL     1       7.917   2.124  -8.213  1.00  0.00    -0.237 OA
ATOM     98  O   UNL     1       6.475   2.314  -6.221  1.00  0.00    -0.744 OA
ENDBRANCH  94  95
ENDBRANCH  62  87
ENDBRANCH  36  37
ENDBRANCH  28  31
ENDBRANCH  26  27
ENDBRANCH   1  26
TORSDOF 16
