REMARK SMILES O=C(CCN/C(=[NH+]\S(=O)(=O)c1ccccc1)c1ccccc1)NCCCCNC(=O)c1ccc(-c2c3nc(c(-c4c(F)cc(S(=O)(=O)[O-])cc4F)c4ccc([nH]4)c(-c4c(F)cc(S(=O)(=O)[O-])cc4F)c4nc(c(-c5c(F)cc(S(=O)(=O)[O-])cc5F)c5ccc2[nH]5)C=C4)C=C3)cc1
REMARK SMILES IDX 25 1 24 2 23 3 1 4 2 5 3 7 4 8 5 9 6 10 7 12 17 14 18 15
REMARK SMILES IDX 22 16 19 17 21 18 20 19 8 20 9 21 10 22 11 23 12 24 16 25
REMARK SMILES IDX 13 26 15 27 14 28 26 29 27 30 28 31 29 32 30 34 31 35 32 36
REMARK SMILES IDX 96 37 33 38 95 39 34 40 35 41 36 42 89 43 37 44 94 45 88 46
REMARK SMILES IDX 90 47 38 48 93 49 87 50 86 51 39 53 73 54 52 55 72 56 53 57
REMARK SMILES IDX 56 58 71 59 91 60 54 61 55 62 70 64 92 65 57 66 40 67 41 68
REMARK SMILES IDX 50 69 42 70 43 71 49 72 51 73 44 74 45 75 46 76 47 77 48 78
REMARK SMILES IDX 74 79 75 80 84 81 76 82 77 83 83 84 85 85 78 86 79 87 80 88
REMARK SMILES IDX 81 89 82 90 58 91 59 92 68 93 60 94 61 95 67 96 69 97 62 98
REMARK SMILES IDX 63 99 64 100 65 101 66 102
REMARK H PARENT 23 6 5 11 7 13 28 33 90 52 56 63
REMARK Flexibility Score: inf
ROOT
ATOM      1  C   UNL     1       2.320  -0.303   3.639  1.00  0.00     0.023 C 
ENDROOT
BRANCH   1   2
ATOM      2  C   UNL     1       2.081   0.635   2.455  1.00  0.00     0.116 C 
BRANCH   2   3
ATOM      3  N   UNL     1       2.798   0.220   1.267  1.00  0.00    -0.356 N 
ATOM      4  O   UNL     1       0.985   0.273  -0.150  1.00  0.00    -0.275 OA
ATOM      5  C   UNL     1       2.180   0.070   0.047  1.00  0.00     0.223 C 
ATOM      6  H   UNL     1       3.764   0.038   1.334  1.00  0.00     0.163 HD
BRANCH   5   7
ATOM      7  C   UNL     1       3.106  -0.334  -1.073  1.00  0.00     0.145 C 
BRANCH   7   8
ATOM      8  C   UNL     1       3.712   0.893  -1.737  1.00  0.00     0.243 C 
BRANCH   8   9
ATOM      9  N   UNL     1       4.769   1.479  -0.928  1.00  0.00    -0.273 N 
ATOM     10  C   UNL     1       6.136   1.311  -1.045  1.00  0.00     0.290 C 
ATOM     11  H   UNL     1       4.473   2.072  -0.201  1.00  0.00     0.305 HD
ATOM     12  N   UNL     1       7.006   1.483  -0.102  1.00  0.00    -0.162 N 
ATOM     13  H   UNL     1       7.964   1.414  -0.316  1.00  0.00     0.327 HD
BRANCH  10  14
ATOM     14  C   UNL     1       6.731   0.915  -2.360  1.00  0.00     0.064 A 
ATOM     15  C   UNL     1       7.722  -0.073  -2.398  1.00  0.00     0.016 A 
ATOM     16  C   UNL     1       6.337   1.558  -3.538  1.00  0.00     0.016 A 
ATOM     17  C   UNL     1       8.284  -0.446  -3.619  1.00  0.00     0.001 A 
ATOM     18  C   UNL     1       6.893   1.174  -4.758  1.00  0.00     0.001 A 
ATOM     19  C   UNL     1       7.862   0.170  -4.797  1.00  0.00     0.000 A 
ENDBRANCH  10  14
BRANCH  12  20
ATOM     20  S   UNL     1       6.566   1.808   1.411  1.00  0.00     0.328 S 
ATOM     21  O   UNL     1       5.789   3.031   1.448  1.00  0.00    -0.179 OA
ATOM     22  O   UNL     1       5.975   0.603   1.976  1.00  0.00    -0.179 OA
BRANCH  20  23
ATOM     23  C   UNL     1       8.099   2.106   2.258  1.00  0.00     0.109 A 
ATOM     24  C   UNL     1       8.800   1.032   2.817  1.00  0.00     0.024 A 
ATOM     25  C   UNL     1       8.579   3.415   2.382  1.00  0.00     0.024 A 
ATOM     26  C   UNL     1      10.008   1.269   3.473  1.00  0.00     0.001 A 
ATOM     27  C   UNL     1       9.791   3.642   3.037  1.00  0.00     0.001 A 
ATOM     28  C   UNL     1      10.507   2.570   3.573  1.00  0.00     0.000 A 
ENDBRANCH  20  23
ENDBRANCH  12  20
ENDBRANCH   8   9
ENDBRANCH   7   8
ENDBRANCH   5   7
ENDBRANCH   2   3
ENDBRANCH   1   2
BRANCH   1  29
ATOM     29  C   UNL     1       3.767  -0.381   4.135  1.00  0.00     0.023 C 
BRANCH  29  30
ATOM     30  C   UNL     1       4.381   0.948   4.580  1.00  0.00     0.116 C 
BRANCH  30  31
ATOM     31  N   UNL     1       3.763   1.457   5.794  1.00  0.00    -0.352 N 
ATOM     32  C   UNL     1       4.351   1.833   6.978  1.00  0.00     0.251 C 
ATOM     33  H   UNL     1       2.783   1.544   5.763  1.00  0.00     0.163 HD
ATOM     34  O   UNL     1       3.651   2.047   7.965  1.00  0.00    -0.269 OA
BRANCH  32  35
ATOM     35  C   UNL     1       5.822   1.975   7.074  1.00  0.00     0.039 A 
ATOM     36  C   UNL     1       6.498   1.430   8.170  1.00  0.00     0.014 A 
ATOM     37  C   UNL     1       6.537   2.678   6.106  1.00  0.00     0.014 A 
ATOM     38  C   UNL     1       7.896   1.524   8.254  1.00  0.00     0.010 A 
ATOM     39  C   UNL     1       7.930   2.725   6.173  1.00  0.00     0.010 A 
ATOM     40  C   UNL     1       8.640   2.132   7.228  1.00  0.00    -0.014 A 
BRANCH  40  41
ATOM     41  C   UNL     1      10.139   2.102   7.205  1.00  0.00     0.031 A 
ATOM     42  C   UNL     1      10.954   3.369   7.083  1.00  0.00     0.074 A 
ATOM     43  C   UNL     1      10.787   0.916   7.159  1.00  0.00     0.049 A 
ATOM     44  N   UNL     1      12.250   3.509   6.927  1.00  0.00    -0.248 NA
ATOM     45  C   UNL     1      10.217   4.641   7.086  1.00  0.00     0.031 C 
ATOM     46  C   UNL     1      10.144  -0.400   7.155  1.00  0.00     0.029 A 
ATOM     47  N   UNL     1      12.130   0.623   7.076  1.00  0.00    -0.354 N 
ATOM     48  C   UNL     1      12.479   4.876   6.798  1.00  0.00     0.074 A 
ATOM     49  C   UNL     1      11.179   5.515   6.821  1.00  0.00     0.031 C 
ATOM     50  C   UNL     1      11.087  -1.354   7.103  1.00  0.00     0.029 A 
ATOM     51  C   UNL     1      12.403  -0.726   7.029  1.00  0.00     0.049 A 
ATOM     52  H   UNL     1      12.830   1.314   7.053  1.00  0.00     0.167 HD
ATOM     53  C   UNL     1      13.656   5.545   6.701  1.00  0.00     0.037 A 
ATOM     54  C   UNL     1      13.571  -1.394   6.931  1.00  0.00     0.037 A 
ATOM     55  C   UNL     1      14.957   4.922   6.717  1.00  0.00     0.049 A 
ATOM     56  C   UNL     1      14.869  -0.634   6.869  1.00  0.00     0.074 A 
ATOM     57  C   UNL     1      16.201   5.533   6.711  1.00  0.00     0.029 A 
ATOM     58  N   UNL     1      15.190   3.556   6.744  1.00  0.00    -0.354 N 
ATOM     59  N   UNL     1      15.064   0.662   6.838  1.00  0.00    -0.248 NA
ATOM     60  C   UNL     1      16.107  -1.427   6.842  1.00  0.00     0.031 C 
ATOM     61  C   UNL     1      17.184   4.537   6.687  1.00  0.00     0.029 A 
ATOM     62  C   UNL     1      16.554   3.305   6.738  1.00  0.00     0.049 A 
ATOM     63  H   UNL     1      14.489   2.865   6.764  1.00  0.00     0.167 HD
ATOM     64  C   UNL     1      16.445   0.838   6.821  1.00  0.00     0.074 A 
ATOM     65  C   UNL     1      17.036  -0.482   6.855  1.00  0.00     0.031 C 
ATOM     66  C   UNL     1      17.152   1.994   6.783  1.00  0.00     0.037 A 
BRANCH  53  67
ATOM     67  C   UNL     1      13.602   7.050   6.600  1.00  0.00     0.058 A 
ATOM     68  C   UNL     1      13.169   7.844   7.675  1.00  0.00     0.135 A 
ATOM     69  C   UNL     1      14.047   7.711   5.442  1.00  0.00     0.135 A 
ATOM     70  F   UNL     1      12.730   7.269   8.806  1.00  0.00    -0.206 F 
ATOM     71  C   UNL     1      13.139   9.232   7.593  1.00  0.00     0.059 A 
ATOM     72  C   UNL     1      14.061   9.101   5.351  1.00  0.00     0.059 A 
ATOM     73  F   UNL     1      14.483   7.007   4.386  1.00  0.00    -0.206 F 
ATOM     74  C   UNL     1      13.588   9.852   6.426  1.00  0.00     0.060 A 
BRANCH  74  75
ATOM     75  S   UNL     1      13.550  11.655   6.343  1.00  0.00     0.124 S 
ATOM     76  O   UNL     1      12.117  11.909   6.224  1.00  0.00    -0.237 OA
ATOM     77  O   UNL     1      14.157  12.039   7.613  1.00  0.00    -0.237 OA
ATOM     78  O   UNL     1      14.341  11.959   5.155  1.00  0.00    -0.744 OA
ENDBRANCH  74  75
ENDBRANCH  53  67
BRANCH  54  79
ATOM     79  C   UNL     1      13.571  -2.882   6.922  1.00  0.00     0.058 A 
ATOM     80  C   UNL     1      14.042  -3.607   8.027  1.00  0.00     0.135 A 
ATOM     81  C   UNL     1      13.092  -3.607   5.820  1.00  0.00     0.135 A 
ATOM     82  F   UNL     1      14.519  -2.958   9.100  1.00  0.00    -0.206 F 
ATOM     83  C   UNL     1      14.053  -4.998   8.036  1.00  0.00     0.059 A 
ATOM     84  C   UNL     1      13.067  -4.999   5.816  1.00  0.00     0.059 A 
ATOM     85  F   UNL     1      12.615  -2.961   4.745  1.00  0.00    -0.206 F 
ATOM     86  C   UNL     1      13.559  -5.685   6.927  1.00  0.00     0.060 A 
BRANCH  86  87
ATOM     87  S   UNL     1      13.527  -7.490   6.974  1.00  0.00     0.124 S 
ATOM     88  O   UNL     1      14.944  -7.812   6.861  1.00  0.00    -0.237 OA
ATOM     89  O   UNL     1      12.914  -7.749   8.273  1.00  0.00    -0.237 OA
ATOM     90  O   UNL     1      12.705  -7.841   5.820  1.00  0.00    -0.744 OA
ENDBRANCH  86  87
ENDBRANCH  54  79
BRANCH  66  91
ATOM     91  C   UNL     1      18.656   1.901   6.824  1.00  0.00     0.058 A 
ATOM     92  C   UNL     1      19.404   1.420   5.738  1.00  0.00     0.135 A 
ATOM     93  C   UNL     1      19.363   2.348   7.954  1.00  0.00     0.135 A 
ATOM     94  F   UNL     1      18.782   0.973   4.635  1.00  0.00    -0.206 F 
ATOM     95  C   UNL     1      20.795   1.364   5.777  1.00  0.00     0.059 A 
ATOM     96  C   UNL     1      20.755   2.329   8.004  1.00  0.00     0.059 A 
ATOM     97  F   UNL     1      18.702   2.826   9.020  1.00  0.00    -0.206 F 
ATOM     98  C   UNL     1      21.462   1.824   6.914  1.00  0.00     0.060 A 
BRANCH  98  99
ATOM     99  S   UNL     1      23.267   1.778   6.937  1.00  0.00     0.124 S 
ATOM    100  O   UNL     1      23.524   0.347   7.065  1.00  0.00    -0.237 OA
ATOM    101  O   UNL     1      23.610   2.372   5.649  1.00  0.00    -0.237 OA
ATOM    102  O   UNL     1      23.614   2.584   8.104  1.00  0.00    -0.744 OA
ENDBRANCH  98  99
ENDBRANCH  66  91
ENDBRANCH  40  41
ENDBRANCH  32  35
ENDBRANCH  30  31
ENDBRANCH  29  30
ENDBRANCH   1  29
TORSDOF 19
