REMARK SMILES C[C@H](CNS(=O)(=O)c1ccc(C(=O)NCCCCNC(=O)c2ccc(-c3c4nc(c(-c5c(F)cc(S(=O)(=O)[O-])cc5F)c5ccc([nH]5)c(-c5c(F)cc(S(=O)(=O)[O-])cc5F)c5nc(c(-c6c(F)cc(S(=O)(=O)[O-])cc6F)c6ccc3[nH]6)C=C5)C=C4)cc2)cc1F)[NH+](C)C
REMARK SMILES IDX 15 1 14 2 12 3 13 4 11 6 8 7 9 8 89 9 10 10 88 11 90 12 5 13
REMARK SMILES IDX 6 14 7 15 4 16 3 18 2 19 1 20 91 21 92 22 93 23 16 25 17 26
REMARK SMILES IDX 18 27 19 28 20 29 21 31 22 32 23 33 87 34 24 35 86 36 25 37
REMARK SMILES IDX 26 38 27 39 80 40 28 41 85 42 79 43 81 44 29 45 84 46 78 47
REMARK SMILES IDX 77 48 30 50 64 51 43 52 63 53 44 54 47 55 62 56 82 57 45 58
REMARK SMILES IDX 46 59 61 61 83 62 48 63 31 64 32 65 41 66 33 67 34 68 40 69
REMARK SMILES IDX 42 70 35 71 36 72 37 73 38 74 39 75 65 76 66 77 75 78 67 79
REMARK SMILES IDX 68 80 74 81 76 82 69 83 70 84 71 85 72 86 73 87 49 88 50 89
REMARK SMILES IDX 59 90 51 91 52 92 58 93 60 94 53 95 54 96 55 97 56 98 57 99
REMARK H PARENT 14 5 4 17 91 24 19 30 81 49 47 60
REMARK Flexibility Score: inf
ROOT
ATOM      1  C   UNL     1       7.408   1.716  -2.077  1.00  0.00     0.116 C 
ENDROOT
BRANCH   1   2
ATOM      2  N   UNL     1       7.327   3.003  -1.417  1.00  0.00    -0.352 N 
ATOM      3  C   UNL     1       6.534   3.521  -0.428  1.00  0.00     0.251 C 
ATOM      4  O   UNL     1       6.784   4.677  -0.078  1.00  0.00    -0.269 OA
ATOM      5  H   UNL     1       7.990   3.648  -1.754  1.00  0.00     0.163 HD
BRANCH   3   6
ATOM      6  C   UNL     1       5.397   2.812   0.242  1.00  0.00     0.042 A 
ATOM      7  C   UNL     1       3.153   1.717   1.575  1.00  0.00     0.118 A 
ATOM      8  C   UNL     1       3.615   2.989   1.917  1.00  0.00     0.026 A 
ATOM      9  C   UNL     1       3.827   0.992   0.608  1.00  0.00     0.144 A 
ATOM     10  C   UNL     1       4.733   3.520   1.264  1.00  0.00     0.015 A 
ATOM     11  C   UNL     1       4.921   1.539  -0.070  1.00  0.00     0.054 A 
ATOM     12  F   UNL     1       3.458  -0.248   0.264  1.00  0.00    -0.205 F 
BRANCH   7  13
ATOM     13  S   UNL     1       1.662   1.149   2.319  1.00  0.00     0.243 S 
ATOM     14  O   UNL     1       0.693   2.221   2.216  1.00  0.00    -0.207 OA
ATOM     15  O   UNL     1       2.019   0.584   3.599  1.00  0.00    -0.207 OA
BRANCH  13  16
ATOM     16  N   UNL     1       1.083  -0.121   1.403  1.00  0.00    -0.205 NA
ATOM     17  H   UNL     1       1.861  -0.768   1.273  1.00  0.00     0.141 HD
BRANCH  16  18
ATOM     18  C   UNL     1       0.512   0.127   0.072  1.00  0.00     0.163 C 
BRANCH  18  19
ATOM     19  C   UNL     1       0.109  -1.189  -0.665  1.00  0.00     0.195 C 
ATOM     20  C   UNL     1       1.013  -2.385  -0.319  1.00  0.00     0.076 C 
BRANCH  19  21
ATOM     21  N   UNL     1      -1.345  -1.466  -0.570  1.00  0.00    -0.337 N 
ATOM     22  C   UNL     1      -1.775  -2.535  -1.471  1.00  0.00     0.332 C 
ATOM     23  C   UNL     1      -1.840  -1.701   0.782  1.00  0.00     0.332 C 
ATOM     24  H   UNL     1      -1.775  -0.593  -0.876  1.00  0.00     0.347 HD
ENDBRANCH  19  21
ENDBRANCH  18  19
ENDBRANCH  16  18
ENDBRANCH  13  16
ENDBRANCH   7  13
ENDBRANCH   3   6
ENDBRANCH   1   2
BRANCH   1  25
ATOM     25  C   UNL     1       6.431   1.614  -3.252  1.00  0.00     0.023 C 
BRANCH  25  26
ATOM     26  C   UNL     1       6.945   2.243  -4.554  1.00  0.00     0.023 C 
BRANCH  26  27
ATOM     27  C   UNL     1       8.152   1.538  -5.170  1.00  0.00     0.116 C 
BRANCH  27  28
ATOM     28  N   UNL     1       7.893   0.149  -5.518  1.00  0.00    -0.352 N 
ATOM     29  C   UNL     1       8.633  -0.656  -6.354  1.00  0.00     0.251 C 
ATOM     30  H   UNL     1       7.098  -0.262  -5.108  1.00  0.00     0.163 HD
ATOM     31  O   UNL     1       8.240  -1.778  -6.651  1.00  0.00    -0.269 OA
BRANCH  29  32
ATOM     32  C   UNL     1       9.882  -0.119  -6.932  1.00  0.00     0.039 A 
ATOM     33  C   UNL     1      10.018  -0.074  -8.322  1.00  0.00     0.014 A 
ATOM     34  C   UNL     1      10.880   0.396  -6.102  1.00  0.00     0.014 A 
ATOM     35  C   UNL     1      11.125   0.565  -8.884  1.00  0.00     0.010 A 
ATOM     36  C   UNL     1      11.957   1.074  -6.664  1.00  0.00     0.010 A 
ATOM     37  C   UNL     1      12.080   1.179  -8.059  1.00  0.00    -0.014 A 
BRANCH  37  38
ATOM     38  C   UNL     1      13.212   1.957  -8.620  1.00  0.00     0.031 A 
ATOM     39  C   UNL     1      14.619   1.473  -8.423  1.00  0.00     0.074 A 
ATOM     40  C   UNL     1      12.978   3.142  -9.217  1.00  0.00     0.049 A 
ATOM     41  N   UNL     1      15.745   2.088  -8.672  1.00  0.00    -0.248 NA
ATOM     42  C   UNL     1      14.780   0.129  -7.845  1.00  0.00     0.031 C 
ATOM     43  C   UNL     1      11.656   3.728  -9.449  1.00  0.00     0.029 A 
ATOM     44  N   UNL     1      13.847   4.076  -9.723  1.00  0.00    -0.354 N 
ATOM     45  C   UNL     1      16.748   1.221  -8.257  1.00  0.00     0.074 A 
ATOM     46  C   UNL     1      16.097   0.047  -7.717  1.00  0.00     0.031 C 
ATOM     47  C   UNL     1      11.802   4.914 -10.062  1.00  0.00     0.029 A 
ATOM     48  C   UNL     1      13.225   5.193 -10.228  1.00  0.00     0.049 A 
ATOM     49  H   UNL     1      14.825   3.957  -9.724  1.00  0.00     0.167 HD
ATOM     50  C   UNL     1      18.089   1.387  -8.330  1.00  0.00     0.037 A 
ATOM     51  C   UNL     1      13.743   6.322 -10.750  1.00  0.00     0.037 A 
ATOM     52  C   UNL     1      18.730   2.541  -8.901  1.00  0.00     0.049 A 
ATOM     53  C   UNL     1      15.235   6.481 -10.829  1.00  0.00     0.074 A 
ATOM     54  C   UNL     1      20.084   2.787  -9.050  1.00  0.00     0.029 A 
ATOM     55  N   UNL     1      18.063   3.636  -9.429  1.00  0.00    -0.354 N 
ATOM     56  N   UNL     1      16.170   5.651 -10.434  1.00  0.00    -0.248 NA
ATOM     57  C   UNL     1      15.746   7.729 -11.414  1.00  0.00     0.031 C 
ATOM     58  C   UNL     1      20.236   4.039  -9.653  1.00  0.00     0.029 A 
ATOM     59  C   UNL     1      18.976   4.561  -9.904  1.00  0.00     0.049 A 
ATOM     60  H   UNL     1      17.084   3.740  -9.462  1.00  0.00     0.167 HD
ATOM     61  C   UNL     1      17.378   6.265 -10.740  1.00  0.00     0.074 A 
ATOM     62  C   UNL     1      17.058   7.537 -11.355  1.00  0.00     0.031 C 
ATOM     63  C   UNL     1      18.638   5.814 -10.529  1.00  0.00     0.037 A 
BRANCH  50  64
ATOM     64  C   UNL     1      18.954   0.290  -7.783  1.00  0.00     0.058 A 
ATOM     65  C   UNL     1      19.647   0.462  -6.575  1.00  0.00     0.135 A 
ATOM     66  C   UNL     1      19.124  -0.920  -8.473  1.00  0.00     0.135 A 
ATOM     67  F   UNL     1      19.512   1.598  -5.872  1.00  0.00    -0.206 F 
ATOM     68  C   UNL     1      20.483  -0.528  -6.070  1.00  0.00     0.059 A 
ATOM     69  C   UNL     1      19.938  -1.933  -7.976  1.00  0.00     0.059 A 
ATOM     70  F   UNL     1      18.462  -1.141  -9.620  1.00  0.00    -0.206 F 
ATOM     71  C   UNL     1      20.622  -1.723  -6.779  1.00  0.00     0.060 A 
BRANCH  71  72
ATOM     72  S   UNL     1      21.661  -3.027  -6.085  1.00  0.00     0.124 S 
ATOM     73  O   UNL     1      23.000  -2.536  -6.386  1.00  0.00    -0.237 OA
ATOM     74  O   UNL     1      21.277  -3.013  -4.676  1.00  0.00    -0.237 OA
ATOM     75  O   UNL     1      21.242  -4.216  -6.824  1.00  0.00    -0.744 OA
ENDBRANCH  71  72
ENDBRANCH  50  64
BRANCH  51  76
ATOM     76  C   UNL     1      12.833   7.380 -11.258  1.00  0.00     0.058 A 
ATOM     77  C   UNL     1      12.101   8.198 -10.385  1.00  0.00     0.135 A 
ATOM     78  C   UNL     1      12.646   7.558 -12.636  1.00  0.00     0.135 A 
ATOM     79  F   UNL     1      12.239   8.059  -9.057  1.00  0.00    -0.206 F 
ATOM     80  C   UNL     1      11.196   9.141 -10.860  1.00  0.00     0.059 A 
ATOM     81  C   UNL     1      11.759   8.506 -13.137  1.00  0.00     0.059 A 
ATOM     82  F   UNL     1      13.334   6.805 -13.508  1.00  0.00    -0.206 F 
ATOM     83  C   UNL     1      11.025   9.281 -12.239  1.00  0.00     0.060 A 
BRANCH  83  84
ATOM     84  S   UNL     1       9.827  10.491 -12.841  1.00  0.00     0.124 S 
ATOM     85  O   UNL     1       8.565   9.830 -12.524  1.00  0.00    -0.237 OA
ATOM     86  O   UNL     1      10.147  11.667 -12.039  1.00  0.00    -0.237 OA
ATOM     87  O   UNL     1      10.142  10.598 -14.261  1.00  0.00    -0.744 OA
ENDBRANCH  83  84
ENDBRANCH  51  76
BRANCH  63  88
ATOM     88  C   UNL     1      19.777   6.676 -10.986  1.00  0.00     0.058 A 
ATOM     89  C   UNL     1      20.505   6.337 -12.136  1.00  0.00     0.135 A 
ATOM     90  C   UNL     1      20.221   7.763 -10.219  1.00  0.00     0.135 A 
ATOM     91  F   UNL     1      20.118   5.303 -12.901  1.00  0.00    -0.206 F 
ATOM     92  C   UNL     1      21.657   7.027 -12.495  1.00  0.00     0.059 A 
ATOM     93  C   UNL     1      21.362   8.479 -10.568  1.00  0.00     0.059 A 
ATOM     94  F   UNL     1      19.548   8.131  -9.117  1.00  0.00    -0.206 F 
ATOM     95  C   UNL     1      22.086   8.088 -11.695  1.00  0.00     0.060 A 
BRANCH  95  96
ATOM     96  S   UNL     1      23.604   8.952 -12.152  1.00  0.00     0.124 S 
ATOM     97  O   UNL     1      24.624   7.977 -11.781  1.00  0.00    -0.237 OA
ATOM     98  O   UNL     1      23.421   9.166 -13.584  1.00  0.00    -0.237 OA
ATOM     99  O   UNL     1      23.564  10.161 -11.335  1.00  0.00    -0.744 OA
ENDBRANCH  95  96
ENDBRANCH  63  88
ENDBRANCH  37  38
ENDBRANCH  29  32
ENDBRANCH  27  28
ENDBRANCH  26  27
ENDBRANCH  25  26
ENDBRANCH   1  25
TORSDOF 19
