REMARK SMILES CC1=Nc2nc(NC(=O)CCC(=O)NCCCCNC(=O)c3ccc(-c4c5nc(c(-c6c(F)cc(S(=O)(=O)[O-])cc6F)c6ccc([nH]6)c(-c6c(F)cc(S(=O)(=O)[O-])cc6F)c6nc(c(-c7c(F)cc(S(=O)(=O)[O-])cc7F)c7ccc4[nH]7)C=C6)C=C5)cc3)nn2[C@@H](c2ccc(Cl)cc2)C1
REMARK SMILES IDX 16 1 15 2 14 3 12 4 13 5 11 7 10 8 8 9 7 10 9 12 6 13 1 14
REMARK SMILES IDX 2 15 3 16 98 17 4 18 90 19 5 20 89 21 88 22 91 23 92 24
REMARK SMILES IDX 97 25 93 26 96 27 94 28 95 29 17 30 18 31 19 32 20 33 21 35
REMARK SMILES IDX 22 36 23 37 87 38 24 39 86 40 25 41 26 42 27 43 80 44 28 45
REMARK SMILES IDX 85 46 79 47 81 48 29 49 84 50 78 51 77 52 30 54 64 55 43 56
REMARK SMILES IDX 63 57 44 58 47 59 62 60 82 61 45 62 46 63 61 65 83 66 48 67
REMARK SMILES IDX 31 68 32 69 41 70 33 71 34 72 40 73 42 74 35 75 36 76 37 77
REMARK SMILES IDX 38 78 39 79 65 80 66 81 75 82 67 83 68 84 74 85 76 86 69 87
REMARK SMILES IDX 70 88 71 89 72 90 73 91 49 92 50 93 59 94 51 95 52 96 58 97
REMARK SMILES IDX 60 98 53 99 54 100 55 101 56 102 57 103
REMARK H PARENT 14 6 7 11 19 34 81 53 47 64
REMARK Flexibility Score: inf
ROOT
ATOM      1  C   UNL     1       2.828   7.774  -0.889  1.00  0.00     0.023 C 
ENDROOT
BRANCH   1   2
ATOM      2  C   UNL     1       1.575   7.880  -1.766  1.00  0.00     0.116 C 
BRANCH   2   3
ATOM      3  N   UNL     1       0.507   6.947  -1.463  1.00  0.00    -0.356 N 
ATOM      4  C   UNL     1      -0.787   7.212  -1.120  1.00  0.00     0.220 C 
ATOM      5  O   UNL     1      -1.645   6.364  -1.357  1.00  0.00    -0.275 OA
ATOM      6  H   UNL     1       0.748   5.993  -1.512  1.00  0.00     0.163 HD
BRANCH   4   7
ATOM      7  C   UNL     1      -1.168   8.489  -0.413  1.00  0.00     0.110 C 
BRANCH   7   8
ATOM      8  C   UNL     1      -1.114   8.350   1.106  1.00  0.00     0.110 C 
BRANCH   8   9
ATOM      9  C   UNL     1       0.297   8.238   1.621  1.00  0.00     0.227 C 
ATOM     10  N   UNL     1       0.913   7.045   1.799  1.00  0.00    -0.293 N 
ATOM     11  H   UNL     1       1.825   7.110   2.163  1.00  0.00     0.173 HD
ATOM     12  O   UNL     1       0.960   9.268   1.805  1.00  0.00    -0.275 OA
BRANCH  10  13
ATOM     13  C   UNL     1       0.494   5.770   1.563  1.00  0.00     0.250 A 
ATOM     14  C   UNL     1       1.155   0.300  -0.101  1.00  0.00     0.062 C 
ATOM     15  C   UNL     1       0.604   1.591   0.447  1.00  0.00     0.021 C 
ATOM     16  N   UNL     1       1.360   2.643   0.414  1.00  0.00    -0.221 NA
ATOM     17  C   UNL     1      -0.770   1.552   1.080  1.00  0.00     0.083 C 
ATOM     18  C   UNL     1       0.850   3.791   0.910  1.00  0.00     0.250 A 
ATOM     19  C   UNL     1      -1.463   2.919   1.122  1.00  0.00     0.147 C 
ATOM     20  N   UNL     1       1.485   4.867   1.311  1.00  0.00    -0.174 NA
ATOM     21  N   UNL     1      -0.496   4.011   1.075  1.00  0.00    -0.220 N 
ATOM     22  N   UNL     1      -0.741   5.270   1.514  1.00  0.00    -0.130 NA
BRANCH  19  23
ATOM     23  C   UNL     1      -2.607   2.995   0.125  1.00  0.00    -0.023 A 
ATOM     24  C   UNL     1      -2.505   3.591  -1.135  1.00  0.00     0.007 A 
ATOM     25  C   UNL     1      -3.841   2.416   0.483  1.00  0.00     0.007 A 
ATOM     26  C   UNL     1      -3.636   3.742  -1.949  1.00  0.00     0.021 A 
ATOM     27  C   UNL     1      -4.960   2.530  -0.344  1.00  0.00     0.021 A 
ATOM     28  C   UNL     1      -4.863   3.234  -1.538  1.00  0.00     0.041 A 
ATOM     29  Cl  UNL     1      -6.277   3.514  -2.473  1.00  0.00    -0.084 Cl
ENDBRANCH  19  23
ENDBRANCH  10  13
ENDBRANCH   8   9
ENDBRANCH   7   8
ENDBRANCH   4   7
ENDBRANCH   2   3
ENDBRANCH   1   2
BRANCH   1  30
ATOM     30  C   UNL     1       3.573   6.433  -0.863  1.00  0.00     0.023 C 
BRANCH  30  31
ATOM     31  C   UNL     1       4.267   6.095  -2.167  1.00  0.00     0.116 C 
BRANCH  31  32
ATOM     32  N   UNL     1       5.297   7.071  -2.554  1.00  0.00    -0.352 N 
ATOM     33  C   UNL     1       6.053   7.100  -3.725  1.00  0.00     0.251 C 
ATOM     34  H   UNL     1       5.474   7.792  -1.908  1.00  0.00     0.163 HD
ATOM     35  O   UNL     1       7.078   7.742  -3.815  1.00  0.00    -0.269 OA
BRANCH  33  36
ATOM     36  C   UNL     1       5.529   6.325  -4.864  1.00  0.00     0.039 A 
ATOM     37  C   UNL     1       6.297   5.421  -5.599  1.00  0.00     0.014 A 
ATOM     38  C   UNL     1       4.159   6.414  -5.037  1.00  0.00     0.014 A 
ATOM     39  C   UNL     1       5.630   4.527  -6.437  1.00  0.00     0.010 A 
ATOM     40  C   UNL     1       3.519   5.345  -5.584  1.00  0.00     0.010 A 
ATOM     41  C   UNL     1       4.226   4.474  -6.393  1.00  0.00    -0.014 A 
BRANCH  41  42
ATOM     42  C   UNL     1       3.440   3.487  -7.119  1.00  0.00     0.031 A 
ATOM     43  C   UNL     1       3.920   2.088  -6.982  1.00  0.00     0.074 A 
ATOM     44  C   UNL     1       2.258   3.798  -7.705  1.00  0.00     0.049 A 
ATOM     45  N   UNL     1       4.554   1.394  -7.867  1.00  0.00    -0.248 NA
ATOM     46  C   UNL     1       3.858   1.441  -5.661  1.00  0.00     0.031 C 
ATOM     47  C   UNL     1       1.499   5.061  -7.683  1.00  0.00     0.029 A 
ATOM     48  N   UNL     1       1.425   2.985  -8.403  1.00  0.00    -0.354 N 
ATOM     49  C   UNL     1       4.748   0.136  -7.306  1.00  0.00     0.074 A 
ATOM     50  C   UNL     1       4.492   0.289  -5.897  1.00  0.00     0.031 C 
ATOM     51  C   UNL     1       0.234   4.852  -8.107  1.00  0.00     0.029 A 
ATOM     52  C   UNL     1       0.156   3.508  -8.636  1.00  0.00     0.049 A 
ATOM     53  H   UNL     1       1.697   2.094  -8.720  1.00  0.00     0.167 HD
ATOM     54  C   UNL     1       4.868  -0.970  -8.093  1.00  0.00     0.037 A 
ATOM     55  C   UNL     1      -0.880   2.878  -9.244  1.00  0.00     0.037 A 
ATOM     56  C   UNL     1       5.074  -0.596  -9.472  1.00  0.00     0.049 A 
ATOM     57  C   UNL     1      -0.277   1.785 -10.055  1.00  0.00     0.074 A 
ATOM     58  C   UNL     1       6.050   0.113 -10.145  1.00  0.00     0.029 A 
ATOM     59  N   UNL     1       3.973  -0.596 -10.297  1.00  0.00    -0.354 N 
ATOM     60  N   UNL     1       0.521   2.002 -11.070  1.00  0.00    -0.248 NA
ATOM     61  C   UNL     1      -0.136   0.484  -9.419  1.00  0.00     0.031 C 
ATOM     62  C   UNL     1       5.335   0.914 -11.084  1.00  0.00     0.029 A 
ATOM     63  C   UNL     1       3.981   0.583 -10.999  1.00  0.00     0.049 A 
ATOM     64  H   UNL     1       3.301  -1.312 -10.370  1.00  0.00     0.167 HD
ATOM     65  C   UNL     1       1.531   1.057 -10.943  1.00  0.00     0.074 A 
ATOM     66  C   UNL     1       1.039   0.113  -9.937  1.00  0.00     0.031 C 
ATOM     67  C   UNL     1       2.786   1.279 -11.436  1.00  0.00     0.037 A 
BRANCH  54  68
ATOM     68  C   UNL     1       4.436  -2.363  -7.708  1.00  0.00     0.058 A 
ATOM     69  C   UNL     1       4.771  -3.444  -8.551  1.00  0.00     0.135 A 
ATOM     70  C   UNL     1       3.475  -2.643  -6.712  1.00  0.00     0.135 A 
ATOM     71  F   UNL     1       5.675  -3.292  -9.532  1.00  0.00    -0.206 F 
ATOM     72  C   UNL     1       4.138  -4.684  -8.464  1.00  0.00     0.059 A 
ATOM     73  C   UNL     1       2.870  -3.886  -6.574  1.00  0.00     0.059 A 
ATOM     74  F   UNL     1       3.005  -1.701  -5.886  1.00  0.00    -0.206 F 
ATOM     75  C   UNL     1       3.175  -4.888  -7.481  1.00  0.00     0.060 A 
BRANCH  75  76
ATOM     76  S   UNL     1       2.281  -6.450  -7.431  1.00  0.00     0.124 S 
ATOM     77  O   UNL     1       1.500  -6.378  -8.660  1.00  0.00    -0.237 OA
ATOM     78  O   UNL     1       3.370  -7.420  -7.419  1.00  0.00    -0.237 OA
ATOM     79  O   UNL     1       1.516  -6.359  -6.190  1.00  0.00    -0.744 OA
ENDBRANCH  75  76
ENDBRANCH  54  68
BRANCH  55  80
ATOM     80  C   UNL     1      -2.308   2.899  -8.823  1.00  0.00     0.058 A 
ATOM     81  C   UNL     1      -3.324   2.404  -9.658  1.00  0.00     0.135 A 
ATOM     82  C   UNL     1      -2.673   3.144  -7.481  1.00  0.00     0.135 A 
ATOM     83  F   UNL     1      -3.061   2.125 -10.944  1.00  0.00    -0.206 F 
ATOM     84  C   UNL     1      -4.612   2.121  -9.183  1.00  0.00     0.059 A 
ATOM     85  C   UNL     1      -3.950   2.874  -6.986  1.00  0.00     0.059 A 
ATOM     86  F   UNL     1      -1.767   3.568  -6.587  1.00  0.00    -0.206 F 
ATOM     87  C   UNL     1      -4.909   2.339  -7.838  1.00  0.00     0.060 A 
BRANCH  87  88
ATOM     88  S   UNL     1      -6.508   1.800  -7.181  1.00  0.00     0.124 S 
ATOM     89  O   UNL     1      -7.417   2.786  -7.755  1.00  0.00    -0.237 OA
ATOM     90  O   UNL     1      -6.621   0.445  -7.710  1.00  0.00    -0.237 OA
ATOM     91  O   UNL     1      -6.322   1.883  -5.735  1.00  0.00    -0.744 OA
ENDBRANCH  87  88
ENDBRANCH  55  80
BRANCH  67  92
ATOM     92  C   UNL     1       3.012   2.456 -12.356  1.00  0.00     0.058 A 
ATOM     93  C   UNL     1       2.961   3.805 -11.961  1.00  0.00     0.135 A 
ATOM     94  C   UNL     1       3.515   2.187 -13.637  1.00  0.00     0.135 A 
ATOM     95  F   UNL     1       2.575   4.147 -10.725  1.00  0.00    -0.206 F 
ATOM     96  C   UNL     1       3.384   4.838 -12.805  1.00  0.00     0.059 A 
ATOM     97  C   UNL     1       3.966   3.196 -14.484  1.00  0.00     0.059 A 
ATOM     98  F   UNL     1       3.643   0.916 -14.053  1.00  0.00    -0.206 F 
ATOM     99  C   UNL     1       3.895   4.521 -14.063  1.00  0.00     0.060 A 
BRANCH  99 100
ATOM    100  S   UNL     1       4.544   5.839 -15.117  1.00  0.00     0.124 S 
ATOM    101  O   UNL     1       3.327   6.538 -15.518  1.00  0.00    -0.237 OA
ATOM    102  O   UNL     1       5.424   6.569 -14.209  1.00  0.00    -0.237 OA
ATOM    103  O   UNL     1       5.228   5.116 -16.186  1.00  0.00    -0.744 OA
ENDBRANCH  99 100
ENDBRANCH  67  92
ENDBRANCH  41  42
ENDBRANCH  33  36
ENDBRANCH  31  32
ENDBRANCH  30  31
ENDBRANCH   1  30
TORSDOF 18
