REMARK SMILES O=C(NCCCCNC(=O)c1ccc(S(=O)(=O)NCC[NH+]2CCCC2)c(F)c1)c1ccc(-c2c3nc(c(-c4c(F)cc(S(=O)(=O)[O-])cc4F)c4ccc([nH]4)c(-c4c(F)cc(S(=O)(=O)[O-])cc4F)c4nc(c(-c5c(F)cc(S(=O)(=O)[O-])cc5F)c5ccc2[nH]5)C=C4)C=C3)cc1
REMARK SMILES IDX 6 1 5 2 4 3 3 4 1 5 2 6 29 8 30 9 94 10 31 11 93 12 32 13
REMARK SMILES IDX 33 14 34 15 87 16 35 17 92 18 86 19 88 20 36 21 91 22 85 23
REMARK SMILES IDX 84 24 37 26 71 27 50 28 70 29 51 30 54 31 69 32 89 33 52 34
REMARK SMILES IDX 53 35 68 37 90 38 55 39 38 40 39 41 48 42 40 43 41 44 47 45
REMARK SMILES IDX 49 46 42 47 43 48 44 49 45 50 46 51 72 52 73 53 82 54 74 55
REMARK SMILES IDX 75 56 81 57 83 58 76 59 77 60 78 61 79 62 80 63 56 64 57 65
REMARK SMILES IDX 66 66 58 67 59 68 65 69 67 70 60 71 61 72 62 73 63 74 64 75
REMARK SMILES IDX 7 76 8 77 9 78 10 80 11 81 12 82 28 83 13 84 26 85 14 86
REMARK SMILES IDX 27 87 15 88 16 89 17 90 18 91 19 93 20 94 21 95 22 96 25 97
REMARK SMILES IDX 23 99 24 100
REMARK H PARENT 3 7 88 25 54 36 8 79 18 92 21 98
REMARK Flexibility Score: inf
ROOT
ATOM      1  C   UNL     1       4.479   3.757   1.309  1.00  0.00     0.023 C 
ENDROOT
BRANCH   1   2
ATOM      2  C   UNL     1       4.963   2.727   0.289  1.00  0.00     0.023 C 
BRANCH   2   3
ATOM      3  C   UNL     1       4.611   1.277   0.597  1.00  0.00     0.116 C 
BRANCH   3   4
ATOM      4  N   UNL     1       3.179   1.036   0.618  1.00  0.00    -0.352 N 
ATOM      5  O   UNL     1       1.227   0.107  -0.005  1.00  0.00    -0.269 OA
ATOM      6  C   UNL     1       2.454   0.067  -0.034  1.00  0.00     0.251 C 
ATOM      7  H   UNL     1       2.654   1.653   1.178  1.00  0.00     0.163 HD
BRANCH   6   8
ATOM      8  C   UNL     1       3.146  -1.006  -0.786  1.00  0.00     0.039 A 
ATOM      9  C   UNL     1       4.236  -1.685  -0.234  1.00  0.00     0.014 A 
ATOM     10  C   UNL     1       2.670  -1.359  -2.052  1.00  0.00     0.014 A 
ATOM     11  C   UNL     1       4.909  -2.645  -0.987  1.00  0.00     0.010 A 
ATOM     12  C   UNL     1       3.309  -2.366  -2.783  1.00  0.00     0.010 A 
ATOM     13  C   UNL     1       4.442  -3.007  -2.260  1.00  0.00    -0.014 A 
BRANCH  13  14
ATOM     14  C   UNL     1       5.083  -4.134  -2.981  1.00  0.00     0.031 A 
ATOM     15  C   UNL     1       5.873  -3.911  -4.239  1.00  0.00     0.074 A 
ATOM     16  C   UNL     1       4.942  -5.376  -2.477  1.00  0.00     0.049 A 
ATOM     17  N   UNL     1       6.483  -4.793  -4.989  1.00  0.00    -0.248 NA
ATOM     18  C   UNL     1       5.997  -2.526  -4.722  1.00  0.00     0.031 C 
ATOM     19  C   UNL     1       4.179  -5.711  -1.271  1.00  0.00     0.029 A 
ATOM     20  N   UNL     1       5.433  -6.583  -2.904  1.00  0.00    -0.354 N 
ATOM     21  C   UNL     1       7.052  -4.079  -6.036  1.00  0.00     0.074 A 
ATOM     22  C   UNL     1       6.704  -2.688  -5.835  1.00  0.00     0.031 C 
ATOM     23  C   UNL     1       4.272  -7.029  -1.043  1.00  0.00     0.029 A 
ATOM     24  C   UNL     1       5.057  -7.641  -2.109  1.00  0.00     0.049 A 
ATOM     25  H   UNL     1       5.999  -6.683  -3.703  1.00  0.00     0.167 HD
ATOM     26  C   UNL     1       7.801  -4.546  -7.061  1.00  0.00     0.037 A 
ATOM     27  C   UNL     1       5.295  -8.960  -2.235  1.00  0.00     0.037 A 
ATOM     28  C   UNL     1       8.165  -5.929  -7.236  1.00  0.00     0.049 A 
ATOM     29  C   UNL     1       6.102  -9.451  -3.399  1.00  0.00     0.074 A 
ATOM     30  C   UNL     1       8.986  -6.484  -8.204  1.00  0.00     0.029 A 
ATOM     31  N   UNL     1       7.729  -6.974  -6.436  1.00  0.00    -0.354 N 
ATOM     32  N   UNL     1       6.669  -8.753  -4.353  1.00  0.00    -0.248 NA
ATOM     33  C   UNL     1       6.289 -10.903  -3.517  1.00  0.00     0.031 C 
ATOM     34  C   UNL     1       9.014  -7.869  -8.012  1.00  0.00     0.029 A 
ATOM     35  C   UNL     1       8.236  -8.173  -6.908  1.00  0.00     0.049 A 
ATOM     36  H   UNL     1       7.145  -6.877  -5.649  1.00  0.00     0.167 HD
ATOM     37  C   UNL     1       7.271  -9.681  -5.192  1.00  0.00     0.074 A 
ATOM     38  C   UNL     1       7.023 -10.989  -4.620  1.00  0.00     0.031 C 
ATOM     39  C   UNL     1       7.960  -9.467  -6.338  1.00  0.00     0.037 A 
BRANCH  26  40
ATOM     40  C   UNL     1       8.300  -3.571  -8.088  1.00  0.00     0.058 A 
ATOM     41  C   UNL     1       7.729  -3.533  -9.369  1.00  0.00     0.135 A 
ATOM     42  C   UNL     1       9.426  -2.770  -7.845  1.00  0.00     0.135 A 
ATOM     43  F   UNL     1       6.646  -4.275  -9.648  1.00  0.00    -0.206 F 
ATOM     44  C   UNL     1       8.274  -2.755 -10.386  1.00  0.00     0.059 A 
ATOM     45  C   UNL     1       9.982  -1.974  -8.844  1.00  0.00     0.059 A 
ATOM     46  F   UNL     1       9.998  -2.759  -6.631  1.00  0.00    -0.206 F 
ATOM     47  C   UNL     1       9.410  -1.989 -10.117  1.00  0.00     0.060 A 
BRANCH  47  48
ATOM     48  S   UNL     1      10.120  -1.000 -11.451  1.00  0.00     0.124 S 
ATOM     49  O   UNL     1      10.701  -2.025 -12.309  1.00  0.00    -0.237 OA
ATOM     50  O   UNL     1       8.945  -0.314 -11.983  1.00  0.00    -0.237 OA
ATOM     51  O   UNL     1      11.076  -0.139 -10.760  1.00  0.00    -0.744 OA
ENDBRANCH  47  48
ENDBRANCH  26  40
BRANCH  27  52
ATOM     52  C   UNL     1       4.726  -9.901  -1.239  1.00  0.00     0.058 A 
ATOM     53  C   UNL     1       3.347 -10.161  -1.202  1.00  0.00     0.135 A 
ATOM     54  C   UNL     1       5.538 -10.519  -0.279  1.00  0.00     0.135 A 
ATOM     55  F   UNL     1       2.529  -9.585  -2.096  1.00  0.00    -0.206 F 
ATOM     56  C   UNL     1       2.788 -10.979  -0.229  1.00  0.00     0.059 A 
ATOM     57  C   UNL     1       5.004 -11.359   0.693  1.00  0.00     0.059 A 
ATOM     58  F   UNL     1       6.863 -10.307  -0.285  1.00  0.00    -0.206 F 
ATOM     59  C   UNL     1       3.624 -11.567   0.721  1.00  0.00     0.060 A 
BRANCH  59  60
ATOM     60  S   UNL     1       2.886 -12.622   1.987  1.00  0.00     0.124 S 
ATOM     61  O   UNL     1       2.340 -11.629   2.907  1.00  0.00    -0.237 OA
ATOM     62  O   UNL     1       1.905 -13.387   1.223  1.00  0.00    -0.237 OA
ATOM     63  O   UNL     1       4.022 -13.389   2.486  1.00  0.00    -0.744 OA
ENDBRANCH  59  60
ENDBRANCH  27  52
BRANCH  39  64
ATOM     64  C   UNL     1       8.473 -10.671  -7.071  1.00  0.00     0.058 A 
ATOM     65  C   UNL     1       9.834 -11.008  -7.035  1.00  0.00     0.135 A 
ATOM     66  C   UNL     1       7.619 -11.443  -7.872  1.00  0.00     0.135 A 
ATOM     67  F   UNL     1      10.688 -10.298  -6.282  1.00  0.00    -0.206 F 
ATOM     68  C   UNL     1      10.337 -12.061  -7.791  1.00  0.00     0.059 A 
ATOM     69  C   UNL     1       8.098 -12.512  -8.623  1.00  0.00     0.059 A 
ATOM     70  F   UNL     1       6.307 -11.165  -7.924  1.00  0.00    -0.206 F 
ATOM     71  C   UNL     1       9.463 -12.801  -8.589  1.00  0.00     0.060 A 
BRANCH  71  72
ATOM     72  S   UNL     1      10.130 -14.163  -9.568  1.00  0.00     0.124 S 
ATOM     73  O   UNL     1      10.824 -13.451 -10.635  1.00  0.00    -0.237 OA
ATOM     74  O   UNL     1      10.984 -14.850  -8.603  1.00  0.00    -0.237 OA
ATOM     75  O   UNL     1       8.939 -14.903  -9.975  1.00  0.00    -0.744 OA
ENDBRANCH  71  72
ENDBRANCH  39  64
ENDBRANCH  13  14
ENDBRANCH   6   8
ENDBRANCH   3   4
ENDBRANCH   2   3
ENDBRANCH   1   2
BRANCH   1  76
ATOM     76  C   UNL     1       4.837   3.475   2.767  1.00  0.00     0.116 C 
BRANCH  76  77
ATOM     77  N   UNL     1       6.264   3.300   2.990  1.00  0.00    -0.352 N 
ATOM     78  C   UNL     1       7.106   3.901   3.892  1.00  0.00     0.251 C 
ATOM     79  H   UNL     1       6.697   2.644   2.396  1.00  0.00     0.163 HD
ATOM     80  O   UNL     1       8.313   3.681   3.852  1.00  0.00    -0.269 OA
BRANCH  78  81
ATOM     81  C   UNL     1       6.584   4.860   4.887  1.00  0.00     0.042 A 
ATOM     82  C   UNL     1       5.446   4.583   5.650  1.00  0.00     0.015 A 
ATOM     83  C   UNL     1       7.261   6.072   5.053  1.00  0.00     0.054 A 
ATOM     84  C   UNL     1       4.898   5.582   6.454  1.00  0.00     0.026 A 
ATOM     85  C   UNL     1       6.731   7.052   5.889  1.00  0.00     0.144 A 
ATOM     86  C   UNL     1       5.525   6.835   6.540  1.00  0.00     0.118 A 
ATOM     87  F   UNL     1       7.401   8.206   5.995  1.00  0.00    -0.205 F 
BRANCH  86  88
ATOM     88  S   UNL     1       4.619   8.122   7.335  1.00  0.00     0.243 S 
ATOM     89  O   UNL     1       3.284   8.083   6.780  1.00  0.00    -0.207 OA
ATOM     90  O   UNL     1       4.844   7.971   8.757  1.00  0.00    -0.207 OA
BRANCH  88  91
ATOM     91  N   UNL     1       5.303   9.583   6.904  1.00  0.00    -0.205 NA
ATOM     92  H   UNL     1       6.292   9.523   7.147  1.00  0.00     0.141 HD
BRANCH  91  93
ATOM     93  C   UNL     1       5.243  10.072   5.520  1.00  0.00     0.160 C 
BRANCH  93  94
ATOM     94  C   UNL     1       3.919  10.760   5.152  1.00  0.00     0.278 C 
BRANCH  94  95
ATOM     95  N   UNL     1       3.334  11.674   6.153  1.00  0.00    -0.334 N 
ATOM     96  C   UNL     1       2.138  12.329   5.587  1.00  0.00     0.262 C 
ATOM     97  C   UNL     1       4.203  12.782   6.562  1.00  0.00     0.262 C 
ATOM     98  H   UNL     1       3.149  11.076   6.959  1.00  0.00     0.348 HD
ATOM     99  C   UNL     1       2.673  13.548   4.853  1.00  0.00     0.067 C 
ATOM    100  C   UNL     1       3.861  13.984   5.691  1.00  0.00     0.067 C 
ENDBRANCH  94  95
ENDBRANCH  93  94
ENDBRANCH  91  93
ENDBRANCH  88  91
ENDBRANCH  86  88
ENDBRANCH  78  81
ENDBRANCH  76  77
ENDBRANCH   1  76
TORSDOF 19
