REMARK SMILES C[C@@]1(CN2C(=O)c3ccc(C(=O)NCCCCNC(=O)c4ccc(-c5c6nc(c(-c7c(F)cc(S(=O)(=O)[O-])cc7F)c7ccc([nH]7)c(-c7c(F)cc(S(=O)(=O)[O-])cc7F)c7nc(c(-c8c(F)cc(S(=O)(=O)[O-])cc8F)c8ccc5[nH]8)C=C7)C=C6)cc4)cc3C2=O)CCCO1
REMARK SMILES IDX 16 1 15 2 14 3 13 4 11 5 12 6 10 8 4 9 5 10 89 11 6 12 7 13
REMARK SMILES IDX 88 14 90 15 8 16 87 17 9 18 3 19 2 20 1 21 91 22 94 23 92 24
REMARK SMILES IDX 93 25 17 26 18 27 19 28 20 30 21 31 22 32 86 33 23 34 85 35
REMARK SMILES IDX 24 36 25 37 26 38 79 39 27 40 84 41 78 42 80 43 28 44 83 45
REMARK SMILES IDX 77 46 76 47 29 49 63 50 42 51 62 52 43 53 46 54 61 55 81 56
REMARK SMILES IDX 44 57 45 58 60 60 82 61 47 62 30 63 31 64 40 65 32 66 33 67
REMARK SMILES IDX 39 68 41 69 34 70 35 71 36 72 37 73 38 74 64 75 65 76 74 77
REMARK SMILES IDX 66 78 67 79 73 80 75 81 68 82 69 83 70 84 71 85 72 86 48 87
REMARK SMILES IDX 49 88 58 89 50 90 51 91 57 92 59 93 52 94 53 95 54 96 55 97
REMARK SMILES IDX 56 98
REMARK H PARENT 13 7 18 29 80 48 46 59
REMARK Flexibility Score: inf
ROOT
ATOM      1  C   UNL     1      -2.425   9.034   5.401  1.00  0.00     0.023 C 
ENDROOT
BRANCH   1   2
ATOM      2  C   UNL     1      -1.810   7.915   4.557  1.00  0.00     0.023 C 
BRANCH   2   3
ATOM      3  C   UNL     1      -0.779   7.059   5.300  1.00  0.00     0.116 C 
BRANCH   3   4
ATOM      4  N   UNL     1      -1.434   6.035   6.087  1.00  0.00    -0.352 N 
ATOM      5  C   UNL     1      -1.742   4.724   5.834  1.00  0.00     0.251 C 
ATOM      6  O   UNL     1      -2.281   4.085   6.739  1.00  0.00    -0.269 OA
ATOM      7  H   UNL     1      -1.712   6.341   6.981  1.00  0.00     0.163 HD
BRANCH   5   8
ATOM      8  C   UNL     1      -1.449   4.022   4.547  1.00  0.00     0.040 A 
ATOM      9  N   UNL     1      -0.918   0.377   1.772  1.00  0.00    -0.271 N 
ATOM     10  C   UNL     1      -0.863   1.597   1.165  1.00  0.00     0.261 C 
ATOM     11  C   UNL     1      -1.175   0.489   3.116  1.00  0.00     0.261 C 
ATOM     12  O   UNL     1      -0.759   1.871  -0.018  1.00  0.00    -0.269 OA
ATOM     13  C   UNL     1      -1.004   2.590   2.217  1.00  0.00     0.053 A 
ATOM     14  C   UNL     1      -1.207   1.926   3.409  1.00  0.00     0.054 A 
ATOM     15  O   UNL     1      -1.401  -0.380   3.932  1.00  0.00    -0.269 OA
ATOM     16  C   UNL     1      -1.010   3.962   2.128  1.00  0.00     0.015 A 
ATOM     17  C   UNL     1      -1.432   2.611   4.589  1.00  0.00     0.028 A 
ATOM     18  C   UNL     1      -1.258   4.673   3.306  1.00  0.00     0.015 A 
BRANCH   9  19
ATOM     19  C   UNL     1      -0.809  -0.881   1.055  1.00  0.00     0.164 C 
BRANCH  19  20
ATOM     20  C   UNL     1       0.652  -1.308   0.743  1.00  0.00     0.084 C 
ATOM     21  C   UNL     1       1.420  -0.279  -0.087  1.00  0.00     0.044 C 
ATOM     22  C   UNL     1       0.670  -2.674   0.048  1.00  0.00     0.039 C 
ATOM     23  O   UNL     1       1.362  -1.500   1.986  1.00  0.00    -0.373 OA
ATOM     24  C   UNL     1       0.692  -3.640   1.206  1.00  0.00     0.031 C 
ATOM     25  C   UNL     1       1.534  -2.902   2.224  1.00  0.00     0.161 C 
ENDBRANCH  19  20
ENDBRANCH   9  19
ENDBRANCH   5   8
ENDBRANCH   3   4
ENDBRANCH   2   3
ENDBRANCH   1   2
BRANCH   1  26
ATOM     26  C   UNL     1      -1.428  10.062   5.922  1.00  0.00     0.116 C 
BRANCH  26  27
ATOM     27  N   UNL     1      -0.635  10.676   4.869  1.00  0.00    -0.352 N 
ATOM     28  C   UNL     1      -0.103  11.941   4.828  1.00  0.00     0.251 C 
ATOM     29  H   UNL     1      -0.457  10.111   4.082  1.00  0.00     0.163 HD
ATOM     30  O   UNL     1       0.437  12.345   3.803  1.00  0.00    -0.269 OA
BRANCH  28  31
ATOM     31  C   UNL     1      -0.222  12.817   6.012  1.00  0.00     0.039 A 
ATOM     32  C   UNL     1      -0.640  14.136   5.831  1.00  0.00     0.014 A 
ATOM     33  C   UNL     1       0.056  12.334   7.294  1.00  0.00     0.014 A 
ATOM     34  C   UNL     1      -0.824  14.956   6.944  1.00  0.00     0.010 A 
ATOM     35  C   UNL     1      -0.211  13.126   8.405  1.00  0.00     0.010 A 
ATOM     36  C   UNL     1      -0.640  14.450   8.242  1.00  0.00    -0.014 A 
BRANCH  36  37
ATOM     37  C   UNL     1      -0.884  15.306   9.431  1.00  0.00     0.031 A 
ATOM     38  C   UNL     1       0.246  15.647  10.365  1.00  0.00     0.074 A 
ATOM     39  C   UNL     1      -2.131  15.752   9.681  1.00  0.00     0.049 A 
ATOM     40  N   UNL     1       0.231  16.393  11.440  1.00  0.00    -0.248 NA
ATOM     41  C   UNL     1       1.560  15.052  10.071  1.00  0.00     0.031 C 
ATOM     42  C   UNL     1      -3.318  15.434   8.883  1.00  0.00     0.029 A 
ATOM     43  N   UNL     1      -2.609  16.570  10.672  1.00  0.00    -0.354 N 
ATOM     44  C   UNL     1       1.523  16.353  11.949  1.00  0.00     0.074 A 
ATOM     45  C   UNL     1       2.281  15.456  11.106  1.00  0.00     0.031 C 
ATOM     46  C   UNL     1      -4.377  16.082   9.392  1.00  0.00     0.029 A 
ATOM     47  C   UNL     1      -3.955  16.832  10.571  1.00  0.00     0.049 A 
ATOM     48  H   UNL     1      -2.042  16.935  11.389  1.00  0.00     0.167 HD
ATOM     49  C   UNL     1       2.040  17.027  13.004  1.00  0.00     0.037 A 
ATOM     50  C   UNL     1      -4.758  17.596  11.337  1.00  0.00     0.037 A 
ATOM     51  C   UNL     1       1.280  17.933  13.826  1.00  0.00     0.049 A 
ATOM     52  C   UNL     1      -4.159  18.344  12.498  1.00  0.00     0.074 A 
ATOM     53  C   UNL     1       1.718  18.704  14.889  1.00  0.00     0.029 A 
ATOM     54  N   UNL     1      -0.077  18.186  13.682  1.00  0.00    -0.354 N 
ATOM     55  N   UNL     1      -2.917  18.352  12.922  1.00  0.00    -0.248 NA
ATOM     56  C   UNL     1      -5.065  19.200  13.274  1.00  0.00     0.031 C 
ATOM     57  C   UNL     1       0.616  19.384  15.418  1.00  0.00     0.029 A 
ATOM     58  C   UNL     1      -0.496  19.088  14.646  1.00  0.00     0.049 A 
ATOM     59  H   UNL     1      -0.656  17.784  12.995  1.00  0.00     0.167 HD
ATOM     60  C   UNL     1      -2.886  19.240  13.992  1.00  0.00     0.074 A 
ATOM     61  C   UNL     1      -4.231  19.757  14.140  1.00  0.00     0.031 C 
ATOM     62  C   UNL     1      -1.839  19.599  14.776  1.00  0.00     0.037 A 
BRANCH  49  63
ATOM     63  C   UNL     1       3.496  16.816  13.325  1.00  0.00     0.058 A 
ATOM     64  C   UNL     1       4.515  17.275  12.473  1.00  0.00     0.135 A 
ATOM     65  C   UNL     1       3.881  16.175  14.514  1.00  0.00     0.135 A 
ATOM     66  F   UNL     1       4.208  17.879  11.314  1.00  0.00    -0.206 F 
ATOM     67  C   UNL     1       5.859  17.081  12.774  1.00  0.00     0.059 A 
ATOM     68  C   UNL     1       5.220  15.999  14.851  1.00  0.00     0.059 A 
ATOM     69  F   UNL     1       2.950  15.714  15.365  1.00  0.00    -0.206 F 
ATOM     70  C   UNL     1       6.202  16.442  13.967  1.00  0.00     0.060 A 
BRANCH  70  71
ATOM     71  S   UNL     1       7.951  16.207  14.345  1.00  0.00     0.124 S 
ATOM     72  O   UNL     1       8.321  15.175  13.381  1.00  0.00    -0.237 OA
ATOM     73  O   UNL     1       8.505  17.534  14.095  1.00  0.00    -0.237 OA
ATOM     74  O   UNL     1       7.944  15.785  15.742  1.00  0.00    -0.744 OA
ENDBRANCH  70  71
ENDBRANCH  49  63
BRANCH  50  75
ATOM     75  C   UNL     1      -6.204  17.720  11.008  1.00  0.00     0.058 A 
ATOM     76  C   UNL     1      -6.737  18.926  10.527  1.00  0.00     0.135 A 
ATOM     77  C   UNL     1      -7.079  16.633  11.155  1.00  0.00     0.135 A 
ATOM     78  F   UNL     1      -5.942  19.996  10.371  1.00  0.00    -0.206 F 
ATOM     79  C   UNL     1      -8.089  19.057  10.225  1.00  0.00     0.059 A 
ATOM     80  C   UNL     1      -8.429  16.731  10.831  1.00  0.00     0.059 A 
ATOM     81  F   UNL     1      -6.617  15.451  11.592  1.00  0.00    -0.206 F 
ATOM     82  C   UNL     1      -8.927  17.951  10.378  1.00  0.00     0.060 A 
BRANCH  82  83
ATOM     83  S   UNL     1     -10.671  18.119   9.941  1.00  0.00     0.124 S 
ATOM     84  O   UNL     1     -11.167  18.954  11.028  1.00  0.00    -0.237 OA
ATOM     85  O   UNL     1     -10.597  18.756   8.629  1.00  0.00    -0.237 OA
ATOM     86  O   UNL     1     -11.149  16.740   9.933  1.00  0.00    -0.744 OA
ENDBRANCH  82  83
ENDBRANCH  50  75
BRANCH  62  87
ATOM     87  C   UNL     1      -2.093  20.640  15.834  1.00  0.00     0.058 A 
ATOM     88  C   UNL     1      -2.869  20.372  16.972  1.00  0.00     0.135 A 
ATOM     89  C   UNL     1      -1.523  21.918  15.716  1.00  0.00     0.135 A 
ATOM     90  F   UNL     1      -3.440  19.167  17.134  1.00  0.00    -0.206 F 
ATOM     91  C   UNL     1      -3.106  21.347  17.936  1.00  0.00     0.059 A 
ATOM     92  C   UNL     1      -1.718  22.898  16.684  1.00  0.00     0.059 A 
ATOM     93  F   UNL     1      -0.759  22.224  14.655  1.00  0.00    -0.206 F 
ATOM     94  C   UNL     1      -2.527  22.608  17.782  1.00  0.00     0.060 A 
BRANCH  94  95
ATOM     95  S   UNL     1      -2.836  23.863  19.042  1.00  0.00     0.124 S 
ATOM     96  O   UNL     1      -4.222  24.223  18.764  1.00  0.00    -0.237 OA
ATOM     97  O   UNL     1      -2.608  23.125  20.280  1.00  0.00    -0.237 OA
ATOM     98  O   UNL     1      -1.848  24.895  18.743  1.00  0.00    -0.744 OA
ENDBRANCH  94  95
ENDBRANCH  62  87
ENDBRANCH  36  37
ENDBRANCH  28  31
ENDBRANCH  26  27
ENDBRANCH   1  26
TORSDOF 16
