REMARK SMILES O=C(NCCCCNC(=O)[C@@H]1CC=CC[C@H]1C(=O)N1CC[NH+](Cc2ccc3c(c2)OCO3)CC1)c1ccc(-c2c3nc(c(-c4c(F)cc(S(=O)(=O)[O-])cc4F)c4ccc([nH]4)c(-c4c(F)cc(S(=O)(=O)[O-])cc4F)c4nc(c(-c5c(F)cc(S(=O)(=O)[O-])cc5F)c5ccc2[nH]5)C=C4)C=C3)cc1
REMARK SMILES IDX 5 1 4 2 3 3 1 4 2 5 35 7 36 8 100 9 37 10 99 11 38 12 39 13
REMARK SMILES IDX 40 14 93 15 41 16 98 17 92 18 94 19 42 20 97 21 91 22 90 23
REMARK SMILES IDX 43 25 77 26 56 27 76 28 57 29 60 30 75 31 95 32 58 33 59 34
REMARK SMILES IDX 74 36 96 37 61 38 44 39 45 40 54 41 46 42 47 43 53 44 55 45
REMARK SMILES IDX 48 46 49 47 50 48 51 49 52 50 78 51 79 52 88 53 80 54 81 55
REMARK SMILES IDX 87 56 89 57 82 58 83 59 84 60 85 61 86 62 62 63 63 64 72 65
REMARK SMILES IDX 64 66 65 67 71 68 73 69 66 70 67 71 68 72 69 73 70 74 6 75
REMARK SMILES IDX 7 76 8 77 9 78 10 80 11 81 12 82 16 83 13 84 15 85 14 86
REMARK SMILES IDX 17 87 18 88 19 89 20 90 34 91 21 92 33 93 22 94 23 96 24 97
REMARK SMILES IDX 25 98 29 99 26 100 28 101 27 102 30 103 32 104 31 105
REMARK H PARENT 3 6 94 24 60 35 8 79 22 95
REMARK Flexibility Score: inf
ROOT
ATOM      1  C   UNL     1       9.475  -6.960  -0.014  1.00  0.00     0.023 C 
ENDROOT
BRANCH   1   2
ATOM      2  C   UNL     1      10.882  -7.540  -0.220  1.00  0.00     0.116 C 
BRANCH   2   3
ATOM      3  N   UNL     1      11.922  -6.535  -0.408  1.00  0.00    -0.352 N 
ATOM      4  O   UNL     1      14.041  -5.750  -0.510  1.00  0.00    -0.269 OA
ATOM      5  C   UNL     1      13.292  -6.720  -0.428  1.00  0.00     0.251 C 
ATOM      6  H   UNL     1      11.610  -5.610  -0.536  1.00  0.00     0.163 HD
BRANCH   5   7
ATOM      7  C   UNL     1      13.850  -8.086  -0.278  1.00  0.00     0.039 A 
ATOM      8  C   UNL     1      13.426  -9.124  -1.105  1.00  0.00     0.014 A 
ATOM      9  C   UNL     1      14.756  -8.349   0.752  1.00  0.00     0.014 A 
ATOM     10  C   UNL     1      13.733 -10.445  -0.787  1.00  0.00     0.010 A 
ATOM     11  C   UNL     1      15.116  -9.672   1.036  1.00  0.00     0.010 A 
ATOM     12  C   UNL     1      14.537 -10.737   0.323  1.00  0.00    -0.014 A 
BRANCH  12  13
ATOM     13  C   UNL     1      14.613 -12.136   0.832  1.00  0.00     0.031 A 
ATOM     14  C   UNL     1      13.997 -12.464   2.173  1.00  0.00     0.074 A 
ATOM     15  C   UNL     1      15.146 -13.126   0.089  1.00  0.00     0.049 A 
ATOM     16  N   UNL     1      14.003 -13.591   2.839  1.00  0.00    -0.248 NA
ATOM     17  C   UNL     1      13.286 -11.372   2.860  1.00  0.00     0.031 C 
ATOM     18  C   UNL     1      15.730 -12.966  -1.243  1.00  0.00     0.029 A 
ATOM     19  N   UNL     1      15.265 -14.470   0.345  1.00  0.00    -0.354 N 
ATOM     20  C   UNL     1      13.356 -13.326   4.043  1.00  0.00     0.074 A 
ATOM     21  C   UNL     1      12.975 -11.932   4.019  1.00  0.00     0.031 C 
ATOM     22  C   UNL     1      16.112 -14.170  -1.702  1.00  0.00     0.029 A 
ATOM     23  C   UNL     1      15.850 -15.179  -0.678  1.00  0.00     0.049 A 
ATOM     24  H   UNL     1      14.960 -14.887   1.183  1.00  0.00     0.167 HD
ATOM     25  C   UNL     1      13.096 -14.166   5.073  1.00  0.00     0.037 A 
ATOM     26  C   UNL     1      16.152 -16.489  -0.774  1.00  0.00     0.037 A 
ATOM     27  C   UNL     1      13.409 -15.570   5.071  1.00  0.00     0.049 A 
ATOM     28  C   UNL     1      15.836 -17.410   0.375  1.00  0.00     0.074 A 
ATOM     29  C   UNL     1      13.171 -16.508   6.061  1.00  0.00     0.029 A 
ATOM     30  N   UNL     1      14.008 -16.244   4.018  1.00  0.00    -0.354 N 
ATOM     31  N   UNL     1      15.266 -17.131   1.523  1.00  0.00    -0.248 NA
ATOM     32  C   UNL     1      16.212 -18.822   0.218  1.00  0.00     0.031 C 
ATOM     33  C   UNL     1      13.645 -17.747   5.613  1.00  0.00     0.029 A 
ATOM     34  C   UNL     1      14.146 -17.585   4.332  1.00  0.00     0.049 A 
ATOM     35  H   UNL     1      14.292 -15.830   3.171  1.00  0.00     0.167 HD
ATOM     36  C   UNL     1      15.197 -18.336   2.215  1.00  0.00     0.074 A 
ATOM     37  C   UNL     1      15.771 -19.347   1.353  1.00  0.00     0.031 C 
ATOM     38  C   UNL     1      14.705 -18.582   3.455  1.00  0.00     0.037 A 
BRANCH  25  39
ATOM     39  C   UNL     1      12.466 -13.577   6.305  1.00  0.00     0.058 A 
ATOM     40  C   UNL     1      11.118 -13.187   6.341  1.00  0.00     0.135 A 
ATOM     41  C   UNL     1      13.228 -13.408   7.473  1.00  0.00     0.135 A 
ATOM     42  F   UNL     1      10.351 -13.306   5.245  1.00  0.00    -0.206 F 
ATOM     43  C   UNL     1      10.556 -12.619   7.480  1.00  0.00     0.059 A 
ATOM     44  C   UNL     1      12.680 -12.865   8.632  1.00  0.00     0.059 A 
ATOM     45  F   UNL     1      14.522 -13.764   7.493  1.00  0.00    -0.206 F 
ATOM     46  C   UNL     1      11.348 -12.456   8.618  1.00  0.00     0.060 A 
BRANCH  46  47
ATOM     47  S   UNL     1      10.614 -11.700  10.085  1.00  0.00     0.124 S 
ATOM     48  O   UNL     1      10.598 -10.290   9.705  1.00  0.00    -0.237 OA
ATOM     49  O   UNL     1       9.309 -12.351  10.155  1.00  0.00    -0.237 OA
ATOM     50  O   UNL     1      11.546 -12.053  11.151  1.00  0.00    -0.744 OA
ENDBRANCH  46  47
ENDBRANCH  25  39
BRANCH  26  51
ATOM     51  C   UNL     1      16.793 -17.015  -2.010  1.00  0.00     0.058 A 
ATOM     52  C   UNL     1      16.087 -17.844  -2.893  1.00  0.00     0.135 A 
ATOM     53  C   UNL     1      18.121 -16.695  -2.333  1.00  0.00     0.135 A 
ATOM     54  F   UNL     1      14.819 -18.188  -2.620  1.00  0.00    -0.206 F 
ATOM     55  C   UNL     1      16.675 -18.345  -4.050  1.00  0.00     0.059 A 
ATOM     56  C   UNL     1      18.723 -17.164  -3.496  1.00  0.00     0.059 A 
ATOM     57  F   UNL     1      18.836 -15.898  -1.524  1.00  0.00    -0.206 F 
ATOM     58  C   UNL     1      17.994 -17.996  -4.344  1.00  0.00     0.060 A 
BRANCH  58  59
ATOM     59  S   UNL     1      18.733 -18.599  -5.878  1.00  0.00     0.124 S 
ATOM     60  O   UNL     1      19.049 -19.979  -5.528  1.00  0.00    -0.237 OA
ATOM     61  O   UNL     1      17.649 -18.416  -6.838  1.00  0.00    -0.237 OA
ATOM     62  O   UNL     1      19.880 -17.715  -6.065  1.00  0.00    -0.744 OA
ENDBRANCH  58  59
ENDBRANCH  26  51
BRANCH  38  63
ATOM     63  C   UNL     1      14.727 -20.005   3.936  1.00  0.00     0.058 A 
ATOM     64  C   UNL     1      15.913 -20.621   4.362  1.00  0.00     0.135 A 
ATOM     65  C   UNL     1      13.537 -20.747   4.006  1.00  0.00     0.135 A 
ATOM     66  F   UNL     1      17.076 -19.954   4.312  1.00  0.00    -0.206 F 
ATOM     67  C   UNL     1      15.924 -21.936   4.817  1.00  0.00     0.059 A 
ATOM     68  C   UNL     1      13.522 -22.056   4.476  1.00  0.00     0.059 A 
ATOM     69  F   UNL     1      12.374 -20.198   3.621  1.00  0.00    -0.206 F 
ATOM     70  C   UNL     1      14.723 -22.647   4.866  1.00  0.00     0.060 A 
BRANCH  70  71
ATOM     71  S   UNL     1      14.742 -24.348   5.473  1.00  0.00     0.124 S 
ATOM     72  O   UNL     1      15.253 -25.067   4.311  1.00  0.00    -0.237 OA
ATOM     73  O   UNL     1      15.647 -24.266   6.616  1.00  0.00    -0.237 OA
ATOM     74  O   UNL     1      13.344 -24.603   5.807  1.00  0.00    -0.744 OA
ENDBRANCH  70  71
ENDBRANCH  38  63
ENDBRANCH  12  13
ENDBRANCH   5   7
ENDBRANCH   2   3
ENDBRANCH   1   2
BRANCH   1  75
ATOM     75  C   UNL     1       8.872  -6.208  -1.215  1.00  0.00     0.023 C 
BRANCH  75  76
ATOM     76  C   UNL     1       8.581  -7.087  -2.436  1.00  0.00     0.116 C 
BRANCH  76  77
ATOM     77  N   UNL     1       7.181  -7.393  -2.648  1.00  0.00    -0.356 N 
ATOM     78  C   UNL     1       6.299  -6.850  -3.535  1.00  0.00     0.224 C 
ATOM     79  H   UNL     1       6.813  -8.097  -2.066  1.00  0.00     0.163 HD
ATOM     80  O   UNL     1       5.364  -7.568  -3.898  1.00  0.00    -0.275 OA
BRANCH  78  81
ATOM     81  C   UNL     1       6.403  -5.379  -3.973  1.00  0.00     0.095 C 
ATOM     82  C   UNL     1       4.980  -4.793  -3.723  1.00  0.00     0.041 C 
ATOM     83  C   UNL     1       6.801  -5.246  -5.457  1.00  0.00     0.095 C 
ATOM     84  C   UNL     1       4.604  -3.578  -4.510  1.00  0.00    -0.030 C 
ATOM     85  C   UNL     1       6.447  -3.902  -6.139  1.00  0.00     0.041 C 
ATOM     86  C   UNL     1       5.256  -3.186  -5.606  1.00  0.00    -0.030 C 
BRANCH  83  87
ATOM     87  C   UNL     1       8.262  -5.536  -5.808  1.00  0.00     0.227 C 
ATOM     88  O   UNL     1       8.544  -6.588  -6.386  1.00  0.00    -0.275 OA
ATOM     89  N   UNL     1       9.213  -4.526  -5.628  1.00  0.00    -0.331 N 
ATOM     90  C   UNL     1      10.310  -4.516  -6.597  1.00  0.00     0.181 C 
ATOM     91  C   UNL     1       9.463  -3.944  -4.309  1.00  0.00     0.181 C 
ATOM     92  C   UNL     1      11.337  -3.382  -6.425  1.00  0.00     0.284 C 
ATOM     93  C   UNL     1      10.591  -2.905  -4.205  1.00  0.00     0.284 C 
ATOM     94  N   UNL     1      11.765  -3.131  -5.046  1.00  0.00    -0.328 N 
ATOM     95  H   UNL     1      12.308  -2.267  -5.052  1.00  0.00     0.348 HD
BRANCH  94  96
ATOM     96  C   UNL     1      12.802  -4.025  -4.501  1.00  0.00     0.299 C 
BRANCH  96  97
ATOM     97  C   UNL     1      12.705  -5.505  -4.808  1.00  0.00     0.010 A 
ATOM     98  C   UNL     1      13.303  -6.031  -5.982  1.00  0.00     0.013 A 
ATOM     99  C   UNL     1      11.988  -6.368  -3.970  1.00  0.00     0.060 A 
ATOM    100  C   UNL     1      13.133  -7.372  -6.347  1.00  0.00     0.051 A 
ATOM    101  C   UNL     1      11.828  -7.683  -4.361  1.00  0.00     0.166 A 
ATOM    102  C   UNL     1      12.381  -8.171  -5.518  1.00  0.00     0.165 A 
ATOM    103  O   UNL     1      11.119  -8.630  -3.691  1.00  0.00    -0.454 OA
ATOM    104  O   UNL     1      12.095  -9.484  -5.720  1.00  0.00    -0.454 OA
ATOM    105  C   UNL     1      11.310  -9.777  -4.548  1.00  0.00     0.468 C 
ENDBRANCH  96  97
ENDBRANCH  94  96
ENDBRANCH  83  87
ENDBRANCH  78  81
ENDBRANCH  76  77
ENDBRANCH  75  76
ENDBRANCH   1  75
TORSDOF 17
