REMARK SMILES Cc1nc(-c2ccc(C(F)(F)F)cc2)nc(SCC(=O)NCCCCNC(=O)c2ccc(-c3c4nc(c(-c5c(F)cc(S(=O)(=O)[O-])cc5F)c5ccc([nH]5)c(-c5c(F)cc(S(=O)(=O)[O-])cc5F)c5nc(c(-c6c(F)cc(S(=O)(=O)[O-])cc6F)c6ccc3[nH]6)C=C5)C=C4)cc2)c1C
REMARK SMILES IDX 23 1 22 2 21 3 19 4 20 5 18 7 17 8 16 9 1 10 2 11 3 12 95 13
REMARK SMILES IDX 4 14 96 15 15 16 5 17 6 18 14 19 7 20 13 21 8 22 9 23 10 24
REMARK SMILES IDX 11 25 12 26 24 27 25 28 26 29 27 30 28 32 29 33 30 34 94 35
REMARK SMILES IDX 31 36 93 37 32 38 33 39 34 40 87 41 35 42 92 43 86 44 88 45
REMARK SMILES IDX 36 46 91 47 85 48 84 49 37 51 71 52 50 53 70 54 51 55 54 56
REMARK SMILES IDX 69 57 89 58 52 59 53 60 68 62 90 63 55 64 38 65 39 66 48 67
REMARK SMILES IDX 40 68 41 69 47 70 49 71 42 72 43 73 44 74 45 75 46 76 72 77
REMARK SMILES IDX 73 78 82 79 74 80 75 81 81 82 83 83 76 84 77 85 78 86 79 87
REMARK SMILES IDX 80 88 56 89 57 90 66 91 58 92 59 93 65 94 67 95 60 96 61 97
REMARK SMILES IDX 62 98 63 99 64 100
REMARK H PARENT 21 6 26 31 88 50 54 61
REMARK Flexibility Score: inf
ROOT
ATOM      1  C   UNL     1      -1.403   6.319   1.292  1.00  0.00     0.023 C 
ENDROOT
BRANCH   1   2
ATOM      2  C   UNL     1      -0.029   6.641   1.875  1.00  0.00     0.116 C 
BRANCH   2   3
ATOM      3  N   UNL     1       0.585   5.489   2.502  1.00  0.00    -0.355 N 
ATOM      4  C   UNL     1       1.685   4.781   2.135  1.00  0.00     0.230 C 
ATOM      5  O   UNL     1       2.109   3.945   2.938  1.00  0.00    -0.274 OA
ATOM      6  H   UNL     1       0.137   5.169   3.318  1.00  0.00     0.163 HD
BRANCH   4   7
ATOM      7  C   UNL     1       2.451   5.085   0.868  1.00  0.00     0.176 C 
BRANCH   7   8
ATOM      8  S   UNL     1       1.557   4.926  -0.697  1.00  0.00    -0.096 SA
BRANCH   8   9
ATOM      9  C   UNL     1       0.931   3.279  -0.965  1.00  0.00     0.104 A 
ATOM     10  C   UNL     1       0.665  -0.426  -0.266  1.00  0.00     0.067 C 
ATOM     11  C   UNL     1       0.499   0.958  -0.830  1.00  0.00     0.045 A 
ATOM     12  N   UNL     1      -0.381   1.033  -1.844  1.00  0.00    -0.233 NA
ATOM     13  C   UNL     1       1.217   2.063  -0.348  1.00  0.00     0.003 A 
ATOM     14  C   UNL     1      -0.550   2.228  -2.410  1.00  0.00     0.160 A 
ATOM     15  C   UNL     1       2.161   1.857   0.789  1.00  0.00     0.049 C 
ATOM     16  N   UNL     1       0.074   3.343  -2.017  1.00  0.00    -0.221 NA
BRANCH  14  17
ATOM     17  C   UNL     1      -1.453   2.290  -3.564  1.00  0.00     0.019 A 
ATOM     18  C   UNL     1      -2.724   1.692  -3.513  1.00  0.00     0.012 A 
ATOM     19  C   UNL     1      -1.063   2.898  -4.769  1.00  0.00     0.012 A 
ATOM     20  C   UNL     1      -3.571   1.687  -4.626  1.00  0.00     0.014 A 
ATOM     21  C   UNL     1      -1.900   2.880  -5.892  1.00  0.00     0.014 A 
ATOM     22  C   UNL     1      -3.160   2.266  -5.834  1.00  0.00     0.056 A 
BRANCH  22  23
ATOM     23  C   UNL     1      -4.067   2.216  -7.038  1.00  0.00     0.416 C 
ATOM     24  F   UNL     1      -4.465   0.949  -7.342  1.00  0.00    -0.166 F 
ATOM     25  F   UNL     1      -5.210   2.936  -6.867  1.00  0.00    -0.166 F 
ATOM     26  F   UNL     1      -3.490   2.701  -8.175  1.00  0.00    -0.166 F 
ENDBRANCH  22  23
ENDBRANCH  14  17
ENDBRANCH   8   9
ENDBRANCH   7   8
ENDBRANCH   4   7
ENDBRANCH   2   3
ENDBRANCH   1   2
BRANCH   1  27
ATOM     27  C   UNL     1      -2.430   5.784   2.295  1.00  0.00     0.023 C 
BRANCH  27  28
ATOM     28  C   UNL     1      -2.606   6.602   3.570  1.00  0.00     0.116 C 
BRANCH  28  29
ATOM     29  N   UNL     1      -2.957   7.989   3.316  1.00  0.00    -0.352 N 
ATOM     30  C   UNL     1      -3.988   8.739   3.831  1.00  0.00     0.251 C 
ATOM     31  H   UNL     1      -2.370   8.461   2.682  1.00  0.00     0.163 HD
ATOM     32  O   UNL     1      -4.187   9.871   3.412  1.00  0.00    -0.269 OA
BRANCH  30  33
ATOM     33  C   UNL     1      -4.875   8.159   4.864  1.00  0.00     0.039 A 
ATOM     34  C   UNL     1      -6.257   8.264   4.692  1.00  0.00     0.014 A 
ATOM     35  C   UNL     1      -4.351   7.511   5.986  1.00  0.00     0.014 A 
ATOM     36  C   UNL     1      -7.115   7.659   5.612  1.00  0.00     0.010 A 
ATOM     37  C   UNL     1      -5.207   6.854   6.868  1.00  0.00     0.010 A 
ATOM     38  C   UNL     1      -6.597   6.921   6.690  1.00  0.00    -0.014 A 
BRANCH  38  39
ATOM     39  C   UNL     1      -7.503   6.234   7.646  1.00  0.00     0.031 A 
ATOM     40  C   UNL     1      -7.579   6.699   9.074  1.00  0.00     0.074 A 
ATOM     41  C   UNL     1      -8.243   5.185   7.232  1.00  0.00     0.049 A 
ATOM     42  N   UNL     1      -8.284   6.213  10.062  1.00  0.00    -0.248 NA
ATOM     43  C   UNL     1      -6.742   7.852   9.447  1.00  0.00     0.031 C 
ATOM     44  C   UNL     1      -8.237   4.625   5.878  1.00  0.00     0.029 A 
ATOM     45  N   UNL     1      -9.151   4.407   7.906  1.00  0.00    -0.354 N 
ATOM     46  C   UNL     1      -7.985   7.002  11.166  1.00  0.00     0.074 A 
ATOM     47  C   UNL     1      -6.987   7.960  10.745  1.00  0.00     0.031 C 
ATOM     48  C   UNL     1      -9.128   3.620   5.812  1.00  0.00     0.029 A 
ATOM     49  C   UNL     1      -9.744   3.443   7.123  1.00  0.00     0.049 A 
ATOM     50  H   UNL     1      -9.359   4.528   8.860  1.00  0.00     0.167 HD
ATOM     51  C   UNL     1      -8.521   6.958  12.408  1.00  0.00     0.037 A 
ATOM     52  C   UNL     1     -10.681   2.524   7.430  1.00  0.00     0.037 A 
ATOM     53  C   UNL     1      -9.536   6.026  12.818  1.00  0.00     0.049 A 
ATOM     54  C   UNL     1     -11.225   2.469   8.833  1.00  0.00     0.074 A 
ATOM     55  C   UNL     1     -10.158   5.919  14.050  1.00  0.00     0.029 A 
ATOM     56  N   UNL     1     -10.090   5.050  12.003  1.00  0.00    -0.354 N 
ATOM     57  N   UNL     1     -10.948   3.244   9.855  1.00  0.00    -0.248 NA
ATOM     58  C   UNL     1     -12.205   1.413   9.128  1.00  0.00     0.031 C 
ATOM     59  C   UNL     1     -11.070   4.862  13.988  1.00  0.00     0.029 A 
ATOM     60  C   UNL     1     -11.039   4.331  12.709  1.00  0.00     0.049 A 
ATOM     61  H   UNL     1      -9.845   4.892  11.063  1.00  0.00     0.167 HD
ATOM     62  C   UNL     1     -11.738   2.784  10.903  1.00  0.00     0.074 A 
ATOM     63  C   UNL     1     -12.511   1.673  10.392  1.00  0.00     0.031 C 
ATOM     64  C   UNL     1     -11.812   3.240  12.177  1.00  0.00     0.037 A 
BRANCH  51  65
ATOM     65  C   UNL     1      -8.056   7.976  13.409  1.00  0.00     0.058 A 
ATOM     66  C   UNL     1      -8.477   9.312  13.326  1.00  0.00     0.135 A 
ATOM     67  C   UNL     1      -7.258   7.603  14.502  1.00  0.00     0.135 A 
ATOM     68  F   UNL     1      -9.225   9.722  12.290  1.00  0.00    -0.206 F 
ATOM     69  C   UNL     1      -8.120  10.246  14.292  1.00  0.00     0.059 A 
ATOM     70  C   UNL     1      -6.907   8.516  15.492  1.00  0.00     0.059 A 
ATOM     71  F   UNL     1      -6.826   6.338  14.623  1.00  0.00    -0.206 F 
ATOM     72  C   UNL     1      -7.342   9.836  15.376  1.00  0.00     0.060 A 
BRANCH  72  73
ATOM     73  S   UNL     1      -6.931  11.054  16.643  1.00  0.00     0.124 S 
ATOM     74  O   UNL     1      -5.983  11.907  15.931  1.00  0.00    -0.237 OA
ATOM     75  O   UNL     1      -8.230  11.653  16.931  1.00  0.00    -0.237 OA
ATOM     76  O   UNL     1      -6.362  10.248  17.719  1.00  0.00    -0.744 OA
ENDBRANCH  72  73
ENDBRANCH  51  65
BRANCH  52  77
ATOM     77  C   UNL     1     -11.193   1.588   6.394  1.00  0.00     0.058 A 
ATOM     78  C   UNL     1     -12.507   1.701   5.916  1.00  0.00     0.135 A 
ATOM     79  C   UNL     1     -10.401   0.545   5.890  1.00  0.00     0.135 A 
ATOM     80  F   UNL     1     -13.305   2.679   6.372  1.00  0.00    -0.206 F 
ATOM     81  C   UNL     1     -13.031   0.794   5.000  1.00  0.00     0.059 A 
ATOM     82  C   UNL     1     -10.895  -0.361   4.957  1.00  0.00     0.059 A 
ATOM     83  F   UNL     1      -9.132   0.403   6.304  1.00  0.00    -0.206 F 
ATOM     84  C   UNL     1     -12.218  -0.239   4.532  1.00  0.00     0.060 A 
BRANCH  84  85
ATOM     85  S   UNL     1     -12.906  -1.413   3.344  1.00  0.00     0.124 S 
ATOM     86  O   UNL     1     -13.779  -2.212   4.196  1.00  0.00    -0.237 OA
ATOM     87  O   UNL     1     -13.575  -0.531   2.393  1.00  0.00    -0.237 OA
ATOM     88  O   UNL     1     -11.725  -2.098   2.828  1.00  0.00    -0.744 OA
ENDBRANCH  84  85
ENDBRANCH  52  77
BRANCH  64  89
ATOM     89  C   UNL     1     -12.773   2.558  13.107  1.00  0.00     0.058 A 
ATOM     90  C   UNL     1     -12.477   1.308  13.670  1.00  0.00     0.135 A 
ATOM     91  C   UNL     1     -13.953   3.202  13.512  1.00  0.00     0.135 A 
ATOM     92  F   UNL     1     -11.364   0.650  13.308  1.00  0.00    -0.206 F 
ATOM     93  C   UNL     1     -13.320   0.716  14.604  1.00  0.00     0.059 A 
ATOM     94  C   UNL     1     -14.800   2.639  14.461  1.00  0.00     0.059 A 
ATOM     95  F   UNL     1     -14.274   4.403  13.007  1.00  0.00    -0.206 F 
ATOM     96  C   UNL     1     -14.476   1.394  14.999  1.00  0.00     0.060 A 
BRANCH  96  97
ATOM     97  S   UNL     1     -15.522   0.646  16.266  1.00  0.00     0.124 S 
ATOM     98  O   UNL     1     -16.150  -0.443  15.524  1.00  0.00    -0.237 OA
ATOM     99  O   UNL     1     -14.548   0.244  17.277  1.00  0.00    -0.237 OA
ATOM    100  O   UNL     1     -16.412   1.734  16.659  1.00  0.00    -0.744 OA
ENDBRANCH  96  97
ENDBRANCH  64  89
ENDBRANCH  38  39
ENDBRANCH  30  33
ENDBRANCH  28  29
ENDBRANCH  27  28
ENDBRANCH   1  27
TORSDOF 18
