REMARK SMILES CCCc1cc(S(F)(F)(F)(F)F)cc2c1O[C@@H](C(F)(F)F)C(C(=O)NCCCCNC(=O)c1ccc(-c3c4nc(c(-c5c(F)cc(S(=O)(=O)[O-])cc5F)c5ccc([nH]5)c(-c5c(F)cc(S(=O)(=O)[O-])cc5F)c5nc(c(-c6c(F)cc(S(=O)(=O)[O-])cc6F)c6ccc3[nH]6)C=C5)C=C4)cc1)=C2
REMARK SMILES IDX 28 1 27 2 26 3 25 4 23 5 24 6 22 8 4 9 5 10 15 11 6 12 14 13
REMARK SMILES IDX 16 14 13 15 99 16 17 17 3 18 2 19 1 20 7 21 8 22 9 23 10 24
REMARK SMILES IDX 11 25 12 26 18 27 19 28 20 29 21 30 29 31 30 32 31 33 32 35
REMARK SMILES IDX 33 36 34 37 98 38 35 39 97 40 36 41 37 42 38 43 91 44 39 45
REMARK SMILES IDX 96 46 90 47 92 48 40 49 95 50 89 51 88 52 41 54 75 55 54 56
REMARK SMILES IDX 74 57 55 58 58 59 73 60 93 61 56 62 57 63 72 65 94 66 59 67
REMARK SMILES IDX 42 68 43 69 52 70 44 71 45 72 51 73 53 74 46 75 47 76 48 77
REMARK SMILES IDX 49 78 50 79 76 80 77 81 86 82 78 83 79 84 85 85 87 86 80 87
REMARK SMILES IDX 81 88 82 89 83 90 84 91 60 92 61 93 70 94 62 95 63 96 69 97
REMARK SMILES IDX 71 98 64 99 65 100 66 101 67 102 68 103
REMARK H PARENT 25 7 30 34 92 53 58 64
REMARK Flexibility Score: inf
ROOT
ATOM      1  C   UNL     1      -1.882  -7.439   8.037  1.00  0.00     0.023 C 
ENDROOT
BRANCH   1   2
ATOM      2  C   UNL     1      -1.789  -6.245   7.100  1.00  0.00     0.023 C 
BRANCH   2   3
ATOM      3  C   UNL     1      -0.454  -6.273   6.374  1.00  0.00     0.116 C 
BRANCH   3   4
ATOM      4  N   UNL     1      -0.346  -7.515   5.596  1.00  0.00    -0.352 N 
ATOM      5  C   UNL     1      -0.176  -7.457   4.137  1.00  0.00     0.251 C 
ATOM      6  O   UNL     1      -0.082  -8.531   3.465  1.00  0.00    -0.270 OA
ATOM      7  H   UNL     1      -0.387  -8.387   6.052  1.00  0.00     0.163 HD
BRANCH   5   8
ATOM      8  C   UNL     1      -0.112  -6.111   3.433  1.00  0.00     0.067 C 
ATOM      9  C   UNL     1       0.570  -2.472   1.498  1.00  0.00    -0.004 A 
ATOM     10  C   UNL     1       0.285  -1.283   2.144  1.00  0.00     0.032 A 
ATOM     11  C   UNL     1       0.387  -3.652   2.177  1.00  0.00     0.131 A 
ATOM     12  C   UNL     1      -0.168  -1.275   3.438  1.00  0.00     0.108 A 
ATOM     13  C   UNL     1      -0.086  -3.684   3.477  1.00  0.00     0.019 A 
ATOM     14  O   UNL     1       0.780  -4.816   1.564  1.00  0.00    -0.475 OA
ATOM     15  C   UNL     1      -0.359  -2.470   4.098  1.00  0.00     0.036 A 
ATOM     16  C   UNL     1      -0.209  -4.980   4.121  1.00  0.00     0.025 C 
ATOM     17  C   UNL     1       0.063  -6.031   1.922  1.00  0.00     0.314 C 
BRANCH   9  18
ATOM     18  C   UNL     1       1.077  -2.473   0.065  1.00  0.00     0.039 C 
BRANCH  18  19
ATOM     19  C   UNL     1       0.570  -1.233  -0.652  1.00  0.00     0.001 C 
ATOM     20  C   UNL     1       1.077   0.009   0.064  1.00  0.00     0.004 C 
ENDBRANCH  18  19
ENDBRANCH   9  18
BRANCH  12  21
ATOM     21  S   UNL     1      -0.512   0.294   4.273  1.00  0.00     0.310 S 
ATOM     22  F   UNL     1       0.854   0.079   5.050  1.00  0.00    -0.094 F 
ATOM     23  F   UNL     1      -1.228  -0.442   5.468  1.00  0.00    -0.094 F 
ATOM     24  F   UNL     1      -0.641   1.661   5.002  1.00  0.00    -0.094 F 
ATOM     25  F   UNL     1       0.330   0.989   3.132  1.00  0.00    -0.094 F 
ATOM     26  F   UNL     1      -0.275  -1.105   3.575  1.00  0.00    -0.094 F 
ENDBRANCH  12  21
BRANCH  17  27
ATOM     27  C   UNL     1       0.862  -7.236   1.451  1.00  0.00     0.429 C 
ATOM     28  F   UNL     1       0.211  -8.351   1.772  1.00  0.00    -0.167 F 
ATOM     29  F   UNL     1       1.016  -7.176   0.132  1.00  0.00    -0.167 F 
ATOM     30  F   UNL     1       2.055  -7.234   2.038  1.00  0.00    -0.167 F 
ENDBRANCH  17  27
ENDBRANCH   5   8
ENDBRANCH   3   4
ENDBRANCH   2   3
ENDBRANCH   1   2
BRANCH   1  31
ATOM     31  C   UNL     1      -0.752  -7.375   9.051  1.00  0.00     0.116 C 
BRANCH  31  32
ATOM     32  N   UNL     1      -0.861  -6.133   9.829  1.00  0.00    -0.352 N 
ATOM     33  C   UNL     1      -1.031  -6.192  11.288  1.00  0.00     0.251 C 
ATOM     34  H   UNL     1      -0.820  -5.261   9.373  1.00  0.00     0.163 HD
ATOM     35  O   UNL     1      -1.125  -5.117  11.961  1.00  0.00    -0.269 OA
BRANCH  33  36
ATOM     36  C   UNL     1      -1.094  -7.537  11.992  1.00  0.00     0.039 A 
ATOM     37  C   UNL     1      -2.062  -7.712  12.967  1.00  0.00     0.014 A 
ATOM     38  C   UNL     1      -0.234  -8.504  11.694  1.00  0.00     0.014 A 
ATOM     39  C   UNL     1      -1.857  -8.852  13.781  1.00  0.00     0.010 A 
ATOM     40  C   UNL     1      -0.181  -9.650  12.450  1.00  0.00     0.010 A 
ATOM     41  C   UNL     1      -1.069  -9.864  13.467  1.00  0.00    -0.014 A 
BRANCH  41  42
ATOM     42  C   UNL     1      -1.146 -11.194  14.198  1.00  0.00     0.031 A 
ATOM     43  C   UNL     1      -0.003 -11.644  14.862  1.00  0.00     0.074 A 
ATOM     44  C   UNL     1      -2.360 -11.858  14.212  1.00  0.00     0.049 A 
ATOM     45  N   UNL     1       0.119 -12.729  15.628  1.00  0.00    -0.248 NA
ATOM     46  C   UNL     1       1.298 -10.959  14.820  1.00  0.00     0.031 C 
ATOM     47  C   UNL     1      -3.520 -11.407  13.552  1.00  0.00     0.029 A 
ATOM     48  N   UNL     1      -2.669 -13.042  14.845  1.00  0.00    -0.354 N 
ATOM     49  C   UNL     1       1.362 -12.818  16.107  1.00  0.00     0.074 A 
ATOM     50  C   UNL     1       2.139 -11.684  15.589  1.00  0.00     0.031 C 
ATOM     51  C   UNL     1      -4.510 -12.311  13.774  1.00  0.00     0.029 A 
ATOM     52  C   UNL     1      -3.986 -13.342  14.576  1.00  0.00     0.049 A 
ATOM     53  H   UNL     1      -2.055 -13.581  15.393  1.00  0.00     0.167 HD
ATOM     54  C   UNL     1       1.877 -13.799  16.956  1.00  0.00     0.037 A 
ATOM     55  C   UNL     1      -4.707 -14.448  14.997  1.00  0.00     0.037 A 
ATOM     56  C   UNL     1       1.143 -14.882  17.412  1.00  0.00     0.049 A 
ATOM     57  C   UNL     1      -4.176 -15.461  15.800  1.00  0.00     0.074 A 
ATOM     58  C   UNL     1       1.644 -15.876  18.274  1.00  0.00     0.029 A 
ATOM     59  N   UNL     1      -0.167 -15.195  17.124  1.00  0.00    -0.354 N 
ATOM     60  N   UNL     1      -2.946 -15.529  16.310  1.00  0.00    -0.248 NA
ATOM     61  C   UNL     1      -4.921 -16.653  16.225  1.00  0.00     0.031 C 
ATOM     62  C   UNL     1       0.653 -16.781  18.496  1.00  0.00     0.029 A 
ATOM     63  C   UNL     1      -0.483 -16.367  17.775  1.00  0.00     0.049 A 
ATOM     64  H   UNL     1      -0.773 -14.672  16.551  1.00  0.00     0.167 HD
ATOM     65  C   UNL     1      -2.812 -16.636  17.042  1.00  0.00     0.074 A 
ATOM     66  C   UNL     1      -4.079 -17.380  16.992  1.00  0.00     0.031 C 
ATOM     67  C   UNL     1      -1.686 -17.055  17.754  1.00  0.00     0.037 A 
BRANCH  54  68
ATOM     68  C   UNL     1       3.323 -13.671  17.406  1.00  0.00     0.058 A 
ATOM     69  C   UNL     1       3.718 -12.549  18.114  1.00  0.00     0.135 A 
ATOM     70  C   UNL     1       4.184 -14.638  17.111  1.00  0.00     0.135 A 
ATOM     71  F   UNL     1       2.856 -11.687  18.647  1.00  0.00    -0.206 F 
ATOM     72  C   UNL     1       5.121 -12.402  18.220  1.00  0.00     0.059 A 
ATOM     73  C   UNL     1       5.525 -14.482  17.366  1.00  0.00     0.059 A 
ATOM     74  F   UNL     1       3.744 -15.768  16.564  1.00  0.00    -0.206 F 
ATOM     75  C   UNL     1       5.994 -13.371  18.010  1.00  0.00     0.060 A 
BRANCH  75  76
ATOM     76  S   UNL     1       7.717 -13.235  18.547  1.00  0.00     0.124 S 
ATOM     77  O   UNL     1       8.370 -12.031  17.866  1.00  0.00    -0.237 OA
ATOM     78  O   UNL     1       7.765 -13.051  20.065  1.00  0.00    -0.237 OA
ATOM     79  O   UNL     1       8.561 -14.659  18.118  1.00  0.00    -0.744 OA
ENDBRANCH  75  76
ENDBRANCH  54  68
BRANCH  55  80
ATOM     80  C   UNL     1      -6.159 -14.567  14.561  1.00  0.00     0.058 A 
ATOM     81  C   UNL     1      -7.155 -14.619  15.521  1.00  0.00     0.135 A 
ATOM     82  C   UNL     1      -6.447 -14.617  13.266  1.00  0.00     0.135 A 
ATOM     83  F   UNL     1      -6.946 -14.322  16.801  1.00  0.00    -0.206 F 
ATOM     84  C   UNL     1      -8.416 -15.018  15.018  1.00  0.00     0.059 A 
ATOM     85  C   UNL     1      -7.729 -14.877  12.844  1.00  0.00     0.059 A 
ATOM     86  F   UNL     1      -5.487 -14.413  12.368  1.00  0.00    -0.206 F 
ATOM     87  C   UNL     1      -8.753 -15.000  13.742  1.00  0.00     0.060 A 
BRANCH  87  88
ATOM     88  S   UNL     1     -10.478 -15.130  13.208  1.00  0.00     0.124 S 
ATOM     89  O   UNL     1     -11.066 -16.454  13.700  1.00  0.00    -0.237 OA
ATOM     90  O   UNL     1     -11.282 -13.966  13.794  1.00  0.00    -0.237 OA
ATOM     91  O   UNL     1     -10.553 -15.072  11.501  1.00  0.00    -0.744 OA
ENDBRANCH  87  88
ENDBRANCH  55  80
BRANCH  67  92
ATOM     92  C   UNL     1      -1.786 -18.344  18.554  1.00  0.00     0.058 A 
ATOM     93  C   UNL     1      -2.127 -19.496  17.864  1.00  0.00     0.135 A 
ATOM     94  C   UNL     1      -1.599 -18.358  19.868  1.00  0.00     0.135 A 
ATOM     95  F   UNL     1      -2.077 -19.589  16.538  1.00  0.00    -0.206 F 
ATOM     96  C   UNL     1      -2.532 -20.564  18.698  1.00  0.00     0.059 A 
ATOM     97  C   UNL     1      -1.887 -19.482  20.604  1.00  0.00     0.059 A 
ATOM     98  F   UNL     1      -1.127 -17.274  20.478  1.00  0.00    -0.206 F 
ATOM     99  C   UNL     1      -2.286 -20.639  19.993  1.00  0.00     0.060 A 
BRANCH  99 100
ATOM    100  S   UNL     1      -2.467 -22.188  20.911  1.00  0.00     0.124 S 
ATOM    101  O   UNL     1      -3.913 -22.677  20.807  1.00  0.00    -0.237 OA
ATOM    102  O   UNL     1      -1.528 -23.243  20.321  1.00  0.00    -0.237 OA
ATOM    103  O   UNL     1      -2.071 -21.927  22.554  1.00  0.00    -0.744 OA
ENDBRANCH  99 100
ENDBRANCH  67  92
ENDBRANCH  41  42
ENDBRANCH  33  36
ENDBRANCH  31  32
ENDBRANCH   1  31
TORSDOF 18
