REMARK SMILES CCOc1ccccc1[C@H]1CC(C(=O)NCCCCNC(=O)c2ccc(-c3c4nc(c(-c5c(F)cc(S(=O)(=O)[O-])cc5F)c5ccc([nH]5)c(-c5c(F)cc(S(=O)(=O)[O-])cc5F)c5nc(c(-c6c(F)cc(S(=O)(=O)[O-])cc6F)c6ccc3[nH]6)C=C5)C=C4)cc2)=Nc2c(C(=O)Nc3ccccc3)cnn21
REMARK SMILES IDX 17 1 16 2 15 3 13 4 14 5 12 7 10 8 11 9 103 10 90 11 102 12
REMARK SMILES IDX 89 13 91 14 101 15 9 16 4 17 5 18 6 19 8 20 7 21 3 22 2 23
REMARK SMILES IDX 1 24 92 25 93 26 94 27 95 29 96 30 100 31 97 32 99 33 98 34
REMARK SMILES IDX 18 35 19 36 20 37 21 38 22 40 23 41 24 42 88 43 25 44 87 45
REMARK SMILES IDX 26 46 27 47 28 48 81 49 29 50 86 51 80 52 82 53 30 54 85 55
REMARK SMILES IDX 79 56 78 57 31 59 65 60 44 61 64 62 45 63 48 64 63 65 83 66
REMARK SMILES IDX 46 67 47 68 62 70 84 71 49 72 32 73 33 74 42 75 34 76 35 77
REMARK SMILES IDX 41 78 43 79 36 80 37 81 38 82 39 83 40 84 66 85 67 86 76 87
REMARK SMILES IDX 68 88 69 89 75 90 77 91 70 92 71 93 72 94 73 95 74 96 50 97
REMARK SMILES IDX 51 98 60 99 52 100 53 101 59 102 61 103 54 104 55 105 56 106
REMARK SMILES IDX 57 107 58 108
REMARK H PARENT 15 6 94 28 20 39 82 58 48 69
REMARK Flexibility Score: inf
ROOT
ATOM      1  C   UNL     1       2.141   2.398  -4.912  1.00  0.00     0.023 C 
ENDROOT
BRANCH   1   2
ATOM      2  C   UNL     1       1.679   2.910  -3.558  1.00  0.00     0.116 C 
BRANCH   2   3
ATOM      3  N   UNL     1       0.358   2.456  -3.187  1.00  0.00    -0.351 N 
ATOM      4  C   UNL     1      -0.082   1.787  -2.074  1.00  0.00     0.265 C 
ATOM      5  O   UNL     1      -1.220   2.013  -1.675  1.00  0.00    -0.268 OA
ATOM      6  H   UNL     1      -0.345   2.663  -3.844  1.00  0.00     0.163 HD
BRANCH   4   7
ATOM      7  C   UNL     1       0.772   0.740  -1.343  1.00  0.00     0.110 C 
ATOM      8  C   UNL     1       3.115   0.248  -0.217  1.00  0.00     0.150 C 
ATOM      9  C   UNL     1       2.270   0.970  -1.252  1.00  0.00     0.094 C 
ATOM     10  N   UNL     1       2.289  -0.405   0.772  1.00  0.00    -0.239 N 
ATOM     11  C   UNL     1       0.780  -1.114  -0.050  1.00  0.00     0.164 A 
ATOM     12  N   UNL     1       2.913  -1.608   2.079  1.00  0.00    -0.178 NA
ATOM     13  N   UNL     1       0.110  -0.258  -0.841  1.00  0.00    -0.227 NA
ATOM     14  C   UNL     1       0.462  -2.716   0.678  1.00  0.00     0.104 A 
ATOM     15  C   UNL     1       1.841  -2.988   2.020  1.00  0.00     0.151 A 
BRANCH   8  16
ATOM     16  C   UNL     1       3.895  -0.886  -0.748  1.00  0.00     0.019 A 
ATOM     17  C   UNL     1       3.466  -2.113  -0.239  1.00  0.00     0.124 A 
ATOM     18  C   UNL     1       4.279  -3.232  -0.367  1.00  0.00     0.047 A 
ATOM     19  C   UNL     1       5.509  -3.098  -1.036  1.00  0.00     0.004 A 
ATOM     20  C   UNL     1       5.052  -0.773  -1.517  1.00  0.00     0.010 A 
ATOM     21  C   UNL     1       5.871  -1.889  -1.648  1.00  0.00     0.001 A 
BRANCH  17  22
ATOM     22  O   UNL     1       2.198  -2.143   0.494  1.00  0.00    -0.494 OA
BRANCH  22  23
ATOM     23  C   UNL     1       1.018  -1.157   1.956  1.00  0.00     0.226 C 
ATOM     24  C   UNL     1       0.765   0.501   2.183  1.00  0.00     0.049 C 
ENDBRANCH  22  23
ENDBRANCH  17  22
ENDBRANCH   8  16
BRANCH  14  25
ATOM     25  C   UNL     1      -0.779  -3.503   0.672  1.00  0.00     0.261 C 
ATOM     26  O   UNL     1      -0.937  -4.395   1.508  1.00  0.00    -0.269 OA
ATOM     27  N   UNL     1      -1.864  -3.089  -0.075  1.00  0.00    -0.322 N 
ATOM     28  H   UNL     1      -2.748  -3.303   0.300  1.00  0.00     0.170 HD
BRANCH  27  29
ATOM     29  C   UNL     1      -1.872  -2.404  -1.296  1.00  0.00     0.041 A 
ATOM     30  C   UNL     1      -2.834  -1.411  -1.504  1.00  0.00     0.026 A 
ATOM     31  C   UNL     1      -0.912  -2.664  -2.279  1.00  0.00     0.026 A 
ATOM     32  C   UNL     1      -2.746  -0.592  -2.633  1.00  0.00     0.002 A 
ATOM     33  C   UNL     1      -0.841  -1.857  -3.416  1.00  0.00     0.002 A 
ATOM     34  C   UNL     1      -1.741  -0.805  -3.580  1.00  0.00     0.000 A 
ENDBRANCH  27  29
ENDBRANCH  14  25
ENDBRANCH   4   7
ENDBRANCH   2   3
ENDBRANCH   1   2
BRANCH   1  35
ATOM     35  C   UNL     1       1.380   2.987  -6.103  1.00  0.00     0.023 C 
BRANCH  35  36
ATOM     36  C   UNL     1       1.121   4.487  -6.007  1.00  0.00     0.116 C 
BRANCH  36  37
ATOM     37  N   UNL     1       2.344   5.269  -5.832  1.00  0.00    -0.352 N 
ATOM     38  C   UNL     1       2.479   6.646  -5.895  1.00  0.00     0.251 C 
ATOM     39  H   UNL     1       3.166   4.758  -5.648  1.00  0.00     0.163 HD
ATOM     40  O   UNL     1       3.562   7.139  -6.191  1.00  0.00    -0.269 OA
BRANCH  38  41
ATOM     41  C   UNL     1       1.325   7.500  -5.521  1.00  0.00     0.039 A 
ATOM     42  C   UNL     1       1.042   8.721  -6.138  1.00  0.00     0.014 A 
ATOM     43  C   UNL     1       0.495   7.045  -4.500  1.00  0.00     0.014 A 
ATOM     44  C   UNL     1      -0.056   9.477  -5.678  1.00  0.00     0.010 A 
ATOM     45  C   UNL     1      -0.694   7.680  -4.218  1.00  0.00     0.010 A 
ATOM     46  C   UNL     1      -0.919   8.965  -4.677  1.00  0.00    -0.014 A 
BRANCH  46  47
ATOM     47  C   UNL     1      -2.263   9.526  -4.384  1.00  0.00     0.031 A 
ATOM     48  C   UNL     1      -3.035   9.470  -5.670  1.00  0.00     0.074 A 
ATOM     49  C   UNL     1      -2.772   9.856  -3.148  1.00  0.00     0.049 A 
ATOM     50  N   UNL     1      -3.172  10.448  -6.505  1.00  0.00    -0.248 NA
ATOM     51  C   UNL     1      -3.370   8.166  -6.297  1.00  0.00     0.031 C 
ATOM     52  C   UNL     1      -2.117   9.749  -1.831  1.00  0.00     0.029 A 
ATOM     53  N   UNL     1      -4.021  10.353  -2.770  1.00  0.00    -0.354 N 
ATOM     54  C   UNL     1      -4.003   9.959  -7.511  1.00  0.00     0.074 A 
ATOM     55  C   UNL     1      -3.814   8.543  -7.502  1.00  0.00     0.031 C 
ATOM     56  C   UNL     1      -3.011   9.923  -0.818  1.00  0.00     0.029 A 
ATOM     57  C   UNL     1      -4.304  10.302  -1.360  1.00  0.00     0.049 A 
ATOM     58  H   UNL     1      -4.664  10.714  -3.423  1.00  0.00     0.167 HD
ATOM     59  C   UNL     1      -5.064  10.721  -7.905  1.00  0.00     0.037 A 
ATOM     60  C   UNL     1      -5.474  10.645  -0.701  1.00  0.00     0.037 A 
ATOM     61  C   UNL     1      -4.870  12.063  -7.404  1.00  0.00     0.049 A 
ATOM     62  C   UNL     1      -6.204  11.536  -1.626  1.00  0.00     0.074 A 
ATOM     63  C   UNL     1      -3.973  13.088  -7.620  1.00  0.00     0.029 A 
ATOM     64  N   UNL     1      -5.365  12.212  -6.136  1.00  0.00    -0.354 N 
ATOM     65  N   UNL     1      -5.777  12.724  -1.942  1.00  0.00    -0.248 NA
ATOM     66  C   UNL     1      -7.096  10.894  -2.573  1.00  0.00     0.031 C 
ATOM     67  C   UNL     1      -3.822  13.743  -6.362  1.00  0.00     0.029 A 
ATOM     68  C   UNL     1      -4.750  13.222  -5.465  1.00  0.00     0.049 A 
ATOM     69  H   UNL     1      -6.081  11.654  -5.755  1.00  0.00     0.167 HD
ATOM     70  C   UNL     1      -5.918  12.759  -3.317  1.00  0.00     0.074 A 
ATOM     71  C   UNL     1      -6.830  11.653  -3.638  1.00  0.00     0.031 C 
ATOM     72  C   UNL     1      -5.011  13.451  -4.067  1.00  0.00     0.037 A 
BRANCH  59  73
ATOM     73  C   UNL     1      -6.477  10.203  -8.167  1.00  0.00     0.058 A 
ATOM     74  C   UNL     1      -7.482  11.145  -8.496  1.00  0.00     0.135 A 
ATOM     75  C   UNL     1      -6.959   8.913  -7.847  1.00  0.00     0.135 A 
ATOM     76  F   UNL     1      -7.157  12.409  -8.809  1.00  0.00    -0.206 F 
ATOM     77  C   UNL     1      -8.845  10.844  -8.462  1.00  0.00     0.059 A 
ATOM     78  C   UNL     1      -8.314   8.582  -7.844  1.00  0.00     0.059 A 
ATOM     79  F   UNL     1      -6.157   7.918  -7.456  1.00  0.00    -0.206 F 
ATOM     80  C   UNL     1      -9.252   9.556  -8.139  1.00  0.00     0.060 A 
BRANCH  80  81
ATOM     81  S   UNL     1     -11.010   9.162  -8.144  1.00  0.00     0.124 S 
ATOM     82  O   UNL     1     -11.503   9.980  -7.042  1.00  0.00    -0.237 OA
ATOM     83  O   UNL     1     -11.403   9.586  -9.484  1.00  0.00    -0.237 OA
ATOM     84  O   UNL     1     -11.031   7.720  -7.920  1.00  0.00    -0.744 OA
ENDBRANCH  80  81
ENDBRANCH  59  73
BRANCH  60  85
ATOM     85  C   UNL     1      -6.228  10.100   0.501  1.00  0.00     0.058 A 
ATOM     86  C   UNL     1      -7.356  10.738   1.100  1.00  0.00     0.135 A 
ATOM     87  C   UNL     1      -6.084   8.747   0.838  1.00  0.00     0.135 A 
ATOM     88  F   UNL     1      -7.620  12.029   0.839  1.00  0.00    -0.206 F 
ATOM     89  C   UNL     1      -8.290  10.060   1.925  1.00  0.00     0.059 A 
ATOM     90  C   UNL     1      -7.002   8.052   1.644  1.00  0.00     0.059 A 
ATOM     91  F   UNL     1      -5.089   8.028   0.299  1.00  0.00    -0.206 F 
ATOM     92  C   UNL     1      -8.116   8.701   2.169  1.00  0.00     0.060 A 
BRANCH  92  93
ATOM     93  S   UNL     1      -9.383   7.740   3.063  1.00  0.00     0.124 S 
ATOM     94  O   UNL     1      -9.268   8.258   4.422  1.00  0.00    -0.237 OA
ATOM     95  O   UNL     1     -10.610   8.088   2.354  1.00  0.00    -0.237 OA
ATOM     96  O   UNL     1      -8.941   6.358   2.888  1.00  0.00    -0.744 OA
ENDBRANCH  92  93
ENDBRANCH  60  85
BRANCH  72  97
ATOM     97  C   UNL     1      -4.195  14.516  -3.396  1.00  0.00     0.058 A 
ATOM     98  C   UNL     1      -3.159  14.318  -2.467  1.00  0.00     0.135 A 
ATOM     99  C   UNL     1      -4.422  15.823  -3.847  1.00  0.00     0.135 A 
ATOM    100  F   UNL     1      -2.820  13.084  -2.062  1.00  0.00    -0.206 F 
ATOM    101  C   UNL     1      -2.411  15.395  -1.976  1.00  0.00     0.059 A 
ATOM    102  C   UNL     1      -3.671  16.897  -3.402  1.00  0.00     0.059 A 
ATOM    103  F   UNL     1      -5.357  16.058  -4.782  1.00  0.00    -0.206 F 
ATOM    104  C   UNL     1      -2.682  16.682  -2.448  1.00  0.00     0.060 A 
BRANCH 104 105
ATOM    105  S   UNL     1      -1.734  18.088  -1.832  1.00  0.00     0.124 S 
ATOM    106  O   UNL     1      -2.163  18.159  -0.440  1.00  0.00    -0.237 OA
ATOM    107  O   UNL     1      -0.356  17.659  -2.052  1.00  0.00    -0.237 OA
ATOM    108  O   UNL     1      -2.175  19.195  -2.678  1.00  0.00    -0.744 OA
ENDBRANCH 104 105
ENDBRANCH  72  97
ENDBRANCH  46  47
ENDBRANCH  38  41
ENDBRANCH  36  37
ENDBRANCH  35  36
ENDBRANCH   1  35
TORSDOF 19
