REMARK SMILES Cn1nc(C(=O)N2C[C@@H](O)C[C@H]2C(=O)NCCCCNC(=O)c2ccc(-c3c4nc(c(-c5c(F)cc(S(=O)(=O)[O-])cc5F)c5ccc([nH]5)c(-c5c(F)cc(S(=O)(=O)[O-])cc5F)c5nc(c(-c6c(F)cc(S(=O)(=O)[O-])cc6F)c6ccc3[nH]6)C=C5)C=C4)cc2)ccc1=O
REMARK SMILES IDX 18 1 17 2 16 3 15 4 13 5 14 6 12 8 7 9 8 10 9 11 11 12 5 13
REMARK SMILES IDX 6 14 4 15 1 16 2 17 3 18 91 19 90 20 92 21 89 22 10 23 19 25
REMARK SMILES IDX 20 26 21 27 22 29 23 30 24 31 88 32 25 33 87 34 26 35 27 36
REMARK SMILES IDX 28 37 81 38 29 39 86 40 80 41 82 42 30 43 85 44 79 45 78 46
REMARK SMILES IDX 31 48 65 49 44 50 64 51 45 52 48 53 63 54 83 55 46 56 47 57
REMARK SMILES IDX 62 59 84 60 49 61 32 62 33 63 42 64 34 65 35 66 41 67 43 68
REMARK SMILES IDX 36 69 37 70 38 71 39 72 40 73 66 74 67 75 76 76 68 77 69 78
REMARK SMILES IDX 75 79 77 80 70 81 71 82 72 83 73 84 74 85 50 86 51 87 60 88
REMARK SMILES IDX 52 89 53 90 59 91 61 92 54 93 55 94 56 95 57 96 58 97
REMARK H PARENT 15 7 10 24 20 28 82 47 48 58
REMARK Flexibility Score: inf
ROOT
ATOM      1  C   UNL     1      -5.542   4.451   5.336  1.00  0.00     0.023 C 
ENDROOT
BRANCH   1   2
ATOM      2  C   UNL     1      -4.732   3.282   4.770  1.00  0.00     0.023 C 
BRANCH   2   3
ATOM      3  C   UNL     1      -5.564   2.226   4.056  1.00  0.00     0.116 C 
BRANCH   3   4
ATOM      4  N   UNL     1      -6.116   2.697   2.806  1.00  0.00    -0.354 N 
ATOM      5  C   UNL     1      -5.841   2.333   1.522  1.00  0.00     0.242 C 
ATOM      6  O   UNL     1      -6.646   2.694   0.656  1.00  0.00    -0.273 OA
ATOM      7  H   UNL     1      -6.803   3.396   2.898  1.00  0.00     0.163 HD
BRANCH   5   8
ATOM      8  C   UNL     1      -4.703   1.358   1.160  1.00  0.00     0.177 C 
ATOM      9  N   UNL     1      -3.363   1.670   1.663  1.00  0.00    -0.323 N 
ATOM     10  C   UNL     1      -2.814   0.575   2.445  1.00  0.00     0.152 C 
ATOM     11  C   UNL     1      -3.643  -0.641   2.039  1.00  0.00     0.136 C 
ATOM     12  C   UNL     1      -5.001  -0.069   1.631  1.00  0.00     0.069 C 
BRANCH   9  13
ATOM     13  C   UNL     1      -2.667   2.692   1.031  1.00  0.00     0.275 C 
ATOM     14  O   UNL     1      -3.211   3.647   0.489  1.00  0.00    -0.267 OA
BRANCH  13  15
ATOM     15  C   UNL     1      -1.156   2.577   0.887  1.00  0.00     0.149 A 
ATOM     16  C   UNL     1       1.217   0.045   0.007  1.00  0.00     0.178 C 
ATOM     17  N   UNL     1       0.707   1.359   0.351  1.00  0.00    -0.232 N 
ATOM     18  N   UNL     1      -0.656   1.433   0.531  1.00  0.00    -0.165 NA
ATOM     19  C   UNL     1       1.564   2.448   0.448  1.00  0.00     0.266 A 
ATOM     20  C   UNL     1       0.934   3.733   0.831  1.00  0.00     0.076 A 
ATOM     21  O   UNL     1       2.776   2.415   0.249  1.00  0.00    -0.268 OA
ATOM     22  C   UNL     1      -0.377   3.815   1.070  1.00  0.00     0.042 A 
ENDBRANCH  13  15
ENDBRANCH   9  13
BRANCH  11  23
ATOM     23  O   UNL     1      -3.776  -1.583   3.092  1.00  0.00    -0.391 OA
ATOM     24  H   UNL     1      -4.198  -1.157   3.855  1.00  0.00     0.211 HD
ENDBRANCH  11  23
ENDBRANCH   5   8
ENDBRANCH   3   4
ENDBRANCH   2   3
ENDBRANCH   1   2
BRANCH   1  25
ATOM     25  C   UNL     1      -6.705   4.066   6.248  1.00  0.00     0.116 C 
BRANCH  25  26
ATOM     26  N   UNL     1      -6.300   3.239   7.375  1.00  0.00    -0.352 N 
ATOM     27  C   UNL     1      -6.750   3.302   8.672  1.00  0.00     0.251 C 
ATOM     28  H   UNL     1      -5.622   2.551   7.185  1.00  0.00     0.163 HD
ATOM     29  O   UNL     1      -6.253   2.593   9.541  1.00  0.00    -0.269 OA
BRANCH  27  30
ATOM     30  C   UNL     1      -7.816   4.265   9.002  1.00  0.00     0.039 A 
ATOM     31  C   UNL     1      -7.557   5.259   9.948  1.00  0.00     0.014 A 
ATOM     32  C   UNL     1      -9.036   4.222   8.320  1.00  0.00     0.014 A 
ATOM     33  C   UNL     1      -8.507   6.257  10.168  1.00  0.00     0.010 A 
ATOM     34  C   UNL     1      -9.965   5.240   8.514  1.00  0.00     0.010 A 
ATOM     35  C   UNL     1      -9.703   6.269   9.433  1.00  0.00    -0.014 A 
BRANCH  35  36
ATOM     36  C   UNL     1     -10.703   7.344   9.626  1.00  0.00     0.031 A 
ATOM     37  C   UNL     1     -11.992   7.040  10.330  1.00  0.00     0.074 A 
ATOM     38  C   UNL     1     -10.459   8.579   9.145  1.00  0.00     0.049 A 
ATOM     39  N   UNL     1     -13.013   7.824  10.556  1.00  0.00    -0.248 NA
ATOM     40  C   UNL     1     -12.161   5.668  10.838  1.00  0.00     0.031 C 
ATOM     41  C   UNL     1      -9.245   8.988   8.435  1.00  0.00     0.029 A 
ATOM     42  N   UNL     1     -11.222   9.718   9.181  1.00  0.00    -0.354 N 
ATOM     43  C   UNL     1     -13.939   7.049  11.242  1.00  0.00     0.074 A 
ATOM     44  C   UNL     1     -13.383   5.717  11.347  1.00  0.00     0.031 C 
ATOM     45  C   UNL     1      -9.336  10.293   8.126  1.00  0.00     0.029 A 
ATOM     46  C   UNL     1     -10.623  10.804   8.589  1.00  0.00     0.049 A 
ATOM     47  H   UNL     1     -12.116   9.754   9.592  1.00  0.00     0.167 HD
ATOM     48  C   UNL     1     -15.132   7.422  11.761  1.00  0.00     0.037 A 
ATOM     49  C   UNL     1     -11.064  12.068   8.441  1.00  0.00     0.037 A 
ATOM     50  C   UNL     1     -15.679   8.747  11.658  1.00  0.00     0.049 A 
ATOM     51  C   UNL     1     -12.418  12.442   8.981  1.00  0.00     0.074 A 
ATOM     52  C   UNL     1     -16.885   9.221  12.145  1.00  0.00     0.029 A 
ATOM     53  N   UNL     1     -15.052   9.814  11.033  1.00  0.00    -0.354 N 
ATOM     54  N   UNL     1     -13.279  11.697   9.631  1.00  0.00    -0.248 NA
ATOM     55  C   UNL     1     -12.861  13.827   8.766  1.00  0.00     0.031 C 
ATOM     56  C   UNL     1     -16.994  10.572  11.797  1.00  0.00     0.029 A 
ATOM     57  C   UNL     1     -15.845  10.944  11.118  1.00  0.00     0.049 A 
ATOM     58  H   UNL     1     -14.172   9.773  10.592  1.00  0.00     0.167 HD
ATOM     59  C   UNL     1     -14.353  12.529   9.927  1.00  0.00     0.074 A 
ATOM     60  C   UNL     1     -14.033  13.834   9.387  1.00  0.00     0.031 C 
ATOM     61  C   UNL     1     -15.499  12.238  10.587  1.00  0.00     0.037 A 
BRANCH  48  62
ATOM     62  C   UNL     1     -15.912   6.381  12.509  1.00  0.00     0.058 A 
ATOM     63  C   UNL     1     -15.524   5.975  13.796  1.00  0.00     0.135 A 
ATOM     64  C   UNL     1     -17.067   5.807  11.957  1.00  0.00     0.135 A 
ATOM     65  F   UNL     1     -14.415   6.480  14.358  1.00  0.00    -0.206 F 
ATOM     66  C   UNL     1     -16.247   5.023  14.505  1.00  0.00     0.059 A 
ATOM     67  C   UNL     1     -17.817   4.866  12.656  1.00  0.00     0.059 A 
ATOM     68  F   UNL     1     -17.474   6.157  10.726  1.00  0.00    -0.206 F 
ATOM     69  C   UNL     1     -17.392   4.473  13.926  1.00  0.00     0.060 A 
BRANCH  69  70
ATOM     70  S   UNL     1     -18.324   3.244  14.864  1.00  0.00     0.124 S 
ATOM     71  O   UNL     1     -17.452   2.079  14.761  1.00  0.00    -0.237 OA
ATOM     72  O   UNL     1     -18.409   3.858  16.185  1.00  0.00    -0.237 OA
ATOM     73  O   UNL     1     -19.587   3.149  14.138  1.00  0.00    -0.744 OA
ENDBRANCH  69  70
ENDBRANCH  48  62
BRANCH  49  74
ATOM     74  C   UNL     1     -10.207  13.088   7.784  1.00  0.00     0.058 A 
ATOM     75  C   UNL     1      -9.592  14.097   8.540  1.00  0.00     0.135 A 
ATOM     76  C   UNL     1      -9.991  13.083   6.398  1.00  0.00     0.135 A 
ATOM     77  F   UNL     1      -9.776  14.144   9.868  1.00  0.00    -0.206 F 
ATOM     78  C   UNL     1      -8.806  15.077   7.944  1.00  0.00     0.059 A 
ATOM     79  C   UNL     1      -9.194  14.043   5.781  1.00  0.00     0.059 A 
ATOM     80  F   UNL     1     -10.548  12.130   5.634  1.00  0.00    -0.206 F 
ATOM     81  C   UNL     1      -8.615  15.042   6.562  1.00  0.00     0.060 A 
BRANCH  81  82
ATOM     82  S   UNL     1      -7.564  16.300   5.803  1.00  0.00     0.124 S 
ATOM     83  O   UNL     1      -8.436  17.468   5.834  1.00  0.00    -0.237 OA
ATOM     84  O   UNL     1      -6.419  16.332   6.708  1.00  0.00    -0.237 OA
ATOM     85  O   UNL     1      -7.289  15.750   4.478  1.00  0.00    -0.744 OA
ENDBRANCH  81  82
ENDBRANCH  49  74
BRANCH  61  86
ATOM     86  C   UNL     1     -16.482  13.354  10.794  1.00  0.00     0.058 A 
ATOM     87  C   UNL     1     -17.325  13.785   9.760  1.00  0.00     0.135 A 
ATOM     88  C   UNL     1     -16.632  13.941  12.059  1.00  0.00     0.135 A 
ATOM     89  F   UNL     1     -17.213  13.257   8.531  1.00  0.00    -0.206 F 
ATOM     90  C   UNL     1     -18.284  14.769   9.973  1.00  0.00     0.059 A 
ATOM     91  C   UNL     1     -17.597  14.914  12.300  1.00  0.00     0.059 A 
ATOM     92  F   UNL     1     -15.851  13.555  13.081  1.00  0.00    -0.206 F 
ATOM     93  C   UNL     1     -18.416  15.325  11.248  1.00  0.00     0.060 A 
BRANCH  93  94
ATOM     94  S   UNL     1     -19.704  16.558  11.526  1.00  0.00     0.124 S 
ATOM     95  O   UNL     1     -19.122  17.739  10.897  1.00  0.00    -0.237 OA
ATOM     96  O   UNL     1     -20.851  15.974  10.838  1.00  0.00    -0.237 OA
ATOM     97  O   UNL     1     -19.814  16.611  12.981  1.00  0.00    -0.744 OA
ENDBRANCH  93  94
ENDBRANCH  61  86
ENDBRANCH  35  36
ENDBRANCH  27  30
ENDBRANCH  25  26
ENDBRANCH   1  25
TORSDOF 17
