REMARK SMILES O=C(NCCCCNC(=O)c1cccc(Nc2ccc([N+](=O)[O-])cc2)c1)c1ccc(-c2c3nc(c(-c4c(F)cc(S(=O)(=O)[O-])cc4F)c4ccc([nH]4)c(-c4c(F)cc(S(=O)(=O)[O-])cc4F)c4nc(c(-c5c(F)cc(S(=O)(=O)[O-])cc5F)c5ccc2[nH]5)C=C4)C=C3)cc1
REMARK SMILES IDX 5 1 4 2 3 3 1 4 2 5 27 7 28 8 92 9 29 10 91 11 30 12 31 13
REMARK SMILES IDX 32 14 85 15 33 16 90 17 84 18 86 19 34 20 89 21 83 22 82 23
REMARK SMILES IDX 35 25 69 26 48 27 68 28 49 29 52 30 67 31 87 32 50 33 51 34
REMARK SMILES IDX 66 36 88 37 53 38 36 39 37 40 46 41 38 42 39 43 45 44 47 45
REMARK SMILES IDX 40 46 41 47 42 48 43 49 44 50 70 51 71 52 80 53 72 54 73 55
REMARK SMILES IDX 79 56 81 57 74 58 75 59 76 60 77 61 78 62 54 63 55 64 64 65
REMARK SMILES IDX 56 66 57 67 63 68 65 69 58 70 59 71 60 72 61 73 62 74 6 75
REMARK SMILES IDX 7 76 8 77 9 78 10 80 11 81 12 82 26 83 13 84 15 85 14 86
REMARK SMILES IDX 16 87 17 89 18 90 25 91 19 92 24 93 20 94 21 95 22 96 23 97
REMARK H PARENT 3 6 86 24 52 35 8 79 16 88
REMARK Flexibility Score: inf
ROOT
ATOM      1  C   UNL     1       4.784   0.294  -2.795  1.00  0.00     0.023 C 
ENDROOT
BRANCH   1   2
ATOM      2  C   UNL     1       4.482   0.456  -1.312  1.00  0.00     0.116 C 
BRANCH   2   3
ATOM      3  N   UNL     1       3.059   0.519  -1.012  1.00  0.00    -0.352 N 
ATOM      4  O   UNL     1       1.132  -0.059   0.016  1.00  0.00    -0.269 OA
ATOM      5  C   UNL     1       2.356  -0.151  -0.036  1.00  0.00     0.251 C 
ATOM      6  H   UNL     1       2.529   1.122  -1.582  1.00  0.00     0.163 HD
BRANCH   5   7
ATOM      7  C   UNL     1       3.084  -1.011   0.924  1.00  0.00     0.039 A 
ATOM      8  C   UNL     1       4.249  -0.551   1.538  1.00  0.00     0.014 A 
ATOM      9  C   UNL     1       2.619  -2.305   1.179  1.00  0.00     0.014 A 
ATOM     10  C   UNL     1       5.035  -1.434   2.267  1.00  0.00     0.010 A 
ATOM     11  C   UNL     1       3.366  -3.164   1.993  1.00  0.00     0.010 A 
ATOM     12  C   UNL     1       4.600  -2.749   2.512  1.00  0.00    -0.014 A 
BRANCH  12  13
ATOM     13  C   UNL     1       5.445  -3.627   3.363  1.00  0.00     0.031 A 
ATOM     14  C   UNL     1       6.102  -4.865   2.813  1.00  0.00     0.074 A 
ATOM     15  C   UNL     1       5.679  -3.245   4.634  1.00  0.00     0.049 A 
ATOM     16  N   UNL     1       6.938  -5.681   3.405  1.00  0.00    -0.248 NA
ATOM     17  C   UNL     1       5.778  -5.244   1.429  1.00  0.00     0.031 C 
ATOM     18  C   UNL     1       5.071  -2.080   5.285  1.00  0.00     0.029 A 
ATOM     19  N   UNL     1       6.511  -3.761   5.592  1.00  0.00    -0.354 N 
ATOM     20  C   UNL     1       7.231  -6.673   2.476  1.00  0.00     0.074 A 
ATOM     21  C   UNL     1       6.463  -6.372   1.286  1.00  0.00     0.031 C 
ATOM     22  C   UNL     1       5.599  -1.933   6.508  1.00  0.00     0.029 A 
ATOM     23  C   UNL     1       6.540  -3.020   6.749  1.00  0.00     0.049 A 
ATOM     24  H   UNL     1       7.037  -4.583   5.464  1.00  0.00     0.167 HD
ATOM     25  C   UNL     1       8.070  -7.730   2.603  1.00  0.00     0.037 A 
ATOM     26  C   UNL     1       7.244  -3.193   7.883  1.00  0.00     0.037 A 
ATOM     27  C   UNL     1       8.844  -8.015   3.786  1.00  0.00     0.049 A 
ATOM     28  C   UNL     1       8.191  -4.351   7.981  1.00  0.00     0.074 A 
ATOM     29  C   UNL     1       9.723  -9.061   4.010  1.00  0.00     0.029 A 
ATOM     30  N   UNL     1       8.839  -7.247   4.941  1.00  0.00    -0.354 N 
ATOM     31  N   UNL     1       8.455  -5.274   7.088  1.00  0.00    -0.248 NA
ATOM     32  C   UNL     1       8.934  -4.494   9.240  1.00  0.00     0.031 C 
ATOM     33  C   UNL     1      10.231  -8.939   5.309  1.00  0.00     0.029 A 
ATOM     34  C   UNL     1       9.694  -7.798   5.882  1.00  0.00     0.049 A 
ATOM     35  H   UNL     1       8.305  -6.430   5.073  1.00  0.00     0.167 HD
ATOM     36  C   UNL     1       9.388  -6.115   7.680  1.00  0.00     0.074 A 
ATOM     37  C   UNL     1       9.671  -5.567   8.992  1.00  0.00     0.031 C 
ATOM     38  C   UNL     1       9.949  -7.247   7.189  1.00  0.00     0.037 A 
BRANCH  25  39
ATOM     39  C   UNL     1       8.201  -8.666   1.432  1.00  0.00     0.058 A 
ATOM     40  C   UNL     1       8.930  -8.310   0.287  1.00  0.00     0.135 A 
ATOM     41  C   UNL     1       7.647  -9.956   1.481  1.00  0.00     0.135 A 
ATOM     42  F   UNL     1       9.468  -7.085   0.181  1.00  0.00    -0.206 F 
ATOM     43  C   UNL     1       9.094  -9.195  -0.775  1.00  0.00     0.059 A 
ATOM     44  C   UNL     1       7.815 -10.864   0.439  1.00  0.00     0.059 A 
ATOM     45  F   UNL     1       6.941 -10.347   2.553  1.00  0.00    -0.206 F 
ATOM     46  C   UNL     1       8.533 -10.471  -0.690  1.00  0.00     0.060 A 
BRANCH  46  47
ATOM     47  S   UNL     1       8.771 -11.615  -2.067  1.00  0.00     0.124 S 
ATOM     48  O   UNL     1       7.848 -11.071  -3.059  1.00  0.00    -0.237 OA
ATOM     49  O   UNL     1      10.190 -11.454  -2.368  1.00  0.00    -0.237 OA
ATOM     50  O   UNL     1       8.396 -12.908  -1.503  1.00  0.00    -0.744 OA
ENDBRANCH  46  47
ENDBRANCH  25  39
BRANCH  26  51
ATOM     51  C   UNL     1       7.064  -2.244   9.011  1.00  0.00     0.058 A 
ATOM     52  C   UNL     1       8.067  -1.329   9.359  1.00  0.00     0.135 A 
ATOM     53  C   UNL     1       5.865  -2.215   9.740  1.00  0.00     0.135 A 
ATOM     54  F   UNL     1       9.230  -1.321   8.691  1.00  0.00    -0.206 F 
ATOM     55  C   UNL     1       7.894  -0.424  10.402  1.00  0.00     0.059 A 
ATOM     56  C   UNL     1       5.659  -1.303  10.768  1.00  0.00     0.059 A 
ATOM     57  F   UNL     1       4.867  -3.057   9.428  1.00  0.00    -0.206 F 
ATOM     58  C   UNL     1       6.684  -0.419  11.100  1.00  0.00     0.060 A 
BRANCH  58  59
ATOM     59  S   UNL     1       6.436   0.795  12.413  1.00  0.00     0.124 S 
ATOM     60  O   UNL     1       7.133   0.164  13.528  1.00  0.00    -0.237 OA
ATOM     61  O   UNL     1       7.066   1.989  11.859  1.00  0.00    -0.237 OA
ATOM     62  O   UNL     1       4.982   0.862  12.531  1.00  0.00    -0.744 OA
ENDBRANCH  58  59
ENDBRANCH  26  51
BRANCH  38  63
ATOM     63  C   UNL     1      10.917  -7.962   8.086  1.00  0.00     0.058 A 
ATOM     64  C   UNL     1      10.471  -8.702   9.193  1.00  0.00     0.135 A 
ATOM     65  C   UNL     1      12.297  -7.904   7.844  1.00  0.00     0.135 A 
ATOM     66  F   UNL     1       9.160  -8.781   9.470  1.00  0.00    -0.206 F 
ATOM     67  C   UNL     1      11.366  -9.331  10.052  1.00  0.00     0.059 A 
ATOM     68  C   UNL     1      13.209  -8.543   8.677  1.00  0.00     0.059 A 
ATOM     69  F   UNL     1      12.771  -7.215   6.793  1.00  0.00    -0.206 F 
ATOM     70  C   UNL     1      12.734  -9.239   9.790  1.00  0.00     0.060 A 
BRANCH  70  71
ATOM     71  S   UNL     1      13.890 -10.051  10.913  1.00  0.00     0.124 S 
ATOM     72  O   UNL     1      13.937  -9.103  12.021  1.00  0.00    -0.237 OA
ATOM     73  O   UNL     1      13.224 -11.319  11.192  1.00  0.00    -0.237 OA
ATOM     74  O   UNL     1      15.112 -10.154  10.121  1.00  0.00    -0.744 OA
ENDBRANCH  70  71
ENDBRANCH  38  63
ENDBRANCH  12  13
ENDBRANCH   5   7
ENDBRANCH   2   3
ENDBRANCH   1   2
BRANCH   1  75
ATOM     75  C   UNL     1       4.293   1.427  -3.692  1.00  0.00     0.023 C 
BRANCH  75  76
ATOM     76  C   UNL     1       4.684   2.830  -3.239  1.00  0.00     0.116 C 
BRANCH  76  77
ATOM     77  N   UNL     1       6.124   3.007  -3.141  1.00  0.00    -0.352 N 
ATOM     78  C   UNL     1       6.963   3.772  -3.910  1.00  0.00     0.251 C 
ATOM     79  H   UNL     1       6.561   2.504  -2.416  1.00  0.00     0.163 HD
ATOM     80  O   UNL     1       8.180   3.688  -3.785  1.00  0.00    -0.269 OA
BRANCH  78  81
ATOM     81  C   UNL     1       6.399   4.697  -4.910  1.00  0.00     0.041 A 
ATOM     82  C   UNL     1       6.848   4.614  -6.227  1.00  0.00     0.014 A 
ATOM     83  C   UNL     1       5.450   5.656  -4.536  1.00  0.00     0.039 A 
ATOM     84  C   UNL     1       6.297   5.456  -7.186  1.00  0.00     0.003 A 
ATOM     85  C   UNL     1       4.880   6.502  -5.492  1.00  0.00     0.039 A 
ATOM     86  C   UNL     1       5.311   6.379  -6.821  1.00  0.00     0.026 A 
BRANCH  85  87
ATOM     87  N   UNL     1       3.879   7.405  -5.088  1.00  0.00    -0.356 N 
ATOM     88  H   UNL     1       3.759   7.486  -4.115  1.00  0.00     0.167 HD
BRANCH  87  89
ATOM     89  C   UNL     1       3.026   8.206  -5.862  1.00  0.00     0.039 A 
ATOM     90  C   UNL     1       2.934   9.573  -5.572  1.00  0.00     0.033 A 
ATOM     91  C   UNL     1       2.350   7.706  -6.983  1.00  0.00     0.033 A 
ATOM     92  C   UNL     1       2.218  10.436  -6.405  1.00  0.00     0.088 A 
ATOM     93  C   UNL     1       1.620   8.554  -7.820  1.00  0.00     0.088 A 
ATOM     94  C   UNL     1       1.575   9.923  -7.537  1.00  0.00     0.269 A 
BRANCH  94  95
ATOM     95  N   UNL     1       0.874  10.834  -8.450  1.00  0.00     0.062 N 
ATOM     96  O   UNL     1       0.897  12.045  -8.186  1.00  0.00    -0.258 OA
ATOM     97  O   UNL     1       0.309  10.341  -9.437  1.00  0.00    -0.258 OA
ENDBRANCH  94  95
ENDBRANCH  87  89
ENDBRANCH  85  87
ENDBRANCH  78  81
ENDBRANCH  76  77
ENDBRANCH  75  76
ENDBRANCH   1  75
TORSDOF 17
