REMARK SMILES [NH3+][C@H](C(=O)NCCCCNC(=O)c1ccc(-c2c3nc(c(-c4c(F)cc(S(=O)(=O)[O-])cc4F)c4ccc([nH]4)c(-c4c(F)cc(S(=O)(=O)[O-])cc4F)c4nc(c(-c5c(F)cc(S(=O)(=O)[O-])cc5F)c5ccc2[nH]5)C=C4)C=C3)cc1)c1cc2[nH]ccc2cc1O
REMARK SMILES IDX 8 1 7 2 6 3 5 4 3 5 4 6 2 8 1 9 79 13 80 14 87 15 81 16
REMARK SMILES IDX 86 17 82 18 85 19 83 20 84 22 88 23 9 25 10 26 11 27 12 29
REMARK SMILES IDX 13 30 14 31 78 32 15 33 77 34 16 35 17 36 18 37 71 38 19 39
REMARK SMILES IDX 76 40 70 41 72 42 20 43 75 44 69 45 68 46 21 48 55 49 34 50
REMARK SMILES IDX 54 51 35 52 38 53 53 54 73 55 36 56 37 57 52 59 74 60 39 61
REMARK SMILES IDX 22 62 23 63 32 64 24 65 25 66 31 67 33 68 26 69 27 70 28 71
REMARK SMILES IDX 29 72 30 73 56 74 57 75 66 76 58 77 59 78 65 79 67 80 60 81
REMARK SMILES IDX 61 82 62 83 63 84 64 85 40 86 41 87 50 88 42 89 43 90 49 91
REMARK SMILES IDX 51 92 44 93 45 94 46 95 47 96 48 97
REMARK H PARENT 5 7 1 10 1 11 1 12 82 21 88 24 10 28 72 47 38 58
REMARK Flexibility Score: inf
ROOT
ATOM      1  C   UNL     1       0.012   3.935   1.282  1.00  0.00     0.023 C 
ENDROOT
BRANCH   1   2
ATOM      2  C   UNL     1      -0.182   3.131   0.005  1.00  0.00     0.023 C 
BRANCH   2   3
ATOM      3  C   UNL     1       1.033   2.326  -0.472  1.00  0.00     0.116 C 
BRANCH   3   4
ATOM      4  N   UNL     1       1.268   1.164   0.363  1.00  0.00    -0.351 N 
ATOM      5  C   UNL     1       1.031  -0.162   0.146  1.00  0.00     0.283 C 
ATOM      6  O   UNL     1       1.337  -0.940   1.060  1.00  0.00    -0.268 OA
ATOM      7  H   UNL     1       1.668   1.367   1.239  1.00  0.00     0.163 HD
BRANCH   5   8
ATOM      8  C   UNL     1       0.506  -0.723  -1.222  1.00  0.00     0.306 C 
BRANCH   8   9
ATOM      9  N   UNL     1       1.140  -2.073  -1.391  1.00  0.00    -0.343 N 
ATOM     10  H   UNL     1       0.831  -2.486  -2.270  1.00  0.00     0.345 HD
ATOM     11  H   UNL     1       0.865  -2.677  -0.616  1.00  0.00     0.345 HD
ATOM     12  H   UNL     1       2.155  -1.973  -1.399  1.00  0.00     0.345 HD
ENDBRANCH   8   9
BRANCH   8  13
ATOM     13  C   UNL     1      -1.019  -0.777  -1.306  1.00  0.00     0.063 A 
ATOM     14  C   UNL     1      -1.706   0.444  -1.362  1.00  0.00     0.041 A 
ATOM     15  C   UNL     1      -1.800  -1.940  -1.355  1.00  0.00     0.126 A 
ATOM     16  C   UNL     1      -3.099   0.482  -1.280  1.00  0.00     0.046 A 
ATOM     17  C   UNL     1      -3.207  -1.909  -1.372  1.00  0.00     0.057 A 
ATOM     18  N   UNL     1      -3.950   1.555  -1.154  1.00  0.00    -0.361 N 
ATOM     19  C   UNL     1      -3.872  -0.671  -1.307  1.00  0.00     0.003 A 
ATOM     20  C   UNL     1      -5.248   1.124  -1.185  1.00  0.00     0.083 A 
ATOM     21  H   UNL     1      -3.667   2.493  -1.056  1.00  0.00     0.166 HD
ATOM     22  C   UNL     1      -5.231  -0.250  -1.297  1.00  0.00     0.028 A 
BRANCH  15  23
ATOM     23  O   UNL     1      -1.238  -3.186  -1.446  1.00  0.00    -0.507 OA
ATOM     24  H   UNL     1      -0.306  -3.282  -1.440  1.00  0.00     0.293 HD
ENDBRANCH  15  23
ENDBRANCH   8  13
ENDBRANCH   5   8
ENDBRANCH   3   4
ENDBRANCH   2   3
ENDBRANCH   1   2
BRANCH   1  25
ATOM     25  C   UNL     1       1.089   5.000   1.214  1.00  0.00     0.116 C 
BRANCH  25  26
ATOM     26  N   UNL     1       0.859   5.987   0.168  1.00  0.00    -0.352 N 
ATOM     27  C   UNL     1       0.919   7.361   0.248  1.00  0.00     0.251 C 
ATOM     28  H   UNL     1       0.628   5.622  -0.717  1.00  0.00     0.163 HD
ATOM     29  O   UNL     1       0.577   8.047  -0.705  1.00  0.00    -0.269 OA
BRANCH  27  30
ATOM     30  C   UNL     1       1.360   7.989   1.513  1.00  0.00     0.039 A 
ATOM     31  C   UNL     1       0.609   9.038   2.046  1.00  0.00     0.014 A 
ATOM     32  C   UNL     1       2.470   7.495   2.203  1.00  0.00     0.014 A 
ATOM     33  C   UNL     1       0.920   9.530   3.316  1.00  0.00     0.010 A 
ATOM     34  C   UNL     1       2.716   7.917   3.503  1.00  0.00     0.010 A 
ATOM     35  C   UNL     1       1.943   8.938   4.075  1.00  0.00    -0.014 A 
BRANCH  35  36
ATOM     36  C   UNL     1       2.218   9.361   5.472  1.00  0.00     0.031 A 
ATOM     37  C   UNL     1       3.564   9.929   5.834  1.00  0.00     0.074 A 
ATOM     38  C   UNL     1       1.285   9.162   6.425  1.00  0.00     0.049 A 
ATOM     39  N   UNL     1       4.023  10.277   7.007  1.00  0.00    -0.248 NA
ATOM     40  C   UNL     1       4.533  10.098   4.738  1.00  0.00     0.031 C 
ATOM     41  C   UNL     1      -0.034   8.560   6.210  1.00  0.00     0.029 A 
ATOM     42  N   UNL     1       1.306   9.430   7.771  1.00  0.00    -0.354 N 
ATOM     43  C   UNL     1       5.333  10.688   6.795  1.00  0.00     0.074 A 
ATOM     44  C   UNL     1       5.616  10.495   5.390  1.00  0.00     0.031 C 
ATOM     45  C   UNL     1      -0.701   8.528   7.375  1.00  0.00     0.029 A 
ATOM     46  C   UNL     1       0.152   9.068   8.427  1.00  0.00     0.049 A 
ATOM     47  H   UNL     1       2.076   9.844   8.225  1.00  0.00     0.167 HD
ATOM     48  C   UNL     1       6.212  11.206   7.684  1.00  0.00     0.037 A 
ATOM     49  C   UNL     1      -0.176   9.153   9.731  1.00  0.00     0.037 A 
ATOM     50  C   UNL     1       5.911  11.431   9.073  1.00  0.00     0.049 A 
ATOM     51  C   UNL     1       0.815   9.745  10.697  1.00  0.00     0.074 A 
ATOM     52  C   UNL     1       6.708  12.017  10.041  1.00  0.00     0.029 A 
ATOM     53  N   UNL     1       4.720  11.083   9.693  1.00  0.00    -0.354 N 
ATOM     54  N   UNL     1       2.024  10.198  10.463  1.00  0.00    -0.248 NA
ATOM     55  C   UNL     1       0.398   9.843  12.103  1.00  0.00     0.031 C 
ATOM     56  C   UNL     1       6.017  11.984  11.255  1.00  0.00     0.029 A 
ATOM     57  C   UNL     1       4.769  11.423  11.034  1.00  0.00     0.049 A 
ATOM     58  H   UNL     1       3.954  10.657   9.245  1.00  0.00     0.167 HD
ATOM     59  C   UNL     1       2.500  10.660  11.685  1.00  0.00     0.074 A 
ATOM     60  C   UNL     1       1.444  10.445  12.652  1.00  0.00     0.031 C 
ATOM     61  C   UNL     1       3.703  11.211  11.981  1.00  0.00     0.037 A 
BRANCH  48  62
ATOM     62  C   UNL     1       7.579  11.582   7.184  1.00  0.00     0.058 A 
ATOM     63  C   UNL     1       7.776  12.688   6.341  1.00  0.00     0.135 A 
ATOM     64  C   UNL     1       8.713  10.864   7.597  1.00  0.00     0.135 A 
ATOM     65  F   UNL     1       6.726  13.398   5.900  1.00  0.00    -0.206 F 
ATOM     66  C   UNL     1       9.046  13.058   5.912  1.00  0.00     0.059 A 
ATOM     67  C   UNL     1       9.996  11.233   7.202  1.00  0.00     0.059 A 
ATOM     68  F   UNL     1       8.582   9.795   8.399  1.00  0.00    -0.206 F 
ATOM     69  C   UNL     1      10.150  12.326   6.351  1.00  0.00     0.060 A 
BRANCH  69  70
ATOM     70  S   UNL     1      11.793  12.840   5.807  1.00  0.00     0.124 S 
ATOM     71  O   UNL     1      11.776  12.430   4.406  1.00  0.00    -0.237 OA
ATOM     72  O   UNL     1      11.765  14.279   6.047  1.00  0.00    -0.237 OA
ATOM     73  O   UNL     1      12.691  12.080   6.672  1.00  0.00    -0.744 OA
ENDBRANCH  69  70
ENDBRANCH  48  62
BRANCH  49  74
ATOM     74  C   UNL     1      -1.507   8.682  10.201  1.00  0.00     0.058 A 
ATOM     75  C   UNL     1      -2.477   9.591  10.652  1.00  0.00     0.135 A 
ATOM     76  C   UNL     1      -1.835   7.318  10.217  1.00  0.00     0.135 A 
ATOM     77  F   UNL     1      -2.211  10.906  10.661  1.00  0.00    -0.206 F 
ATOM     78  C   UNL     1      -3.712   9.163  11.128  1.00  0.00     0.059 A 
ATOM     79  C   UNL     1      -3.074   6.867  10.662  1.00  0.00     0.059 A 
ATOM     80  F   UNL     1      -0.950   6.409   9.777  1.00  0.00    -0.206 F 
ATOM     81  C   UNL     1      -4.001   7.797  11.130  1.00  0.00     0.060 A 
BRANCH  81  82
ATOM     82  S   UNL     1      -5.618   7.254  11.722  1.00  0.00     0.124 S 
ATOM     83  O   UNL     1      -5.477   7.430  13.162  1.00  0.00    -0.237 OA
ATOM     84  O   UNL     1      -6.520   8.184  11.050  1.00  0.00    -0.237 OA
ATOM     85  O   UNL     1      -5.697   5.872  11.258  1.00  0.00    -0.744 OA
ENDBRANCH  81  82
ENDBRANCH  49  74
BRANCH  61  86
ATOM     86  C   UNL     1       3.931  11.654  13.399  1.00  0.00     0.058 A 
ATOM     87  C   UNL     1       4.132  10.732  14.437  1.00  0.00     0.135 A 
ATOM     88  C   UNL     1       4.002  13.022  13.712  1.00  0.00     0.135 A 
ATOM     89  F   UNL     1       4.068   9.414  14.191  1.00  0.00    -0.206 F 
ATOM     90  C   UNL     1       4.372  11.149  15.742  1.00  0.00     0.059 A 
ATOM     91  C   UNL     1       4.269  13.461  15.004  1.00  0.00     0.059 A 
ATOM     92  F   UNL     1       3.828  13.945  12.753  1.00  0.00    -0.206 F 
ATOM     93  C   UNL     1       4.441  12.517  16.015  1.00  0.00     0.060 A 
BRANCH  93  94
ATOM     94  S   UNL     1       4.786  13.045  17.706  1.00  0.00     0.124 S 
ATOM     95  O   UNL     1       3.512  12.775  18.364  1.00  0.00    -0.237 OA
ATOM     96  O   UNL     1       5.893  12.173  18.086  1.00  0.00    -0.237 OA
ATOM     97  O   UNL     1       5.130  14.456  17.557  1.00  0.00    -0.744 OA
ENDBRANCH  93  94
ENDBRANCH  61  86
ENDBRANCH  35  36
ENDBRANCH  27  30
ENDBRANCH  25  26
ENDBRANCH   1  25
TORSDOF 17
