REMARK SMILES COc1cc(Cn2cc(C(=O)NCCCCNC(=O)c3ccc(-c4c5nc(c(-c6c(F)cc(S(=O)(=O)[O-])cc6F)c6ccc([nH]6)c(-c6c(F)cc(S(=O)(=O)[O-])cc6F)c6nc(c(-c7c(F)cc(S(=O)(=O)[O-])cc7F)c7ccc4[nH]7)C=C6)C=C5)cc3)c(=O)[nH]c2=O)ccn1
REMARK SMILES IDX 14 1 13 2 12 3 10 4 11 5 9 7 7 8 8 9 89 10 88 11 90 12 86 13
REMARK SMILES IDX 87 15 6 16 5 17 3 18 4 19 93 20 92 21 91 22 2 23 1 24 15 25
REMARK SMILES IDX 16 26 17 27 18 28 19 30 20 31 21 32 85 33 22 34 84 35 23 36
REMARK SMILES IDX 24 37 25 38 78 39 26 40 83 41 77 42 79 43 27 44 82 45 76 46
REMARK SMILES IDX 75 47 28 49 62 50 41 51 61 52 42 53 45 54 60 55 80 56 43 57
REMARK SMILES IDX 44 58 59 60 81 61 46 62 29 63 30 64 39 65 31 66 32 67 38 68
REMARK SMILES IDX 40 69 33 70 34 71 35 72 36 73 37 74 63 75 64 76 73 77 65 78
REMARK SMILES IDX 66 79 72 80 74 81 67 82 68 83 69 84 70 85 71 86 47 87 48 88
REMARK SMILES IDX 57 89 49 90 50 91 56 92 58 93 51 94 52 95 53 96 54 97 55 98
REMARK H PARENT 12 6 88 14 17 29 79 48 45 59
REMARK Flexibility Score: inf
ROOT
ATOM      1  C   UNL     1       1.821   6.798  -5.373  1.00  0.00     0.023 C 
ENDROOT
BRANCH   1   2
ATOM      2  C   UNL     1       1.697   5.600  -6.324  1.00  0.00     0.116 C 
BRANCH   2   3
ATOM      3  N   UNL     1       2.746   5.641  -7.328  1.00  0.00    -0.352 N 
ATOM      4  C   UNL     1       3.973   5.045  -7.404  1.00  0.00     0.258 C 
ATOM      5  O   UNL     1       4.683   5.335  -8.365  1.00  0.00    -0.269 OA
ATOM      6  H   UNL     1       2.531   6.207  -8.104  1.00  0.00     0.163 HD
BRANCH   4   7
ATOM      7  C   UNL     1       4.453   4.077  -6.378  1.00  0.00     0.121 A 
ATOM      8  N   UNL     1       4.673   3.352  -4.099  1.00  0.00    -0.295 N 
ATOM      9  C   UNL     1       4.246   4.245  -5.065  1.00  0.00     0.110 A 
ATOM     10  C   UNL     1       5.491   2.279  -4.415  1.00  0.00     0.328 A 
ATOM     11  N   UNL     1       5.804   2.161  -5.742  1.00  0.00    -0.273 N 
ATOM     12  O   UNL     1       5.915   1.467  -3.597  1.00  0.00    -0.248 OA
ATOM     13  C   UNL     1       5.289   2.910  -6.768  1.00  0.00     0.266 A 
ATOM     14  H   UNL     1       6.464   1.472  -5.983  1.00  0.00     0.175 HD
ATOM     15  O   UNL     1       5.496   2.579  -7.931  1.00  0.00    -0.268 OA
BRANCH   8  16
ATOM     16  C   UNL     1       4.201   3.503  -2.722  1.00  0.00     0.162 C 
BRANCH  16  17
ATOM     17  C   UNL     1       2.819   2.916  -2.538  1.00  0.00    -0.021 A 
ATOM     18  C   UNL     1       1.372   1.100  -1.978  1.00  0.00     0.213 A 
ATOM     19  C   UNL     1       2.659   1.583  -2.152  1.00  0.00     0.074 A 
ATOM     20  N   UNL     1       0.250   1.807  -2.219  1.00  0.00    -0.222 NA
ATOM     21  C   UNL     1       0.422   3.079  -2.623  1.00  0.00     0.115 A 
ATOM     22  C   UNL     1       1.667   3.674  -2.776  1.00  0.00     0.026 A 
BRANCH  18  23
ATOM     23  O   UNL     1       1.204  -0.186  -1.529  1.00  0.00    -0.481 OA
ATOM     24  C   UNL     1       0.924  -0.139  -0.131  1.00  0.00     0.280 C 
ENDBRANCH  18  23
ENDBRANCH  16  17
ENDBRANCH   8  16
ENDBRANCH   4   7
ENDBRANCH   2   3
ENDBRANCH   1   2
BRANCH   1  25
ATOM     25  C   UNL     1       1.162   8.078  -5.887  1.00  0.00     0.023 C 
BRANCH  25  26
ATOM     26  C   UNL     1      -0.360   8.041  -5.871  1.00  0.00     0.116 C 
BRANCH  26  27
ATOM     27  N   UNL     1      -0.922   7.926  -4.531  1.00  0.00    -0.352 N 
ATOM     28  C   UNL     1      -2.137   8.402  -4.087  1.00  0.00     0.251 C 
ATOM     29  H   UNL     1      -0.370   7.453  -3.867  1.00  0.00     0.163 HD
ATOM     30  O   UNL     1      -2.457   8.302  -2.913  1.00  0.00    -0.269 OA
BRANCH  28  31
ATOM     31  C   UNL     1      -3.006   9.092  -5.062  1.00  0.00     0.039 A 
ATOM     32  C   UNL     1      -3.339   8.466  -6.265  1.00  0.00     0.014 A 
ATOM     33  C   UNL     1      -3.372  10.417  -4.819  1.00  0.00     0.014 A 
ATOM     34  C   UNL     1      -3.899   9.217  -7.291  1.00  0.00     0.010 A 
ATOM     35  C   UNL     1      -3.999  11.149  -5.828  1.00  0.00     0.010 A 
ATOM     36  C   UNL     1      -4.221  10.569  -7.088  1.00  0.00    -0.014 A 
BRANCH  36  37
ATOM     37  C   UNL     1      -4.775  11.370  -8.206  1.00  0.00     0.031 A 
ATOM     38  C   UNL     1      -3.985  12.505  -8.801  1.00  0.00     0.074 A 
ATOM     39  C   UNL     1      -5.980  11.045  -8.711  1.00  0.00     0.049 A 
ATOM     40  N   UNL     1      -4.335  13.354  -9.732  1.00  0.00    -0.248 NA
ATOM     41  C   UNL     1      -2.623  12.714  -8.283  1.00  0.00     0.031 C 
ATOM     42  C   UNL     1      -6.821   9.942  -8.240  1.00  0.00     0.029 A 
ATOM     43  N   UNL     1      -6.698  11.596  -9.740  1.00  0.00    -0.354 N 
ATOM     44  C   UNL     1      -3.253  14.211  -9.897  1.00  0.00     0.074 A 
ATOM     45  C   UNL     1      -2.235  13.787  -8.959  1.00  0.00     0.031 C 
ATOM     46  C   UNL     1      -7.922   9.875  -9.002  1.00  0.00     0.029 A 
ATOM     47  C   UNL     1      -7.897  10.966  -9.969  1.00  0.00     0.049 A 
ATOM     48  H   UNL     1      -6.385  12.369 -10.263  1.00  0.00     0.167 HD
ATOM     49  C   UNL     1      -3.122  15.251 -10.755  1.00  0.00     0.037 A 
ATOM     50  C   UNL     1      -8.878  11.250 -10.845  1.00  0.00     0.037 A 
ATOM     51  C   UNL     1      -4.135  15.655 -11.696  1.00  0.00     0.049 A 
ATOM     52  C   UNL     1      -8.723  12.428 -11.761  1.00  0.00     0.074 A 
ATOM     53  C   UNL     1      -4.109  16.711 -12.592  1.00  0.00     0.029 A 
ATOM     54  N   UNL     1      -5.352  15.013 -11.875  1.00  0.00    -0.354 N 
ATOM     55  N   UNL     1      -7.718  13.265 -11.860  1.00  0.00    -0.248 NA
ATOM     56  C   UNL     1      -9.838  12.707 -12.675  1.00  0.00     0.031 C 
ATOM     57  C   UNL     1      -5.320  16.721 -13.295  1.00  0.00     0.029 A 
ATOM     58  C   UNL     1      -6.084  15.648 -12.864  1.00  0.00     0.049 A 
ATOM     59  H   UNL     1      -5.651  14.221 -11.373  1.00  0.00     0.167 HD
ATOM     60  C   UNL     1      -8.074  14.165 -12.856  1.00  0.00     0.074 A 
ATOM     61  C   UNL     1      -9.380  13.761 -13.337  1.00  0.00     0.031 C 
ATOM     62  C   UNL     1      -7.383  15.232 -13.327  1.00  0.00     0.037 A 
BRANCH  49  63
ATOM     63  C   UNL     1      -1.845  16.043 -10.706  1.00  0.00     0.058 A 
ATOM     64  C   UNL     1      -0.649  15.545 -11.246  1.00  0.00     0.135 A 
ATOM     65  C   UNL     1      -1.827  17.336 -10.157  1.00  0.00     0.135 A 
ATOM     66  F   UNL     1      -0.605  14.308 -11.765  1.00  0.00    -0.206 F 
ATOM     67  C   UNL     1       0.523  16.296 -11.233  1.00  0.00     0.059 A 
ATOM     68  C   UNL     1      -0.672  18.112 -10.151  1.00  0.00     0.059 A 
ATOM     69  F   UNL     1      -2.943  17.858  -9.624  1.00  0.00    -0.206 F 
ATOM     70  C   UNL     1       0.501  17.579 -10.682  1.00  0.00     0.060 A 
BRANCH  70  71
ATOM     71  S   UNL     1       2.028  18.544 -10.680  1.00  0.00     0.124 S 
ATOM     72  O   UNL     1       2.796  17.868  -9.639  1.00  0.00    -0.237 OA
ATOM     73  O   UNL     1       2.514  18.365 -12.044  1.00  0.00    -0.237 OA
ATOM     74  O   UNL     1       1.577  19.893 -10.350  1.00  0.00    -0.744 OA
ENDBRANCH  70  71
ENDBRANCH  49  63
BRANCH  50  75
ATOM     75  C   UNL     1     -10.092  10.396 -10.881  1.00  0.00     0.058 A 
ATOM     76  C   UNL     1     -10.312   9.505 -11.939  1.00  0.00     0.135 A 
ATOM     77  C   UNL     1     -11.022  10.414  -9.830  1.00  0.00     0.135 A 
ATOM     78  F   UNL     1      -9.452   9.458 -12.967  1.00  0.00    -0.206 F 
ATOM     79  C   UNL     1     -11.413   8.655 -11.954  1.00  0.00     0.059 A 
ATOM     80  C   UNL     1     -12.117   9.558  -9.811  1.00  0.00     0.059 A 
ATOM     81  F   UNL     1     -10.843  11.240  -8.787  1.00  0.00    -0.206 F 
ATOM     82  C   UNL     1     -12.306   8.684 -10.881  1.00  0.00     0.060 A 
BRANCH  82  83
ATOM     83  S   UNL     1     -13.684   7.517 -10.867  1.00  0.00     0.124 S 
ATOM     84  O   UNL     1     -14.588   8.121 -11.839  1.00  0.00    -0.237 OA
ATOM     85  O   UNL     1     -13.039   6.274 -11.279  1.00  0.00    -0.237 OA
ATOM     86  O   UNL     1     -14.134   7.549  -9.479  1.00  0.00    -0.744 OA
ENDBRANCH  82  83
ENDBRANCH  50  75
BRANCH  62  87
ATOM     87  C   UNL     1      -8.020  16.018 -14.436  1.00  0.00     0.058 A 
ATOM     88  C   UNL     1      -9.083  16.901 -14.193  1.00  0.00     0.135 A 
ATOM     89  C   UNL     1      -7.548  15.899 -15.752  1.00  0.00     0.135 A 
ATOM     90  F   UNL     1      -9.573  17.043 -12.952  1.00  0.00    -0.206 F 
ATOM     91  C   UNL     1      -9.677  17.619 -15.225  1.00  0.00     0.059 A 
ATOM     92  C   UNL     1      -8.114  16.623 -16.796  1.00  0.00     0.059 A 
ATOM     93  F   UNL     1      -6.527  15.073 -16.033  1.00  0.00    -0.206 F 
ATOM     94  C   UNL     1      -9.188  17.470 -16.524  1.00  0.00     0.060 A 
BRANCH  94  95
ATOM     95  S   UNL     1      -9.962  18.411 -17.856  1.00  0.00     0.124 S 
ATOM     96  O   UNL     1     -11.194  17.659 -18.068  1.00  0.00    -0.237 OA
ATOM     97  O   UNL     1     -10.122  19.732 -17.256  1.00  0.00    -0.237 OA
ATOM     98  O   UNL     1      -8.985  18.335 -18.937  1.00  0.00    -0.744 OA
ENDBRANCH  94  95
ENDBRANCH  62  87
ENDBRANCH  36  37
ENDBRANCH  28  31
ENDBRANCH  26  27
ENDBRANCH  25  26
ENDBRANCH   1  25
TORSDOF 17
