REMARK SMILES CCc1cc(N2CCC[C@H](C(=O)NCCCCNC(=O)c3ccc(-c4c5nc(c(-c6c(F)cc(S(=O)(=O)[O-])cc6F)c6ccc([nH]6)c(-c6c(F)cc(S(=O)(=O)[O-])cc6F)c6nc(c(-c7c(F)cc(S(=O)(=O)[O-])cc7F)c7ccc4[nH]7)C=C6)C=C5)cc3)C2)nc(-c2ccc(Cl)cc2)n1
REMARK SMILES IDX 16 1 15 2 14 3 13 4 11 5 12 6 10 8 6 9 7 10 87 11 8 12 9 13
REMARK SMILES IDX 5 14 3 15 4 16 97 17 89 18 88 19 2 20 1 21 90 22 91 23 96 24
REMARK SMILES IDX 92 25 95 26 93 27 94 28 17 29 18 30 19 31 20 33 21 34 22 35
REMARK SMILES IDX 86 36 23 37 85 38 24 39 25 40 26 41 79 42 27 43 84 44 78 45
REMARK SMILES IDX 80 46 28 47 83 48 77 49 76 50 29 52 63 53 42 54 62 55 43 56
REMARK SMILES IDX 46 57 61 58 81 59 44 60 45 61 60 63 82 64 47 65 30 66 31 67
REMARK SMILES IDX 40 68 32 69 33 70 39 71 41 72 34 73 35 74 36 75 37 76 38 77
REMARK SMILES IDX 64 78 65 79 74 80 66 81 67 82 73 83 75 84 68 85 69 86 70 87
REMARK SMILES IDX 71 88 72 89 48 90 49 91 58 92 50 93 51 94 57 95 59 96 52 97
REMARK SMILES IDX 53 98 54 99 55 100 56 101
REMARK H PARENT 13 7 18 32 80 51 46 62
REMARK Flexibility Score: inf
ROOT
ATOM      1  C   UNL     1       1.542   7.804  -5.465  1.00  0.00     0.023 C 
ENDROOT
BRANCH   1   2
ATOM      2  C   UNL     1       0.819   7.953  -4.132  1.00  0.00     0.023 C 
BRANCH   2   3
ATOM      3  C   UNL     1       1.562   7.356  -2.941  1.00  0.00     0.116 C 
BRANCH   3   4
ATOM      4  N   UNL     1       2.246   8.341  -2.134  1.00  0.00    -0.356 N 
ATOM      5  C   UNL     1       2.107   8.646  -0.819  1.00  0.00     0.224 C 
ATOM      6  O   UNL     1       2.973   9.380  -0.325  1.00  0.00    -0.275 OA
ATOM      7  H   UNL     1       2.920   8.874  -2.614  1.00  0.00     0.163 HD
BRANCH   5   8
ATOM      8  C   UNL     1       0.951   8.167   0.064  1.00  0.00     0.098 C 
ATOM      9  N   UNL     1       0.091   5.903  -0.438  1.00  0.00    -0.356 N 
ATOM     10  C   UNL     1      -1.292   6.319  -0.575  1.00  0.00     0.118 C 
ATOM     11  C   UNL     1       0.989   6.678   0.403  1.00  0.00     0.131 C 
ATOM     12  C   UNL     1      -1.351   7.766  -1.070  1.00  0.00     0.022 C 
ATOM     13  C   UNL     1      -0.430   8.720  -0.312  1.00  0.00     0.017 C 
BRANCH   9  14
ATOM     14  C   UNL     1       0.448   4.593  -0.689  1.00  0.00     0.132 A 
ATOM     15  C   UNL     1       0.480   2.297  -0.151  1.00  0.00     0.046 A 
ATOM     16  C   UNL     1       0.051   3.572   0.155  1.00  0.00     0.070 A 
ATOM     17  N   UNL     1       1.211   2.045  -1.246  1.00  0.00    -0.233 NA
ATOM     18  C   UNL     1       1.571   3.091  -2.004  1.00  0.00     0.161 A 
ATOM     19  N   UNL     1       1.241   4.367  -1.754  1.00  0.00    -0.211 NA
BRANCH  15  20
ATOM     20  C   UNL     1       0.181   1.142   0.771  1.00  0.00     0.053 C 
ATOM     21  C   UNL     1       0.776  -0.186   0.310  1.00  0.00     0.011 C 
ENDBRANCH  15  20
BRANCH  18  22
ATOM     22  C   UNL     1       2.483   2.778  -3.107  1.00  0.00     0.019 A 
ATOM     23  C   UNL     1       2.173   1.746  -4.014  1.00  0.00     0.013 A 
ATOM     24  C   UNL     1       3.741   3.396  -3.212  1.00  0.00     0.013 A 
ATOM     25  C   UNL     1       3.107   1.303  -4.954  1.00  0.00     0.021 A 
ATOM     26  C   UNL     1       4.685   2.945  -4.143  1.00  0.00     0.021 A 
ATOM     27  C   UNL     1       4.370   1.886  -4.994  1.00  0.00     0.041 A 
ATOM     28  Cl  UNL     1       5.544   1.304  -6.106  1.00  0.00    -0.084 Cl
ENDBRANCH  18  22
ENDBRANCH   9  14
ENDBRANCH   5   8
ENDBRANCH   3   4
ENDBRANCH   2   3
ENDBRANCH   1   2
BRANCH   1  29
ATOM     29  C   UNL     1       1.858   6.370  -5.881  1.00  0.00     0.116 C 
BRANCH  29  30
ATOM     30  N   UNL     1       0.694   5.504  -6.020  1.00  0.00    -0.352 N 
ATOM     31  C   UNL     1       0.499   4.491  -6.937  1.00  0.00     0.251 C 
ATOM     32  H   UNL     1      -0.042   5.660  -5.385  1.00  0.00     0.163 HD
ATOM     33  O   UNL     1      -0.565   3.880  -6.983  1.00  0.00    -0.269 OA
BRANCH  31  34
ATOM     34  C   UNL     1       1.587   4.172  -7.890  1.00  0.00     0.039 A 
ATOM     35  C   UNL     1       1.319   4.107  -9.258  1.00  0.00     0.014 A 
ATOM     36  C   UNL     1       2.893   4.021  -7.423  1.00  0.00     0.014 A 
ATOM     37  C   UNL     1       2.381   3.989 -10.161  1.00  0.00     0.010 A 
ATOM     38  C   UNL     1       3.951   3.969  -8.317  1.00  0.00     0.010 A 
ATOM     39  C   UNL     1       3.707   3.967  -9.695  1.00  0.00    -0.014 A 
BRANCH  39  40
ATOM     40  C   UNL     1       4.869   3.999 -10.614  1.00  0.00     0.031 A 
ATOM     41  C   UNL     1       5.820   2.838 -10.668  1.00  0.00     0.074 A 
ATOM     42  C   UNL     1       5.137   5.134 -11.289  1.00  0.00     0.049 A 
ATOM     43  N   UNL     1       6.948   2.721 -11.320  1.00  0.00    -0.248 NA
ATOM     44  C   UNL     1       5.475   1.667  -9.847  1.00  0.00     0.031 C 
ATOM     45  C   UNL     1       4.330   6.356 -11.243  1.00  0.00     0.029 A 
ATOM     46  N   UNL     1       6.172   5.453 -12.130  1.00  0.00    -0.354 N 
ATOM     47  C   UNL     1       7.460   1.478 -10.968  1.00  0.00     0.074 A 
ATOM     48  C   UNL     1       6.545   0.902 -10.006  1.00  0.00     0.031 C 
ATOM     49  C   UNL     1       4.885   7.281 -12.042  1.00  0.00     0.029 A 
ATOM     50  C   UNL     1       6.100   6.730 -12.634  1.00  0.00     0.049 A 
ATOM     51  H   UNL     1       6.898   4.826 -12.352  1.00  0.00     0.167 HD
ATOM     52  C   UNL     1       8.580   0.865 -11.423  1.00  0.00     0.037 A 
ATOM     53  C   UNL     1       6.919   7.378 -13.484  1.00  0.00     0.037 A 
ATOM     54  C   UNL     1       9.463   1.441 -12.405  1.00  0.00     0.049 A 
ATOM     55  C   UNL     1       8.127   6.660 -14.019  1.00  0.00     0.074 A 
ATOM     56  C   UNL     1      10.578   0.879 -12.999  1.00  0.00     0.029 A 
ATOM     57  N   UNL     1       9.326   2.716 -12.938  1.00  0.00    -0.354 N 
ATOM     58  N   UNL     1       8.557   5.452 -13.742  1.00  0.00    -0.248 NA
ATOM     59  C   UNL     1       8.955   7.387 -14.990  1.00  0.00     0.031 C 
ATOM     60  C   UNL     1      11.133   1.824 -13.870  1.00  0.00     0.029 A 
ATOM     61  C   UNL     1      10.341   2.961 -13.849  1.00  0.00     0.049 A 
ATOM     62  H   UNL     1       8.613   3.352 -12.704  1.00  0.00     0.167 HD
ATOM     63  C   UNL     1       9.688   5.261 -14.526  1.00  0.00     0.074 A 
ATOM     64  C   UNL     1       9.871   6.477 -15.294  1.00  0.00     0.031 C 
ATOM     65  C   UNL     1      10.499   4.177 -14.608  1.00  0.00     0.037 A 
BRANCH  52  66
ATOM     66  C   UNL     1       8.898  -0.499 -10.872  1.00  0.00     0.058 A 
ATOM     67  C   UNL     1       8.101  -1.617 -11.169  1.00  0.00     0.135 A 
ATOM     68  C   UNL     1      10.017  -0.698 -10.047  1.00  0.00     0.135 A 
ATOM     69  F   UNL     1       7.013  -1.486 -11.944  1.00  0.00    -0.206 F 
ATOM     70  C   UNL     1       8.375  -2.872 -10.633  1.00  0.00     0.059 A 
ATOM     71  C   UNL     1      10.328  -1.952  -9.525  1.00  0.00     0.059 A 
ATOM     72  F   UNL     1      10.820   0.331  -9.735  1.00  0.00    -0.206 F 
ATOM     73  C   UNL     1       9.488  -3.028  -9.807  1.00  0.00     0.060 A 
BRANCH  73  74
ATOM     74  S   UNL     1       9.827  -4.661  -9.114  1.00  0.00     0.124 S 
ATOM     75  O   UNL     1       8.827  -4.740  -8.053  1.00  0.00    -0.237 OA
ATOM     76  O   UNL     1       9.607  -5.541 -10.257  1.00  0.00    -0.237 OA
ATOM     77  O   UNL     1      11.212  -4.558  -8.665  1.00  0.00    -0.744 OA
ENDBRANCH  73  74
ENDBRANCH  52  66
BRANCH  53  78
ATOM     78  C   UNL     1       6.579   8.752 -13.935  1.00  0.00     0.058 A 
ATOM     79  C   UNL     1       6.093   8.972 -15.232  1.00  0.00     0.135 A 
ATOM     80  C   UNL     1       6.690   9.859 -13.081  1.00  0.00     0.135 A 
ATOM     81  F   UNL     1       5.971   7.944 -16.085  1.00  0.00    -0.206 F 
ATOM     82  C   UNL     1       5.739  10.243 -15.673  1.00  0.00     0.059 A 
ATOM     83  C   UNL     1       6.323  11.138 -13.492  1.00  0.00     0.059 A 
ATOM     84  F   UNL     1       7.130   9.697 -11.823  1.00  0.00    -0.206 F 
ATOM     85  C   UNL     1       5.854  11.320 -14.793  1.00  0.00     0.060 A 
BRANCH  85  86
ATOM     86  S   UNL     1       5.332  12.954 -15.357  1.00  0.00     0.124 S 
ATOM     87  O   UNL     1       6.417  13.314 -16.262  1.00  0.00    -0.237 OA
ATOM     88  O   UNL     1       4.046  12.665 -15.985  1.00  0.00    -0.237 OA
ATOM     89  O   UNL     1       5.256  13.727 -14.121  1.00  0.00    -0.744 OA
ENDBRANCH  85  86
ENDBRANCH  53  78
BRANCH  65  90
ATOM     90  C   UNL     1      11.637   4.245 -15.586  1.00  0.00     0.058 A 
ATOM     91  C   UNL     1      12.779   5.020 -15.337  1.00  0.00     0.135 A 
ATOM     92  C   UNL     1      11.601   3.487 -16.768  1.00  0.00     0.135 A 
ATOM     93  F   UNL     1      12.859   5.769 -14.226  1.00  0.00    -0.206 F 
ATOM     94  C   UNL     1      13.839   5.061 -16.238  1.00  0.00     0.059 A 
ATOM     95  C   UNL     1      12.659   3.493 -17.671  1.00  0.00     0.059 A 
ATOM     96  F   UNL     1      10.534   2.722 -17.049  1.00  0.00    -0.206 F 
ATOM     97  C   UNL     1      13.770   4.293 -17.402  1.00  0.00     0.060 A 
BRANCH  97  98
ATOM     98  S   UNL     1      15.164   4.328 -18.548  1.00  0.00     0.124 S 
ATOM     99  O   UNL     1      14.985   5.627 -19.188  1.00  0.00    -0.237 OA
ATOM    100  O   UNL     1      16.310   4.217 -17.651  1.00  0.00    -0.237 OA
ATOM    101  O   UNL     1      14.931   3.168 -19.402  1.00  0.00    -0.744 OA
ENDBRANCH  97  98
ENDBRANCH  65  90
ENDBRANCH  39  40
ENDBRANCH  31  34
ENDBRANCH  29  30
ENDBRANCH   1  29
TORSDOF 17
