REMARK SMILES Cc1cc(C(=O)N[C@H](CC(C)C)C(=O)NCCCCNC(=O)c2ccc(-c3c4nc(c(-c5c(F)cc(S(=O)(=O)[O-])cc5F)c5ccc([nH]5)c(-c5c(F)cc(S(=O)(=O)[O-])cc5F)c5nc(c(-c6c(F)cc(S(=O)(=O)[O-])cc6F)c6ccc3[nH]6)C=C5)C=C4)cc2)sc1Br
REMARK SMILES IDX 18 1 17 2 16 3 15 4 13 5 14 6 8 8 7 9 5 10 6 11 4 13 1 14
REMARK SMILES IDX 2 15 3 16 90 17 89 18 91 19 9 20 10 21 11 22 12 23 19 24
REMARK SMILES IDX 20 25 21 26 22 28 23 29 24 30 88 31 25 32 87 33 26 34 27 35
REMARK SMILES IDX 28 36 81 37 29 38 86 39 80 40 82 41 30 42 85 43 79 44 78 45
REMARK SMILES IDX 31 47 65 48 44 49 64 50 45 51 48 52 63 53 83 54 46 55 47 56
REMARK SMILES IDX 62 58 84 59 49 60 32 61 33 62 42 63 34 64 35 65 41 66 43 67
REMARK SMILES IDX 36 68 37 69 38 70 39 71 40 72 66 73 67 74 76 75 68 76 69 77
REMARK SMILES IDX 75 78 77 79 70 80 71 81 72 82 73 83 74 84 50 85 51 86 60 87
REMARK SMILES IDX 52 88 53 89 59 90 61 91 54 92 55 93 56 94 57 95 58 96
REMARK H PARENT 15 7 7 12 20 27 82 46 48 57
REMARK Flexibility Score: inf
ROOT
ATOM      1  C   UNL     1       4.905  -9.046  -0.467  1.00  0.00     0.023 C 
ENDROOT
BRANCH   1   2
ATOM      2  C   UNL     1       3.608  -8.476   0.123  1.00  0.00     0.023 C 
BRANCH   2   3
ATOM      3  C   UNL     1       3.796  -7.469   1.262  1.00  0.00     0.116 C 
BRANCH   3   4
ATOM      4  N   UNL     1       4.212  -6.173   0.771  1.00  0.00    -0.354 N 
ATOM      5  C   UNL     1       3.494  -5.049   0.496  1.00  0.00     0.242 C 
ATOM      6  O   UNL     1       4.098  -4.105  -0.025  1.00  0.00    -0.273 OA
ATOM      7  H   UNL     1       5.179  -6.089   0.609  1.00  0.00     0.163 HD
BRANCH   5   8
ATOM      8  C   UNL     1       1.980  -4.925   0.799  1.00  0.00     0.171 C 
BRANCH   8   9
ATOM      9  N   UNL     1       1.751  -4.960   2.230  1.00  0.00    -0.340 N 
ATOM     10  C   UNL     1       1.583  -3.976   3.177  1.00  0.00     0.262 C 
ATOM     11  O   UNL     1       1.411  -4.418   4.318  1.00  0.00    -0.268 OA
ATOM     12  H   UNL     1       1.705  -5.872   2.599  1.00  0.00     0.164 HD
BRANCH  10  13
ATOM     13  C   UNL     1       1.551  -2.551   2.858  1.00  0.00     0.093 A 
ATOM     14  C   UNL     1       1.929   0.548   0.734  1.00  0.00     0.046 C 
ATOM     15  C   UNL     1       1.656  -0.401   1.855  1.00  0.00    -0.025 A 
ATOM     16  C   UNL     1       2.000  -1.800   1.785  1.00  0.00     0.030 A 
ATOM     17  C   UNL     1       1.086  -0.128   3.076  1.00  0.00     0.074 A 
ATOM     18  S   UNL     1       0.863  -1.498   4.043  1.00  0.00    -0.123 S 
ATOM     19  Br  UNL     1       0.576   1.580   3.673  1.00  0.00    -0.039 Br
ENDBRANCH  10  13
ENDBRANCH   8   9
BRANCH   8  20
ATOM     20  C   UNL     1       1.070  -5.803  -0.086  1.00  0.00     0.038 C 
BRANCH  20  21
ATOM     21  C   UNL     1       0.352  -7.053   0.464  1.00  0.00    -0.015 C 
ATOM     22  C   UNL     1      -0.705  -6.756   1.527  1.00  0.00     0.007 C 
ATOM     23  C   UNL     1      -0.325  -7.779  -0.710  1.00  0.00     0.007 C 
ENDBRANCH  20  21
ENDBRANCH   8  20
ENDBRANCH   5   8
ENDBRANCH   3   4
ENDBRANCH   2   3
ENDBRANCH   1   2
BRANCH   1  24
ATOM     24  C   UNL     1       5.713  -9.916   0.492  1.00  0.00     0.116 C 
BRANCH  24  25
ATOM     25  N   UNL     1       4.976 -11.097   0.936  1.00  0.00    -0.352 N 
ATOM     26  C   UNL     1       5.283 -11.936   1.986  1.00  0.00     0.251 C 
ATOM     27  H   UNL     1       4.164 -11.320   0.425  1.00  0.00     0.163 HD
ATOM     28  O   UNL     1       4.852 -13.089   2.011  1.00  0.00    -0.269 OA
BRANCH  26  29
ATOM     29  C   UNL     1       6.127 -11.430   3.079  1.00  0.00     0.039 A 
ATOM     30  C   UNL     1       7.193 -12.183   3.574  1.00  0.00     0.014 A 
ATOM     31  C   UNL     1       5.857 -10.157   3.581  1.00  0.00     0.014 A 
ATOM     32  C   UNL     1       8.045 -11.605   4.513  1.00  0.00     0.010 A 
ATOM     33  C   UNL     1       6.757  -9.550   4.428  1.00  0.00     0.010 A 
ATOM     34  C   UNL     1       7.842 -10.274   4.918  1.00  0.00    -0.014 A 
BRANCH  34  35
ATOM     35  C   UNL     1       8.867  -9.584   5.706  1.00  0.00     0.031 A 
ATOM     36  C   UNL     1      10.230  -9.618   5.093  1.00  0.00     0.074 A 
ATOM     37  C   UNL     1       8.587  -8.775   6.754  1.00  0.00     0.049 A 
ATOM     38  N   UNL     1      11.297 -10.189   5.547  1.00  0.00    -0.248 NA
ATOM     39  C   UNL     1      10.387  -9.079   3.729  1.00  0.00     0.031 C 
ATOM     40  C   UNL     1       7.265  -8.387   7.259  1.00  0.00     0.029 A 
ATOM     41  N   UNL     1       9.426  -8.023   7.522  1.00  0.00    -0.354 N 
ATOM     42  C   UNL     1      12.315  -9.865   4.651  1.00  0.00     0.074 A 
ATOM     43  C   UNL     1      11.662  -9.375   3.467  1.00  0.00     0.031 C 
ATOM     44  C   UNL     1       7.384  -7.306   8.062  1.00  0.00     0.029 A 
ATOM     45  C   UNL     1       8.794  -7.027   8.266  1.00  0.00     0.049 A 
ATOM     46  H   UNL     1      10.399  -8.171   7.549  1.00  0.00     0.167 HD
ATOM     47  C   UNL     1      13.614  -9.774   5.058  1.00  0.00     0.037 A 
ATOM     48  C   UNL     1       9.382  -6.027   8.974  1.00  0.00     0.037 A 
ATOM     49  C   UNL     1      13.799 -10.427   6.331  1.00  0.00     0.049 A 
ATOM     50  C   UNL     1      10.790  -6.431   9.208  1.00  0.00     0.074 A 
ATOM     51  C   UNL     1      13.592 -11.705   6.814  1.00  0.00     0.029 A 
ATOM     52  N   UNL     1      13.916  -9.624   7.439  1.00  0.00    -0.354 N 
ATOM     53  N   UNL     1      11.146  -7.428   9.969  1.00  0.00    -0.248 NA
ATOM     54  C   UNL     1      11.789  -5.993   8.248  1.00  0.00     0.031 C 
ATOM     55  C   UNL     1      13.115 -11.523   8.146  1.00  0.00     0.029 A 
ATOM     56  C   UNL     1      13.130 -10.156   8.426  1.00  0.00     0.049 A 
ATOM     57  H   UNL     1      14.467  -8.812   7.511  1.00  0.00     0.167 HD
ATOM     58  C   UNL     1      12.203  -8.022   9.297  1.00  0.00     0.074 A 
ATOM     59  C   UNL     1      12.621  -7.035   8.305  1.00  0.00     0.031 C 
ATOM     60  C   UNL     1      12.446  -9.361   9.421  1.00  0.00     0.037 A 
BRANCH  47  61
ATOM     61  C   UNL     1      14.614  -8.761   4.528  1.00  0.00     0.058 A 
ATOM     62  C   UNL     1      15.950  -8.814   4.984  1.00  0.00     0.135 A 
ATOM     63  C   UNL     1      14.262  -7.578   3.840  1.00  0.00     0.135 A 
ATOM     64  F   UNL     1      16.405  -9.889   5.648  1.00  0.00    -0.206 F 
ATOM     65  C   UNL     1      16.834  -7.741   4.851  1.00  0.00     0.059 A 
ATOM     66  C   UNL     1      15.143  -6.519   3.649  1.00  0.00     0.059 A 
ATOM     67  F   UNL     1      13.022  -7.342   3.398  1.00  0.00    -0.206 F 
ATOM     68  C   UNL     1      16.412  -6.589   4.197  1.00  0.00     0.060 A 
BRANCH  68  69
ATOM     69  S   UNL     1      17.509  -5.164   4.108  1.00  0.00     0.124 S 
ATOM     70  O   UNL     1      17.534  -4.731   5.500  1.00  0.00    -0.237 OA
ATOM     71  O   UNL     1      18.739  -5.763   3.601  1.00  0.00    -0.237 OA
ATOM     72  O   UNL     1      16.824  -4.272   3.179  1.00  0.00    -0.744 OA
ENDBRANCH  68  69
ENDBRANCH  47  61
BRANCH  48  73
ATOM     73  C   UNL     1       8.918  -4.634   9.222  1.00  0.00     0.058 A 
ATOM     74  C   UNL     1       9.556  -3.818  10.176  1.00  0.00     0.135 A 
ATOM     75  C   UNL     1       8.053  -3.976   8.326  1.00  0.00     0.135 A 
ATOM     76  F   UNL     1      10.405  -4.356  11.065  1.00  0.00    -0.206 F 
ATOM     77  C   UNL     1       9.406  -2.427  10.193  1.00  0.00     0.059 A 
ATOM     78  C   UNL     1       7.878  -2.591   8.331  1.00  0.00     0.059 A 
ATOM     79  F   UNL     1       7.428  -4.650   7.349  1.00  0.00    -0.206 F 
ATOM     80  C   UNL     1       8.585  -1.818   9.246  1.00  0.00     0.060 A 
BRANCH  80  81
ATOM     81  S   UNL     1       8.556  -0.012   9.127  1.00  0.00     0.124 S 
ATOM     82  O   UNL     1       7.844   0.361  10.344  1.00  0.00    -0.237 OA
ATOM     83  O   UNL     1       9.977   0.318   9.095  1.00  0.00    -0.237 OA
ATOM     84  O   UNL     1       7.836   0.234   7.880  1.00  0.00    -0.744 OA
ENDBRANCH  80  81
ENDBRANCH  48  73
BRANCH  60  85
ATOM     85  C   UNL     1      11.799 -10.099  10.565  1.00  0.00     0.058 A 
ATOM     86  C   UNL     1      10.413 -10.229  10.770  1.00  0.00     0.135 A 
ATOM     87  C   UNL     1      12.642 -10.801  11.441  1.00  0.00     0.135 A 
ATOM     88  F   UNL     1       9.533  -9.687   9.917  1.00  0.00    -0.206 F 
ATOM     89  C   UNL     1       9.895 -10.970  11.835  1.00  0.00     0.059 A 
ATOM     90  C   UNL     1      12.147 -11.575  12.486  1.00  0.00     0.059 A 
ATOM     91  F   UNL     1      13.973 -10.771  11.264  1.00  0.00    -0.206 F 
ATOM     92  C   UNL     1      10.772 -11.636  12.692  1.00  0.00     0.060 A 
BRANCH  92  93
ATOM     93  S   UNL     1      10.106 -12.622  14.049  1.00  0.00     0.124 S 
ATOM     94  O   UNL     1       9.595 -11.597  14.952  1.00  0.00    -0.237 OA
ATOM     95  O   UNL     1       9.097 -13.441  13.383  1.00  0.00    -0.237 OA
ATOM     96  O   UNL     1      11.269 -13.359  14.539  1.00  0.00    -0.744 OA
ENDBRANCH  92  93
ENDBRANCH  60  85
ENDBRANCH  34  35
ENDBRANCH  26  29
ENDBRANCH  24  25
ENDBRANCH   1  24
TORSDOF 18
