REMARK SMILES O=C(NCCCCNC(=O)c1ccc(-c2ccn(C(F)F)c(=O)c2)cc1O)c1ccc(-c2c3nc(c(-c4c(F)cc(S(=O)(=O)[O-])cc4F)c4ccc([nH]4)c(-c4c(F)cc(S(=O)(=O)[O-])cc4F)c4nc(c(-c5c(F)cc(S(=O)(=O)[O-])cc5F)c5ccc2[nH]5)C=C4)C=C3)cc1
REMARK SMILES IDX 5 1 4 2 3 3 1 4 2 5 28 7 29 8 93 9 30 10 92 11 31 12 32 13
REMARK SMILES IDX 33 14 86 15 34 16 91 17 85 18 87 19 35 20 90 21 84 22 83 23
REMARK SMILES IDX 36 25 70 26 49 27 69 28 50 29 53 30 68 31 88 32 51 33 52 34
REMARK SMILES IDX 67 36 89 37 54 38 37 39 38 40 47 41 39 42 40 43 46 44 48 45
REMARK SMILES IDX 41 46 42 47 43 48 44 49 45 50 71 51 72 52 81 53 73 54 74 55
REMARK SMILES IDX 80 56 82 57 75 58 76 59 77 60 78 61 79 62 55 63 56 64 65 65
REMARK SMILES IDX 57 66 58 67 64 68 66 69 59 70 60 71 61 72 62 73 63 74 6 75
REMARK SMILES IDX 7 76 8 77 9 78 10 80 11 81 12 82 26 83 13 84 25 85 14 86
REMARK SMILES IDX 27 87 15 89 16 90 24 91 17 92 22 93 18 94 23 95 19 96 20 97
REMARK SMILES IDX 21 98
REMARK H PARENT 3 6 87 24 53 35 8 79 27 88
REMARK Flexibility Score: inf
ROOT
ATOM      1  C   UNL     1       4.954  -0.803   2.298  1.00  0.00     0.023 C 
ENDROOT
BRANCH   1   2
ATOM      2  C   UNL     1       4.577  -0.796   0.821  1.00  0.00     0.116 C 
BRANCH   2   3
ATOM      3  N   UNL     1       3.138  -0.831   0.620  1.00  0.00    -0.352 N 
ATOM      4  O   UNL     1       1.096  -0.041   0.120  1.00  0.00    -0.269 OA
ATOM      5  C   UNL     1       2.313   0.077   0.005  1.00  0.00     0.251 C 
ATOM      6  H   UNL     1       2.685  -1.628   0.980  1.00  0.00     0.163 HD
BRANCH   5   7
ATOM      7  C   UNL     1       2.876   1.191  -0.792  1.00  0.00     0.039 A 
ATOM      8  C   UNL     1       2.268   2.450  -0.719  1.00  0.00     0.014 A 
ATOM      9  C   UNL     1       3.947   0.985  -1.665  1.00  0.00     0.014 A 
ATOM     10  C   UNL     1       2.746   3.502  -1.504  1.00  0.00     0.010 A 
ATOM     11  C   UNL     1       4.469   2.051  -2.392  1.00  0.00     0.010 A 
ATOM     12  C   UNL     1       3.852   3.310  -2.345  1.00  0.00    -0.014 A 
BRANCH  12  13
ATOM     13  C   UNL     1       4.315   4.367  -3.279  1.00  0.00     0.031 A 
ATOM     14  C   UNL     1       4.168   4.148  -4.761  1.00  0.00     0.074 A 
ATOM     15  C   UNL     1       4.895   5.490  -2.817  1.00  0.00     0.049 A 
ATOM     16  N   UNL     1       4.628   4.859  -5.757  1.00  0.00    -0.248 NA
ATOM     17  C   UNL     1       3.420   2.948  -5.171  1.00  0.00     0.031 C 
ATOM     18  C   UNL     1       5.079   5.831  -1.407  1.00  0.00     0.029 A 
ATOM     19  N   UNL     1       5.440   6.551  -3.494  1.00  0.00    -0.354 N 
ATOM     20  C   UNL     1       4.242   4.184  -6.910  1.00  0.00     0.074 A 
ATOM     21  C   UNL     1       3.562   2.979  -6.487  1.00  0.00     0.031 C 
ATOM     22  C   UNL     1       5.671   7.034  -1.324  1.00  0.00     0.029 A 
ATOM     23  C   UNL     1       5.951   7.525  -2.671  1.00  0.00     0.049 A 
ATOM     24  H   UNL     1       5.464   6.609  -4.476  1.00  0.00     0.167 HD
ATOM     25  C   UNL     1       4.414   4.546  -8.204  1.00  0.00     0.037 A 
ATOM     26  C   UNL     1       6.582   8.676  -2.972  1.00  0.00     0.037 A 
ATOM     27  C   UNL     1       5.078   5.752  -8.621  1.00  0.00     0.049 A 
ATOM     28  C   UNL     1       6.817   9.033  -4.414  1.00  0.00     0.074 A 
ATOM     29  C   UNL     1       5.306   6.214  -9.905  1.00  0.00     0.029 A 
ATOM     30  N   UNL     1       5.619   6.694  -7.756  1.00  0.00    -0.354 N 
ATOM     31  N   UNL     1       6.474   8.374  -5.495  1.00  0.00    -0.248 NA
ATOM     32  C   UNL     1       7.534  10.288  -4.674  1.00  0.00     0.031 C 
ATOM     33  C   UNL     1       6.013   7.420  -9.817  1.00  0.00     0.029 A 
ATOM     34  C   UNL     1       6.190   7.730  -8.477  1.00  0.00     0.049 A 
ATOM     35  H   UNL     1       5.599   6.635  -6.774  1.00  0.00     0.167 HD
ATOM     36  C   UNL     1       6.923   9.138  -6.566  1.00  0.00     0.074 A 
ATOM     37  C   UNL     1       7.545  10.319  -6.000  1.00  0.00     0.031 C 
ATOM     38  C   UNL     1       6.830   8.886  -7.897  1.00  0.00     0.037 A 
BRANCH  25  39
ATOM     39  C   UNL     1       3.876   3.604  -9.248  1.00  0.00     0.058 A 
ATOM     40  C   UNL     1       2.495   3.420  -9.430  1.00  0.00     0.135 A 
ATOM     41  C   UNL     1       4.747   2.846 -10.047  1.00  0.00     0.135 A 
ATOM     42  F   UNL     1       1.617   4.104  -8.679  1.00  0.00    -0.206 F 
ATOM     43  C   UNL     1       1.997   2.479 -10.325  1.00  0.00     0.059 A 
ATOM     44  C   UNL     1       4.270   1.921 -10.972  1.00  0.00     0.059 A 
ATOM     45  F   UNL     1       6.075   2.982  -9.917  1.00  0.00    -0.206 F 
ATOM     46  C   UNL     1       2.894   1.726 -11.084  1.00  0.00     0.060 A 
BRANCH  46  47
ATOM     47  S   UNL     1       2.235   0.472 -12.203  1.00  0.00     0.124 S 
ATOM     48  O   UNL     1       1.815  -0.564 -11.264  1.00  0.00    -0.237 OA
ATOM     49  O   UNL     1       1.157   1.189 -12.878  1.00  0.00    -0.237 OA
ATOM     50  O   UNL     1       3.378   0.131 -13.043  1.00  0.00    -0.744 OA
ENDBRANCH  46  47
ENDBRANCH  25  39
BRANCH  26  51
ATOM     51  C   UNL     1       6.999   9.588  -1.875  1.00  0.00     0.058 A 
ATOM     52  C   UNL     1       6.293  10.774  -1.632  1.00  0.00     0.135 A 
ATOM     53  C   UNL     1       8.059   9.266  -1.014  1.00  0.00     0.135 A 
ATOM     54  F   UNL     1       5.281  11.130  -2.438  1.00  0.00    -0.206 F 
ATOM     55  C   UNL     1       6.610  11.604  -0.562  1.00  0.00     0.059 A 
ATOM     56  C   UNL     1       8.383  10.070   0.076  1.00  0.00     0.059 A 
ATOM     57  F   UNL     1       8.760   8.138  -1.202  1.00  0.00    -0.206 F 
ATOM     58  C   UNL     1       7.648  11.235   0.296  1.00  0.00     0.060 A 
BRANCH  58  59
ATOM     59  S   UNL     1       7.974  12.265   1.743  1.00  0.00     0.124 S 
ATOM     60  O   UNL     1       8.526  13.468   1.132  1.00  0.00    -0.237 OA
ATOM     61  O   UNL     1       6.643  12.398   2.326  1.00  0.00    -0.237 OA
ATOM     62  O   UNL     1       8.914  11.464   2.521  1.00  0.00    -0.744 OA
ENDBRANCH  58  59
ENDBRANCH  26  51
BRANCH  38  63
ATOM     63  C   UNL     1       7.418   9.911  -8.828  1.00  0.00     0.058 A 
ATOM     64  C   UNL     1       8.806  10.066  -8.966  1.00  0.00     0.135 A 
ATOM     65  C   UNL     1       6.586  10.735  -9.603  1.00  0.00     0.135 A 
ATOM     66  F   UNL     1       9.646   9.306  -8.245  1.00  0.00    -0.206 F 
ATOM     67  C   UNL     1       9.349  11.028  -9.812  1.00  0.00     0.059 A 
ATOM     68  C   UNL     1       7.108  11.686 -10.476  1.00  0.00     0.059 A 
ATOM     69  F   UNL     1       5.251  10.619  -9.520  1.00  0.00    -0.206 F 
ATOM     70  C   UNL     1       8.491  11.837 -10.559  1.00  0.00     0.060 A 
BRANCH  70  71
ATOM     71  S   UNL     1       9.210  13.084 -11.649  1.00  0.00     0.124 S 
ATOM     72  O   UNL     1       9.661  14.087 -10.689  1.00  0.00    -0.237 OA
ATOM     73  O   UNL     1      10.264  12.337 -12.328  1.00  0.00    -0.237 OA
ATOM     74  O   UNL     1       8.088  13.484 -12.494  1.00  0.00    -0.744 OA
ENDBRANCH  70  71
ENDBRANCH  38  63
ENDBRANCH  12  13
ENDBRANCH   5   7
ENDBRANCH   2   3
ENDBRANCH   1   2
BRANCH   1  75
ATOM     75  C   UNL     1       4.472  -2.019   3.088  1.00  0.00     0.023 C 
BRANCH  75  76
ATOM     76  C   UNL     1       4.870  -3.371   2.507  1.00  0.00     0.116 C 
BRANCH  76  77
ATOM     77  N   UNL     1       6.310  -3.555   2.454  1.00  0.00    -0.352 N 
ATOM     78  C   UNL     1       7.038  -4.661   2.813  1.00  0.00     0.255 C 
ATOM     79  H   UNL     1       6.829  -2.789   2.117  1.00  0.00     0.163 HD
ATOM     80  O   UNL     1       8.266  -4.643   2.773  1.00  0.00    -0.269 OA
BRANCH  78  81
ATOM     81  C   UNL     1       6.351  -5.860   3.333  1.00  0.00     0.081 A 
ATOM     82  C   UNL     1       6.701  -6.297   4.616  1.00  0.00     0.018 A 
ATOM     83  C   UNL     1       5.393  -6.560   2.594  1.00  0.00     0.128 A 
ATOM     84  C   UNL     1       6.059  -7.403   5.178  1.00  0.00     0.010 A 
ATOM     85  C   UNL     1       4.743  -7.656   3.159  1.00  0.00     0.055 A 
ATOM     86  C   UNL     1       5.067  -8.082   4.458  1.00  0.00    -0.014 A 
BRANCH  83  87
ATOM     87  O   UNL     1       5.080  -6.176   1.321  1.00  0.00    -0.507 OA
ATOM     88  H   UNL     1       5.513  -5.441   0.933  1.00  0.00     0.293 HD
ENDBRANCH  83  87
BRANCH  86  89
ATOM     89  C   UNL     1       4.364  -9.252   5.020  1.00  0.00    -0.011 A 
ATOM     90  C   UNL     1       4.355 -10.538   4.348  1.00  0.00     0.027 A 
ATOM     91  C   UNL     1       3.660  -9.105   6.155  1.00  0.00     0.080 A 
ATOM     92  C   UNL     1       3.619 -11.549   4.822  1.00  0.00     0.095 A 
ATOM     93  C   UNL     1       2.858 -10.232   6.712  1.00  0.00     0.255 A 
ATOM     94  N   UNL     1       2.870 -11.405   5.974  1.00  0.00    -0.258 N 
ATOM     95  O   UNL     1       2.239 -10.052   7.755  1.00  0.00    -0.269 OA
BRANCH  94  96
ATOM     96  C   UNL     1       2.056 -12.490   6.454  1.00  0.00     0.451 C 
ATOM     97  F   UNL     1       2.434 -12.876   7.697  1.00  0.00    -0.185 F 
ATOM     98  F   UNL     1       0.749 -12.134   6.503  1.00  0.00    -0.185 F 
ENDBRANCH  94  96
ENDBRANCH  86  89
ENDBRANCH  78  81
ENDBRANCH  76  77
ENDBRANCH  75  76
ENDBRANCH   1  75
TORSDOF 17
