REMARK SMILES CC(C)CN(C)c1cc2c(cc1Cl)C=C(C(=O)NCCCCNC(=O)c1ccc(-c3c4nc(c(-c5c(F)cc(S(=O)(=O)[O-])cc5F)c5ccc([nH]5)c(-c5c(F)cc(S(=O)(=O)[O-])cc5F)c5nc(c(-c6c(F)cc(S(=O)(=O)[O-])cc6F)c6ccc3[nH]6)C=C5)C=C4)cc1)[C@@H](C(F)(F)F)O2
REMARK SMILES IDX 20 1 19 2 18 3 16 4 17 5 15 7 7 8 8 9 12 10 9 11 11 12 13 13
REMARK SMILES IDX 10 14 97 15 14 16 92 17 5 18 6 19 4 20 2 21 1 22 3 23 93 24
REMARK SMILES IDX 94 25 95 26 96 27 21 28 22 29 23 30 24 31 25 33 26 34 27 35
REMARK SMILES IDX 91 36 28 37 90 38 29 39 30 40 31 41 84 42 32 43 89 44 83 45
REMARK SMILES IDX 85 46 33 47 88 48 82 49 81 50 34 52 68 53 47 54 67 55 48 56
REMARK SMILES IDX 51 57 66 58 86 59 49 60 50 61 65 63 87 64 52 65 35 66 36 67
REMARK SMILES IDX 45 68 37 69 38 70 44 71 46 72 39 73 40 74 41 75 42 76 43 77
REMARK SMILES IDX 69 78 70 79 79 80 71 81 72 82 78 83 80 84 73 85 74 86 75 87
REMARK SMILES IDX 76 88 77 89 53 90 54 91 63 92 55 93 56 94 62 95 64 96 57 97
REMARK SMILES IDX 58 98 59 99 60 100 61 101
REMARK H PARENT 18 6 23 32 85 51 51 62
REMARK Flexibility Score: inf
ROOT
ATOM      1  C   UNL     1      -3.776  -8.722  -0.638  1.00  0.00     0.023 C 
ENDROOT
BRANCH   1   2
ATOM      2  C   UNL     1      -2.872  -8.521   0.574  1.00  0.00     0.116 C 
BRANCH   2   3
ATOM      3  N   UNL     1      -1.489  -8.314   0.185  1.00  0.00    -0.352 N 
ATOM      4  C   UNL     1      -0.613  -7.283   0.193  1.00  0.00     0.251 C 
ATOM      5  O   UNL     1       0.525  -7.549  -0.206  1.00  0.00    -0.270 OA
ATOM      6  H   UNL     1      -1.085  -9.135  -0.177  1.00  0.00     0.163 HD
BRANCH   4   7
ATOM      7  C   UNL     1      -0.930  -5.894   0.626  1.00  0.00     0.067 C 
ATOM      8  C   UNL     1      -0.742  -0.941   1.571  1.00  0.00     0.059 A 
ATOM      9  C   UNL     1      -1.738  -1.819   1.116  1.00  0.00     0.074 A 
ATOM     10  C   UNL     1       0.537  -1.481   1.840  1.00  0.00     0.065 A 
ATOM     11  C   UNL     1      -1.454  -3.167   0.913  1.00  0.00     0.130 A 
ATOM     12  C   UNL     1       0.839  -2.817   1.545  1.00  0.00     0.034 A 
ATOM     13  Cl  UNL     1       1.794  -0.538   2.567  1.00  0.00    -0.082 Cl
ATOM     14  C   UNL     1      -0.157  -3.660   1.067  1.00  0.00     0.019 A 
ATOM     15  O   UNL     1      -2.494  -3.985   0.555  1.00  0.00    -0.475 OA
ATOM     16  C   UNL     1       0.114  -5.046   0.701  1.00  0.00     0.025 C 
ATOM     17  C   UNL     1      -2.303  -5.378   0.954  1.00  0.00     0.314 C 
BRANCH   8  18
ATOM     18  N   UNL     1      -1.024   0.427   1.727  1.00  0.00    -0.373 N 
ATOM     19  C   UNL     1      -2.091   0.728   2.679  1.00  0.00     0.143 C 
BRANCH  18  20
ATOM     20  C   UNL     1      -0.997   1.240   0.493  1.00  0.00     0.119 C 
BRANCH  20  21
ATOM     21  C   UNL     1       0.438   1.553   0.018  1.00  0.00     0.002 C 
ATOM     22  C   UNL     1       0.929   0.555  -1.035  1.00  0.00     0.009 C 
ATOM     23  C   UNL     1       0.526   2.967  -0.563  1.00  0.00     0.009 C 
ENDBRANCH  20  21
ENDBRANCH  18  20
ENDBRANCH   8  18
BRANCH  17  24
ATOM     24  C   UNL     1      -2.656  -5.571   2.449  1.00  0.00     0.429 C 
ATOM     25  F   UNL     1      -3.993  -5.453   2.640  1.00  0.00    -0.167 F 
ATOM     26  F   UNL     1      -2.307  -6.798   2.906  1.00  0.00    -0.167 F 
ATOM     27  F   UNL     1      -2.054  -4.674   3.261  1.00  0.00    -0.167 F 
ENDBRANCH  17  24
ENDBRANCH   4   7
ENDBRANCH   2   3
ENDBRANCH   1   2
BRANCH   1  28
ATOM     28  C   UNL     1      -3.768 -10.146  -1.195  1.00  0.00     0.023 C 
BRANCH  28  29
ATOM     29  C   UNL     1      -4.124 -11.238  -0.191  1.00  0.00     0.116 C 
BRANCH  29  30
ATOM     30  N   UNL     1      -5.378 -11.011   0.515  1.00  0.00    -0.352 N 
ATOM     31  C   UNL     1      -6.251 -11.960   1.010  1.00  0.00     0.251 C 
ATOM     32  H   UNL     1      -5.633 -10.070   0.656  1.00  0.00     0.163 HD
ATOM     33  O   UNL     1      -7.302 -11.640   1.527  1.00  0.00    -0.269 OA
BRANCH  31  34
ATOM     34  C   UNL     1      -5.880 -13.380   0.840  1.00  0.00     0.039 A 
ATOM     35  C   UNL     1      -4.641 -13.832   1.296  1.00  0.00     0.014 A 
ATOM     36  C   UNL     1      -6.725 -14.214   0.105  1.00  0.00     0.014 A 
ATOM     37  C   UNL     1      -4.175 -15.070   0.875  1.00  0.00     0.010 A 
ATOM     38  C   UNL     1      -6.282 -15.489  -0.253  1.00  0.00     0.010 A 
ATOM     39  C   UNL     1      -4.985 -15.905   0.086  1.00  0.00    -0.014 A 
BRANCH  39  40
ATOM     40  C   UNL     1      -4.450 -17.209  -0.377  1.00  0.00     0.031 A 
ATOM     41  C   UNL     1      -4.197 -17.463  -1.838  1.00  0.00     0.074 A 
ATOM     42  C   UNL     1      -4.139 -18.144   0.540  1.00  0.00     0.049 A 
ATOM     43  N   UNL     1      -3.745 -18.545  -2.418  1.00  0.00    -0.248 NA
ATOM     44  C   UNL     1      -4.489 -16.362  -2.771  1.00  0.00     0.031 C 
ATOM     45  C   UNL     1      -4.320 -17.995   1.986  1.00  0.00     0.029 A 
ATOM     46  N   UNL     1      -3.583 -19.388   0.400  1.00  0.00    -0.354 N 
ATOM     47  C   UNL     1      -3.720 -18.269  -3.780  1.00  0.00     0.074 A 
ATOM     48  C   UNL     1      -4.217 -16.919  -3.944  1.00  0.00     0.031 C 
ATOM     49  C   UNL     1      -3.829 -19.079   2.603  1.00  0.00     0.029 A 
ATOM     50  C   UNL     1      -3.362 -20.026   1.596  1.00  0.00     0.049 A 
ATOM     51  H   UNL     1      -3.362 -19.785  -0.474  1.00  0.00     0.167 HD
ATOM     52  C   UNL     1      -3.316 -19.067  -4.797  1.00  0.00     0.037 A 
ATOM     53  C   UNL     1      -2.853 -21.244   1.855  1.00  0.00     0.037 A 
ATOM     54  C   UNL     1      -2.804 -20.402  -4.621  1.00  0.00     0.049 A 
ATOM     55  C   UNL     1      -2.432 -22.117   0.712  1.00  0.00     0.074 A 
ATOM     56  C   UNL     1      -2.377 -21.297  -5.588  1.00  0.00     0.029 A 
ATOM     57  N   UNL     1      -2.640 -21.033  -3.396  1.00  0.00    -0.354 N 
ATOM     58  N   UNL     1      -2.458 -21.855  -0.573  1.00  0.00    -0.248 NA
ATOM     59  C   UNL     1      -1.928 -23.454   1.049  1.00  0.00     0.031 C 
ATOM     60  C   UNL     1      -1.980 -22.477  -4.949  1.00  0.00     0.029 A 
ATOM     61  C   UNL     1      -2.125 -22.305  -3.582  1.00  0.00     0.049 A 
ATOM     62  H   UNL     1      -2.858 -20.634  -2.522  1.00  0.00     0.167 HD
ATOM     63  C   UNL     1      -1.969 -22.994  -1.200  1.00  0.00     0.074 A 
ATOM     64  C   UNL     1      -1.639 -23.939  -0.151  1.00  0.00     0.031 C 
ATOM     65  C   UNL     1      -1.812 -23.235  -2.525  1.00  0.00     0.037 A 
BRANCH  52  66
ATOM     66  C   UNL     1      -3.428 -18.527  -6.196  1.00  0.00     0.058 A 
ATOM     67  C   UNL     1      -2.536 -17.562  -6.688  1.00  0.00     0.135 A 
ATOM     68  C   UNL     1      -4.416 -19.011  -7.069  1.00  0.00     0.135 A 
ATOM     69  F   UNL     1      -1.585 -17.052  -5.890  1.00  0.00    -0.206 F 
ATOM     70  C   UNL     1      -2.632 -17.080  -7.990  1.00  0.00     0.059 A 
ATOM     71  C   UNL     1      -4.518 -18.558  -8.382  1.00  0.00     0.059 A 
ATOM     72  F   UNL     1      -5.296 -19.934  -6.649  1.00  0.00    -0.206 F 
ATOM     73  C   UNL     1      -3.629 -17.582  -8.829  1.00  0.00     0.060 A 
BRANCH  73  74
ATOM     74  S   UNL     1      -3.743 -16.946 -10.515  1.00  0.00     0.124 S 
ATOM     75  O   UNL     1      -4.309 -15.620 -10.287  1.00  0.00    -0.237 OA
ATOM     76  O   UNL     1      -2.351 -16.972 -10.955  1.00  0.00    -0.237 OA
ATOM     77  O   UNL     1      -4.625 -17.899 -11.181  1.00  0.00    -0.744 OA
ENDBRANCH  73  74
ENDBRANCH  52  66
BRANCH  53  78
ATOM     78  C   UNL     1      -2.717 -21.684   3.266  1.00  0.00     0.058 A 
ATOM     79  C   UNL     1      -1.460 -21.727   3.885  1.00  0.00     0.135 A 
ATOM     80  C   UNL     1      -3.846 -21.984   4.044  1.00  0.00     0.135 A 
ATOM     81  F   UNL     1      -0.354 -21.453   3.178  1.00  0.00    -0.206 F 
ATOM     82  C   UNL     1      -1.327 -22.037   5.234  1.00  0.00     0.059 A 
ATOM     83  C   UNL     1      -3.740 -22.275   5.399  1.00  0.00     0.059 A 
ATOM     84  F   UNL     1      -5.070 -21.938   3.497  1.00  0.00    -0.206 F 
ATOM     85  C   UNL     1      -2.475 -22.297   5.986  1.00  0.00     0.060 A 
BRANCH  85  86
ATOM     86  S   UNL     1      -2.302 -22.592   7.759  1.00  0.00     0.124 S 
ATOM     87  O   UNL     1      -1.784 -23.955   7.781  1.00  0.00    -0.237 OA
ATOM     88  O   UNL     1      -1.364 -21.545   8.155  1.00  0.00    -0.237 OA
ATOM     89  O   UNL     1      -3.663 -22.423   8.260  1.00  0.00    -0.744 OA
ENDBRANCH  85  86
ENDBRANCH  53  78
BRANCH  65  90
ATOM     90  C   UNL     1      -1.249 -24.571  -2.912  1.00  0.00     0.058 A 
ATOM     91  C   UNL     1      -2.036 -25.732  -2.880  1.00  0.00     0.135 A 
ATOM     92  C   UNL     1       0.076 -24.683  -3.359  1.00  0.00     0.135 A 
ATOM     93  F   UNL     1      -3.307 -25.675  -2.453  1.00  0.00    -0.206 F 
ATOM     94  C   UNL     1      -1.520 -26.966  -3.259  1.00  0.00     0.059 A 
ATOM     95  C   UNL     1       0.607 -25.904  -3.761  1.00  0.00     0.059 A 
ATOM     96  F   UNL     1       0.865 -23.598  -3.414  1.00  0.00    -0.206 F 
ATOM     97  C   UNL     1      -0.197 -27.042  -3.697  1.00  0.00     0.060 A 
BRANCH  97  98
ATOM     98  S   UNL     1       0.454 -28.645  -4.212  1.00  0.00     0.124 S 
ATOM     99  O   UNL     1       0.665 -29.302  -2.926  1.00  0.00    -0.237 OA
ATOM    100  O   UNL     1      -0.633 -29.179  -5.026  1.00  0.00    -0.237 OA
ATOM    101  O   UNL     1       1.667 -28.299  -4.947  1.00  0.00    -0.744 OA
ENDBRANCH  97  98
ENDBRANCH  65  90
ENDBRANCH  39  40
ENDBRANCH  31  34
ENDBRANCH  29  30
ENDBRANCH  28  29
ENDBRANCH   1  28
TORSDOF 18
