REMARK SMILES COc1ccc(C(C)(C)C)cc1CC(=O)NCCCCNC(=O)c1ccc(-c2c3nc(c(-c4c(F)cc(S(=O)(=O)[O-])cc4F)c4ccc([nH]4)c(-c4c(F)cc(S(=O)(=O)[O-])cc4F)c4nc(c(-c5c(F)cc(S(=O)(=O)[O-])cc5F)c5ccc2[nH]5)C=C4)C=C3)cc1
REMARK SMILES IDX 19 1 18 2 17 3 16 4 14 5 15 6 13 8 12 9 3 10 4 11 5 12 11 13
REMARK SMILES IDX 6 14 2 15 1 16 7 17 8 18 9 19 10 20 20 21 21 22 22 23 23 25
REMARK SMILES IDX 24 26 25 27 89 28 26 29 88 30 27 31 28 32 29 33 82 34 30 35
REMARK SMILES IDX 87 36 81 37 83 38 31 39 86 40 80 41 79 42 32 44 66 45 45 46
REMARK SMILES IDX 65 47 46 48 49 49 64 50 84 51 47 52 48 53 63 55 85 56 50 57
REMARK SMILES IDX 33 58 34 59 43 60 35 61 36 62 42 63 44 64 37 65 38 66 39 67
REMARK SMILES IDX 40 68 41 69 67 70 68 71 77 72 69 73 70 74 76 75 78 76 71 77
REMARK SMILES IDX 72 78 73 79 74 80 75 81 51 82 52 83 61 84 53 85 54 86 60 87
REMARK SMILES IDX 62 88 55 89 56 90 57 91 58 92 59 93
REMARK H PARENT 16 7 21 24 83 43 49 54
REMARK Flexibility Score: inf
ROOT
ATOM      1  C   UNL     1       3.217   4.349   3.264  1.00  0.00     0.023 C 
ENDROOT
BRANCH   1   2
ATOM      2  C   UNL     1       2.424   3.166   2.705  1.00  0.00     0.023 C 
BRANCH   2   3
ATOM      3  C   UNL     1       2.982   2.599   1.399  1.00  0.00     0.116 C 
BRANCH   3   4
ATOM      4  N   UNL     1       4.220   1.877   1.615  1.00  0.00    -0.356 N 
ATOM      5  C   UNL     1       4.408   0.530   1.731  1.00  0.00     0.224 C 
ATOM      6  O   UNL     1       5.535   0.109   1.998  1.00  0.00    -0.275 OA
ATOM      7  H   UNL     1       5.031   2.430   1.688  1.00  0.00     0.163 HD
BRANCH   5   8
ATOM      8  C   UNL     1       3.257  -0.426   1.462  1.00  0.00     0.139 C 
BRANCH   8   9
ATOM      9  C   UNL     1       2.161  -0.406   2.504  1.00  0.00     0.004 A 
ATOM     10  C   UNL     1       0.828  -0.034   2.279  1.00  0.00     0.122 A 
ATOM     11  C   UNL     1      -0.045   0.060   3.368  1.00  0.00     0.047 A 
ATOM     12  C   UNL     1       0.372  -0.238   4.667  1.00  0.00     0.008 A 
ATOM     13  C   UNL     1       2.555  -0.731   3.829  1.00  0.00     0.012 A 
ATOM     14  C   UNL     1       1.686  -0.643   4.930  1.00  0.00    -0.042 A 
BRANCH  10  15
ATOM     15  O   UNL     1       0.258   0.407   1.116  1.00  0.00    -0.496 OA
ATOM     16  C   UNL     1       0.544  -0.286  -0.089  1.00  0.00     0.278 C 
ENDBRANCH  10  15
BRANCH  14  17
ATOM     17  C   UNL     1       2.131  -0.946   6.372  1.00  0.00    -0.013 C 
ATOM     18  C   UNL     1       1.949   0.310   7.253  1.00  0.00     0.016 C 
ATOM     19  C   UNL     1       1.272  -2.094   6.943  1.00  0.00     0.016 C 
ATOM     20  C   UNL     1       3.611  -1.375   6.496  1.00  0.00     0.016 C 
ENDBRANCH  14  17
ENDBRANCH   8   9
ENDBRANCH   5   8
ENDBRANCH   3   4
ENDBRANCH   2   3
ENDBRANCH   1   2
BRANCH   1  21
ATOM     21  C   UNL     1       3.330   5.549   2.330  1.00  0.00     0.116 C 
BRANCH  21  22
ATOM     22  N   UNL     1       2.041   6.104   1.950  1.00  0.00    -0.352 N 
ATOM     23  C   UNL     1       1.705   7.424   1.741  1.00  0.00     0.251 C 
ATOM     24  H   UNL     1       1.313   5.453   1.827  1.00  0.00     0.163 HD
ATOM     25  O   UNL     1       0.544   7.741   1.537  1.00  0.00    -0.269 OA
BRANCH  23  26
ATOM     26  C   UNL     1       2.766   8.455   1.809  1.00  0.00     0.039 A 
ATOM     27  C   UNL     1       2.554   9.586   2.601  1.00  0.00     0.014 A 
ATOM     28  C   UNL     1       3.972   8.288   1.125  1.00  0.00     0.014 A 
ATOM     29  C   UNL     1       3.582  10.517   2.763  1.00  0.00     0.010 A 
ATOM     30  C   UNL     1       5.018   9.182   1.341  1.00  0.00     0.010 A 
ATOM     31  C   UNL     1       4.835  10.303   2.164  1.00  0.00    -0.014 A 
BRANCH  31  32
ATOM     32  C   UNL     1       5.968  11.235   2.394  1.00  0.00     0.031 A 
ATOM     33  C   UNL     1       6.548  12.016   1.246  1.00  0.00     0.074 A 
ATOM     34  C   UNL     1       6.520  11.325   3.620  1.00  0.00     0.049 A 
ATOM     35  N   UNL     1       7.585  12.813   1.230  1.00  0.00    -0.248 NA
ATOM     36  C   UNL     1       5.891  11.858  -0.062  1.00  0.00     0.031 C 
ATOM     37  C   UNL     1       6.082  10.579   4.803  1.00  0.00     0.029 A 
ATOM     38  N   UNL     1       7.579  12.071   4.074  1.00  0.00    -0.354 N 
ATOM     39  C   UNL     1       7.713  13.242  -0.086  1.00  0.00     0.074 A 
ATOM     40  C   UNL     1       6.679  12.575  -0.849  1.00  0.00     0.031 C 
ATOM     41  C   UNL     1       6.855  10.917   5.848  1.00  0.00     0.029 A 
ATOM     42  C   UNL     1       7.864  11.875   5.405  1.00  0.00     0.049 A 
ATOM     43  H   UNL     1       8.088  12.689   3.501  1.00  0.00     0.167 HD
ATOM     44  C   UNL     1       8.595  14.128  -0.607  1.00  0.00     0.037 A 
ATOM     45  C   UNL     1       8.833  12.400   6.180  1.00  0.00     0.037 A 
ATOM     46  C   UNL     1       9.605  14.808   0.162  1.00  0.00     0.049 A 
ATOM     47  C   UNL     1       9.796  13.390   5.582  1.00  0.00     0.074 A 
ATOM     48  C   UNL     1      10.513  15.761  -0.263  1.00  0.00     0.029 A 
ATOM     49  N   UNL     1       9.839  14.608   1.515  1.00  0.00    -0.354 N 
ATOM     50  N   UNL     1       9.866  13.827   4.347  1.00  0.00    -0.248 NA
ATOM     51  C   UNL     1      10.806  13.963   6.482  1.00  0.00     0.031 C 
ATOM     52  C   UNL     1      11.320  16.113   0.825  1.00  0.00     0.029 A 
ATOM     53  C   UNL     1      10.885  15.411   1.938  1.00  0.00     0.049 A 
ATOM     54  H   UNL     1       9.335  13.987   2.090  1.00  0.00     0.167 HD
ATOM     55  C   UNL     1      10.910  14.745   4.328  1.00  0.00     0.074 A 
ATOM     56  C   UNL     1      11.434  14.809   5.676  1.00  0.00     0.031 C 
ATOM     57  C   UNL     1      11.390  15.470   3.287  1.00  0.00     0.037 A 
BRANCH  44  58
ATOM     58  C   UNL     1       8.498  14.423  -2.078  1.00  0.00     0.058 A 
ATOM     59  C   UNL     1       7.426  15.159  -2.610  1.00  0.00     0.135 A 
ATOM     60  C   UNL     1       9.500  13.995  -2.963  1.00  0.00     0.135 A 
ATOM     61  F   UNL     1       6.432  15.579  -1.811  1.00  0.00    -0.206 F 
ATOM     62  C   UNL     1       7.337  15.435  -3.970  1.00  0.00     0.059 A 
ATOM     63  C   UNL     1       9.445  14.283  -4.324  1.00  0.00     0.059 A 
ATOM     64  F   UNL     1      10.546  13.287  -2.508  1.00  0.00    -0.206 F 
ATOM     65  C   UNL     1       8.351  14.991  -4.820  1.00  0.00     0.060 A 
BRANCH  65  66
ATOM     66  S   UNL     1       8.223  15.361  -6.582  1.00  0.00     0.124 S 
ATOM     67  O   UNL     1       7.178  14.430  -6.998  1.00  0.00    -0.237 OA
ATOM     68  O   UNL     1       7.848  16.772  -6.579  1.00  0.00    -0.237 OA
ATOM     69  O   UNL     1       9.560  15.071  -7.089  1.00  0.00    -0.744 OA
ENDBRANCH  65  66
ENDBRANCH  44  58
BRANCH  45  70
ATOM     70  C   UNL     1       8.927  12.016   7.614  1.00  0.00     0.058 A 
ATOM     71  C   UNL     1       8.588  12.924   8.628  1.00  0.00     0.135 A 
ATOM     72  C   UNL     1       9.346  10.733   7.998  1.00  0.00     0.135 A 
ATOM     73  F   UNL     1       8.187  14.164   8.311  1.00  0.00    -0.206 F 
ATOM     74  C   UNL     1       8.676  12.580   9.973  1.00  0.00     0.059 A 
ATOM     75  C   UNL     1       9.420  10.358   9.336  1.00  0.00     0.059 A 
ATOM     76  F   UNL     1       9.666   9.822   7.065  1.00  0.00    -0.206 F 
ATOM     77  C   UNL     1       9.093  11.293  10.317  1.00  0.00     0.060 A 
BRANCH  77  78
ATOM     78  S   UNL     1       9.159  10.842  12.065  1.00  0.00     0.124 S 
ATOM     79  O   UNL     1      10.356  11.549  12.505  1.00  0.00    -0.237 OA
ATOM     80  O   UNL     1       7.890  11.361  12.565  1.00  0.00    -0.237 OA
ATOM     81  O   UNL     1       9.261   9.386  12.030  1.00  0.00    -0.744 OA
ENDBRANCH  77  78
ENDBRANCH  45  70
BRANCH  57  82
ATOM     82  C   UNL     1      12.519  16.421   3.569  1.00  0.00     0.058 A 
ATOM     83  C   UNL     1      13.827  15.967   3.796  1.00  0.00     0.135 A 
ATOM     84  C   UNL     1      12.298  17.808   3.558  1.00  0.00     0.135 A 
ATOM     85  F   UNL     1      14.090  14.651   3.823  1.00  0.00    -0.206 F 
ATOM     86  C   UNL     1      14.874  16.854   4.023  1.00  0.00     0.059 A 
ATOM     87  C   UNL     1      13.335  18.714   3.757  1.00  0.00     0.059 A 
ATOM     88  F   UNL     1      11.067  18.294   3.335  1.00  0.00    -0.206 F 
ATOM     89  C   UNL     1      14.618  18.227   4.000  1.00  0.00     0.060 A 
BRANCH  89  90
ATOM     90  S   UNL     1      15.992  19.369   4.259  1.00  0.00     0.124 S 
ATOM     91  O   UNL     1      16.204  19.252   5.698  1.00  0.00    -0.237 OA
ATOM     92  O   UNL     1      17.038  18.798   3.416  1.00  0.00    -0.237 OA
ATOM     93  O   UNL     1      15.459  20.650   3.804  1.00  0.00    -0.744 OA
ENDBRANCH  89  90
ENDBRANCH  57  82
ENDBRANCH  31  32
ENDBRANCH  23  26
ENDBRANCH  21  22
ENDBRANCH   1  21
TORSDOF 17
