REMARK SMILES Cc1ccc(-c2cc([C@@H](C)C(=O)NCCCNC(=O)c3ccc(-c4c5nc(c(-c6c(F)cc(S(=O)(=O)[O-])cc6F)c6ccc([nH]6)c(-c6c(F)cc(S(=O)(=O)[O-])cc6F)c6nc(c(-c7c(F)cc(S(=O)(=O)[O-])cc7F)c7ccc4[nH]7)C=C6)C=C5)cc3)ccc2C[C@H]2CCCC2=O)cc1
REMARK SMILES IDX 15 1 14 2 13 3 11 4 12 5 9 7 10 8 8 9 6 10 7 11 88 12 87 13
REMARK SMILES IDX 86 14 5 15 1 16 2 17 3 18 97 19 4 20 96 21 89 22 90 23 91 24
REMARK SMILES IDX 94 25 92 26 93 27 95 28 16 29 17 30 18 31 19 33 20 34 21 35
REMARK SMILES IDX 85 36 22 37 84 38 23 39 24 40 25 41 78 42 26 43 83 44 77 45
REMARK SMILES IDX 79 46 27 47 82 48 76 49 75 50 28 52 62 53 41 54 61 55 42 56
REMARK SMILES IDX 45 57 60 58 80 59 43 60 44 61 59 63 81 64 46 65 29 66 30 67
REMARK SMILES IDX 39 68 31 69 32 70 38 71 40 72 33 73 34 74 35 75 36 76 37 77
REMARK SMILES IDX 63 78 64 79 73 80 65 81 66 82 72 83 74 84 67 85 68 86 69 87
REMARK SMILES IDX 70 88 71 89 47 90 48 91 57 92 49 93 50 94 56 95 58 96 51 97
REMARK SMILES IDX 52 98 53 99 54 100 55 101
REMARK H PARENT 13 6 17 32 79 51 45 62
REMARK Flexibility Score: inf
ROOT
ATOM      1  C   UNL     1      -8.655   0.344   0.436  1.00  0.00     0.042 C 
ENDROOT
BRANCH   1   2
ATOM      2  C   UNL     1      -8.894   0.913  -0.960  1.00  0.00     0.117 C 
BRANCH   2   3
ATOM      3  N   UNL     1      -8.030   2.042  -1.272  1.00  0.00    -0.356 N 
ATOM      4  C   UNL     1      -6.809   2.138  -1.865  1.00  0.00     0.227 C 
ATOM      5  O   UNL     1      -6.332   3.278  -1.960  1.00  0.00    -0.274 OA
ATOM      6  H   UNL     1      -8.404   2.911  -0.998  1.00  0.00     0.163 HD
BRANCH   4   7
ATOM      7  C   UNL     1      -5.999   0.945  -2.407  1.00  0.00     0.105 C 
ATOM      8  C   UNL     1      -6.734   0.052  -3.404  1.00  0.00     0.023 C 
BRANCH   7   9
ATOM      9  C   UNL     1      -5.214   0.209  -1.330  1.00  0.00    -0.035 A 
ATOM     10  C   UNL     1      -3.126  -0.089  -0.054  1.00  0.00    -0.015 A 
ATOM     11  C   UNL     1      -3.863   0.517  -1.095  1.00  0.00     0.013 A 
ATOM     12  C   UNL     1      -3.813  -0.912   0.867  1.00  0.00    -0.039 A 
ATOM     13  C   UNL     1      -5.131  -1.289   0.577  1.00  0.00     0.004 A 
ATOM     14  C   UNL     1      -5.795  -0.779  -0.538  1.00  0.00     0.005 A 
BRANCH  10  15
ATOM     15  C   UNL     1      -1.657   0.040  -0.043  1.00  0.00    -0.018 A 
ATOM     16  C   UNL     1       2.668   0.214  -0.028  1.00  0.00     0.044 C 
ATOM     17  C   UNL     1       1.170   0.170  -0.054  1.00  0.00    -0.051 A 
ATOM     18  C   UNL     1       0.522  -1.057  -0.203  1.00  0.00     0.004 A 
ATOM     19  C   UNL     1       0.400   1.332   0.087  1.00  0.00     0.004 A 
ATOM     20  C   UNL     1      -0.871  -1.116  -0.212  1.00  0.00     0.009 A 
ATOM     21  C   UNL     1      -1.000   1.268   0.089  1.00  0.00     0.009 A 
ENDBRANCH  10  15
BRANCH  12  22
ATOM     22  C   UNL     1      -3.199  -1.397   2.167  1.00  0.00     0.047 C 
BRANCH  22  23
ATOM     23  C   UNL     1      -3.565  -0.612   3.436  1.00  0.00     0.060 C 
ATOM     24  C   UNL     1      -3.339   0.903   3.417  1.00  0.00     0.012 C 
ATOM     25  C   UNL     1      -5.031  -0.712   3.787  1.00  0.00     0.136 C 
ATOM     26  C   UNL     1      -4.700   1.533   3.149  1.00  0.00     0.009 C 
ATOM     27  C   UNL     1      -5.701   0.633   3.858  1.00  0.00     0.076 C 
ATOM     28  O   UNL     1      -5.595  -1.772   4.030  1.00  0.00    -0.299 OA
ENDBRANCH  22  23
ENDBRANCH  12  22
ENDBRANCH   7   9
ENDBRANCH   4   7
ENDBRANCH   2   3
ENDBRANCH   1   2
BRANCH   1  29
ATOM     29  C   UNL     1      -9.644   0.818   1.493  1.00  0.00     0.118 C 
BRANCH  29  30
ATOM     30  N   UNL     1     -10.115  -0.309   2.304  1.00  0.00    -0.352 N 
ATOM     31  C   UNL     1     -10.640  -0.303   3.583  1.00  0.00     0.251 C 
ATOM     32  H   UNL     1     -10.048  -1.194   1.878  1.00  0.00     0.163 HD
ATOM     33  O   UNL     1     -10.996  -1.316   4.154  1.00  0.00    -0.269 OA
BRANCH  31  34
ATOM     34  C   UNL     1     -10.792   1.018   4.211  1.00  0.00     0.039 A 
ATOM     35  C   UNL     1     -12.062   1.601   4.202  1.00  0.00     0.014 A 
ATOM     36  C   UNL     1      -9.643   1.761   4.463  1.00  0.00     0.014 A 
ATOM     37  C   UNL     1     -12.166   2.987   4.258  1.00  0.00     0.010 A 
ATOM     38  C   UNL     1      -9.744   3.138   4.436  1.00  0.00     0.010 A 
ATOM     39  C   UNL     1     -10.996   3.752   4.274  1.00  0.00    -0.014 A 
BRANCH  39  40
ATOM     40  C   UNL     1     -10.982   5.188   4.011  1.00  0.00     0.031 A 
ATOM     41  C   UNL     1     -10.678   6.144   5.113  1.00  0.00     0.074 A 
ATOM     42  C   UNL     1     -11.185   5.671   2.760  1.00  0.00     0.049 A 
ATOM     43  N   UNL     1     -11.095   7.367   5.142  1.00  0.00    -0.248 NA
ATOM     44  C   UNL     1      -9.892   5.783   6.293  1.00  0.00     0.031 C 
ATOM     45  C   UNL     1     -10.922   7.043   2.326  1.00  0.00     0.029 A 
ATOM     46  N   UNL     1     -11.812   5.102   1.644  1.00  0.00    -0.354 N 
ATOM     47  C   UNL     1     -10.415   8.016   6.147  1.00  0.00     0.074 A 
ATOM     48  C   UNL     1      -9.729   6.975   6.877  1.00  0.00     0.031 C 
ATOM     49  C   UNL     1     -11.643   7.294   1.224  1.00  0.00     0.029 A 
ATOM     50  C   UNL     1     -12.506   6.147   1.010  1.00  0.00     0.049 A 
ATOM     51  H   UNL     1     -11.774   4.160   1.361  1.00  0.00     0.167 HD
ATOM     52  C   UNL     1     -10.372   9.378   6.185  1.00  0.00     0.037 A 
ATOM     53  C   UNL     1     -13.857   6.223   0.814  1.00  0.00     0.037 A 
ATOM     54  C   UNL     1     -11.116   9.979   5.086  1.00  0.00     0.049 A 
ATOM     55  C   UNL     1     -14.488   7.497   1.343  1.00  0.00     0.074 A 
ATOM     56  C   UNL     1     -10.721  10.449   3.844  1.00  0.00     0.029 A 
ATOM     57  N   UNL     1     -12.502   9.892   5.051  1.00  0.00    -0.354 N 
ATOM     58  N   UNL     1     -13.891   8.306   2.173  1.00  0.00    -0.248 NA
ATOM     59  C   UNL     1     -15.850   7.936   1.036  1.00  0.00     0.031 C 
ATOM     60  C   UNL     1     -11.875  10.619   3.046  1.00  0.00     0.029 A 
ATOM     61  C   UNL     1     -12.974  10.253   3.803  1.00  0.00     0.049 A 
ATOM     62  H   UNL     1     -13.067   9.614   5.808  1.00  0.00     0.167 HD
ATOM     63  C   UNL     1     -14.753   9.302   2.557  1.00  0.00     0.074 A 
ATOM     64  C   UNL     1     -15.954   9.048   1.787  1.00  0.00     0.031 C 
ATOM     65  C   UNL     1     -14.397  10.227   3.498  1.00  0.00     0.037 A 
BRANCH  52  66
ATOM     66  C   UNL     1      -9.387  10.125   7.052  1.00  0.00     0.058 A 
ATOM     67  C   UNL     1      -8.673  11.236   6.557  1.00  0.00     0.135 A 
ATOM     68  C   UNL     1      -9.070   9.746   8.370  1.00  0.00     0.135 A 
ATOM     69  F   UNL     1      -8.918  11.749   5.345  1.00  0.00    -0.206 F 
ATOM     70  C   UNL     1      -7.649  11.855   7.272  1.00  0.00     0.059 A 
ATOM     71  C   UNL     1      -8.016  10.319   9.089  1.00  0.00     0.059 A 
ATOM     72  F   UNL     1      -9.782   8.798   9.001  1.00  0.00    -0.206 F 
ATOM     73  C   UNL     1      -7.301  11.368   8.524  1.00  0.00     0.060 A 
BRANCH  73  74
ATOM     74  S   UNL     1      -5.883  12.099   9.365  1.00  0.00     0.124 S 
ATOM     75  O   UNL     1      -4.862  12.086   8.322  1.00  0.00    -0.237 OA
ATOM     76  O   UNL     1      -6.396  13.414   9.735  1.00  0.00    -0.237 OA
ATOM     77  O   UNL     1      -5.640  11.182  10.476  1.00  0.00    -0.744 OA
ENDBRANCH  73  74
ENDBRANCH  52  66
BRANCH  53  78
ATOM     78  C   UNL     1     -14.552   4.916   0.741  1.00  0.00     0.058 A 
ATOM     79  C   UNL     1     -14.347   4.124  -0.401  1.00  0.00     0.135 A 
ATOM     80  C   UNL     1     -15.032   4.290   1.899  1.00  0.00     0.135 A 
ATOM     81  F   UNL     1     -13.923   4.686  -1.544  1.00  0.00    -0.206 F 
ATOM     82  C   UNL     1     -14.437   2.740  -0.345  1.00  0.00     0.059 A 
ATOM     83  C   UNL     1     -15.130   2.902   1.978  1.00  0.00     0.059 A 
ATOM     84  F   UNL     1     -15.257   5.006   3.010  1.00  0.00    -0.206 F 
ATOM     85  C   UNL     1     -14.759   2.138   0.871  1.00  0.00     0.060 A 
BRANCH  85  86
ATOM     86  S   UNL     1     -14.457   0.362   1.026  1.00  0.00     0.124 S 
ATOM     87  O   UNL     1     -15.402  -0.190   0.063  1.00  0.00    -0.237 OA
ATOM     88  O   UNL     1     -13.046   0.278   0.653  1.00  0.00    -0.237 OA
ATOM     89  O   UNL     1     -14.750   0.099   2.430  1.00  0.00    -0.744 OA
ENDBRANCH  85  86
ENDBRANCH  53  78
BRANCH  65  90
ATOM     90  C   UNL     1     -15.302  11.246   4.155  1.00  0.00     0.058 A 
ATOM     91  C   UNL     1     -16.681  11.068   4.351  1.00  0.00     0.135 A 
ATOM     92  C   UNL     1     -14.751  12.412   4.745  1.00  0.00     0.135 A 
ATOM     93  F   UNL     1     -17.306   9.955   3.942  1.00  0.00    -0.206 F 
ATOM     94  C   UNL     1     -17.471  12.007   5.022  1.00  0.00     0.059 A 
ATOM     95  C   UNL     1     -15.510  13.334   5.464  1.00  0.00     0.059 A 
ATOM     96  F   UNL     1     -13.442  12.693   4.652  1.00  0.00    -0.206 F 
ATOM     97  C   UNL     1     -16.877  13.137   5.575  1.00  0.00     0.060 A 
BRANCH  97  98
ATOM     98  S   UNL     1     -17.873  14.325   6.495  1.00  0.00     0.124 S 
ATOM     99  O   UNL     1     -18.211  15.290   5.454  1.00  0.00    -0.237 OA
ATOM    100  O   UNL     1     -18.983  13.513   6.984  1.00  0.00    -0.237 OA
ATOM    101  O   UNL     1     -16.954  14.800   7.525  1.00  0.00    -0.744 OA
ENDBRANCH  97  98
ENDBRANCH  65  90
ENDBRANCH  39  40
ENDBRANCH  31  34
ENDBRANCH  29  30
ENDBRANCH   1  29
TORSDOF 17
