REMARK SMILES CC(C)C[C@H](NC(=O)CNC(=O)[C@@H](NC(=O)OCc1ccccc1)C(C)C)C(=O)N[C@@H](C)C(=O)NCCCNC(=O)c1ccc(-c2c3nc(c(-c4c(F)cc(S(=O)(=O)[O-])cc4F)c4ccc([nH]4)c(-c4c(F)cc(S(=O)(=O)[O-])cc4F)c4nc(c(-c5c(F)cc(S(=O)(=O)[O-])cc5F)c5ccc2[nH]5)C=C4)C=C3)cc1
REMARK SMILES IDX 31 1 32 2 30 3 28 4 29 5 5 7 4 8 2 9 1 10 3 11 6 12 7 13
REMARK SMILES IDX 8 15 9 16 10 17 11 18 12 20 13 21 14 22 15 23 16 25 17 26
REMARK SMILES IDX 18 27 19 28 20 29 24 30 21 31 23 32 22 33 25 34 26 35 27 36
REMARK SMILES IDX 33 37 34 38 35 39 36 41 37 42 38 43 39 44 40 45 41 47 42 48
REMARK SMILES IDX 43 49 107 50 44 51 106 52 45 53 46 54 47 55 100 56 48 57
REMARK SMILES IDX 105 58 99 59 101 60 49 61 104 62 98 63 97 64 50 66 84 67
REMARK SMILES IDX 63 68 83 69 64 70 67 71 82 72 102 73 65 74 66 75 81 77
REMARK SMILES IDX 103 78 68 79 51 80 52 81 61 82 53 83 54 84 60 85 62 86 55 87
REMARK SMILES IDX 56 88 57 89 58 90 59 91 85 92 86 93 95 94 87 95 88 96 94 97
REMARK SMILES IDX 96 98 89 99 90 100 91 101 92 102 93 103 69 104 70 105 79 106
REMARK SMILES IDX 71 107 72 108 78 109 80 110 73 111 74 112 75 113 76 114
REMARK SMILES IDX 77 115
REMARK H PARENT 30 6 6 14 10 19 14 24 35 40 39 46 101 65 67 76
REMARK Flexibility Score: inf
ROOT
ATOM      1  C   UNL     1      -3.442   3.701  -0.331  1.00  0.00     0.168 C 
ATOM      2  C   UNL     1      -3.438   4.060  -1.810  1.00  0.00     0.041 C 
ENDROOT
BRANCH   1   3
ATOM      3  N   UNL     1      -4.197   2.475  -0.112  1.00  0.00    -0.343 N 
ATOM      4  C   UNL     1      -3.805   1.304   0.449  1.00  0.00     0.243 C 
ATOM      5  O   UNL     1      -4.628   0.386   0.473  1.00  0.00    -0.273 OA
ATOM      6  H   UNL     1      -5.133   2.501  -0.417  1.00  0.00     0.164 HD
BRANCH   4   7
ATOM      7  C   UNL     1      -2.398   1.116   1.039  1.00  0.00     0.171 C 
BRANCH   7   8
ATOM      8  C   UNL     1      -2.165   1.761   2.403  1.00  0.00     0.038 C 
BRANCH   8   9
ATOM      9  C   UNL     1      -3.313   2.431   3.183  1.00  0.00    -0.015 C 
ATOM     10  C   UNL     1      -4.340   1.440   3.723  1.00  0.00     0.007 C 
ATOM     11  C   UNL     1      -2.731   3.219   4.368  1.00  0.00     0.007 C 
ENDBRANCH   8   9
ENDBRANCH   7   8
BRANCH   7  12
ATOM     12  N   UNL     1      -1.406   1.283  -0.057  1.00  0.00    -0.343 N 
ATOM     13  C   UNL     1      -0.372   2.037  -0.482  1.00  0.00     0.240 C 
ATOM     14  H   UNL     1      -1.565   0.577  -0.725  1.00  0.00     0.164 HD
ATOM     15  O   UNL     1      -0.037   1.804  -1.657  1.00  0.00    -0.273 OA
BRANCH  13  16
ATOM     16  C   UNL     1       0.531   2.986   0.323  1.00  0.00     0.216 C 
BRANCH  16  17
ATOM     17  N   UNL     1       0.035   3.939   1.286  1.00  0.00    -0.345 N 
ATOM     18  C   UNL     1       0.398   4.187   2.573  1.00  0.00     0.243 C 
ATOM     19  H   UNL     1      -0.695   4.510   0.953  1.00  0.00     0.164 HD
ATOM     20  O   UNL     1       0.112   5.318   2.985  1.00  0.00    -0.273 OA
BRANCH  18  21
ATOM     21  C   UNL     1       1.056   3.145   3.544  1.00  0.00     0.177 C 
BRANCH  21  22
ATOM     22  N   UNL     1       1.010   1.738   3.128  1.00  0.00    -0.309 N 
ATOM     23  C   UNL     1       1.868   0.925   2.463  1.00  0.00     0.408 C 
ATOM     24  H   UNL     1       0.175   1.286   3.388  1.00  0.00     0.167 HD
ATOM     25  O   UNL     1       1.466  -0.134   2.009  1.00  0.00    -0.225 OA
BRANCH  23  26
ATOM     26  O   UNL     1       3.126   1.408   2.361  1.00  0.00    -0.445 OA
BRANCH  26  27
ATOM     27  C   UNL     1       4.059   0.539   1.695  1.00  0.00     0.270 C 
BRANCH  27  28
ATOM     28  C   UNL     1       4.309  -0.778   2.400  1.00  0.00    -0.011 A 
ATOM     29  C   UNL     1       4.246  -0.892   3.796  1.00  0.00     0.007 A 
ATOM     30  C   UNL     1       4.596  -1.925   1.647  1.00  0.00     0.007 A 
ATOM     31  C   UNL     1       4.393  -2.131   4.419  1.00  0.00     0.000 A 
ATOM     32  C   UNL     1       4.764  -3.162   2.272  1.00  0.00     0.000 A 
ATOM     33  C   UNL     1       4.649  -3.267   3.656  1.00  0.00     0.000 A 
ENDBRANCH  27  28
ENDBRANCH  26  27
ENDBRANCH  23  26
ENDBRANCH  21  22
BRANCH  21  34
ATOM     34  C   UNL     1       2.391   3.613   4.178  1.00  0.00     0.015 C 
ATOM     35  C   UNL     1       2.310   5.021   4.786  1.00  0.00     0.010 C 
ATOM     36  C   UNL     1       2.827   2.668   5.308  1.00  0.00     0.010 C 
ENDBRANCH  21  34
ENDBRANCH  18  21
ENDBRANCH  16  17
ENDBRANCH  13  16
ENDBRANCH   7  12
ENDBRANCH   4   7
ENDBRANCH   1   3
BRANCH   1  37
ATOM     37  C   UNL     1      -3.842   4.920   0.513  1.00  0.00     0.242 C 
ATOM     38  O   UNL     1      -2.965   5.679   0.940  1.00  0.00    -0.273 OA
ATOM     39  N   UNL     1      -5.136   5.294   0.684  1.00  0.00    -0.354 N 
ATOM     40  H   UNL     1      -5.262   6.094   1.245  1.00  0.00     0.163 HD
BRANCH  39  41
ATOM     41  C   UNL     1      -6.363   4.712   0.179  1.00  0.00     0.117 C 
BRANCH  41  42
ATOM     42  C   UNL     1      -7.127   3.952   1.257  1.00  0.00     0.042 C 
BRANCH  42  43
ATOM     43  C   UNL     1      -7.597   4.839   2.409  1.00  0.00     0.118 C 
BRANCH  43  44
ATOM     44  N   UNL     1      -8.351   5.994   1.938  1.00  0.00    -0.352 N 
ATOM     45  C   UNL     1      -9.688   6.281   2.019  1.00  0.00     0.251 C 
ATOM     46  H   UNL     1      -7.810   6.682   1.487  1.00  0.00     0.163 HD
ATOM     47  O   UNL     1     -10.158   7.147   1.286  1.00  0.00    -0.269 OA
BRANCH  45  48
ATOM     48  C   UNL     1     -10.554   5.572   2.983  1.00  0.00     0.039 A 
ATOM     49  C   UNL     1     -11.878   5.295   2.632  1.00  0.00     0.014 A 
ATOM     50  C   UNL     1     -10.088   5.253   4.261  1.00  0.00     0.014 A 
ATOM     51  C   UNL     1     -12.722   4.670   3.552  1.00  0.00     0.010 A 
ATOM     52  C   UNL     1     -10.901   4.550   5.143  1.00  0.00     0.010 A 
ATOM     53  C   UNL     1     -12.234   4.278   4.809  1.00  0.00    -0.014 A 
BRANCH  53  54
ATOM     54  C   UNL     1     -13.116   3.628   5.809  1.00  0.00     0.031 A 
ATOM     55  C   UNL     1     -13.394   4.314   7.121  1.00  0.00     0.074 A 
ATOM     56  C   UNL     1     -13.611   2.401   5.565  1.00  0.00     0.049 A 
ATOM     57  N   UNL     1     -14.080   3.886   8.149  1.00  0.00    -0.248 NA
ATOM     58  C   UNL     1     -12.789   5.641   7.316  1.00  0.00     0.031 C 
ATOM     59  C   UNL     1     -13.354   1.611   4.359  1.00  0.00     0.029 A 
ATOM     60  N   UNL     1     -14.421   1.597   6.323  1.00  0.00    -0.354 N 
ATOM     61  C   UNL     1     -13.974   4.880   9.115  1.00  0.00     0.074 A 
ATOM     62  C   UNL     1     -13.101   5.900   8.576  1.00  0.00     0.031 C 
ATOM     63  C   UNL     1     -14.007   0.442   4.453  1.00  0.00     0.029 A 
ATOM     64  C   UNL     1     -14.704   0.388   5.734  1.00  0.00     0.049 A 
ATOM     65  H   UNL     1     -14.768   1.860   7.206  1.00  0.00     0.167 HD
ATOM     66  C   UNL     1     -14.573   4.954  10.328  1.00  0.00     0.037 A 
ATOM     67  C   UNL     1     -15.442  -0.647   6.178  1.00  0.00     0.037 A 
ATOM     68  C   UNL     1     -15.460   3.944  10.844  1.00  0.00     0.049 A 
ATOM     69  C   UNL     1     -16.135  -0.531   7.507  1.00  0.00     0.074 A 
ATOM     70  C   UNL     1     -16.159   3.936  12.037  1.00  0.00     0.029 A 
ATOM     71  N   UNL     1     -15.771   2.759  10.190  1.00  0.00    -0.354 N 
ATOM     72  N   UNL     1     -16.075   0.444   8.384  1.00  0.00    -0.248 NA
ATOM     73  C   UNL     1     -17.011  -1.642   7.898  1.00  0.00     0.031 C 
ATOM     74  C   UNL     1     -16.869   2.732  12.120  1.00  0.00     0.029 A 
ATOM     75  C   UNL     1     -16.648   2.010  10.957  1.00  0.00     0.049 A 
ATOM     76  H   UNL     1     -15.421   2.491   9.310  1.00  0.00     0.167 HD
ATOM     77  C   UNL     1     -16.922   0.074   9.422  1.00  0.00     0.074 A 
ATOM     78  C   UNL     1     -17.492  -1.208   9.055  1.00  0.00     0.031 C 
ATOM     79  C   UNL     1     -17.204   0.735  10.573  1.00  0.00     0.037 A 
BRANCH  66  80
ATOM     80  C   UNL     1     -14.286   6.173  11.164  1.00  0.00     0.058 A 
ATOM     81  C   UNL     1     -14.742   7.448  10.787  1.00  0.00     0.135 A 
ATOM     82  C   UNL     1     -13.530   6.074  12.343  1.00  0.00     0.135 A 
ATOM     83  F   UNL     1     -15.456   7.605   9.661  1.00  0.00    -0.206 F 
ATOM     84  C   UNL     1     -14.412   8.585  11.517  1.00  0.00     0.059 A 
ATOM     85  C   UNL     1     -13.216   7.195  13.107  1.00  0.00     0.059 A 
ATOM     86  F   UNL     1     -13.072   4.881  12.755  1.00  0.00    -0.206 F 
ATOM     87  C   UNL     1     -13.640   8.450  12.671  1.00  0.00     0.060 A 
BRANCH  87  88
ATOM     88  S   UNL     1     -13.187   9.938  13.586  1.00  0.00     0.124 S 
ATOM     89  O   UNL     1     -12.143  10.496  12.732  1.00  0.00    -0.237 OA
ATOM     90  O   UNL     1     -14.442  10.682  13.619  1.00  0.00    -0.237 OA
ATOM     91  O   UNL     1     -12.735   9.420  14.873  1.00  0.00    -0.744 OA
ENDBRANCH  87  88
ENDBRANCH  66  80
BRANCH  67  92
ATOM     92  C   UNL     1     -15.586  -1.857   5.328  1.00  0.00     0.058 A 
ATOM     93  C   UNL     1     -16.784  -2.126   4.650  1.00  0.00     0.135 A 
ATOM     94  C   UNL     1     -14.510  -2.735   5.127  1.00  0.00     0.135 A 
ATOM     95  F   UNL     1     -17.842  -1.316   4.812  1.00  0.00    -0.206 F 
ATOM     96  C   UNL     1     -16.913  -3.223   3.805  1.00  0.00     0.059 A 
ATOM     97  C   UNL     1     -14.606  -3.826   4.269  1.00  0.00     0.059 A 
ATOM     98  F   UNL     1     -13.336  -2.509   5.737  1.00  0.00    -0.206 F 
ATOM     99  C   UNL     1     -15.814  -4.064   3.615  1.00  0.00     0.060 A 
BRANCH  99 100
ATOM    100  S   UNL     1     -15.967  -5.437   2.451  1.00  0.00     0.124 S 
ATOM    101  O   UNL     1     -16.805  -6.365   3.200  1.00  0.00    -0.237 OA
ATOM    102  O   UNL     1     -16.595  -4.795   1.300  1.00  0.00    -0.237 OA
ATOM    103  O   UNL     1     -14.584  -5.857   2.246  1.00  0.00    -0.744 OA
ENDBRANCH  99 100
ENDBRANCH  67  92
BRANCH  79 104
ATOM    104  C   UNL     1     -18.197   0.099  11.505  1.00  0.00     0.058 A 
ATOM    105  C   UNL     1     -17.874  -1.034  12.267  1.00  0.00     0.135 A 
ATOM    106  C   UNL     1     -19.476   0.656  11.666  1.00  0.00     0.135 A 
ATOM    107  F   UNL     1     -16.666  -1.608  12.147  1.00  0.00    -0.206 F 
ATOM    108  C   UNL     1     -18.794  -1.611  13.136  1.00  0.00     0.059 A 
ATOM    109  C   UNL     1     -20.403   0.113  12.549  1.00  0.00     0.059 A 
ATOM    110  F   UNL     1     -19.831   1.747  10.969  1.00  0.00    -0.206 F 
ATOM    111  C   UNL     1     -20.058  -1.030  13.269  1.00  0.00     0.060 A 
BRANCH 111 112
ATOM    112  S   UNL     1     -21.238  -1.775  14.414  1.00  0.00     0.124 S 
ATOM    113  O   UNL     1     -21.665  -2.954  13.669  1.00  0.00    -0.237 OA
ATOM    114  O   UNL     1     -20.413  -2.032  15.591  1.00  0.00    -0.237 OA
ATOM    115  O   UNL     1     -22.250  -0.736  14.581  1.00  0.00    -0.744 OA
ENDBRANCH 111 112
ENDBRANCH  79 104
ENDBRANCH  53  54
ENDBRANCH  45  48
ENDBRANCH  43  44
ENDBRANCH  42  43
ENDBRANCH  41  42
ENDBRANCH  39  41
ENDBRANCH   1  37
TORSDOF 26
