REMARK SMILES O=C(COc1ccc(N2C[C@@H](C(=O)NCCCNC(=O)c3ccc(-c4c5nc(c(-c6c(F)cc(S(=O)(=O)[O-])cc6F)c6ccc([nH]6)c(-c6c(F)cc(S(=O)(=O)[O-])cc6F)c6nc(c(-c7c(F)cc(S(=O)(=O)[O-])cc7F)c7ccc4[nH]7)C=C6)C=C5)cc3)CC2=O)cc1)Nc1ccc(Cl)cc1Cl
REMARK SMILES IDX 15 1 14 2 12 3 13 4 11 6 9 7 10 8 88 9 87 10 89 11 8 12 5 13
REMARK SMILES IDX 6 14 91 15 7 16 90 17 4 18 3 19 2 20 1 21 92 22 93 24 94 25
REMARK SMILES IDX 99 26 95 27 98 28 100 29 96 30 97 31 16 32 17 33 18 34 19 35
REMARK SMILES IDX 20 37 21 38 22 39 86 40 23 41 85 42 24 43 25 44 26 45 79 46
REMARK SMILES IDX 27 47 84 48 78 49 80 50 28 51 83 52 77 53 76 54 29 56 63 57
REMARK SMILES IDX 42 58 62 59 43 60 46 61 61 62 81 63 44 64 45 65 60 67 82 68
REMARK SMILES IDX 47 69 30 70 31 71 40 72 32 73 33 74 39 75 41 76 34 77 35 78
REMARK SMILES IDX 36 79 37 80 38 81 64 82 65 83 74 84 66 85 67 86 73 87 75 88
REMARK SMILES IDX 68 89 69 90 70 91 71 92 72 93 48 94 49 95 58 96 50 97 51 98
REMARK SMILES IDX 57 99 59 100 52 101 53 102 54 103 55 104 56 105
REMARK H PARENT 14 5 92 23 18 36 80 55 46 66
REMARK Flexibility Score: inf
ROOT
ATOM      1  C   UNL     1      -1.920  -6.260   3.603  1.00  0.00     0.117 C 
ENDROOT
BRANCH   1   2
ATOM      2  N   UNL     1      -1.573  -7.126   4.720  1.00  0.00    -0.356 N 
ATOM      3  C   UNL     1      -0.398  -7.675   5.118  1.00  0.00     0.225 C 
ATOM      4  O   UNL     1      -0.413  -8.358   6.146  1.00  0.00    -0.275 OA
ATOM      5  H   UNL     1      -2.336  -7.356   5.297  1.00  0.00     0.163 HD
BRANCH   3   6
ATOM      6  C   UNL     1       0.908  -7.460   4.385  1.00  0.00     0.107 C 
ATOM      7  N   UNL     1       1.741  -5.695   3.068  1.00  0.00    -0.312 N 
ATOM      8  C   UNL     1       1.371  -6.014   4.422  1.00  0.00     0.139 C 
ATOM      9  C   UNL     1       1.481  -6.734   2.176  1.00  0.00     0.227 C 
ATOM     10  C   UNL     1       0.895  -7.892   2.929  1.00  0.00     0.116 C 
ATOM     11  O   UNL     1       1.697  -6.767   0.972  1.00  0.00    -0.274 OA
BRANCH   7  12
ATOM     12  C   UNL     1       2.214  -4.420   2.688  1.00  0.00     0.044 A 
ATOM     13  C   UNL     1       3.213  -1.933   1.821  1.00  0.00     0.120 A 
ATOM     14  C   UNL     1       3.582  -2.441   3.065  1.00  0.00     0.048 A 
ATOM     15  C   UNL     1       2.338  -2.661   1.021  1.00  0.00     0.048 A 
ATOM     16  C   UNL     1       3.057  -3.665   3.513  1.00  0.00     0.030 A 
ATOM     17  C   UNL     1       1.852  -3.894   1.448  1.00  0.00     0.030 A 
BRANCH  13  18
ATOM     18  O   UNL     1       3.845  -0.808   1.360  1.00  0.00    -0.484 OA
BRANCH  18  19
ATOM     19  C   UNL     1       2.970   0.302   1.159  1.00  0.00     0.329 C 
BRANCH  19  20
ATOM     20  C   UNL     1       2.070   0.241  -0.080  1.00  0.00     0.262 C 
ATOM     21  O   UNL     1       0.877   0.513  -0.000  1.00  0.00    -0.271 OA
ATOM     22  N   UNL     1       2.737  -0.237  -1.203  1.00  0.00    -0.322 N 
ATOM     23  H   UNL     1       3.714  -0.343  -1.144  1.00  0.00     0.170 HD
BRANCH  22  24
ATOM     24  C   UNL     1       2.111  -0.582  -2.426  1.00  0.00     0.060 A 
ATOM     25  C   UNL     1       2.562  -1.772  -3.023  1.00  0.00     0.029 A 
ATOM     26  C   UNL     1       1.075   0.136  -3.053  1.00  0.00     0.066 A 
ATOM     27  C   UNL     1       1.933  -2.285  -4.160  1.00  0.00     0.023 A 
ATOM     28  C   UNL     1       0.442  -0.386  -4.188  1.00  0.00     0.043 A 
ATOM     29  Cl  UNL     1       0.653   1.760  -2.625  1.00  0.00    -0.082 Cl
ATOM     30  C   UNL     1       0.863  -1.599  -4.726  1.00  0.00     0.042 A 
ATOM     31  Cl  UNL     1       0.082  -2.231  -6.120  1.00  0.00    -0.084 Cl
ENDBRANCH  22  24
ENDBRANCH  19  20
ENDBRANCH  18  19
ENDBRANCH  13  18
ENDBRANCH   7  12
ENDBRANCH   3   6
ENDBRANCH   1   2
BRANCH   1  32
ATOM     32  C   UNL     1      -2.824  -6.953   2.590  1.00  0.00     0.042 C 
BRANCH  32  33
ATOM     33  C   UNL     1      -4.184  -7.361   3.144  1.00  0.00     0.118 C 
BRANCH  33  34
ATOM     34  N   UNL     1      -5.017  -6.219   3.502  1.00  0.00    -0.352 N 
ATOM     35  C   UNL     1      -6.242  -5.842   3.002  1.00  0.00     0.251 C 
ATOM     36  H   UNL     1      -4.649  -5.633   4.202  1.00  0.00     0.163 HD
ATOM     37  O   UNL     1      -6.718  -4.752   3.305  1.00  0.00    -0.269 OA
BRANCH  35  38
ATOM     38  C   UNL     1      -6.967  -6.744   2.083  1.00  0.00     0.039 A 
ATOM     39  C   UNL     1      -7.516  -6.229   0.905  1.00  0.00     0.014 A 
ATOM     40  C   UNL     1      -7.082  -8.104   2.377  1.00  0.00     0.014 A 
ATOM     41  C   UNL     1      -8.106  -7.097  -0.020  1.00  0.00     0.010 A 
ATOM     42  C   UNL     1      -7.590  -8.973   1.420  1.00  0.00     0.010 A 
ATOM     43  C   UNL     1      -8.107  -8.481   0.211  1.00  0.00    -0.014 A 
BRANCH  43  44
ATOM     44  C   UNL     1      -8.652  -9.454  -0.772  1.00  0.00     0.031 A 
ATOM     45  C   UNL     1      -9.799 -10.341  -0.371  1.00  0.00     0.074 A 
ATOM     46  C   UNL     1      -8.047  -9.624  -1.964  1.00  0.00     0.049 A 
ATOM     47  N   UNL     1     -10.290 -11.386  -0.982  1.00  0.00    -0.248 NA
ATOM     48  C   UNL     1     -10.455 -10.028   0.910  1.00  0.00     0.031 C 
ATOM     49  C   UNL     1      -6.912  -8.843  -2.460  1.00  0.00     0.029 A 
ATOM     50  N   UNL     1      -8.284 -10.533  -2.966  1.00  0.00    -0.354 N 
ATOM     51  C   UNL     1     -11.289 -11.875  -0.147  1.00  0.00     0.074 A 
ATOM     52  C   UNL     1     -11.300 -11.040   1.034  1.00  0.00     0.031 C 
ATOM     53  C   UNL     1      -6.554  -9.303  -3.669  1.00  0.00     0.029 A 
ATOM     54  C   UNL     1      -7.396 -10.445  -4.014  1.00  0.00     0.049 A 
ATOM     55  H   UNL     1      -9.020 -11.186  -2.938  1.00  0.00     0.167 HD
ATOM     56  C   UNL     1     -12.128 -12.917  -0.354  1.00  0.00     0.037 A 
ATOM     57  C   UNL     1      -7.256 -11.215  -5.112  1.00  0.00     0.037 A 
ATOM     58  C   UNL     1     -12.125 -13.723  -1.547  1.00  0.00     0.049 A 
ATOM     59  C   UNL     1      -8.190 -12.378  -5.317  1.00  0.00     0.074 A 
ATOM     60  C   UNL     1     -12.968 -14.768  -1.879  1.00  0.00     0.029 A 
ATOM     61  N   UNL     1     -11.235 -13.574  -2.601  1.00  0.00    -0.354 N 
ATOM     62  N   UNL     1      -9.156 -12.805  -4.538  1.00  0.00    -0.248 NA
ATOM     63  C   UNL     1      -8.021 -13.165  -6.547  1.00  0.00     0.031 C 
ATOM     64  C   UNL     1     -12.556 -15.285  -3.110  1.00  0.00     0.029 A 
ATOM     65  C   UNL     1     -11.498 -14.520  -3.576  1.00  0.00     0.049 A 
ATOM     66  H   UNL     1     -10.523 -12.896  -2.648  1.00  0.00     0.167 HD
ATOM     67  C   UNL     1      -9.737 -13.879  -5.204  1.00  0.00     0.074 A 
ATOM     68  C   UNL     1      -9.009 -14.045  -6.444  1.00  0.00     0.031 C 
ATOM     69  C   UNL     1     -10.785 -14.651  -4.824  1.00  0.00     0.037 A 
BRANCH  56  70
ATOM     70  C   UNL     1     -13.113 -13.249   0.734  1.00  0.00     0.058 A 
ATOM     71  C   UNL     1     -14.183 -12.397   1.051  1.00  0.00     0.135 A 
ATOM     72  C   UNL     1     -13.000 -14.451   1.452  1.00  0.00     0.135 A 
ATOM     73  F   UNL     1     -14.332 -11.229   0.407  1.00  0.00    -0.206 F 
ATOM     74  C   UNL     1     -15.083 -12.706   2.066  1.00  0.00     0.059 A 
ATOM     75  C   UNL     1     -13.909 -14.796   2.449  1.00  0.00     0.059 A 
ATOM     76  F   UNL     1     -11.998 -15.304   1.191  1.00  0.00    -0.206 F 
ATOM     77  C   UNL     1     -14.936 -13.907   2.760  1.00  0.00     0.060 A 
BRANCH  77  78
ATOM     78  S   UNL     1     -16.109 -14.289   4.078  1.00  0.00     0.124 S 
ATOM     79  O   UNL     1     -15.696 -13.348   5.115  1.00  0.00    -0.237 OA
ATOM     80  O   UNL     1     -17.393 -14.008   3.444  1.00  0.00    -0.237 OA
ATOM     81  O   UNL     1     -15.850 -15.695   4.369  1.00  0.00    -0.744 OA
ENDBRANCH  77  78
ENDBRANCH  56  70
BRANCH  57  82
ATOM     82  C   UNL     1      -6.196 -10.900  -6.108  1.00  0.00     0.058 A 
ATOM     83  C   UNL     1      -6.524 -10.396  -7.375  1.00  0.00     0.135 A 
ATOM     84  C   UNL     1      -4.835 -11.073  -5.809  1.00  0.00     0.135 A 
ATOM     85  F   UNL     1      -7.811 -10.220  -7.713  1.00  0.00    -0.206 F 
ATOM     86  C   UNL     1      -5.546 -10.087  -8.315  1.00  0.00     0.059 A 
ATOM     87  C   UNL     1      -3.837 -10.746  -6.722  1.00  0.00     0.059 A 
ATOM     88  F   UNL     1      -4.465 -11.538  -4.605  1.00  0.00    -0.206 F 
ATOM     89  C   UNL     1      -4.203 -10.261  -7.976  1.00  0.00     0.060 A 
BRANCH  89  90
ATOM     90  S   UNL     1      -2.941  -9.808  -9.187  1.00  0.00     0.124 S 
ATOM     91  O   UNL     1      -3.094 -10.864 -10.180  1.00  0.00    -0.237 OA
ATOM     92  O   UNL     1      -3.376  -8.477  -9.597  1.00  0.00    -0.237 OA
ATOM     93  O   UNL     1      -1.704  -9.845  -8.412  1.00  0.00    -0.744 OA
ENDBRANCH  89  90
ENDBRANCH  57  82
BRANCH  69  94
ATOM     94  C   UNL     1     -11.274 -15.704  -5.779  1.00  0.00     0.058 A 
ATOM     95  C   UNL     1     -10.580 -16.906  -5.981  1.00  0.00     0.135 A 
ATOM     96  C   UNL     1     -12.522 -15.552  -6.406  1.00  0.00     0.135 A 
ATOM     97  F   UNL     1      -9.380 -17.098  -5.412  1.00  0.00    -0.206 F 
ATOM     98  C   UNL     1     -11.110 -17.924  -6.768  1.00  0.00     0.059 A 
ATOM     99  C   UNL     1     -13.082 -16.566  -7.174  1.00  0.00     0.059 A 
ATOM    100  F   UNL     1     -13.229 -14.422  -6.239  1.00  0.00    -0.206 F 
ATOM    101  C   UNL     1     -12.369 -17.750  -7.348  1.00  0.00     0.060 A 
BRANCH 101 102
ATOM    102  S   UNL     1     -13.085 -19.116  -8.289  1.00  0.00     0.124 S 
ATOM    103  O   UNL     1     -12.263 -19.107  -9.495  1.00  0.00    -0.237 OA
ATOM    104  O   UNL     1     -12.883 -20.250  -7.392  1.00  0.00    -0.237 OA
ATOM    105  O   UNL     1     -14.475 -18.710  -8.474  1.00  0.00    -0.744 OA
ENDBRANCH 101 102
ENDBRANCH  69  94
ENDBRANCH  43  44
ENDBRANCH  35  38
ENDBRANCH  33  34
ENDBRANCH  32  33
ENDBRANCH   1  32
TORSDOF 18
