REMARK SMILES O=C(NCCCNC(=O)[C@H]1CCCCN1C(=O)c1cc([N+](=O)[O-])c[nH]c1=O)c1ccc(-c2c3nc(c(-c4c(F)cc(S(=O)(=O)[O-])cc4F)c4ccc([nH]4)c(-c4c(F)cc(S(=O)(=O)[O-])cc4F)c4nc(c(-c5c(F)cc(S(=O)(=O)[O-])cc5F)c5ccc2[nH]5)C=C4)C=C3)cc1
REMARK SMILES IDX 5 1 4 2 3 3 1 4 2 5 28 7 29 8 93 9 30 10 92 11 31 12 32 13
REMARK SMILES IDX 33 14 86 15 34 16 91 17 85 18 87 19 35 20 90 21 84 22 83 23
REMARK SMILES IDX 36 25 70 26 49 27 69 28 50 29 53 30 68 31 88 32 51 33 52 34
REMARK SMILES IDX 67 36 89 37 54 38 37 39 38 40 47 41 39 42 40 43 46 44 48 45
REMARK SMILES IDX 41 46 42 47 43 48 44 49 45 50 71 51 72 52 81 53 73 54 74 55
REMARK SMILES IDX 80 56 82 57 75 58 76 59 77 60 78 61 79 62 55 63 56 64 65 65
REMARK SMILES IDX 57 66 58 67 64 68 66 69 59 70 60 71 61 72 62 73 63 74 6 75
REMARK SMILES IDX 7 76 8 77 9 79 10 80 11 81 15 82 12 83 14 84 13 85 16 86
REMARK SMILES IDX 17 87 18 88 19 89 26 90 20 91 25 92 27 93 24 94 21 96 22 97
REMARK SMILES IDX 23 98
REMARK H PARENT 3 6 87 24 53 35 7 78 25 95
REMARK Flexibility Score: inf
ROOT
ATOM      1  C   UNL     1       7.495   2.734  -3.127  1.00  0.00     0.042 C 
ENDROOT
BRANCH   1   2
ATOM      2  C   UNL     1       6.698   2.071  -4.237  1.00  0.00     0.118 C 
BRANCH   2   3
ATOM      3  N   UNL     1       7.245   2.367  -5.559  1.00  0.00    -0.352 N 
ATOM      4  O   UNL     1       8.627   2.154  -7.322  1.00  0.00    -0.269 OA
ATOM      5  C   UNL     1       8.072   1.621  -6.366  1.00  0.00     0.251 C 
ATOM      6  H   UNL     1       6.979   3.239  -5.931  1.00  0.00     0.163 HD
BRANCH   5   7
ATOM      7  C   UNL     1       8.297   0.191  -6.070  1.00  0.00     0.039 A 
ATOM      8  C   UNL     1       7.242  -0.602  -5.622  1.00  0.00     0.014 A 
ATOM      9  C   UNL     1       9.561  -0.376  -6.262  1.00  0.00     0.014 A 
ATOM     10  C   UNL     1       7.486  -1.889  -5.176  1.00  0.00     0.010 A 
ATOM     11  C   UNL     1       9.773  -1.722  -5.946  1.00  0.00     0.010 A 
ATOM     12  C   UNL     1       8.742  -2.482  -5.373  1.00  0.00    -0.014 A 
BRANCH  12  13
ATOM     13  C   UNL     1       8.894  -3.925  -5.061  1.00  0.00     0.031 A 
ATOM     14  C   UNL     1       9.864  -4.405  -4.020  1.00  0.00     0.074 A 
ATOM     15  C   UNL     1       8.091  -4.797  -5.707  1.00  0.00     0.049 A 
ATOM     16  N   UNL     1      10.097  -5.630  -3.622  1.00  0.00    -0.248 NA
ATOM     17  C   UNL     1      10.687  -3.390  -3.342  1.00  0.00     0.031 C 
ATOM     18  C   UNL     1       7.120  -4.434  -6.747  1.00  0.00     0.029 A 
ATOM     19  N   UNL     1       7.933  -6.150  -5.572  1.00  0.00    -0.354 N 
ATOM     20  C   UNL     1      11.106  -5.539  -2.671  1.00  0.00     0.074 A 
ATOM     21  C   UNL     1      11.454  -4.139  -2.559  1.00  0.00     0.031 C 
ATOM     22  C   UNL     1       6.426  -5.521  -7.105  1.00  0.00     0.029 A 
ATOM     23  C   UNL     1       6.959  -6.673  -6.392  1.00  0.00     0.049 A 
ATOM     24  H   UNL     1       8.465  -6.697  -4.950  1.00  0.00     0.167 HD
ATOM     25  C   UNL     1      11.681  -6.537  -1.958  1.00  0.00     0.037 A 
ATOM     26  C   UNL     1       6.556  -7.943  -6.574  1.00  0.00     0.037 A 
ATOM     27  C   UNL     1      11.302  -7.924  -2.066  1.00  0.00     0.049 A 
ATOM     28  C   UNL     1       7.221  -9.026  -5.778  1.00  0.00     0.074 A 
ATOM     29  C   UNL     1      11.800  -9.009  -1.365  1.00  0.00     0.029 A 
ATOM     30  N   UNL     1      10.332  -8.419  -2.927  1.00  0.00    -0.354 N 
ATOM     31  N   UNL     1       8.163  -8.917  -4.871  1.00  0.00    -0.248 NA
ATOM     32  C   UNL     1       6.781 -10.402  -6.034  1.00  0.00     0.031 C 
ATOM     33  C   UNL     1      11.165 -10.164  -1.835  1.00  0.00     0.029 A 
ATOM     34  C   UNL     1      10.233  -9.794  -2.791  1.00  0.00     0.049 A 
ATOM     35  H   UNL     1       9.793  -7.872  -3.544  1.00  0.00     0.167 HD
ATOM     36  C   UNL     1       8.420 -10.210  -4.438  1.00  0.00     0.074 A 
ATOM     37  C   UNL     1       7.518 -11.081  -5.166  1.00  0.00     0.031 C 
ATOM     38  C   UNL     1       9.325 -10.640  -3.525  1.00  0.00     0.037 A 
BRANCH  25  39
ATOM     39  C   UNL     1      12.794  -6.183  -1.010  1.00  0.00     0.058 A 
ATOM     40  C   UNL     1      12.552  -5.524   0.206  1.00  0.00     0.135 A 
ATOM     41  C   UNL     1      14.114  -6.574  -1.289  1.00  0.00     0.135 A 
ATOM     42  F   UNL     1      11.313  -5.112   0.517  1.00  0.00    -0.206 F 
ATOM     43  C   UNL     1      13.581  -5.257   1.106  1.00  0.00     0.059 A 
ATOM     44  C   UNL     1      15.154  -6.339  -0.393  1.00  0.00     0.059 A 
ATOM     45  F   UNL     1      14.403  -7.205  -2.438  1.00  0.00    -0.206 F 
ATOM     46  C   UNL     1      14.878  -5.672   0.799  1.00  0.00     0.060 A 
BRANCH  46  47
ATOM     47  S   UNL     1      16.195  -5.343   1.990  1.00  0.00     0.124 S 
ATOM     48  O   UNL     1      16.360  -3.899   1.849  1.00  0.00    -0.237 OA
ATOM     49  O   UNL     1      15.600  -5.792   3.245  1.00  0.00    -0.237 OA
ATOM     50  O   UNL     1      17.307  -6.152   1.502  1.00  0.00    -0.744 OA
ENDBRANCH  46  47
ENDBRANCH  25  39
BRANCH  26  51
ATOM     51  C   UNL     1       5.499  -8.250  -7.572  1.00  0.00     0.058 A 
ATOM     52  C   UNL     1       4.238  -8.717  -7.177  1.00  0.00     0.135 A 
ATOM     53  C   UNL     1       5.726  -8.063  -8.946  1.00  0.00     0.135 A 
ATOM     54  F   UNL     1       3.971  -8.911  -5.877  1.00  0.00    -0.206 F 
ATOM     55  C   UNL     1       3.245  -9.008  -8.108  1.00  0.00     0.059 A 
ATOM     56  C   UNL     1       4.741  -8.316  -9.893  1.00  0.00     0.059 A 
ATOM     57  F   UNL     1       6.909  -7.596  -9.375  1.00  0.00    -0.206 F 
ATOM     58  C   UNL     1       3.508  -8.804  -9.464  1.00  0.00     0.060 A 
BRANCH  58  59
ATOM     59  S   UNL     1       2.207  -9.155 -10.665  1.00  0.00     0.124 S 
ATOM     60  O   UNL     1       2.230 -10.613 -10.703  1.00  0.00    -0.237 OA
ATOM     61  O   UNL     1       1.036  -8.550 -10.038  1.00  0.00    -0.237 OA
ATOM     62  O   UNL     1       2.677  -8.484 -11.873  1.00  0.00    -0.744 OA
ENDBRANCH  58  59
ENDBRANCH  26  51
BRANCH  38  63
ATOM     63  C   UNL     1       9.359 -12.115  -3.244  1.00  0.00     0.058 A 
ATOM     64  C   UNL     1       9.895 -13.026  -4.166  1.00  0.00     0.135 A 
ATOM     65  C   UNL     1       8.877 -12.616  -2.025  1.00  0.00     0.135 A 
ATOM     66  F   UNL     1      10.358 -12.597  -5.351  1.00  0.00    -0.206 F 
ATOM     67  C   UNL     1       9.930 -14.390  -3.899  1.00  0.00     0.059 A 
ATOM     68  C   UNL     1       8.927 -13.972  -1.725  1.00  0.00     0.059 A 
ATOM     69  F   UNL     1       8.361 -11.783  -1.107  1.00  0.00    -0.206 F 
ATOM     70  C   UNL     1       9.444 -14.853  -2.675  1.00  0.00     0.060 A 
BRANCH  70  71
ATOM     71  S   UNL     1       9.519 -16.623  -2.328  1.00  0.00     0.124 S 
ATOM     72  O   UNL     1       8.435 -17.132  -3.162  1.00  0.00    -0.237 OA
ATOM     73  O   UNL     1      10.869 -16.969  -2.761  1.00  0.00    -0.237 OA
ATOM     74  O   UNL     1       9.292 -16.696  -0.888  1.00  0.00    -0.744 OA
ENDBRANCH  70  71
ENDBRANCH  38  63
ENDBRANCH  12  13
ENDBRANCH   5   7
ENDBRANCH   2   3
ENDBRANCH   1   2
BRANCH   1  75
ATOM     75  C   UNL     1       7.359   4.244  -3.142  1.00  0.00     0.117 C 
BRANCH  75  76
ATOM     76  N   UNL     1       6.037   4.680  -2.735  1.00  0.00    -0.354 N 
ATOM     77  C   UNL     1       5.560   5.544  -1.810  1.00  0.00     0.242 C 
ATOM     78  H   UNL     1       5.320   4.246  -3.252  1.00  0.00     0.163 HD
ATOM     79  O   UNL     1       4.327   5.672  -1.824  1.00  0.00    -0.273 OA
BRANCH  77  80
ATOM     80  C   UNL     1       6.410   6.328  -0.771  1.00  0.00     0.174 C 
ATOM     81  C   UNL     1       7.927   6.464  -0.893  1.00  0.00     0.035 C 
ATOM     82  N   UNL     1       5.891   7.715  -0.699  1.00  0.00    -0.326 N 
ATOM     83  C   UNL     1       8.337   7.295  -2.116  1.00  0.00     0.004 C 
ATOM     84  C   UNL     1       6.139   8.518  -1.901  1.00  0.00     0.120 C 
ATOM     85  C   UNL     1       7.643   8.656  -2.124  1.00  0.00     0.022 C 
BRANCH  82  86
ATOM     86  C   UNL     1       5.397   8.178   0.507  1.00  0.00     0.260 C 
ATOM     87  O   UNL     1       5.332   7.488   1.524  1.00  0.00    -0.269 OA
BRANCH  86  88
ATOM     88  C   UNL     1       5.125   9.626   0.624  1.00  0.00     0.111 A 
ATOM     89  C   UNL     1       5.953  10.331   1.421  1.00  0.00     0.107 A 
ATOM     90  C   UNL     1       4.008  10.312  -0.085  1.00  0.00     0.261 A 
ATOM     91  C   UNL     1       5.785  11.762   1.566  1.00  0.00     0.286 A 
ATOM     92  N   UNL     1       3.940  11.680   0.104  1.00  0.00    -0.322 N 
ATOM     93  O   UNL     1       3.215   9.736  -0.815  1.00  0.00    -0.269 OA
ATOM     94  C   UNL     1       4.801  12.396   0.906  1.00  0.00     0.172 A 
ATOM     95  H   UNL     1       3.229  12.174  -0.366  1.00  0.00     0.169 HD
BRANCH  91  96
ATOM     96  N   UNL     1       6.683  12.562   2.399  1.00  0.00     0.064 N 
ATOM     97  O   UNL     1       6.484  13.783   2.473  1.00  0.00    -0.258 OA
ATOM     98  O   UNL     1       7.601  11.965   2.977  1.00  0.00    -0.258 OA
ENDBRANCH  91  96
ENDBRANCH  86  88
ENDBRANCH  82  86
ENDBRANCH  77  80
ENDBRANCH  75  76
ENDBRANCH   1  75
TORSDOF 16
