REMARK SMILES CCCC[C@@](CC)(C[C@H]1CCOC1)C(=O)NCCCNC(=O)c1ccc(-c2c3nc(c(-c4c(F)cc(S(=O)(=O)[O-])cc4F)c4ccc([nH]4)c(-c4c(F)cc(S(=O)(=O)[O-])cc4F)c4nc(c(-c5c(F)cc(S(=O)(=O)[O-])cc5F)c5ccc2[nH]5)C=C4)C=C3)cc1
REMARK SMILES IDX 18 1 17 2 16 3 14 4 15 5 5 7 4 8 3 9 2 10 1 11 6 12 7 13
REMARK SMILES IDX 8 14 9 15 10 16 13 17 11 18 12 19 19 20 20 21 21 22 22 24
REMARK SMILES IDX 23 25 24 26 88 27 25 28 87 29 26 30 27 31 28 32 81 33 29 34
REMARK SMILES IDX 86 35 80 36 82 37 30 38 85 39 79 40 78 41 31 43 65 44 44 45
REMARK SMILES IDX 64 46 45 47 48 48 63 49 83 50 46 51 47 52 62 54 84 55 49 56
REMARK SMILES IDX 32 57 33 58 42 59 34 60 35 61 41 62 43 63 36 64 37 65 38 66
REMARK SMILES IDX 39 67 40 68 66 69 67 70 76 71 68 72 69 73 75 74 77 75 70 76
REMARK SMILES IDX 71 77 72 78 73 79 74 80 50 81 51 82 60 83 52 84 53 85 59 86
REMARK SMILES IDX 61 87 54 88 55 89 56 90 57 91 58 92
REMARK H PARENT 16 6 20 23 82 42 48 53
REMARK Flexibility Score: inf
ROOT
ATOM      1  C   UNL     1      -0.245   2.442  -4.082  1.00  0.00     0.042 C 
ENDROOT
BRANCH   1   2
ATOM      2  C   UNL     1      -1.469   1.675  -3.595  1.00  0.00     0.117 C 
BRANCH   2   3
ATOM      3  N   UNL     1      -1.182   0.895  -2.401  1.00  0.00    -0.356 N 
ATOM      4  C   UNL     1      -1.512   1.010  -1.091  1.00  0.00     0.226 C 
ATOM      5  O   UNL     1      -0.841   0.298  -0.341  1.00  0.00    -0.274 OA
ATOM      6  H   UNL     1      -0.621   0.107  -2.585  1.00  0.00     0.163 HD
BRANCH   4   7
ATOM      7  C   UNL     1      -2.600   1.971  -0.560  1.00  0.00     0.049 C 
BRANCH   7   8
ATOM      8  C   UNL     1      -2.865   1.763   0.979  1.00  0.00     0.017 C 
BRANCH   8   9
ATOM      9  C   UNL     1      -3.542   0.478   1.498  1.00  0.00     0.001 C 
BRANCH   9  10
ATOM     10  C   UNL     1      -2.681  -0.784   1.601  1.00  0.00    -0.003 C 
ATOM     11  C   UNL     1      -1.445  -0.626   2.480  1.00  0.00     0.004 C 
ENDBRANCH   9  10
ENDBRANCH   8   9
ENDBRANCH   7   8
BRANCH   7  12
ATOM     12  C   UNL     1      -3.920   1.687  -1.353  1.00  0.00     0.013 C 
ATOM     13  C   UNL     1      -5.079   2.650  -1.127  1.00  0.00     0.005 C 
ENDBRANCH   7  12
BRANCH   7  14
ATOM     14  C   UNL     1      -2.091   3.448  -0.743  1.00  0.00     0.023 C 
BRANCH  14  15
ATOM     15  C   UNL     1      -0.889   3.908   0.116  1.00  0.00     0.018 C 
ATOM     16  C   UNL     1       0.432   3.192  -0.076  1.00  0.00     0.034 C 
ATOM     17  C   UNL     1      -0.480   5.347  -0.180  1.00  0.00     0.163 C 
ATOM     18  C   UNL     1       1.440   4.193   0.452  1.00  0.00     0.160 C 
ATOM     19  O   UNL     1       0.863   5.494   0.296  1.00  0.00    -0.381 OA
ENDBRANCH  14  15
ENDBRANCH   7  14
ENDBRANCH   4   7
ENDBRANCH   2   3
ENDBRANCH   1   2
BRANCH   1  20
ATOM     20  C   UNL     1       0.983   1.570  -4.319  1.00  0.00     0.118 C 
BRANCH  20  21
ATOM     21  N   UNL     1       0.765   0.577  -5.363  1.00  0.00    -0.352 N 
ATOM     22  C   UNL     1       1.272   0.523  -6.638  1.00  0.00     0.251 C 
ATOM     23  H   UNL     1       0.167  -0.166  -5.117  1.00  0.00     0.163 HD
ATOM     24  O   UNL     1       0.796  -0.267  -7.452  1.00  0.00    -0.269 OA
BRANCH  22  25
ATOM     25  C   UNL     1       2.363   1.435  -7.036  1.00  0.00     0.039 A 
ATOM     26  C   UNL     1       2.261   2.132  -8.242  1.00  0.00     0.014 A 
ATOM     27  C   UNL     1       3.474   1.620  -6.209  1.00  0.00     0.014 A 
ATOM     28  C   UNL     1       3.224   3.090  -8.568  1.00  0.00     0.010 A 
ATOM     29  C   UNL     1       4.389   2.628  -6.497  1.00  0.00     0.010 A 
ATOM     30  C   UNL     1       4.263   3.387  -7.670  1.00  0.00    -0.014 A 
BRANCH  30  31
ATOM     31  C   UNL     1       5.186   4.528  -7.903  1.00  0.00     0.031 A 
ATOM     32  C   UNL     1       6.663   4.293  -8.065  1.00  0.00     0.074 A 
ATOM     33  C   UNL     1       4.697   5.786  -7.866  1.00  0.00     0.049 A 
ATOM     34  N   UNL     1       7.628   5.169  -8.163  1.00  0.00    -0.248 NA
ATOM     35  C   UNL     1       7.119   2.893  -8.100  1.00  0.00     0.031 C 
ATOM     36  C   UNL     1       3.289   6.141  -7.663  1.00  0.00     0.029 A 
ATOM     37  N   UNL     1       5.328   7.002  -7.972  1.00  0.00    -0.354 N 
ATOM     38  C   UNL     1       8.804   4.433  -8.249  1.00  0.00     0.074 A 
ATOM     39  C   UNL     1       8.436   3.037  -8.164  1.00  0.00     0.031 C 
ATOM     40  C   UNL     1       3.164   7.477  -7.664  1.00  0.00     0.029 A 
ATOM     41  C   UNL     1       4.485   8.079  -7.814  1.00  0.00     0.049 A 
ATOM     42  H   UNL     1       6.293   7.094  -8.144  1.00  0.00     0.167 HD
ATOM     43  C   UNL     1      10.071   4.885  -8.396  1.00  0.00     0.037 A 
ATOM     44  C   UNL     1       4.747   9.400  -7.763  1.00  0.00     0.037 A 
ATOM     45  C   UNL     1      10.421   6.277  -8.515  1.00  0.00     0.049 A 
ATOM     46  C   UNL     1       6.170   9.868  -7.911  1.00  0.00     0.074 A 
ATOM     47  C   UNL     1      11.666   6.826  -8.772  1.00  0.00     0.029 A 
ATOM     48  N   UNL     1       9.539   7.336  -8.369  1.00  0.00    -0.354 N 
ATOM     49  N   UNL     1       7.255   9.156  -8.106  1.00  0.00    -0.248 NA
ATOM     50  C   UNL     1       6.410  11.316  -7.828  1.00  0.00     0.031 C 
ATOM     51  C   UNL     1      11.549   8.217  -8.715  1.00  0.00     0.029 A 
ATOM     52  C   UNL     1      10.221   8.536  -8.482  1.00  0.00     0.049 A 
ATOM     53  H   UNL     1       8.572   7.248  -8.210  1.00  0.00     0.167 HD
ATOM     54  C   UNL     1       8.300  10.071  -8.185  1.00  0.00     0.074 A 
ATOM     55  C   UNL     1       7.716  11.388  -8.044  1.00  0.00     0.031 C 
ATOM     56  C   UNL     1       9.625   9.841  -8.349  1.00  0.00     0.037 A 
BRANCH  43  57
ATOM     57  C   UNL     1      11.191   3.884  -8.440  1.00  0.00     0.058 A 
ATOM     58  C   UNL     1      11.412   3.071  -9.562  1.00  0.00     0.135 A 
ATOM     59  C   UNL     1      12.127   3.826  -7.393  1.00  0.00     0.135 A 
ATOM     60  F   UNL     1      10.541   3.076 -10.583  1.00  0.00    -0.206 F 
ATOM     61  C   UNL     1      12.524   2.239  -9.647  1.00  0.00     0.059 A 
ATOM     62  C   UNL     1      13.259   3.020  -7.468  1.00  0.00     0.059 A 
ATOM     63  F   UNL     1      11.960   4.580  -6.295  1.00  0.00    -0.206 F 
ATOM     64  C   UNL     1      13.449   2.230  -8.601  1.00  0.00     0.060 A 
BRANCH  64  65
ATOM     65  S   UNL     1      14.920   1.197  -8.762  1.00  0.00     0.124 S 
ATOM     66  O   UNL     1      14.351  -0.142  -8.646  1.00  0.00    -0.237 OA
ATOM     67  O   UNL     1      15.412   1.563 -10.086  1.00  0.00    -0.237 OA
ATOM     68  O   UNL     1      15.759   1.619  -7.645  1.00  0.00    -0.744 OA
ENDBRANCH  64  65
ENDBRANCH  43  57
BRANCH  44  69
ATOM     69  C   UNL     1       3.651  10.381  -7.527  1.00  0.00     0.058 A 
ATOM     70  C   UNL     1       3.285  11.312  -8.510  1.00  0.00     0.135 A 
ATOM     71  C   UNL     1       2.974  10.433  -6.297  1.00  0.00     0.135 A 
ATOM     72  F   UNL     1       3.905  11.308  -9.700  1.00  0.00    -0.206 F 
ATOM     73  C   UNL     1       2.320  12.286  -8.271  1.00  0.00     0.059 A 
ATOM     74  C   UNL     1       1.982  11.375  -6.046  1.00  0.00     0.059 A 
ATOM     75  F   UNL     1       3.269   9.554  -5.327  1.00  0.00    -0.206 F 
ATOM     76  C   UNL     1       1.677  12.312  -7.032  1.00  0.00     0.060 A 
BRANCH  76  77
ATOM     77  S   UNL     1       0.426  13.579  -6.731  1.00  0.00     0.124 S 
ATOM     78  O   UNL     1       1.250  14.772  -6.578  1.00  0.00    -0.237 OA
ATOM     79  O   UNL     1      -0.380  13.509  -7.945  1.00  0.00    -0.237 OA
ATOM     80  O   UNL     1      -0.239  13.111  -5.519  1.00  0.00    -0.744 OA
ENDBRANCH  76  77
ENDBRANCH  44  69
BRANCH  56  81
ATOM     81  C   UNL     1      10.539  11.033  -8.401  1.00  0.00     0.058 A 
ATOM     82  C   UNL     1      10.838  11.778  -7.250  1.00  0.00     0.135 A 
ATOM     83  C   UNL     1      11.184  11.387  -9.597  1.00  0.00     0.135 A 
ATOM     84  F   UNL     1      10.240  11.488  -6.083  1.00  0.00    -0.206 F 
ATOM     85  C   UNL     1      11.737  12.838  -7.284  1.00  0.00     0.059 A 
ATOM     86  C   UNL     1      12.110  12.425  -9.648  1.00  0.00     0.059 A 
ATOM     87  F   UNL     1      10.939  10.703 -10.726  1.00  0.00    -0.206 F 
ATOM     88  C   UNL     1      12.375  13.148  -8.486  1.00  0.00     0.060 A 
BRANCH  88  89
ATOM     89  S   UNL     1      13.587  14.486  -8.499  1.00  0.00     0.124 S 
ATOM     90  O   UNL     1      12.732  15.660  -8.352  1.00  0.00    -0.237 OA
ATOM     91  O   UNL     1      14.421  14.161  -7.347  1.00  0.00    -0.237 OA
ATOM     92  O   UNL     1      14.239  14.344  -9.798  1.00  0.00    -0.744 OA
ENDBRANCH  88  89
ENDBRANCH  56  81
ENDBRANCH  30  31
ENDBRANCH  22  25
ENDBRANCH  20  21
ENDBRANCH   1  20
TORSDOF 19
