REMARK SMILES COc1cccc([C@@H]2CC(c3cccc(C)c3)=NN2C(=O)CCC(=O)NCCCNC(=O)c2ccc(-c3c4nc(c(-c5c(F)cc(S(=O)(=O)[O-])cc5F)c5ccc([nH]5)c(-c5c(F)cc(S(=O)(=O)[O-])cc5F)c5nc(c(-c6c(F)cc(S(=O)(=O)[O-])cc6F)c6ccc3[nH]6)C=C5)C=C4)cc2)c1
REMARK SMILES IDX 27 1 26 2 24 3 25 4 23 6 22 7 20 8 21 9 19 10 8 11 9 12
REMARK SMILES IDX 10 13 18 14 7 15 3 16 4 17 99 18 5 19 6 20 2 21 1 22 11 23
REMARK SMILES IDX 12 24 17 25 13 26 15 27 14 28 16 29 28 30 29 31 30 32 31 33
REMARK SMILES IDX 32 35 33 36 34 37 98 38 35 39 97 40 36 41 37 42 38 43 91 44
REMARK SMILES IDX 39 45 96 46 90 47 92 48 40 49 95 50 89 51 88 52 41 54 75 55
REMARK SMILES IDX 54 56 74 57 55 58 58 59 73 60 93 61 56 62 57 63 72 65 94 66
REMARK SMILES IDX 59 67 42 68 43 69 52 70 44 71 45 72 51 73 53 74 46 75 47 76
REMARK SMILES IDX 48 77 49 78 50 79 76 80 77 81 86 82 78 83 79 84 85 85 87 86
REMARK SMILES IDX 80 87 81 88 82 89 83 90 84 91 60 92 61 93 70 94 62 95 63 96
REMARK SMILES IDX 69 97 71 98 64 99 65 100 66 101 67 102 68 103
REMARK H PARENT 26 5 30 34 92 53 58 64
REMARK Flexibility Score: inf
ROOT
ATOM      1  C   UNL     1       4.193   0.497  -2.839  1.00  0.00     0.117 C 
ENDROOT
BRANCH   1   2
ATOM      2  N   UNL     1       3.265   1.298  -2.050  1.00  0.00    -0.356 N 
ATOM      3  C   UNL     1       2.180   2.047  -2.416  1.00  0.00     0.220 C 
ATOM      4  O   UNL     1       1.352   2.364  -1.556  1.00  0.00    -0.275 OA
ATOM      5  H   UNL     1       3.451   1.300  -1.083  1.00  0.00     0.163 HD
BRANCH   3   6
ATOM      6  C   UNL     1       2.049   2.606  -3.818  1.00  0.00     0.110 C 
BRANCH   6   7
ATOM      7  C   UNL     1       2.808   3.919  -4.019  1.00  0.00     0.112 C 
BRANCH   7   8
ATOM      8  C   UNL     1       4.164   3.941  -3.355  1.00  0.00     0.243 C 
ATOM      9  O   UNL     1       5.169   3.813  -4.059  1.00  0.00    -0.273 OA
BRANCH   8  10
ATOM     10  N   UNL     1       4.196   4.008  -1.971  1.00  0.00    -0.225 N 
ATOM     11  C   UNL     1       3.429   4.856  -1.071  1.00  0.00     0.147 C 
ATOM     12  C   UNL     1       3.993   4.591   0.334  1.00  0.00     0.091 C 
ATOM     13  C   UNL     1       5.067   3.648  -0.055  1.00  0.00     0.071 C 
ATOM     14  N   UNL     1       5.183   3.392  -1.315  1.00  0.00    -0.174 NA
BRANCH  11  15
ATOM     15  C   UNL     1       3.603   6.267  -1.562  1.00  0.00    -0.019 A 
ATOM     16  C   UNL     1       2.491   8.140  -2.608  1.00  0.00     0.119 A 
ATOM     17  C   UNL     1       3.732   8.705  -2.902  1.00  0.00     0.046 A 
ATOM     18  C   UNL     1       2.443   6.917  -1.959  1.00  0.00     0.052 A 
ATOM     19  C   UNL     1       4.913   8.060  -2.518  1.00  0.00     0.004 A 
ATOM     20  C   UNL     1       4.851   6.846  -1.837  1.00  0.00     0.006 A 
BRANCH  16  21
ATOM     21  O   UNL     1       1.364   8.805  -3.010  1.00  0.00    -0.497 OA
ATOM     22  C   UNL     1       0.168   8.355  -2.367  1.00  0.00     0.278 C 
ENDBRANCH  16  21
ENDBRANCH  11  15
BRANCH  13  23
ATOM     23  C   UNL     1       6.129   3.188   0.814  1.00  0.00    -0.002 A 
ATOM     24  C   UNL     1       7.639   3.487  -0.017  1.00  0.00     0.010 A 
ATOM     25  C   UNL     1       5.992   2.348   2.377  1.00  0.00     0.013 A 
ATOM     26  C   UNL     1       9.121   2.902   0.723  1.00  0.00     0.001 A 
ATOM     27  C   UNL     1       7.415   1.727   3.256  1.00  0.00    -0.050 A 
ATOM     28  C   UNL     1       9.050   1.992   2.520  1.00  0.00     0.003 A 
ATOM     29  C   UNL     1       7.241   0.709   4.346  1.00  0.00     0.044 C 
ENDBRANCH  13  23
ENDBRANCH   8  10
ENDBRANCH   7   8
ENDBRANCH   6   7
ENDBRANCH   3   6
ENDBRANCH   1   2
BRANCH   1  30
ATOM     30  C   UNL     1       5.691   0.850  -2.985  1.00  0.00     0.042 C 
BRANCH  30  31
ATOM     31  C   UNL     1       6.668   0.991  -1.805  1.00  0.00     0.118 C 
BRANCH  31  32
ATOM     32  N   UNL     1       6.249   0.392  -0.559  1.00  0.00    -0.352 N 
ATOM     33  C   UNL     1       6.720   0.539   0.728  1.00  0.00     0.251 C 
ATOM     34  H   UNL     1       5.493  -0.233  -0.644  1.00  0.00     0.163 HD
ATOM     35  O   UNL     1       6.333  -0.306   1.540  1.00  0.00    -0.269 OA
BRANCH  33  36
ATOM     36  C   UNL     1       7.789   1.615   1.133  1.00  0.00     0.039 A 
ATOM     37  C   UNL     1       9.352   0.776   0.785  1.00  0.00     0.014 A 
ATOM     38  C   UNL     1       7.904   3.406   2.071  1.00  0.00     0.014 A 
ATOM     39  C   UNL     1      10.865   1.575   1.219  1.00  0.00     0.010 A 
ATOM     40  C   UNL     1       9.515   4.115   2.403  1.00  0.00     0.010 A 
ATOM     41  C   UNL     1      10.958   3.204   1.931  1.00  0.00    -0.014 A 
BRANCH  41  42
ATOM     42  C   UNL     1      12.207   4.030   1.682  1.00  0.00     0.031 A 
ATOM     43  C   UNL     1      12.616   5.044   2.719  1.00  0.00     0.074 A 
ATOM     44  C   UNL     1      12.836   4.048   0.474  1.00  0.00     0.049 A 
ATOM     45  N   UNL     1      13.543   5.965   2.660  1.00  0.00    -0.248 NA
ATOM     46  C   UNL     1      11.818   5.087   3.955  1.00  0.00     0.031 C 
ATOM     47  C   UNL     1      12.487   3.267  -0.720  1.00  0.00     0.029 A 
ATOM     48  N   UNL     1      13.921   4.785   0.029  1.00  0.00    -0.354 N 
ATOM     49  C   UNL     1      13.405   6.696   3.833  1.00  0.00     0.074 A 
ATOM     50  C   UNL     1      12.196   6.242   4.474  1.00  0.00     0.031 C 
ATOM     51  C   UNL     1      13.351   3.516  -1.715  1.00  0.00     0.029 A 
ATOM     52  C   UNL     1      14.323   4.492  -1.262  1.00  0.00     0.049 A 
ATOM     53  H   UNL     1      14.368   5.463   0.585  1.00  0.00     0.167 HD
ATOM     54  C   UNL     1      14.258   7.585   4.392  1.00  0.00     0.037 A 
ATOM     55  C   UNL     1      15.368   4.925  -2.001  1.00  0.00     0.037 A 
ATOM     56  C   UNL     1      15.486   7.993   3.773  1.00  0.00     0.049 A 
ATOM     57  C   UNL     1      16.317   5.911  -1.377  1.00  0.00     0.074 A 
ATOM     58  C   UNL     1      16.475   8.815   4.278  1.00  0.00     0.029 A 
ATOM     59  N   UNL     1      15.885   7.612   2.500  1.00  0.00    -0.354 N 
ATOM     60  N   UNL     1      16.259   6.471  -0.192  1.00  0.00    -0.248 NA
ATOM     61  C   UNL     1      17.482   6.314  -2.176  1.00  0.00     0.031 C 
ATOM     62  C   UNL     1      17.430   9.001   3.275  1.00  0.00     0.029 A 
ATOM     63  C   UNL     1      17.086   8.219   2.183  1.00  0.00     0.049 A 
ATOM     64  H   UNL     1      15.387   7.001   1.911  1.00  0.00     0.167 HD
ATOM     65  C   UNL     1      17.399   7.258  -0.086  1.00  0.00     0.074 A 
ATOM     66  C   UNL     1      18.133   7.095  -1.325  1.00  0.00     0.031 C 
ATOM     67  C   UNL     1      17.805   8.039   0.946  1.00  0.00     0.037 A 
BRANCH  54  68
ATOM     68  C   UNL     1      13.885   8.129   5.746  1.00  0.00     0.058 A 
ATOM     69  C   UNL     1      13.744   7.290   6.868  1.00  0.00     0.135 A 
ATOM     70  C   UNL     1      13.616   9.494   5.918  1.00  0.00     0.135 A 
ATOM     71  F   UNL     1      13.976   5.970   6.765  1.00  0.00    -0.206 F 
ATOM     72  C   UNL     1      13.271   7.770   8.083  1.00  0.00     0.059 A 
ATOM     73  C   UNL     1      13.193  10.006   7.141  1.00  0.00     0.059 A 
ATOM     74  F   UNL     1      13.739  10.345   4.887  1.00  0.00    -0.206 F 
ATOM     75  C   UNL     1      12.997   9.131   8.209  1.00  0.00     0.060 A 
BRANCH  75  76
ATOM     76  S   UNL     1      12.374   9.734   9.789  1.00  0.00     0.124 S 
ATOM     77  O   UNL     1      11.039   9.145   9.821  1.00  0.00    -0.237 OA
ATOM     78  O   UNL     1      13.336   9.172  10.733  1.00  0.00    -0.237 OA
ATOM     79  O   UNL     1      12.417  11.185   9.641  1.00  0.00    -0.744 OA
ENDBRANCH  75  76
ENDBRANCH  54  68
BRANCH  55  80
ATOM     80  C   UNL     1      15.641   4.361  -3.364  1.00  0.00     0.058 A 
ATOM     81  C   UNL     1      16.751   3.527  -3.590  1.00  0.00     0.135 A 
ATOM     82  C   UNL     1      14.813   4.631  -4.466  1.00  0.00     0.135 A 
ATOM     83  F   UNL     1      17.590   3.243  -2.582  1.00  0.00    -0.206 F 
ATOM     84  C   UNL     1      17.034   2.993  -4.846  1.00  0.00     0.059 A 
ATOM     85  C   UNL     1      15.059   4.085  -5.728  1.00  0.00     0.059 A 
ATOM     86  F   UNL     1      13.733   5.414  -4.317  1.00  0.00    -0.206 F 
ATOM     87  C   UNL     1      16.174   3.268  -5.909  1.00  0.00     0.060 A 
BRANCH  87  88
ATOM     88  S   UNL     1      16.507   2.497  -7.512  1.00  0.00     0.124 S 
ATOM     89  O   UNL     1      17.755   3.143  -7.903  1.00  0.00    -0.237 OA
ATOM     90  O   UNL     1      16.605   1.085  -7.153  1.00  0.00    -0.237 OA
ATOM     91  O   UNL     1      15.337   2.854  -8.309  1.00  0.00    -0.744 OA
ENDBRANCH  87  88
ENDBRANCH  55  80
BRANCH  67  92
ATOM     92  C   UNL     1      19.124   8.746   0.812  1.00  0.00     0.058 A 
ATOM     93  C   UNL     1      19.313   9.805  -0.089  1.00  0.00     0.135 A 
ATOM     94  C   UNL     1      20.187   8.412   1.667  1.00  0.00     0.135 A 
ATOM     95  F   UNL     1      18.330  10.164  -0.929  1.00  0.00    -0.206 F 
ATOM     96  C   UNL     1      20.520  10.491  -0.154  1.00  0.00     0.059 A 
ATOM     97  C   UNL     1      21.385   9.114   1.651  1.00  0.00     0.059 A 
ATOM     98  F   UNL     1      20.054   7.415   2.558  1.00  0.00    -0.206 F 
ATOM     99  C   UNL     1      21.546  10.145   0.728  1.00  0.00     0.060 A 
BRANCH  99 100
ATOM    100  S   UNL     1      23.087  11.079   0.666  1.00  0.00     0.124 S 
ATOM    101  O   UNL     1      23.628  10.667  -0.625  1.00  0.00    -0.237 OA
ATOM    102  O   UNL     1      22.614  12.458   0.745  1.00  0.00    -0.237 OA
ATOM    103  O   UNL     1      23.821  10.605   1.835  1.00  0.00    -0.744 OA
ENDBRANCH  99 100
ENDBRANCH  67  92
ENDBRANCH  41  42
ENDBRANCH  33  36
ENDBRANCH  31  32
ENDBRANCH  30  31
ENDBRANCH   1  30
TORSDOF 19
