REMARK SMILES Cc1c(NC(=O)c2cccc(-c3cc4ccccc4oc3=O)c2)cccc1C(=O)NCCCNC(=O)c1ccc(-c2c3nc(c(-c4c(F)cc(S(=O)(=O)[O-])cc4F)c4ccc([nH]4)c(-c4c(F)cc(S(=O)(=O)[O-])cc4F)c4nc(c(-c5c(F)cc(S(=O)(=O)[O-])cc5F)c5ccc2[nH]5)C=C4)C=C3)cc1
REMARK SMILES IDX 32 1 31 2 30 3 28 4 29 5 27 7 1 8 2 9 3 10 24 11 26 12 25 13
REMARK SMILES IDX 4 14 5 15 6 17 7 18 8 19 23 20 9 21 11 22 10 23 12 24 13 25
REMARK SMILES IDX 21 26 14 27 20 28 22 29 15 30 19 31 16 32 18 33 17 34 33 35
REMARK SMILES IDX 34 36 35 37 36 39 37 40 38 41 102 42 39 43 101 44 40 45
REMARK SMILES IDX 41 46 42 47 95 48 43 49 100 50 94 51 96 52 44 53 99 54 93 55
REMARK SMILES IDX 92 56 45 58 79 59 58 60 78 61 59 62 62 63 77 64 97 65 60 66
REMARK SMILES IDX 61 67 76 69 98 70 63 71 46 72 47 73 56 74 48 75 49 76 55 77
REMARK SMILES IDX 57 78 50 79 51 80 52 81 53 82 54 83 80 84 81 85 90 86 82 87
REMARK SMILES IDX 83 88 89 89 91 90 84 91 85 92 86 93 87 94 88 95 64 96 65 97
REMARK SMILES IDX 74 98 66 99 67 100 73 101 75 102 68 103 69 104 70 105 71 106
REMARK SMILES IDX 72 107
REMARK H PARENT 30 6 4 16 34 38 96 57 62 68
REMARK Flexibility Score: inf
ROOT
ATOM      1  C   UNL     1       4.563  -0.004   0.648  1.00  0.00     0.042 C 
ENDROOT
BRANCH   1   2
ATOM      2  C   UNL     1       3.337   0.728   1.457  1.00  0.00     0.118 C 
BRANCH   2   3
ATOM      3  N   UNL     1       2.389   1.599   0.707  1.00  0.00    -0.352 N 
ATOM      4  C   UNL     1       1.015   1.685   0.526  1.00  0.00     0.251 C 
ATOM      5  O   UNL     1       0.520   2.740   0.116  1.00  0.00    -0.269 OA
ATOM      6  H   UNL     1       2.863   2.301   0.206  1.00  0.00     0.163 HD
BRANCH   4   7
ATOM      7  C   UNL     1       0.050   0.563   0.761  1.00  0.00     0.044 A 
ATOM      8  C   UNL     1       1.653  -1.265   0.010  1.00  0.00     0.047 C 
ATOM      9  C   UNL     1       0.384  -0.791   0.661  1.00  0.00    -0.015 A 
ATOM     10  C   UNL     1      -0.577  -1.774   0.974  1.00  0.00     0.045 A 
ATOM     11  C   UNL     1      -1.919  -1.443   1.152  1.00  0.00     0.026 A 
ATOM     12  C   UNL     1      -1.322   0.884   0.916  1.00  0.00     0.014 A 
ATOM     13  C   UNL     1      -2.301  -0.108   1.074  1.00  0.00     0.003 A 
BRANCH  10  14
ATOM     14  N   UNL     1      -0.107  -3.088   1.075  1.00  0.00    -0.322 N 
ATOM     15  C   UNL     1      -0.526  -4.243   0.475  1.00  0.00     0.255 C 
ATOM     16  H   UNL     1       0.659  -3.200   1.684  1.00  0.00     0.170 HD
ATOM     17  O   UNL     1       0.032  -5.300   0.775  1.00  0.00    -0.269 OA
BRANCH  15  18
ATOM     18  C   UNL     1      -1.558  -4.252  -0.591  1.00  0.00     0.040 A 
ATOM     19  C   UNL     1      -2.298  -5.426  -0.746  1.00  0.00     0.014 A 
ATOM     20  C   UNL     1      -1.731  -3.202  -1.504  1.00  0.00     0.022 A 
ATOM     21  C   UNL     1      -3.255  -5.519  -1.751  1.00  0.00     0.001 A 
ATOM     22  C   UNL     1      -2.696  -3.276  -2.518  1.00  0.00    -0.010 A 
ATOM     23  C   UNL     1      -3.464  -4.445  -2.619  1.00  0.00     0.009 A 
BRANCH  22  24
ATOM     24  C   UNL     1      -2.834  -2.251  -3.591  1.00  0.00     0.068 A 
ATOM     25  C   UNL     1      -2.652  -0.924  -3.396  1.00  0.00     0.028 A 
ATOM     26  C   UNL     1      -2.178  -2.669  -4.874  1.00  0.00     0.344 A 
ATOM     27  C   UNL     1      -1.229  -0.512  -3.447  1.00  0.00     0.018 A 
ATOM     28  O   UNL     1      -0.804  -2.430  -4.888  1.00  0.00    -0.422 OA
ATOM     29  O   UNL     1      -2.777  -3.280  -5.750  1.00  0.00    -0.246 OA
ATOM     30  C   UNL     1      -0.760   0.650  -2.841  1.00  0.00     0.012 A 
ATOM     31  C   UNL     1      -0.324  -1.360  -4.101  1.00  0.00     0.138 A 
ATOM     32  C   UNL     1       0.615   0.904  -2.829  1.00  0.00     0.001 A 
ATOM     33  C   UNL     1       1.047  -1.149  -4.036  1.00  0.00     0.048 A 
ATOM     34  C   UNL     1       1.516  -0.012  -3.383  1.00  0.00     0.004 A 
ENDBRANCH  22  24
ENDBRANCH  15  18
ENDBRANCH  10  14
ENDBRANCH   4   7
ENDBRANCH   2   3
ENDBRANCH   1   2
BRANCH   1  35
ATOM     35  C   UNL     1       6.014   0.650   0.811  1.00  0.00     0.118 C 
BRANCH  35  36
ATOM     36  N   UNL     1       7.354   0.278   0.079  1.00  0.00    -0.352 N 
ATOM     37  C   UNL     1       8.601   0.979  -0.270  1.00  0.00     0.251 C 
ATOM     38  H   UNL     1       7.361  -0.660  -0.223  1.00  0.00     0.163 HD
ATOM     39  O   UNL     1       9.586   0.556   0.363  1.00  0.00    -0.269 OA
BRANCH  37  40
ATOM     40  C   UNL     1       8.983   2.123  -1.324  1.00  0.00     0.039 A 
ATOM     41  C   UNL     1       9.944   3.136  -1.000  1.00  0.00     0.014 A 
ATOM     42  C   UNL     1       8.396   2.352  -2.560  1.00  0.00     0.014 A 
ATOM     43  C   UNL     1       9.789   4.498  -1.494  1.00  0.00     0.010 A 
ATOM     44  C   UNL     1       8.237   3.688  -3.050  1.00  0.00     0.010 A 
ATOM     45  C   UNL     1       8.720   4.804  -2.354  1.00  0.00    -0.014 A 
BRANCH  45  46
ATOM     46  C   UNL     1       7.951   6.127  -2.387  1.00  0.00     0.031 A 
ATOM     47  C   UNL     1       8.167   7.096  -3.457  1.00  0.00     0.074 A 
ATOM     48  C   UNL     1       6.895   6.549  -1.619  1.00  0.00     0.049 A 
ATOM     49  N   UNL     1       8.355   8.365  -3.282  1.00  0.00    -0.248 NA
ATOM     50  C   UNL     1       8.035   6.678  -4.839  1.00  0.00     0.031 C 
ATOM     51  C   UNL     1       5.985   7.712  -1.690  1.00  0.00     0.029 A 
ATOM     52  N   UNL     1       6.317   5.924  -0.538  1.00  0.00    -0.354 N 
ATOM     53  C   UNL     1       8.039   8.948  -4.491  1.00  0.00     0.074 A 
ATOM     54  C   UNL     1       8.056   7.861  -5.454  1.00  0.00     0.031 C 
ATOM     55  C   UNL     1       5.328   7.855  -0.514  1.00  0.00     0.029 A 
ATOM     56  C   UNL     1       5.810   6.829   0.388  1.00  0.00     0.049 A 
ATOM     57  H   UNL     1       6.267   4.947  -0.433  1.00  0.00     0.167 HD
ATOM     58  C   UNL     1       7.494  10.202  -4.573  1.00  0.00     0.037 A 
ATOM     59  C   UNL     1       6.397   6.916   1.627  1.00  0.00     0.037 A 
ATOM     60  C   UNL     1       7.043  10.709  -3.262  1.00  0.00     0.049 A 
ATOM     61  C   UNL     1       7.152   8.212   1.737  1.00  0.00     0.074 A 
ATOM     62  C   UNL     1       5.794  10.975  -2.711  1.00  0.00     0.029 A 
ATOM     63  N   UNL     1       7.918  10.751  -2.191  1.00  0.00    -0.354 N 
ATOM     64  N   UNL     1       6.949   9.214   0.936  1.00  0.00    -0.248 NA
ATOM     65  C   UNL     1       8.257   8.454   2.663  1.00  0.00     0.031 C 
ATOM     66  C   UNL     1       5.944  11.201  -1.311  1.00  0.00     0.029 A 
ATOM     67  C   UNL     1       7.287  11.091  -1.005  1.00  0.00     0.049 A 
ATOM     68  H   UNL     1       8.881  10.560  -2.263  1.00  0.00     0.167 HD
ATOM     69  C   UNL     1       7.951  10.123   1.081  1.00  0.00     0.074 A 
ATOM     70  C   UNL     1       8.715   9.638   2.219  1.00  0.00     0.031 C 
ATOM     71  C   UNL     1       8.089  11.164   0.211  1.00  0.00     0.037 A 
BRANCH  58  72
ATOM     72  C   UNL     1       7.092  10.833  -5.901  1.00  0.00     0.058 A 
ATOM     73  C   UNL     1       6.175  11.901  -5.978  1.00  0.00     0.135 A 
ATOM     74  C   UNL     1       7.640  10.454  -7.148  1.00  0.00     0.135 A 
ATOM     75  F   UNL     1       5.688  12.492  -4.879  1.00  0.00    -0.206 F 
ATOM     76  C   UNL     1       5.747  12.454  -7.189  1.00  0.00     0.059 A 
ATOM     77  C   UNL     1       7.170  10.929  -8.375  1.00  0.00     0.059 A 
ATOM     78  F   UNL     1       8.720   9.663  -7.227  1.00  0.00    -0.206 F 
ATOM     79  C   UNL     1       6.225  11.940  -8.386  1.00  0.00     0.060 A 
BRANCH  79  80
ATOM     80  S   UNL     1       5.685  12.678  -9.938  1.00  0.00     0.124 S 
ATOM     81  O   UNL     1       4.233  12.568  -9.848  1.00  0.00    -0.237 OA
ATOM     82  O   UNL     1       6.229  14.028  -9.834  1.00  0.00    -0.237 OA
ATOM     83  O   UNL     1       6.308  11.832 -10.953  1.00  0.00    -0.744 OA
ENDBRANCH  79  80
ENDBRANCH  58  72
BRANCH  59  84
ATOM     84  C   UNL     1       6.870   5.593   2.275  1.00  0.00     0.058 A 
ATOM     85  C   UNL     1       5.826   4.701   2.558  1.00  0.00     0.135 A 
ATOM     86  C   UNL     1       7.887   4.983   1.567  1.00  0.00     0.135 A 
ATOM     87  F   UNL     1       5.186   4.773   3.731  1.00  0.00    -0.206 F 
ATOM     88  C   UNL     1       5.433   3.731   1.638  1.00  0.00     0.059 A 
ATOM     89  C   UNL     1       7.506   4.016   0.630  1.00  0.00     0.059 A 
ATOM     90  F   UNL     1       9.083   5.585   1.441  1.00  0.00    -0.206 F 
ATOM     91  C   UNL     1       6.204   3.569   0.509  1.00  0.00     0.060 A 
BRANCH  91  92
ATOM     92  S   UNL     1       5.326   3.059  -1.231  1.00  0.00     0.124 S 
ATOM     93  O   UNL     1       3.958   2.888  -0.760  1.00  0.00    -0.237 OA
ATOM     94  O   UNL     1       5.487   4.180  -2.114  1.00  0.00    -0.237 OA
ATOM     95  O   UNL     1       5.941   1.815  -1.692  1.00  0.00    -0.744 OA
ENDBRANCH  91  92
ENDBRANCH  59  84
BRANCH  71  96
ATOM     96  C   UNL     1       9.036  12.309   0.421  1.00  0.00     0.058 A 
ATOM     97  C   UNL     1       9.358  12.796   1.699  1.00  0.00     0.135 A 
ATOM     98  C   UNL     1       9.551  13.053  -0.664  1.00  0.00     0.135 A 
ATOM     99  F   UNL     1       8.800  12.277   2.804  1.00  0.00    -0.206 F 
ATOM    100  C   UNL     1      10.232  13.862   1.889  1.00  0.00     0.059 A 
ATOM    101  C   UNL     1      10.385  14.148  -0.500  1.00  0.00     0.059 A 
ATOM    102  F   UNL     1       9.270  12.753  -1.938  1.00  0.00    -0.206 F 
ATOM    103  C   UNL     1      10.752  14.522   0.780  1.00  0.00     0.060 A 
BRANCH 103 104
ATOM    104  S   UNL     1      11.886  15.892   1.023  1.00  0.00     0.124 S 
ATOM    105  O   UNL     1      11.244  16.641   2.099  1.00  0.00    -0.237 OA
ATOM    106  O   UNL     1      13.113  15.189   1.387  1.00  0.00    -0.237 OA
ATOM    107  O   UNL     1      11.903  16.557  -0.275  1.00  0.00    -0.744 OA
ENDBRANCH 103 104
ENDBRANCH  71  96
ENDBRANCH  45  46
ENDBRANCH  37  40
ENDBRANCH  35  36
ENDBRANCH   1  35
TORSDOF 16
