REMARK SMILES Cc1nc([C@]2(C)CCCO2)nc(C)c1C(=O)NCCCNC(=O)c1ccc(-c2c3nc(c(-c4c(F)cc(S(=O)(=O)[O-])cc4F)c4ccc([nH]4)c(-c4c(F)cc(S(=O)(=O)[O-])cc4F)c4nc(c(-c5c(F)cc(S(=O)(=O)[O-])cc5F)c5ccc2[nH]5)C=C4)C=C3)cc1
REMARK SMILES IDX 20 1 19 2 18 3 17 4 15 5 16 6 14 8 1 9 2 10 3 11 4 12 12 13
REMARK SMILES IDX 11 14 13 15 5 16 7 17 10 18 6 19 8 20 9 21 21 22 22 23 23 25
REMARK SMILES IDX 24 26 25 27 89 28 26 29 88 30 27 31 28 32 29 33 82 34 30 35
REMARK SMILES IDX 87 36 81 37 83 38 31 39 86 40 80 41 79 42 32 44 66 45 45 46
REMARK SMILES IDX 65 47 46 48 49 49 64 50 84 51 47 52 48 53 63 55 85 56 50 57
REMARK SMILES IDX 33 58 34 59 43 60 35 61 36 62 42 63 44 64 37 65 38 66 39 67
REMARK SMILES IDX 40 68 41 69 67 70 68 71 77 72 69 73 70 74 76 75 78 76 71 77
REMARK SMILES IDX 72 78 73 79 74 80 75 81 51 82 52 83 61 84 53 85 54 86 60 87
REMARK SMILES IDX 62 88 55 89 56 90 57 91 58 92 59 93
REMARK H PARENT 17 7 21 24 83 43 49 54
REMARK Flexibility Score: inf
ROOT
ATOM      1  C   UNL     1      -6.976  -6.718   3.897  1.00  0.00     0.118 C 
ENDROOT
BRANCH   1   2
ATOM      2  C   UNL     1      -5.827  -6.324   2.985  1.00  0.00     0.042 C 
BRANCH   2   3
ATOM      3  C   UNL     1      -6.208  -5.252   1.964  1.00  0.00     0.118 C 
BRANCH   3   4
ATOM      4  N   UNL     1      -5.948  -3.942   2.507  1.00  0.00    -0.352 N 
ATOM      5  C   UNL     1      -4.918  -3.046   2.488  1.00  0.00     0.254 C 
ATOM      6  O   UNL     1      -5.134  -2.083   3.231  1.00  0.00    -0.269 OA
ATOM      7  H   UNL     1      -6.713  -3.606   3.027  1.00  0.00     0.163 HD
BRANCH   5   8
ATOM      8  C   UNL     1      -3.655  -3.080   1.676  1.00  0.00     0.082 A 
ATOM      9  C   UNL     1      -3.198  -5.627   1.378  1.00  0.00     0.068 C 
ATOM     10  C   UNL     1      -2.947  -4.174   1.182  1.00  0.00     0.054 A 
ATOM     11  N   UNL     1      -1.791  -4.041   0.487  1.00  0.00    -0.234 NA
ATOM     12  C   UNL     1      -1.215  -2.845   0.362  1.00  0.00     0.160 A 
ATOM     13  C   UNL     1      -3.002  -1.848   1.435  1.00  0.00     0.054 A 
ATOM     14  N   UNL     1      -1.806  -1.729   0.788  1.00  0.00    -0.234 NA
ATOM     15  C   UNL     1      -3.512  -0.511   1.908  1.00  0.00     0.068 C 
BRANCH  12  16
ATOM     16  C   UNL     1       0.215  -2.821  -0.190  1.00  0.00     0.125 C 
ATOM     17  C   UNL     1       0.307  -3.446  -1.582  1.00  0.00     0.046 C 
ATOM     18  O   UNL     1       1.074  -3.666   0.622  1.00  0.00    -0.367 OA
ATOM     19  C   UNL     1       0.809  -1.412  -0.160  1.00  0.00     0.051 C 
ATOM     20  C   UNL     1       0.431  -4.930  -1.305  1.00  0.00     0.032 C 
ATOM     21  C   UNL     1       1.045  -4.997   0.082  1.00  0.00     0.161 C 
ENDBRANCH  12  16
ENDBRANCH   5   8
ENDBRANCH   3   4
ENDBRANCH   2   3
ENDBRANCH   1   2
BRANCH   1  22
ATOM     22  N   UNL     1      -7.998  -7.450   3.163  1.00  0.00    -0.352 N 
ATOM     23  C   UNL     1      -8.434  -8.737   3.337  1.00  0.00     0.251 C 
ATOM     24  H   UNL     1      -8.439  -6.949   2.439  1.00  0.00     0.163 HD
ATOM     25  O   UNL     1      -9.087  -9.279   2.443  1.00  0.00    -0.269 OA
BRANCH  23  26
ATOM     26  C   UNL     1      -8.117  -9.466   4.581  1.00  0.00     0.039 A 
ATOM     27  C   UNL     1      -7.816 -10.829   4.515  1.00  0.00     0.014 A 
ATOM     28  C   UNL     1      -8.139  -8.810   5.815  1.00  0.00     0.014 A 
ATOM     29  C   UNL     1      -7.490 -11.520   5.682  1.00  0.00     0.010 A 
ATOM     30  C   UNL     1      -7.718  -9.474   6.959  1.00  0.00     0.010 A 
ATOM     31  C   UNL     1      -7.409 -10.840   6.908  1.00  0.00    -0.014 A 
BRANCH  31  32
ATOM     32  C   UNL     1      -7.027 -11.538   8.159  1.00  0.00     0.031 A 
ATOM     33  C   UNL     1      -7.997 -11.593   9.308  1.00  0.00     0.074 A 
ATOM     34  C   UNL     1      -5.787 -12.050   8.283  1.00  0.00     0.049 A 
ATOM     35  N   UNL     1      -7.822 -12.064  10.515  1.00  0.00    -0.248 NA
ATOM     36  C   UNL     1      -9.331 -11.009   9.082  1.00  0.00     0.031 C 
ATOM     37  C   UNL     1      -4.747 -12.005   7.251  1.00  0.00     0.029 A 
ATOM     38  N   UNL     1      -5.184 -12.694   9.332  1.00  0.00    -0.354 N 
ATOM     39  C   UNL     1      -9.009 -11.815  11.194  1.00  0.00     0.074 A 
ATOM     40  C   UNL     1      -9.876 -11.099  10.286  1.00  0.00     0.031 C 
ATOM     41  C   UNL     1      -3.643 -12.616   7.711  1.00  0.00     0.029 A 
ATOM     42  C   UNL     1      -3.880 -13.054   9.083  1.00  0.00     0.049 A 
ATOM     43  H   UNL     1      -5.641 -12.881  10.183  1.00  0.00     0.167 HD
ATOM     44  C   UNL     1      -9.354 -12.175  12.452  1.00  0.00     0.037 A 
ATOM     45  C   UNL     1      -2.974 -13.657   9.876  1.00  0.00     0.037 A 
ATOM     46  C   UNL     1      -8.491 -12.917  13.333  1.00  0.00     0.049 A 
ATOM     47  C   UNL     1      -3.382 -14.053  11.270  1.00  0.00     0.074 A 
ATOM     48  C   UNL     1      -8.761 -13.391  14.603  1.00  0.00     0.029 A 
ATOM     49  N   UNL     1      -7.188 -13.291  13.033  1.00  0.00    -0.354 N 
ATOM     50  N   UNL     1      -4.532 -13.870  11.874  1.00  0.00    -0.248 NA
ATOM     51  C   UNL     1      -2.375 -14.741  12.088  1.00  0.00     0.031 C 
ATOM     52  C   UNL     1      -7.606 -14.008  15.093  1.00  0.00     0.029 A 
ATOM     53  C   UNL     1      -6.634 -13.971  14.104  1.00  0.00     0.049 A 
ATOM     54  H   UNL     1      -6.726 -13.102  12.185  1.00  0.00     0.167 HD
ATOM     55  C   UNL     1      -4.397 -14.445  13.132  1.00  0.00     0.074 A 
ATOM     56  C   UNL     1      -3.057 -14.992  13.197  1.00  0.00     0.031 C 
ATOM     57  C   UNL     1      -5.299 -14.517  14.142  1.00  0.00     0.037 A 
BRANCH  44  58
ATOM     58  C   UNL     1     -10.719 -11.780  12.948  1.00  0.00     0.058 A 
ATOM     59  C   UNL     1     -11.890 -12.352  12.424  1.00  0.00     0.135 A 
ATOM     60  C   UNL     1     -10.858 -10.844  13.986  1.00  0.00     0.135 A 
ATOM     61  F   UNL     1     -11.819 -13.239  11.418  1.00  0.00    -0.206 F 
ATOM     62  C   UNL     1     -13.149 -11.991  12.892  1.00  0.00     0.059 A 
ATOM     63  C   UNL     1     -12.106 -10.491  14.491  1.00  0.00     0.059 A 
ATOM     64  F   UNL     1      -9.773 -10.263  14.522  1.00  0.00    -0.206 F 
ATOM     65  C   UNL     1     -13.247 -11.061  13.928  1.00  0.00     0.060 A 
BRANCH  65  66
ATOM     66  S   UNL     1     -14.889 -10.616  14.531  1.00  0.00     0.124 S 
ATOM     67  O   UNL     1     -15.402  -9.821  13.419  1.00  0.00    -0.237 OA
ATOM     68  O   UNL     1     -15.515 -11.920  14.720  1.00  0.00    -0.237 OA
ATOM     69  O   UNL     1     -14.612  -9.873  15.757  1.00  0.00    -0.744 OA
ENDBRANCH  65  66
ENDBRANCH  44  58
BRANCH  45  70
ATOM     70  C   UNL     1      -1.607 -13.938   9.363  1.00  0.00     0.058 A 
ATOM     71  C   UNL     1      -1.187 -15.251   9.107  1.00  0.00     0.135 A 
ATOM     72  C   UNL     1      -0.700 -12.899   9.097  1.00  0.00     0.135 A 
ATOM     73  F   UNL     1      -2.015 -16.279   9.347  1.00  0.00    -0.206 F 
ATOM     74  C   UNL     1       0.088 -15.528   8.621  1.00  0.00     0.059 A 
ATOM     75  C   UNL     1       0.570 -13.149   8.585  1.00  0.00     0.059 A 
ATOM     76  F   UNL     1      -1.059 -11.623   9.305  1.00  0.00    -0.206 F 
ATOM     77  C   UNL     1       0.958 -14.469   8.360  1.00  0.00     0.060 A 
BRANCH  77  78
ATOM     78  S   UNL     1       2.592 -14.838   7.685  1.00  0.00     0.124 S 
ATOM     79  O   UNL     1       3.260 -15.427   8.839  1.00  0.00    -0.237 OA
ATOM     80  O   UNL     1       2.272 -15.754   6.595  1.00  0.00    -0.237 OA
ATOM     81  O   UNL     1       3.086 -13.529   7.269  1.00  0.00    -0.744 OA
ENDBRANCH  77  78
ENDBRANCH  45  70
BRANCH  57  82
ATOM     82  C   UNL     1      -4.886 -15.243  15.392  1.00  0.00     0.058 A 
ATOM     83  C   UNL     1      -3.962 -14.695  16.294  1.00  0.00     0.135 A 
ATOM     84  C   UNL     1      -5.480 -16.472  15.723  1.00  0.00     0.135 A 
ATOM     85  F   UNL     1      -3.361 -13.527  16.021  1.00  0.00    -0.206 F 
ATOM     86  C   UNL     1      -3.627 -15.350  17.475  1.00  0.00     0.059 A 
ATOM     87  C   UNL     1      -5.183 -17.129  16.913  1.00  0.00     0.059 A 
ATOM     88  F   UNL     1      -6.378 -17.034  14.899  1.00  0.00    -0.206 F 
ATOM     89  C   UNL     1      -4.248 -16.563  17.778  1.00  0.00     0.060 A 
BRANCH  89  90
ATOM     90  S   UNL     1      -3.840 -17.376  19.337  1.00  0.00     0.124 S 
ATOM     91  O   UNL     1      -2.490 -17.862  19.071  1.00  0.00    -0.237 OA
ATOM     92  O   UNL     1      -3.942 -16.280  20.295  1.00  0.00    -0.237 OA
ATOM     93  O   UNL     1      -4.866 -18.408  19.462  1.00  0.00    -0.744 OA
ENDBRANCH  89  90
ENDBRANCH  57  82
ENDBRANCH  31  32
ENDBRANCH  23  26
ENDBRANCH   1  22
TORSDOF 14
