REMARK SMILES C=Cc1cccc(-c2ccc([C@@H](C)C(=O)NCCCNC(=O)c3ccc(-c4c5nc(c(-c6c(F)cc(S(=O)(=O)[O-])cc6F)c6ccc([nH]6)c(-c6c(F)cc(S(=O)(=O)[O-])cc6F)c6nc(c(-c7c(F)cc(S(=O)(=O)[O-])cc7F)c7ccc4[nH]7)C=C6)C=C5)cc3)cc2)c1
REMARK SMILES IDX 18 1 17 2 16 3 14 4 15 5 12 7 13 8 11 9 8 10 9 11 90 12
REMARK SMILES IDX 10 13 89 14 7 15 3 16 4 17 91 18 5 19 6 20 2 21 1 22 19 23
REMARK SMILES IDX 20 24 21 25 22 27 23 28 24 29 88 30 25 31 87 32 26 33 27 34
REMARK SMILES IDX 28 35 81 36 29 37 86 38 80 39 82 40 30 41 85 42 79 43 78 44
REMARK SMILES IDX 31 46 65 47 44 48 64 49 45 50 48 51 63 52 83 53 46 54 47 55
REMARK SMILES IDX 62 57 84 58 49 59 32 60 33 61 42 62 34 63 35 64 41 65 43 66
REMARK SMILES IDX 36 67 37 68 38 69 39 70 40 71 66 72 67 73 76 74 68 75 69 76
REMARK SMILES IDX 75 77 77 78 70 79 71 80 72 81 73 82 74 83 50 84 51 85 60 86
REMARK SMILES IDX 52 87 53 88 59 89 61 90 54 91 55 92 56 93 57 94 58 95
REMARK H PARENT 16 6 20 26 82 45 48 56
REMARK Flexibility Score: inf
ROOT
ATOM      1  C   UNL     1      -6.711  -1.822   3.963  1.00  0.00     0.042 C 
ENDROOT
BRANCH   1   2
ATOM      2  C   UNL     1      -7.448  -0.961   4.986  1.00  0.00     0.117 C 
BRANCH   2   3
ATOM      3  N   UNL     1      -6.564  -0.420   6.000  1.00  0.00    -0.356 N 
ATOM      4  C   UNL     1      -5.982   0.802   6.145  1.00  0.00     0.227 C 
ATOM      5  O   UNL     1      -5.237   0.937   7.124  1.00  0.00    -0.274 OA
ATOM      6  H   UNL     1      -6.343  -1.056   6.718  1.00  0.00     0.163 HD
BRANCH   4   7
ATOM      7  C   UNL     1      -6.216   1.987   5.196  1.00  0.00     0.105 C 
ATOM      8  C   UNL     1      -7.673   2.443   5.106  1.00  0.00     0.023 C 
BRANCH   7   9
ATOM      9  C   UNL     1      -5.477   1.866   3.874  1.00  0.00    -0.036 A 
ATOM     10  C   UNL     1      -3.955   1.530   1.472  1.00  0.00    -0.018 A 
ATOM     11  C   UNL     1      -5.266   1.042   1.593  1.00  0.00     0.009 A 
ATOM     12  C   UNL     1      -3.437   2.225   2.576  1.00  0.00     0.009 A 
ATOM     13  C   UNL     1      -6.024   1.237   2.755  1.00  0.00     0.005 A 
ATOM     14  C   UNL     1      -4.174   2.373   3.760  1.00  0.00     0.005 A 
BRANCH  10  15
ATOM     15  C   UNL     1      -3.166   1.305   0.237  1.00  0.00    -0.018 A 
ATOM     16  C   UNL     1      -1.025   0.852  -0.890  1.00  0.00    -0.026 A 
ATOM     17  C   UNL     1      -1.680   0.830  -2.124  1.00  0.00     0.008 A 
ATOM     18  C   UNL     1      -1.773   1.091   0.276  1.00  0.00     0.016 A 
ATOM     19  C   UNL     1      -3.055   1.033  -2.193  1.00  0.00     0.001 A 
ATOM     20  C   UNL     1      -3.784   1.276  -1.027  1.00  0.00     0.009 A 
BRANCH  16  21
ATOM     21  C   UNL     1       0.432   0.675  -0.867  1.00  0.00     0.000 C 
ATOM     22  C   UNL     1       1.090  -0.050   0.046  1.00  0.00     0.009 C 
ENDBRANCH  16  21
ENDBRANCH  10  15
ENDBRANCH   7   9
ENDBRANCH   4   7
ENDBRANCH   2   3
ENDBRANCH   1   2
BRANCH   1  23
ATOM     23  C   UNL     1      -6.435  -3.245   4.434  1.00  0.00     0.118 C 
BRANCH  23  24
ATOM     24  N   UNL     1      -7.654  -4.037   4.544  1.00  0.00    -0.352 N 
ATOM     25  C   UNL     1      -8.078  -5.135   3.835  1.00  0.00     0.251 C 
ATOM     26  H   UNL     1      -8.278  -3.734   5.243  1.00  0.00     0.163 HD
ATOM     27  O   UNL     1      -9.244  -5.504   3.952  1.00  0.00    -0.269 OA
BRANCH  25  28
ATOM     28  C   UNL     1      -7.162  -5.866   2.928  1.00  0.00     0.039 A 
ATOM     29  C   UNL     1      -7.664  -6.365   1.721  1.00  0.00     0.014 A 
ATOM     30  C   UNL     1      -5.830  -6.105   3.274  1.00  0.00     0.014 A 
ATOM     31  C   UNL     1      -6.815  -7.037   0.835  1.00  0.00     0.010 A 
ATOM     32  C   UNL     1      -4.967  -6.704   2.358  1.00  0.00     0.010 A 
ATOM     33  C   UNL     1      -5.450  -7.177   1.129  1.00  0.00    -0.014 A 
BRANCH  33  34
ATOM     34  C   UNL     1      -4.506  -7.792   0.160  1.00  0.00     0.031 A 
ATOM     35  C   UNL     1      -3.776  -9.062   0.506  1.00  0.00     0.074 A 
ATOM     36  C   UNL     1      -4.246  -7.161  -1.002  1.00  0.00     0.049 A 
ATOM     37  N   UNL     1      -2.860  -9.701  -0.176  1.00  0.00    -0.248 NA
ATOM     38  C   UNL     1      -4.100  -9.680   1.801  1.00  0.00     0.031 C 
ATOM     39  C   UNL     1      -4.858  -5.903  -1.435  1.00  0.00     0.029 A 
ATOM     40  N   UNL     1      -3.392  -7.482  -2.027  1.00  0.00    -0.354 N 
ATOM     41  C   UNL     1      -2.481 -10.779   0.615  1.00  0.00     0.074 A 
ATOM     42  C   UNL     1      -3.236 -10.684   1.845  1.00  0.00     0.031 C 
ATOM     43  C   UNL     1      -4.383  -5.576  -2.647  1.00  0.00     0.029 A 
ATOM     44  C   UNL     1      -3.400  -6.573  -3.058  1.00  0.00     0.049 A 
ATOM     45  H   UNL     1      -2.826  -8.288  -2.024  1.00  0.00     0.167 HD
ATOM     46  C   UNL     1      -1.595 -11.766   0.334  1.00  0.00     0.037 A 
ATOM     47  C   UNL     1      -2.690  -6.540  -4.203  1.00  0.00     0.037 A 
ATOM     48  C   UNL     1      -0.866 -11.866  -0.904  1.00  0.00     0.049 A 
ATOM     49  C   UNL     1      -1.700  -7.634  -4.485  1.00  0.00     0.074 A 
ATOM     50  C   UNL     1      -0.011 -12.872  -1.321  1.00  0.00     0.029 A 
ATOM     51  N   UNL     1      -0.894 -10.921  -1.920  1.00  0.00    -0.354 N 
ATOM     52  N   UNL     1      -1.409  -8.688  -3.760  1.00  0.00    -0.248 NA
ATOM     53  C   UNL     1      -0.937  -7.534  -5.737  1.00  0.00     0.031 C 
ATOM     54  C   UNL     1       0.517 -12.509  -2.565  1.00  0.00     0.029 A 
ATOM     55  C   UNL     1      -0.045 -11.301  -2.946  1.00  0.00     0.049 A 
ATOM     56  H   UNL     1      -1.438 -10.100  -1.912  1.00  0.00     0.167 HD
ATOM     57  C   UNL     1      -0.445  -9.389  -4.477  1.00  0.00     0.074 A 
ATOM     58  C   UNL     1      -0.210  -8.643  -5.697  1.00  0.00     0.031 C 
ATOM     59  C   UNL     1       0.184 -10.546  -4.154  1.00  0.00     0.037 A 
BRANCH  46  60
ATOM     60  C   UNL     1      -1.357 -12.807   1.395  1.00  0.00     0.058 A 
ATOM     61  C   UNL     1      -2.340 -13.748   1.746  1.00  0.00     0.135 A 
ATOM     62  C   UNL     1      -0.126 -12.869   2.068  1.00  0.00     0.135 A 
ATOM     63  F   UNL     1      -3.539 -13.730   1.143  1.00  0.00    -0.206 F 
ATOM     64  C   UNL     1      -2.129 -14.678   2.759  1.00  0.00     0.059 A 
ATOM     65  C   UNL     1       0.118 -13.811   3.064  1.00  0.00     0.059 A 
ATOM     66  F   UNL     1       0.852 -11.999   1.770  1.00  0.00    -0.206 F 
ATOM     67  C   UNL     1      -0.899 -14.697   3.418  1.00  0.00     0.060 A 
BRANCH  67  68
ATOM     68  S   UNL     1      -0.651 -15.887   4.752  1.00  0.00     0.124 S 
ATOM     69  O   UNL     1      -1.446 -15.293   5.822  1.00  0.00    -0.237 OA
ATOM     70  O   UNL     1      -1.184 -17.118   4.178  1.00  0.00    -0.237 OA
ATOM     71  O   UNL     1       0.793 -15.870   4.960  1.00  0.00    -0.744 OA
ENDBRANCH  67  68
ENDBRANCH  46  60
BRANCH  47  72
ATOM     72  C   UNL     1      -2.922  -5.444  -5.181  1.00  0.00     0.058 A 
ATOM     73  C   UNL     1      -3.596  -5.695  -6.385  1.00  0.00     0.135 A 
ATOM     74  C   UNL     1      -2.523  -4.125  -4.916  1.00  0.00     0.135 A 
ATOM     75  F   UNL     1      -3.989  -6.942  -6.686  1.00  0.00    -0.206 F 
ATOM     76  C   UNL     1      -3.870  -4.677  -7.292  1.00  0.00     0.059 A 
ATOM     77  C   UNL     1      -2.805  -3.086  -5.797  1.00  0.00     0.059 A 
ATOM     78  F   UNL     1      -1.886  -3.832  -3.772  1.00  0.00    -0.206 F 
ATOM     79  C   UNL     1      -3.477  -3.373  -6.985  1.00  0.00     0.060 A 
BRANCH  79  80
ATOM     80  S   UNL     1      -3.911  -2.046  -8.130  1.00  0.00     0.124 S 
ATOM     81  O   UNL     1      -2.992  -2.297  -9.234  1.00  0.00    -0.237 OA
ATOM     82  O   UNL     1      -5.320  -2.320  -8.397  1.00  0.00    -0.237 OA
ATOM     83  O   UNL     1      -3.653  -0.836  -7.355  1.00  0.00    -0.744 OA
ENDBRANCH  79  80
ENDBRANCH  47  72
BRANCH  59  84
ATOM     84  C   UNL     1       1.178 -11.091  -5.142  1.00  0.00     0.058 A 
ATOM     85  C   UNL     1       2.441 -10.503  -5.316  1.00  0.00     0.135 A 
ATOM     86  C   UNL     1       0.886 -12.249  -5.881  1.00  0.00     0.135 A 
ATOM     87  F   UNL     1       2.765  -9.388  -4.642  1.00  0.00    -0.206 F 
ATOM     88  C   UNL     1       3.374 -11.036  -6.198  1.00  0.00     0.059 A 
ATOM     89  C   UNL     1       1.815 -12.814  -6.749  1.00  0.00     0.059 A 
ATOM     90  F   UNL     1      -0.304 -12.855  -5.746  1.00  0.00    -0.206 F 
ATOM     91  C   UNL     1       3.054 -12.195  -6.908  1.00  0.00     0.060 A 
BRANCH  91  92
ATOM     92  S   UNL     1       4.292 -12.902  -8.015  1.00  0.00     0.124 S 
ATOM     93  O   UNL     1       4.257 -11.966  -9.133  1.00  0.00    -0.237 OA
ATOM     94  O   UNL     1       5.500 -12.867  -7.196  1.00  0.00    -0.237 OA
ATOM     95  O   UNL     1       3.773 -14.238  -8.296  1.00  0.00    -0.744 OA
ENDBRANCH  91  92
ENDBRANCH  59  84
ENDBRANCH  33  34
ENDBRANCH  25  28
ENDBRANCH  23  24
ENDBRANCH   1  23
TORSDOF 16
