REMARK SMILES CCCc1cc(OC(F)(F)F)cc2c1O[C@H](C(F)(F)F)C(C(=O)NCCCNC(=O)c1ccc(-c3c4nc(c(-c5c(F)cc(S(=O)(=O)[O-])cc5F)c5ccc([nH]5)c(-c5c(F)cc(S(=O)(=O)[O-])cc5F)c5nc(c(-c6c(F)cc(S(=O)(=O)[O-])cc6F)c6ccc3[nH]6)C=C5)C=C4)cc1)=C2
REMARK SMILES IDX 26 1 25 2 24 3 22 4 23 5 21 7 4 8 5 9 14 10 6 11 13 12 15 13
REMARK SMILES IDX 12 14 97 15 16 16 3 17 2 18 1 19 7 20 8 21 9 22 10 23 11 24
REMARK SMILES IDX 17 25 18 26 19 27 20 28 27 29 28 30 29 31 30 33 31 34 32 35
REMARK SMILES IDX 96 36 33 37 95 38 34 39 35 40 36 41 89 42 37 43 94 44 88 45
REMARK SMILES IDX 90 46 38 47 93 48 87 49 86 50 39 52 73 53 52 54 72 55 53 56
REMARK SMILES IDX 56 57 71 58 91 59 54 60 55 61 70 63 92 64 57 65 40 66 41 67
REMARK SMILES IDX 50 68 42 69 43 70 49 71 51 72 44 73 45 74 46 75 47 76 48 77
REMARK SMILES IDX 74 78 75 79 84 80 76 81 77 82 83 83 85 84 78 85 79 86 80 87
REMARK SMILES IDX 81 88 82 89 58 90 59 91 68 92 60 93 61 94 67 95 69 96 62 97
REMARK SMILES IDX 63 98 64 99 65 100 66 101
REMARK H PARENT 24 6 28 32 90 51 56 62
REMARK Flexibility Score: inf
ROOT
ATOM      1  C   UNL     1       0.254  -8.319   4.814  1.00  0.00     0.042 C 
ENDROOT
BRANCH   1   2
ATOM      2  C   UNL     1       1.537  -8.116   4.008  1.00  0.00     0.118 C 
BRANCH   2   3
ATOM      3  N   UNL     1       1.419  -8.661   2.668  1.00  0.00    -0.352 N 
ATOM      4  C   UNL     1       1.100  -8.103   1.474  1.00  0.00     0.251 C 
ATOM      5  O   UNL     1       1.210  -8.809   0.471  1.00  0.00    -0.270 OA
ATOM      6  H   UNL     1       1.608  -9.626   2.616  1.00  0.00     0.163 HD
BRANCH   4   7
ATOM      7  C   UNL     1       0.731  -6.667   1.310  1.00  0.00     0.067 C 
ATOM      8  C   UNL     1       0.382  -2.571   0.404  1.00  0.00    -0.002 A 
ATOM      9  C   UNL     1      -0.267  -1.742   1.338  1.00  0.00     0.054 A 
ATOM     10  C   UNL     1       0.521  -3.936   0.715  1.00  0.00     0.131 A 
ATOM     11  C   UNL     1      -0.713  -2.237   2.567  1.00  0.00     0.130 A 
ATOM     12  C   UNL     1       0.036  -4.450   1.923  1.00  0.00     0.021 A 
ATOM     13  O   UNL     1       1.190  -4.733  -0.183  1.00  0.00    -0.475 OA
ATOM     14  C   UNL     1      -0.571  -3.596   2.846  1.00  0.00     0.058 A 
ATOM     15  C   UNL     1       0.243  -5.854   2.255  1.00  0.00     0.025 C 
ATOM     16  C   UNL     1       0.894  -6.158  -0.112  1.00  0.00     0.314 C 
BRANCH   8  17
ATOM     17  C   UNL     1       0.926  -2.054  -0.915  1.00  0.00     0.039 C 
BRANCH  17  18
ATOM     18  C   UNL     1       0.668  -0.589  -1.295  1.00  0.00     0.001 C 
ATOM     19  C   UNL     1       1.563   0.403  -0.561  1.00  0.00     0.004 C 
ENDBRANCH  17  18
ENDBRANCH   8  17
BRANCH  11  20
ATOM     20  O   UNL     1      -1.291  -1.511   3.569  1.00  0.00    -0.406 OA
BRANCH  20  21
ATOM     21  C   UNL     1      -1.241  -0.098   3.471  1.00  0.00     0.573 C 
ATOM     22  F   UNL     1       0.024   0.339   3.281  1.00  0.00    -0.132 F 
ATOM     23  F   UNL     1      -2.022   0.344   2.463  1.00  0.00    -0.132 F 
ATOM     24  F   UNL     1      -1.696   0.438   4.625  1.00  0.00    -0.132 F 
ENDBRANCH  20  21
ENDBRANCH  11  20
BRANCH  16  25
ATOM     25  C   UNL     1      -0.307  -6.501  -1.020  1.00  0.00     0.429 C 
ATOM     26  F   UNL     1      -1.318  -5.606  -0.886  1.00  0.00    -0.167 F 
ATOM     27  F   UNL     1       0.061  -6.482  -2.327  1.00  0.00    -0.167 F 
ATOM     28  F   UNL     1      -0.841  -7.718  -0.779  1.00  0.00    -0.167 F 
ENDBRANCH  16  25
ENDBRANCH   4   7
ENDBRANCH   2   3
ENDBRANCH   1   2
BRANCH   1  29
ATOM     29  C   UNL     1       0.097  -9.738   5.353  1.00  0.00     0.118 C 
BRANCH  29  30
ATOM     30  N   UNL     1       1.069 -10.027   6.397  1.00  0.00    -0.352 N 
ATOM     31  C   UNL     1       0.877 -10.422   7.697  1.00  0.00     0.251 C 
ATOM     32  H   UNL     1       2.011  -9.922   6.129  1.00  0.00     0.163 HD
ATOM     33  O   UNL     1       1.823 -10.376   8.479  1.00  0.00    -0.269 OA
BRANCH  31  34
ATOM     34  C   UNL     1      -0.446 -10.895   8.161  1.00  0.00     0.039 A 
ATOM     35  C   UNL     1      -0.870 -10.547   9.447  1.00  0.00     0.014 A 
ATOM     36  C   UNL     1      -1.241 -11.726   7.366  1.00  0.00     0.014 A 
ATOM     37  C   UNL     1      -2.106 -10.997   9.919  1.00  0.00     0.010 A 
ATOM     38  C   UNL     1      -2.502 -12.118   7.812  1.00  0.00     0.010 A 
ATOM     39  C   UNL     1      -2.942 -11.768   9.097  1.00  0.00    -0.014 A 
BRANCH  39  40
ATOM     40  C   UNL     1      -4.273 -12.229   9.568  1.00  0.00     0.031 A 
ATOM     41  C   UNL     1      -4.546 -13.699   9.741  1.00  0.00     0.074 A 
ATOM     42  C   UNL     1      -5.252 -11.327   9.777  1.00  0.00     0.049 A 
ATOM     43  N   UNL     1      -5.662 -14.299  10.066  1.00  0.00    -0.248 NA
ATOM     44  C   UNL     1      -3.424 -14.617   9.490  1.00  0.00     0.031 C 
ATOM     45  C   UNL     1      -5.120  -9.879   9.597  1.00  0.00     0.029 A 
ATOM     46  N   UNL     1      -6.555 -11.494  10.173  1.00  0.00    -0.354 N 
ATOM     47  C   UNL     1      -5.384 -15.660  10.038  1.00  0.00     0.074 A 
ATOM     48  C   UNL     1      -4.005 -15.800   9.622  1.00  0.00     0.031 C 
ATOM     49  C   UNL     1      -6.289  -9.291   9.895  1.00  0.00     0.029 A 
ATOM     50  C   UNL     1      -7.262 -10.318  10.253  1.00  0.00     0.049 A 
ATOM     51  H   UNL     1      -6.946 -12.374  10.380  1.00  0.00     0.167 HD
ATOM     52  C   UNL     1      -6.198 -16.698  10.349  1.00  0.00     0.037 A 
ATOM     53  C   UNL     1      -8.552 -10.094  10.571  1.00  0.00     0.037 A 
ATOM     54  C   UNL     1      -7.559 -16.547  10.794  1.00  0.00     0.049 A 
ATOM     55  C   UNL     1      -9.431 -11.259  10.933  1.00  0.00     0.074 A 
ATOM     56  C   UNL     1      -8.448 -17.529  11.195  1.00  0.00     0.029 A 
ATOM     57  N   UNL     1      -8.229 -15.336  10.897  1.00  0.00    -0.354 N 
ATOM     58  N   UNL     1      -9.133 -12.537  10.960  1.00  0.00    -0.248 NA
ATOM     59  C   UNL     1     -10.815 -10.955  11.318  1.00  0.00     0.031 C 
ATOM     60  C   UNL     1      -9.666 -16.917  11.505  1.00  0.00     0.029 A 
ATOM     61  C   UNL     1      -9.524 -15.548  11.341  1.00  0.00     0.049 A 
ATOM     62  H   UNL     1      -7.842 -14.457  10.686  1.00  0.00     0.167 HD
ATOM     63  C   UNL     1     -10.286 -13.186  11.387  1.00  0.00     0.074 A 
ATOM     64  C   UNL     1     -11.281 -12.159  11.618  1.00  0.00     0.031 C 
ATOM     65  C   UNL     1     -10.500 -14.512  11.573  1.00  0.00     0.037 A 
BRANCH  52  66
ATOM     66  C   UNL     1      -5.637 -18.088  10.224  1.00  0.00     0.058 A 
ATOM     67  C   UNL     1      -4.667 -18.575  11.114  1.00  0.00     0.135 A 
ATOM     68  C   UNL     1      -6.099 -18.958   9.223  1.00  0.00     0.135 A 
ATOM     69  F   UNL     1      -4.178 -17.782  12.082  1.00  0.00    -0.206 F 
ATOM     70  C   UNL     1      -4.152 -19.862  10.999  1.00  0.00     0.059 A 
ATOM     71  C   UNL     1      -5.619 -20.259   9.105  1.00  0.00     0.059 A 
ATOM     72  F   UNL     1      -7.027 -18.545   8.344  1.00  0.00    -0.206 F 
ATOM     73  C   UNL     1      -4.634 -20.697   9.989  1.00  0.00     0.060 A 
BRANCH  73  74
ATOM     74  S   UNL     1      -3.959 -22.366   9.854  1.00  0.00     0.124 S 
ATOM     75  O   UNL     1      -2.639 -22.100   9.289  1.00  0.00    -0.237 OA
ATOM     76  O   UNL     1      -3.973 -22.823  11.240  1.00  0.00    -0.237 OA
ATOM     77  O   UNL     1      -4.898 -23.042   8.964  1.00  0.00    -0.744 OA
ENDBRANCH  73  74
ENDBRANCH  52  66
BRANCH  53  78
ATOM     78  C   UNL     1      -9.079  -8.704  10.584  1.00  0.00     0.058 A 
ATOM     79  C   UNL     1      -9.379  -8.057  11.792  1.00  0.00     0.135 A 
ATOM     80  C   UNL     1      -9.268  -7.985   9.393  1.00  0.00     0.135 A 
ATOM     81  F   UNL     1      -9.218  -8.705  12.956  1.00  0.00    -0.206 F 
ATOM     82  C   UNL     1      -9.860  -6.753  11.820  1.00  0.00     0.059 A 
ATOM     83  C   UNL     1      -9.725  -6.671   9.397  1.00  0.00     0.059 A 
ATOM     84  F   UNL     1      -8.977  -8.552   8.212  1.00  0.00    -0.206 F 
ATOM     85  C   UNL     1     -10.027  -6.066  10.616  1.00  0.00     0.060 A 
BRANCH  85  86
ATOM     86  S   UNL     1     -10.596  -4.353  10.668  1.00  0.00     0.124 S 
ATOM     87  O   UNL     1     -12.009  -4.523  10.984  1.00  0.00    -0.237 OA
ATOM     88  O   UNL     1      -9.767  -3.785  11.727  1.00  0.00    -0.237 OA
ATOM     89  O   UNL     1     -10.303  -3.863   9.324  1.00  0.00    -0.744 OA
ENDBRANCH  85  86
ENDBRANCH  53  78
BRANCH  65  90
ATOM     90  C   UNL     1     -11.851 -14.929  12.083  1.00  0.00     0.058 A 
ATOM     91  C   UNL     1     -12.988 -14.907  11.261  1.00  0.00     0.135 A 
ATOM     92  C   UNL     1     -11.998 -15.403  13.396  1.00  0.00     0.135 A 
ATOM     93  F   UNL     1     -12.901 -14.456   9.999  1.00  0.00    -0.206 F 
ATOM     94  C   UNL     1     -14.230 -15.323  11.729  1.00  0.00     0.059 A 
ATOM     95  C   UNL     1     -13.225 -15.848  13.878  1.00  0.00     0.059 A 
ATOM     96  F   UNL     1     -10.939 -15.453  14.220  1.00  0.00    -0.206 F 
ATOM     97  C   UNL     1     -14.338 -15.792  13.040  1.00  0.00     0.060 A 
BRANCH  97  98
ATOM     98  S   UNL     1     -15.948 -16.360  13.627  1.00  0.00     0.124 S 
ATOM     99  O   UNL     1     -16.646 -15.097  13.839  1.00  0.00    -0.237 OA
ATOM    100  O   UNL     1     -16.423 -17.168  12.508  1.00  0.00    -0.237 OA
ATOM    101  O   UNL     1     -15.623 -17.109  14.838  1.00  0.00    -0.744 OA
ENDBRANCH  97  98
ENDBRANCH  65  90
ENDBRANCH  39  40
ENDBRANCH  31  34
ENDBRANCH  29  30
ENDBRANCH   1  29
TORSDOF 18
