REMARK SMILES CCCc1cc2c(cc1Cl)C=C(C(=O)NCCCNC(=O)c1ccc(-c3c4nc(c(-c5c(F)cc(S(=O)(=O)[O-])cc5F)c5ccc([nH]5)c(-c5c(F)cc(S(=O)(=O)[O-])cc5F)c5nc(c(-c6c(F)cc(S(=O)(=O)[O-])cc6F)c6ccc3[nH]6)C=C5)C=C4)cc1)[C@@H](C(F)(F)F)O2
REMARK SMILES IDX 17 1 16 2 15 3 13 4 14 5 12 7 4 8 5 9 9 10 6 11 8 12 10 13
REMARK SMILES IDX 7 14 93 15 11 16 88 17 3 18 2 19 1 20 89 21 90 22 91 23
REMARK SMILES IDX 92 24 18 25 19 26 20 27 21 29 22 30 23 31 87 32 24 33 86 34
REMARK SMILES IDX 25 35 26 36 27 37 80 38 28 39 85 40 79 41 81 42 29 43 84 44
REMARK SMILES IDX 78 45 77 46 30 48 64 49 43 50 63 51 44 52 47 53 62 54 82 55
REMARK SMILES IDX 45 56 46 57 61 59 83 60 48 61 31 62 32 63 41 64 33 65 34 66
REMARK SMILES IDX 40 67 42 68 35 69 36 70 37 71 38 72 39 73 65 74 66 75 75 76
REMARK SMILES IDX 67 77 68 78 74 79 76 80 69 81 70 82 71 83 72 84 73 85 49 86
REMARK SMILES IDX 50 87 59 88 51 89 52 90 58 91 60 92 53 93 54 94 55 95 56 96
REMARK SMILES IDX 57 97
REMARK H PARENT 15 6 19 28 81 47 47 58
REMARK Flexibility Score: inf
ROOT
ATOM      1  C   UNL     1      -1.971   1.182  10.506  1.00  0.00     0.042 C 
ENDROOT
BRANCH   1   2
ATOM      2  C   UNL     1      -2.750   1.637   9.283  1.00  0.00     0.118 C 
BRANCH   2   3
ATOM      3  N   UNL     1      -2.130   2.779   8.628  1.00  0.00    -0.352 N 
ATOM      4  C   UNL     1      -1.446   3.014   7.486  1.00  0.00     0.251 C 
ATOM      5  O   UNL     1      -1.097   4.187   7.314  1.00  0.00    -0.270 OA
ATOM      6  H   UNL     1      -2.236   3.601   9.160  1.00  0.00     0.163 HD
BRANCH   4   7
ATOM      7  C   UNL     1      -1.106   1.986   6.459  1.00  0.00     0.067 C 
ATOM      8  C   UNL     1       1.010  -0.389   2.516  1.00  0.00    -0.026 A 
ATOM      9  C   UNL     1       0.095  -0.755   3.520  1.00  0.00     0.052 A 
ATOM     10  C   UNL     1       1.530   0.915   2.540  1.00  0.00     0.045 A 
ATOM     11  C   UNL     1      -0.288   0.151   4.509  1.00  0.00     0.128 A 
ATOM     12  C   UNL     1       1.122   1.829   3.519  1.00  0.00     0.032 A 
ATOM     13  Cl  UNL     1       2.715   1.457   1.405  1.00  0.00    -0.084 Cl
ATOM     14  C   UNL     1       0.212   1.448   4.508  1.00  0.00     0.019 A 
ATOM     15  O   UNL     1      -1.123  -0.328   5.472  1.00  0.00    -0.475 OA
ATOM     16  C   UNL     1      -0.183   2.371   5.559  1.00  0.00     0.025 C 
ATOM     17  C   UNL     1      -1.744   0.626   6.378  1.00  0.00     0.314 C 
BRANCH   8  18
ATOM     18  C   UNL     1       1.383  -1.425   1.480  1.00  0.00     0.037 C 
BRANCH  18  19
ATOM     19  C   UNL     1       0.435  -1.476   0.277  1.00  0.00     0.001 C 
ATOM     20  C   UNL     1       0.594  -0.306  -0.683  1.00  0.00     0.004 C 
ENDBRANCH  18  19
ENDBRANCH   8  18
BRANCH  17  21
ATOM     21  C   UNL     1      -3.245   0.678   6.036  1.00  0.00     0.429 C 
ATOM     22  F   UNL     1      -3.850  -0.485   6.388  1.00  0.00    -0.167 F 
ATOM     23  F   UNL     1      -3.907   1.663   6.686  1.00  0.00    -0.167 F 
ATOM     24  F   UNL     1      -3.466   0.865   4.715  1.00  0.00    -0.167 F 
ENDBRANCH  17  21
ENDBRANCH   4   7
ENDBRANCH   2   3
ENDBRANCH   1   2
BRANCH   1  25
ATOM     25  C   UNL     1      -2.127   2.130  11.688  1.00  0.00     0.118 C 
BRANCH  25  26
ATOM     26  N   UNL     1      -3.499   2.173  12.190  1.00  0.00    -0.352 N 
ATOM     27  C   UNL     1      -4.048   1.669  13.347  1.00  0.00     0.251 C 
ATOM     28  H   UNL     1      -4.136   2.639  11.602  1.00  0.00     0.163 HD
ATOM     29  O   UNL     1      -5.266   1.613  13.465  1.00  0.00    -0.269 OA
BRANCH  27  30
ATOM     30  C   UNL     1      -3.170   1.185  14.433  1.00  0.00     0.039 A 
ATOM     31  C   UNL     1      -2.005   1.877  14.755  1.00  0.00     0.014 A 
ATOM     32  C   UNL     1      -3.514   0.030  15.142  1.00  0.00     0.014 A 
ATOM     33  C   UNL     1      -1.085   1.308  15.622  1.00  0.00     0.010 A 
ATOM     34  C   UNL     1      -2.639  -0.477  16.110  1.00  0.00     0.010 A 
ATOM     35  C   UNL     1      -1.391   0.129  16.319  1.00  0.00    -0.014 A 
BRANCH  35  36
ATOM     36  C   UNL     1      -0.381  -0.426  17.259  1.00  0.00     0.031 A 
ATOM     37  C   UNL     1       0.230  -1.782  17.028  1.00  0.00     0.074 A 
ATOM     38  C   UNL     1       0.051   0.349  18.275  1.00  0.00     0.049 A 
ATOM     39  N   UNL     1       1.170  -2.385  17.710  1.00  0.00    -0.248 NA
ATOM     40  C   UNL     1      -0.277  -2.567  15.892  1.00  0.00     0.031 C 
ATOM     41  C   UNL     1      -0.466   1.684  18.591  1.00  0.00     0.029 A 
ATOM     42  N   UNL     1       1.048   0.157  19.196  1.00  0.00    -0.354 N 
ATOM     43  C   UNL     1       1.351  -3.623  17.103  1.00  0.00     0.074 A 
ATOM     44  C   UNL     1       0.404  -3.699  16.013  1.00  0.00     0.031 C 
ATOM     45  C   UNL     1       0.274   2.224  19.570  1.00  0.00     0.029 A 
ATOM     46  C   UNL     1       1.264   1.247  20.007  1.00  0.00     0.049 A 
ATOM     47  H   UNL     1       1.561  -0.680  19.269  1.00  0.00     0.167 HD
ATOM     48  C   UNL     1       2.236  -4.599  17.419  1.00  0.00     0.037 A 
ATOM     49  C   UNL     1       2.154   1.441  20.998  1.00  0.00     0.037 A 
ATOM     50  C   UNL     1       3.196  -4.501  18.488  1.00  0.00     0.049 A 
ATOM     51  C   UNL     1       3.104   0.333  21.346  1.00  0.00     0.074 A 
ATOM     52  C   UNL     1       4.144  -5.430  18.880  1.00  0.00     0.029 A 
ATOM     53  N   UNL     1       3.334  -3.409  19.333  1.00  0.00    -0.354 N 
ATOM     54  N   UNL     1       3.252  -0.833  20.765  1.00  0.00    -0.248 NA
ATOM     55  C   UNL     1       3.994   0.556  22.492  1.00  0.00     0.031 C 
ATOM     56  C   UNL     1       4.830  -4.915  19.985  1.00  0.00     0.029 A 
ATOM     57  C   UNL     1       4.339  -3.647  20.255  1.00  0.00     0.049 A 
ATOM     58  H   UNL     1       2.797  -2.585  19.283  1.00  0.00     0.167 HD
ATOM     59  C   UNL     1       4.252  -1.485  21.474  1.00  0.00     0.074 A 
ATOM     60  C   UNL     1       4.690  -0.574  22.512  1.00  0.00     0.031 C 
ATOM     61  C   UNL     1       4.757  -2.729  21.285  1.00  0.00     0.037 A 
BRANCH  48  62
ATOM     62  C   UNL     1       2.204  -5.865  16.607  1.00  0.00     0.058 A 
ATOM     63  C   UNL     1       2.685  -5.908  15.289  1.00  0.00     0.135 A 
ATOM     64  C   UNL     1       1.731  -7.061  17.169  1.00  0.00     0.135 A 
ATOM     65  F   UNL     1       3.134  -4.790  14.695  1.00  0.00    -0.206 F 
ATOM     66  C   UNL     1       2.677  -7.087  14.550  1.00  0.00     0.059 A 
ATOM     67  C   UNL     1       1.736  -8.258  16.457  1.00  0.00     0.059 A 
ATOM     68  F   UNL     1       1.259  -7.077  18.426  1.00  0.00    -0.206 F 
ATOM     69  C   UNL     1       2.200  -8.258  15.143  1.00  0.00     0.060 A 
BRANCH  69  70
ATOM     70  S   UNL     1       2.200  -9.778  14.169  1.00  0.00     0.124 S 
ATOM     71  O   UNL     1       1.129  -9.511  13.214  1.00  0.00    -0.237 OA
ATOM     72  O   UNL     1       3.550  -9.795  13.617  1.00  0.00    -0.237 OA
ATOM     73  O   UNL     1       1.915 -10.816  15.155  1.00  0.00    -0.744 OA
ENDBRANCH  69  70
ENDBRANCH  48  62
BRANCH  49  74
ATOM     74  C   UNL     1       2.175   2.739  21.721  1.00  0.00     0.058 A 
ATOM     75  C   UNL     1       3.231   3.644  21.550  1.00  0.00     0.135 A 
ATOM     76  C   UNL     1       1.108   3.126  22.549  1.00  0.00     0.135 A 
ATOM     77  F   UNL     1       4.276   3.317  20.774  1.00  0.00    -0.206 F 
ATOM     78  C   UNL     1       3.229   4.890  22.169  1.00  0.00     0.059 A 
ATOM     79  C   UNL     1       1.070   4.376  23.157  1.00  0.00     0.059 A 
ATOM     80  F   UNL     1       0.066   2.301  22.733  1.00  0.00    -0.206 F 
ATOM     81  C   UNL     1       2.138   5.251  22.963  1.00  0.00     0.060 A 
BRANCH  81  82
ATOM     82  S   UNL     1       2.106   6.902  23.694  1.00  0.00     0.124 S 
ATOM     83  O   UNL     1       3.112   6.778  24.742  1.00  0.00    -0.237 OA
ATOM     84  O   UNL     1       2.466   7.745  22.558  1.00  0.00    -0.237 OA
ATOM     85  O   UNL     1       0.727   7.038  24.154  1.00  0.00    -0.744 OA
ENDBRANCH  81  82
ENDBRANCH  49  74
BRANCH  61  86
ATOM     86  C   UNL     1       5.841  -3.182  22.219  1.00  0.00     0.058 A 
ATOM     87  C   UNL     1       5.553  -3.577  23.533  1.00  0.00     0.135 A 
ATOM     88  C   UNL     1       7.167  -3.295  21.771  1.00  0.00     0.135 A 
ATOM     89  F   UNL     1       4.303  -3.478  24.011  1.00  0.00    -0.206 F 
ATOM     90  C   UNL     1       6.545  -4.066  24.376  1.00  0.00     0.059 A 
ATOM     91  C   UNL     1       8.171  -3.802  22.589  1.00  0.00     0.059 A 
ATOM     92  F   UNL     1       7.490  -2.935  20.518  1.00  0.00    -0.206 F 
ATOM     93  C   UNL     1       7.850  -4.181  23.892  1.00  0.00     0.060 A 
BRANCH  93  94
ATOM     94  S   UNL     1       9.114  -4.872  24.980  1.00  0.00     0.124 S 
ATOM     95  O   UNL     1       9.312  -3.783  25.930  1.00  0.00    -0.237 OA
ATOM     96  O   UNL     1       8.454  -6.062  25.507  1.00  0.00    -0.237 OA
ATOM     97  O   UNL     1      10.234  -5.131  24.079  1.00  0.00    -0.744 OA
ENDBRANCH  93  94
ENDBRANCH  61  86
ENDBRANCH  35  36
ENDBRANCH  27  30
ENDBRANCH  25  26
ENDBRANCH   1  25
TORSDOF 16
