REMARK SMILES Cc1cc(C(=O)N[C@H]2C=C[C@@H](C(=O)NCCCNC(=O)c3ccc(-c4c5nc(c(-c6c(F)cc(S(=O)(=O)[O-])cc6F)c6ccc([nH]6)c(-c6c(F)cc(S(=O)(=O)[O-])cc6F)c6nc(c(-c7c(F)cc(S(=O)(=O)[O-])cc7F)c7ccc4[nH]7)C=C6)C=C5)cc3)C2)no1
REMARK SMILES IDX 16 1 15 2 14 3 12 4 13 5 11 7 8 8 9 9 87 10 10 11 7 12 5 13
REMARK SMILES IDX 6 14 4 16 1 17 2 18 3 19 89 20 88 21 17 22 18 23 19 24 20 26
REMARK SMILES IDX 21 27 22 28 86 29 23 30 85 31 24 32 25 33 26 34 79 35 27 36
REMARK SMILES IDX 84 37 78 38 80 39 28 40 83 41 77 42 76 43 29 45 63 46 42 47
REMARK SMILES IDX 62 48 43 49 46 50 61 51 81 52 44 53 45 54 60 56 82 57 47 58
REMARK SMILES IDX 30 59 31 60 40 61 32 62 33 63 39 64 41 65 34 66 35 67 36 68
REMARK SMILES IDX 37 69 38 70 64 71 65 72 74 73 66 74 67 75 73 76 75 77 68 78
REMARK SMILES IDX 69 79 70 80 71 81 72 82 48 83 49 84 58 85 50 86 51 87 57 88
REMARK SMILES IDX 59 89 52 90 53 91 54 92 55 93 56 94
REMARK H PARENT 14 6 7 15 18 25 80 44 46 55
REMARK Flexibility Score: inf
ROOT
ATOM      1  C   UNL     1      -3.559  -4.900   3.179  1.00  0.00     0.042 C 
ENDROOT
BRANCH   1   2
ATOM      2  C   UNL     1      -2.087  -4.798   3.561  1.00  0.00     0.117 C 
BRANCH   2   3
ATOM      3  N   UNL     1      -1.375  -6.055   3.388  1.00  0.00    -0.356 N 
ATOM      4  C   UNL     1      -0.375  -6.420   2.541  1.00  0.00     0.227 C 
ATOM      5  O   UNL     1       0.086  -7.559   2.671  1.00  0.00    -0.274 OA
ATOM      6  H   UNL     1      -1.670  -6.771   3.995  1.00  0.00     0.163 HD
BRANCH   4   7
ATOM      7  C   UNL     1       0.187  -5.495   1.459  1.00  0.00     0.103 C 
ATOM      8  C   UNL     1      -0.596  -3.576   0.128  1.00  0.00     0.106 C 
ATOM      9  C   UNL     1       0.255  -3.159   1.285  1.00  0.00    -0.006 C 
ATOM     10  C   UNL     1      -0.821  -5.079   0.384  1.00  0.00     0.047 C 
ATOM     11  C   UNL     1       0.705  -4.199   1.993  1.00  0.00    -0.016 C 
BRANCH   8  12
ATOM     12  N   UNL     1      -1.845  -2.847   0.090  1.00  0.00    -0.344 N 
ATOM     13  C   UNL     1      -2.102  -1.506  -0.091  1.00  0.00     0.273 C 
ATOM     14  O   UNL     1      -3.281  -1.154  -0.134  1.00  0.00    -0.267 OA
ATOM     15  H   UNL     1      -2.648  -3.403   0.214  1.00  0.00     0.164 HD
BRANCH  13  16
ATOM     16  C   UNL     1      -0.993  -0.557  -0.169  1.00  0.00     0.171 A 
ATOM     17  C   UNL     1       2.278   0.983  -0.827  1.00  0.00     0.091 C 
ATOM     18  C   UNL     1       0.931   0.473  -0.524  1.00  0.00     0.134 A 
ATOM     19  C   UNL     1       0.201  -0.613  -0.938  1.00  0.00     0.082 A 
ATOM     20  O   UNL     1       0.202   1.185   0.371  1.00  0.00    -0.361 OA
ATOM     21  N   UNL     1      -1.004   0.555   0.587  1.00  0.00    -0.074 NA
ENDBRANCH  13  16
ENDBRANCH   8  12
ENDBRANCH   4   7
ENDBRANCH   2   3
ENDBRANCH   1   2
BRANCH   1  22
ATOM     22  C   UNL     1      -4.384  -5.805   4.088  1.00  0.00     0.118 C 
BRANCH  22  23
ATOM     23  N   UNL     1      -4.535  -5.269   5.431  1.00  0.00    -0.352 N 
ATOM     24  C   UNL     1      -5.671  -5.147   6.195  1.00  0.00     0.251 C 
ATOM     25  H   UNL     1      -3.705  -4.947   5.853  1.00  0.00     0.163 HD
ATOM     26  O   UNL     1      -5.625  -4.532   7.256  1.00  0.00    -0.269 OA
BRANCH  24  27
ATOM     27  C   UNL     1      -6.948  -5.733   5.733  1.00  0.00     0.039 A 
ATOM     28  C   UNL     1      -8.112  -4.962   5.817  1.00  0.00     0.014 A 
ATOM     29  C   UNL     1      -7.008  -7.042   5.244  1.00  0.00     0.014 A 
ATOM     30  C   UNL     1      -9.326  -5.481   5.359  1.00  0.00     0.010 A 
ATOM     31  C   UNL     1      -8.210  -7.543   4.747  1.00  0.00     0.010 A 
ATOM     32  C   UNL     1      -9.378  -6.767   4.800  1.00  0.00    -0.014 A 
BRANCH  32  33
ATOM     33  C   UNL     1     -10.648  -7.332   4.280  1.00  0.00     0.031 A 
ATOM     34  C   UNL     1     -11.300  -8.484   4.990  1.00  0.00     0.074 A 
ATOM     35  C   UNL     1     -11.173  -6.860   3.134  1.00  0.00     0.049 A 
ATOM     36  N   UNL     1     -12.323  -9.210   4.618  1.00  0.00    -0.248 NA
ATOM     37  C   UNL     1     -10.706  -8.889   6.273  1.00  0.00     0.031 C 
ATOM     38  C   UNL     1     -10.619  -5.767   2.333  1.00  0.00     0.029 A 
ATOM     39  N   UNL     1     -12.286  -7.255   2.436  1.00  0.00    -0.354 N 
ATOM     40  C   UNL     1     -12.467 -10.187   5.595  1.00  0.00     0.074 A 
ATOM     41  C   UNL     1     -11.428  -9.959   6.578  1.00  0.00     0.031 C 
ATOM     42  C   UNL     1     -11.402  -5.571   1.258  1.00  0.00     0.029 A 
ATOM     43  C   UNL     1     -12.494  -6.540   1.282  1.00  0.00     0.049 A 
ATOM     44  H   UNL     1     -12.879  -7.982   2.734  1.00  0.00     0.167 HD
ATOM     45  C   UNL     1     -13.379 -11.185   5.665  1.00  0.00     0.037 A 
ATOM     46  C   UNL     1     -13.454  -6.658   0.345  1.00  0.00     0.037 A 
ATOM     47  C   UNL     1     -14.444 -11.383   4.719  1.00  0.00     0.049 A 
ATOM     48  C   UNL     1     -14.510  -7.714   0.492  1.00  0.00     0.074 A 
ATOM     49  C   UNL     1     -15.435 -12.349   4.723  1.00  0.00     0.029 A 
ATOM     50  N   UNL     1     -14.668 -10.584   3.609  1.00  0.00    -0.354 N 
ATOM     51  N   UNL     1     -14.629  -8.632   1.421  1.00  0.00    -0.248 NA
ATOM     52  C   UNL     1     -15.562  -7.751  -0.533  1.00  0.00     0.031 C 
ATOM     53  C   UNL     1     -16.261 -12.132   3.613  1.00  0.00     0.029 A 
ATOM     54  C   UNL     1     -15.787 -11.027   2.926  1.00  0.00     0.049 A 
ATOM     55  H   UNL     1     -14.112  -9.816   3.345  1.00  0.00     0.167 HD
ATOM     56  C   UNL     1     -15.772  -9.352   1.096  1.00  0.00     0.074 A 
ATOM     57  C   UNL     1     -16.315  -8.758  -0.109  1.00  0.00     0.031 C 
ATOM     58  C   UNL     1     -16.319 -10.412   1.737  1.00  0.00     0.037 A 
BRANCH  45  59
ATOM     59  C   UNL     1     -13.242 -12.146   6.806  1.00  0.00     0.058 A 
ATOM     60  C   UNL     1     -13.697 -11.825   8.094  1.00  0.00     0.135 A 
ATOM     61  C   UNL     1     -12.632 -13.395   6.613  1.00  0.00     0.135 A 
ATOM     62  F   UNL     1     -14.269 -10.634   8.329  1.00  0.00    -0.206 F 
ATOM     63  C   UNL     1     -13.524 -12.698   9.162  1.00  0.00     0.059 A 
ATOM     64  C   UNL     1     -12.460 -14.289   7.664  1.00  0.00     0.059 A 
ATOM     65  F   UNL     1     -12.175 -13.744   5.400  1.00  0.00    -0.206 F 
ATOM     66  C   UNL     1     -12.891 -13.923   8.940  1.00  0.00     0.060 A 
BRANCH  66  67
ATOM     67  S   UNL     1     -12.632 -15.049  10.327  1.00  0.00     0.124 S 
ATOM     68  O   UNL     1     -11.352 -14.576  10.845  1.00  0.00    -0.237 OA
ATOM     69  O   UNL     1     -13.791 -14.791  11.176  1.00  0.00    -0.237 OA
ATOM     70  O   UNL     1     -12.609 -16.361   9.689  1.00  0.00    -0.744 OA
ENDBRANCH  66  67
ENDBRANCH  45  59
BRANCH  46  71
ATOM     71  C   UNL     1     -13.467  -5.729  -0.810  1.00  0.00     0.058 A 
ATOM     72  C   UNL     1     -14.318  -4.614  -0.818  1.00  0.00     0.135 A 
ATOM     73  C   UNL     1     -12.615  -5.918  -1.906  1.00  0.00     0.135 A 
ATOM     74  F   UNL     1     -15.151  -4.400   0.211  1.00  0.00    -0.206 F 
ATOM     75  C   UNL     1     -14.326  -3.716  -1.879  1.00  0.00     0.059 A 
ATOM     76  C   UNL     1     -12.598  -5.028  -2.974  1.00  0.00     0.059 A 
ATOM     77  F   UNL     1     -11.775  -6.965  -1.931  1.00  0.00    -0.206 F 
ATOM     78  C   UNL     1     -13.463  -3.933  -2.954  1.00  0.00     0.060 A 
BRANCH  78  79
ATOM     79  S   UNL     1     -13.423  -2.735  -4.306  1.00  0.00     0.124 S 
ATOM     80  O   UNL     1     -14.501  -3.221  -5.159  1.00  0.00    -0.237 OA
ATOM     81  O   UNL     1     -13.673  -1.472  -3.619  1.00  0.00    -0.237 OA
ATOM     82  O   UNL     1     -12.072  -2.890  -4.839  1.00  0.00    -0.744 OA
ENDBRANCH  78  79
ENDBRANCH  46  71
BRANCH  58  83
ATOM     83  C   UNL     1     -17.578 -10.983   1.160  1.00  0.00     0.058 A 
ATOM     84  C   UNL     1     -17.539 -11.914   0.112  1.00  0.00     0.135 A 
ATOM     85  C   UNL     1     -18.829 -10.629   1.687  1.00  0.00     0.135 A 
ATOM     86  F   UNL     1     -16.364 -12.277  -0.426  1.00  0.00    -0.206 F 
ATOM     87  C   UNL     1     -18.704 -12.473  -0.402  1.00  0.00     0.059 A 
ATOM     88  C   UNL     1     -20.006 -11.181   1.193  1.00  0.00     0.059 A 
ATOM     89  F   UNL     1     -18.913  -9.742   2.691  1.00  0.00    -0.206 F 
ATOM     90  C   UNL     1     -19.934 -12.097   0.142  1.00  0.00     0.060 A 
BRANCH  90  91
ATOM     91  S   UNL     1     -21.446 -12.849  -0.497  1.00  0.00     0.124 S 
ATOM     92  O   UNL     1     -21.748 -11.981  -1.629  1.00  0.00    -0.237 OA
ATOM     93  O   UNL     1     -21.017 -14.203  -0.833  1.00  0.00    -0.237 OA
ATOM     94  O   UNL     1     -22.366 -12.756   0.633  1.00  0.00    -0.744 OA
ENDBRANCH  90  91
ENDBRANCH  58  83
ENDBRANCH  32  33
ENDBRANCH  24  27
ENDBRANCH  22  23
ENDBRANCH   1  22
TORSDOF 15
