REMARK SMILES N#Cc1ccc(C(=O)NCCCNC(=O)c2ccc(-c3c4nc(c(-c5c(F)cc(S(=O)(=O)[O-])cc5F)c5ccc([nH]5)c(-c5c(F)cc(S(=O)(=O)[O-])cc5F)c5nc(c(-c6c(F)cc(S(=O)(=O)[O-])cc6F)c6ccc3[nH]6)C=C5)C=C4)cc2)nc1/C=C/c1ccc(O)c(Cl)c1
REMARK SMILES IDX 11 1 10 2 9 3 7 4 8 5 6 7 3 8 4 9 83 10 5 11 82 12 2 13 1 14
REMARK SMILES IDX 84 15 85 16 86 17 87 18 93 19 88 20 91 21 89 22 92 23 90 24
REMARK SMILES IDX 12 26 13 27 14 28 15 30 16 31 17 32 81 33 18 34 80 35 19 36
REMARK SMILES IDX 20 37 21 38 74 39 22 40 79 41 73 42 75 43 23 44 78 45 72 46
REMARK SMILES IDX 71 47 24 49 58 50 37 51 57 52 38 53 41 54 56 55 76 56 39 57
REMARK SMILES IDX 40 58 55 60 77 61 42 62 25 63 26 64 35 65 27 66 28 67 34 68
REMARK SMILES IDX 36 69 29 70 30 71 31 72 32 73 33 74 59 75 60 76 69 77 61 78
REMARK SMILES IDX 62 79 68 80 70 81 63 82 64 83 65 84 66 85 67 86 43 87 44 88
REMARK SMILES IDX 53 89 45 90 46 91 52 92 54 93 47 94 48 95 49 96 50 97 51 98
REMARK H PARENT 9 6 90 25 13 29 75 48 41 59
REMARK Flexibility Score: inf
ROOT
ATOM      1  C   UNL     1      -4.125   3.447  -1.139  1.00  0.00     0.042 C 
ENDROOT
BRANCH   1   2
ATOM      2  C   UNL     1      -3.946   2.721   0.191  1.00  0.00     0.118 C 
BRANCH   2   3
ATOM      3  N   UNL     1      -4.160   1.293   0.058  1.00  0.00    -0.351 N 
ATOM      4  C   UNL     1      -3.357   0.179   0.000  1.00  0.00     0.269 C 
ATOM      5  O   UNL     1      -3.967  -0.894  -0.062  1.00  0.00    -0.268 OA
ATOM      6  H   UNL     1      -5.116   1.065  -0.007  1.00  0.00     0.163 HD
BRANCH   4   7
ATOM      7  C   UNL     1      -1.846   0.167   0.012  1.00  0.00     0.128 A 
ATOM      8  C   UNL     1       0.908  -0.161   0.004  1.00  0.00     0.078 A 
ATOM      9  C   UNL     1       0.359   1.117   0.048  1.00  0.00     0.024 A 
ATOM     10  C   UNL     1       0.036  -1.248  -0.017  1.00  0.00     0.082 A 
ATOM     11  C   UNL     1      -1.026   1.283   0.037  1.00  0.00     0.035 A 
ATOM     12  N   UNL     1      -1.312  -1.089  -0.009  1.00  0.00    -0.242 NA
BRANCH   8  13
ATOM     13  C   UNL     1       2.329  -0.304   0.000  1.00  0.00     0.101 C 
ATOM     14  N   UNL     1       3.486  -0.421   0.007  1.00  0.00    -0.192 NA
ENDBRANCH   8  13
BRANCH  10  15
ATOM     15  C   UNL     1       0.528  -2.638   0.022  1.00  0.00     0.030 C 
ATOM     16  C   UNL     1      -0.234  -3.740   0.125  1.00  0.00     0.010 C 
BRANCH  16  17
ATOM     17  C   UNL     1       0.385  -5.061   0.296  1.00  0.00    -0.024 A 
ATOM     18  C   UNL     1      -0.058  -6.155  -0.456  1.00  0.00     0.012 A 
ATOM     19  C   UNL     1       1.410  -5.248   1.239  1.00  0.00     0.032 A 
ATOM     20  C   UNL     1       0.542  -7.410  -0.300  1.00  0.00     0.048 A 
ATOM     21  C   UNL     1       2.008  -6.496   1.390  1.00  0.00     0.083 A 
ATOM     22  C   UNL     1       1.577  -7.572   0.616  1.00  0.00     0.134 A 
ATOM     23  Cl  UNL     1       3.283  -6.693   2.535  1.00  0.00    -0.080 Cl
BRANCH  22  24
ATOM     24  O   UNL     1       2.144  -8.812   0.724  1.00  0.00    -0.506 OA
ATOM     25  H   UNL     1       1.834  -9.518   0.191  1.00  0.00     0.293 HD
ENDBRANCH  22  24
ENDBRANCH  16  17
ENDBRANCH  10  15
ENDBRANCH   4   7
ENDBRANCH   2   3
ENDBRANCH   1   2
BRANCH   1  26
ATOM     26  C   UNL     1      -5.595   3.726  -1.453  1.00  0.00     0.118 C 
BRANCH  26  27
ATOM     27  N   UNL     1      -6.212   4.583  -0.442  1.00  0.00    -0.352 N 
ATOM     28  C   UNL     1      -6.605   5.896  -0.502  1.00  0.00     0.251 C 
ATOM     29  H   UNL     1      -6.372   4.146   0.426  1.00  0.00     0.163 HD
ATOM     30  O   UNL     1      -6.816   6.512   0.539  1.00  0.00    -0.269 OA
BRANCH  28  31
ATOM     31  C   UNL     1      -6.770   6.560  -1.809  1.00  0.00     0.039 A 
ATOM     32  C   UNL     1      -6.375   7.891  -1.957  1.00  0.00     0.014 A 
ATOM     33  C   UNL     1      -7.333   5.868  -2.883  1.00  0.00     0.014 A 
ATOM     34  C   UNL     1      -6.472   8.500  -3.209  1.00  0.00     0.010 A 
ATOM     35  C   UNL     1      -7.331   6.440  -4.148  1.00  0.00     0.010 A 
ATOM     36  C   UNL     1      -6.904   7.763  -4.324  1.00  0.00    -0.014 A 
BRANCH  36  37
ATOM     37  C   UNL     1      -6.907   8.351  -5.687  1.00  0.00     0.031 A 
ATOM     38  C   UNL     1      -8.194   8.465  -6.457  1.00  0.00     0.074 A 
ATOM     39  C   UNL     1      -5.738   8.710  -6.253  1.00  0.00     0.049 A 
ATOM     40  N   UNL     1      -8.387   8.878  -7.682  1.00  0.00    -0.248 NA
ATOM     41  C   UNL     1      -9.423   8.033  -5.771  1.00  0.00     0.031 C 
ATOM     42  C   UNL     1      -4.422   8.599  -5.620  1.00  0.00     0.029 A 
ATOM     43  N   UNL     1      -5.464   9.233  -7.492  1.00  0.00    -0.354 N 
ATOM     44  C   UNL     1      -9.750   8.747  -7.916  1.00  0.00     0.074 A 
ATOM     45  C   UNL     1     -10.328   8.156  -6.730  1.00  0.00     0.031 C 
ATOM     46  C   UNL     1      -3.486   9.067  -6.460  1.00  0.00     0.029 A 
ATOM     47  C   UNL     1      -4.126   9.460  -7.712  1.00  0.00     0.049 A 
ATOM     48  H   UNL     1      -6.160   9.427  -8.160  1.00  0.00     0.167 HD
ATOM     49  C   UNL     1     -10.459   9.110  -9.011  1.00  0.00     0.037 A 
ATOM     50  C   UNL     1      -3.483   9.916  -8.804  1.00  0.00     0.037 A 
ATOM     51  C   UNL     1      -9.871   9.706 -10.183  1.00  0.00     0.049 A 
ATOM     52  C   UNL     1      -4.289  10.281 -10.021  1.00  0.00     0.074 A 
ATOM     53  C   UNL     1     -10.505  10.158 -11.326  1.00  0.00     0.029 A 
ATOM     54  N   UNL     1      -8.512   9.922 -10.368  1.00  0.00    -0.354 N 
ATOM     55  N   UNL     1      -5.588  10.219 -10.199  1.00  0.00    -0.248 NA
ATOM     56  C   UNL     1      -3.546  10.780 -11.185  1.00  0.00     0.031 C 
ATOM     57  C   UNL     1      -9.526  10.582 -12.230  1.00  0.00     0.029 A 
ATOM     58  C   UNL     1      -8.286  10.467 -11.622  1.00  0.00     0.049 A 
ATOM     59  H   UNL     1      -7.812   9.718  -9.707  1.00  0.00     0.167 HD
ATOM     60  C   UNL     1      -5.819  10.700 -11.483  1.00  0.00     0.074 A 
ATOM     61  C   UNL     1      -4.528  11.065 -12.029  1.00  0.00     0.031 C 
ATOM     62  C   UNL     1      -6.993  10.829 -12.150  1.00  0.00     0.037 A 
BRANCH  49  63
ATOM     63  C   UNL     1     -11.945   8.869  -8.998  1.00  0.00     0.058 A 
ATOM     64  C   UNL     1     -12.804   9.576  -8.141  1.00  0.00     0.135 A 
ATOM     65  C   UNL     1     -12.524   7.947  -9.886  1.00  0.00     0.135 A 
ATOM     66  F   UNL     1     -12.307  10.458  -7.260  1.00  0.00    -0.206 F 
ATOM     67  C   UNL     1     -14.178   9.356  -8.143  1.00  0.00     0.059 A 
ATOM     68  C   UNL     1     -13.900   7.737  -9.931  1.00  0.00     0.059 A 
ATOM     69  F   UNL     1     -11.752   7.240 -10.726  1.00  0.00    -0.206 F 
ATOM     70  C   UNL     1     -14.717   8.438  -9.045  1.00  0.00     0.060 A 
BRANCH  70  71
ATOM     71  S   UNL     1     -16.503   8.179  -9.043  1.00  0.00     0.124 S 
ATOM     72  O   UNL     1     -16.697   7.505  -7.762  1.00  0.00    -0.237 OA
ATOM     73  O   UNL     1     -17.013   9.544  -9.124  1.00  0.00    -0.237 OA
ATOM     74  O   UNL     1     -16.730   7.355 -10.225  1.00  0.00    -0.744 OA
ENDBRANCH  70  71
ENDBRANCH  49  63
BRANCH  50  75
ATOM     75  C   UNL     1      -2.001  10.059  -8.793  1.00  0.00     0.058 A 
ATOM     76  C   UNL     1      -1.395  11.323  -8.854  1.00  0.00     0.135 A 
ATOM     77  C   UNL     1      -1.161   8.937  -8.714  1.00  0.00     0.135 A 
ATOM     78  F   UNL     1      -2.153  12.427  -8.937  1.00  0.00    -0.206 F 
ATOM     79  C   UNL     1      -0.011  11.469  -8.859  1.00  0.00     0.059 A 
ATOM     80  C   UNL     1       0.224   9.059  -8.683  1.00  0.00     0.059 A 
ATOM     81  F   UNL     1      -1.688   7.705  -8.636  1.00  0.00    -0.206 F 
ATOM     82  C   UNL     1       0.790  10.330  -8.767  1.00  0.00     0.060 A 
BRANCH  82  83
ATOM     83  S   UNL     1       2.583  10.536  -8.725  1.00  0.00     0.124 S 
ATOM     84  O   UNL     1       2.861  10.979 -10.086  1.00  0.00    -0.237 OA
ATOM     85  O   UNL     1       2.748  11.539  -7.678  1.00  0.00    -0.237 OA
ATOM     86  O   UNL     1       3.066   9.201  -8.384  1.00  0.00    -0.744 OA
ENDBRANCH  82  83
ENDBRANCH  50  75
BRANCH  62  87
ATOM     87  C   UNL     1      -6.945  11.421 -13.534  1.00  0.00     0.058 A 
ATOM     88  C   UNL     1      -6.383  10.731 -14.619  1.00  0.00     0.135 A 
ATOM     89  C   UNL     1      -7.522  12.678 -13.787  1.00  0.00     0.135 A 
ATOM     90  F   UNL     1      -5.811   9.530 -14.434  1.00  0.00    -0.206 F 
ATOM     91  C   UNL     1      -6.370  11.275 -15.899  1.00  0.00     0.059 A 
ATOM     92  C   UNL     1      -7.555  13.224 -15.065  1.00  0.00     0.059 A 
ATOM     93  F   UNL     1      -8.083  13.378 -12.788  1.00  0.00    -0.206 F 
ATOM     94  C   UNL     1      -6.965  12.520 -16.113  1.00  0.00     0.060 A 
BRANCH  94  95
ATOM     95  S   UNL     1      -6.976  13.194 -17.788  1.00  0.00     0.124 S 
ATOM     96  O   UNL     1      -5.566  13.512 -17.986  1.00  0.00    -0.237 OA
ATOM     97  O   UNL     1      -7.489  12.073 -18.569  1.00  0.00    -0.237 OA
ATOM     98  O   UNL     1      -7.870  14.343 -17.687  1.00  0.00    -0.744 OA
ENDBRANCH  94  95
ENDBRANCH  62  87
ENDBRANCH  36  37
ENDBRANCH  28  31
ENDBRANCH  26  27
ENDBRANCH   1  26
TORSDOF 17
