REMARK SMILES CC(C)(C)[NH2+]Cc1ccn(CC(C)(C)C(=O)NCCCNC(=O)c2ccc(-c3c4nc(c(-c5c(F)cc(S(=O)(=O)[O-])cc5F)c5ccc([nH]5)c(-c5c(F)cc(S(=O)(=O)[O-])cc5F)c5nc(c(-c6c(F)cc(S(=O)(=O)[O-])cc6F)c6ccc3[nH]6)C=C5)C=C4)cc2)c1
REMARK SMILES IDX 18 1 17 2 15 3 16 4 12 6 13 7 14 8 11 9 10 10 7 11 8 12
REMARK SMILES IDX 90 13 9 14 6 15 5 16 2 19 1 20 3 21 4 22 19 23 20 24 21 25
REMARK SMILES IDX 22 26 23 28 24 29 25 30 89 31 26 32 88 33 27 34 28 35 29 36
REMARK SMILES IDX 82 37 30 38 87 39 81 40 83 41 31 42 86 43 80 44 79 45 32 47
REMARK SMILES IDX 66 48 45 49 65 50 46 51 49 52 64 53 84 54 47 55 48 56 63 58
REMARK SMILES IDX 85 59 50 60 33 61 34 62 43 63 35 64 36 65 42 66 44 67 37 68
REMARK SMILES IDX 38 69 39 70 40 71 41 72 67 73 68 74 77 75 69 76 70 77 76 78
REMARK SMILES IDX 78 79 71 80 72 81 73 82 74 83 75 84 51 85 52 86 61 87 53 88
REMARK SMILES IDX 54 89 60 90 62 91 55 92 56 93 57 94 58 95 59 96
REMARK H PARENT 17 5 5 17 5 18 21 27 83 46 49 57
REMARK Flexibility Score: inf
ROOT
ATOM      1  C   UNL     1       8.115  -0.194   6.270  1.00  0.00     0.117 C 
ENDROOT
BRANCH   1   2
ATOM      2  N   UNL     1       7.591  -1.109   5.281  1.00  0.00    -0.356 N 
ATOM      3  C   UNL     1       6.425  -1.795   5.209  1.00  0.00     0.227 C 
ATOM      4  O   UNL     1       6.382  -2.687   4.357  1.00  0.00    -0.274 OA
ATOM      5  H   UNL     1       8.195  -1.263   4.518  1.00  0.00     0.163 HD
BRANCH   3   6
ATOM      6  C   UNL     1       5.260  -1.565   6.188  1.00  0.00     0.061 C 
ATOM      7  C   UNL     1       4.970  -0.090   6.533  1.00  0.00     0.023 C 
ATOM      8  C   UNL     1       5.590  -2.313   7.491  1.00  0.00     0.023 C 
BRANCH   6   9
ATOM      9  C   UNL     1       3.988  -2.211   5.555  1.00  0.00     0.137 C 
BRANCH   9  10
ATOM     10  N   UNL     1       3.623  -1.765   4.213  1.00  0.00    -0.353 N 
ATOM     11  C   UNL     1       2.918  -1.837   2.091  1.00  0.00     0.024 A 
ATOM     12  C   UNL     1       3.404  -0.537   2.378  1.00  0.00     0.029 A 
ATOM     13  C   UNL     1       3.140  -2.594   3.229  1.00  0.00     0.095 A 
ATOM     14  C   UNL     1       3.670  -0.491   3.723  1.00  0.00     0.086 A 
BRANCH  11  15
ATOM     15  C   UNL     1       2.268  -2.260   0.822  1.00  0.00     0.299 C 
BRANCH  15  16
ATOM     16  N   UNL     1       0.810  -2.208   0.972  1.00  0.00    -0.338 N 
ATOM     17  H   UNL     1       0.412  -2.702   0.173  1.00  0.00     0.347 HD
ATOM     18  H   UNL     1       0.650  -2.615   1.894  1.00  0.00     0.347 HD
BRANCH  16  19
ATOM     19  C   UNL     1       0.133  -0.899   1.048  1.00  0.00     0.088 C 
ATOM     20  C   UNL     1       0.637   0.119   0.011  1.00  0.00     0.078 C 
ATOM     21  C   UNL     1       0.154  -0.272   2.459  1.00  0.00     0.078 C 
ATOM     22  C   UNL     1      -1.345  -1.206   0.730  1.00  0.00     0.078 C 
ENDBRANCH  16  19
ENDBRANCH  15  16
ENDBRANCH  11  15
ENDBRANCH   9  10
ENDBRANCH   6   9
ENDBRANCH   3   6
ENDBRANCH   1   2
BRANCH   1  23
ATOM     23  C   UNL     1       9.195  -0.845   7.128  1.00  0.00     0.042 C 
BRANCH  23  24
ATOM     24  C   UNL     1      10.508  -0.976   6.373  1.00  0.00     0.118 C 
BRANCH  24  25
ATOM     25  N   UNL     1      11.055   0.335   6.059  1.00  0.00    -0.352 N 
ATOM     26  C   UNL     1      12.247   0.663   5.465  1.00  0.00     0.251 C 
ATOM     27  H   UNL     1      10.486   1.099   6.309  1.00  0.00     0.163 HD
ATOM     28  O   UNL     1      12.655   1.812   5.530  1.00  0.00    -0.269 OA
BRANCH  26  29
ATOM     29  C   UNL     1      13.040  -0.376   4.783  1.00  0.00     0.039 A 
ATOM     30  C   UNL     1      14.429  -0.351   4.947  1.00  0.00     0.014 A 
ATOM     31  C   UNL     1      12.432  -1.327   3.957  1.00  0.00     0.014 A 
ATOM     32  C   UNL     1      15.204  -1.318   4.323  1.00  0.00     0.010 A 
ATOM     33  C   UNL     1      13.194  -2.326   3.379  1.00  0.00     0.010 A 
ATOM     34  C   UNL     1      14.579  -2.312   3.559  1.00  0.00    -0.014 A 
BRANCH  34  35
ATOM     35  C   UNL     1      15.392  -3.410   3.010  1.00  0.00     0.031 A 
ATOM     36  C   UNL     1      15.774  -4.423   4.112  1.00  0.00     0.074 A 
ATOM     37  C   UNL     1      15.667  -3.323   1.670  1.00  0.00     0.049 A 
ATOM     38  N   UNL     1      16.847  -5.137   4.255  1.00  0.00    -0.248 NA
ATOM     39  C   UNL     1      14.874  -4.591   5.292  1.00  0.00     0.031 C 
ATOM     40  C   UNL     1      15.152  -2.262   0.766  1.00  0.00     0.029 A 
ATOM     41  N   UNL     1      16.404  -4.080   0.785  1.00  0.00    -0.354 N 
ATOM     42  C   UNL     1      16.660  -5.985   5.377  1.00  0.00     0.074 A 
ATOM     43  C   UNL     1      15.500  -5.495   6.054  1.00  0.00     0.031 C 
ATOM     44  C   UNL     1      15.642  -2.403  -0.485  1.00  0.00     0.029 A 
ATOM     45  C   UNL     1      16.513  -3.557  -0.536  1.00  0.00     0.049 A 
ATOM     46  H   UNL     1      16.829  -4.928   1.049  1.00  0.00     0.167 HD
ATOM     47  C   UNL     1      17.387  -7.130   5.575  1.00  0.00     0.037 A 
ATOM     48  C   UNL     1      17.289  -4.000  -1.577  1.00  0.00     0.037 A 
ATOM     49  C   UNL     1      18.274  -7.309   4.473  1.00  0.00     0.049 A 
ATOM     50  C   UNL     1      17.874  -5.253  -1.086  1.00  0.00     0.074 A 
ATOM     51  C   UNL     1      19.401  -6.635   4.083  1.00  0.00     0.029 A 
ATOM     52  N   UNL     1      17.779  -8.032   3.411  1.00  0.00    -0.354 N 
ATOM     53  N   UNL     1      17.218  -6.362  -0.932  1.00  0.00    -0.248 NA
ATOM     54  C   UNL     1      19.274  -5.247  -0.649  1.00  0.00     0.031 C 
ATOM     55  C   UNL     1      19.250  -6.563   2.685  1.00  0.00     0.029 A 
ATOM     56  C   UNL     1      18.216  -7.413   2.270  1.00  0.00     0.049 A 
ATOM     57  H   UNL     1      17.219  -8.840   3.463  1.00  0.00     0.167 HD
ATOM     58  C   UNL     1      18.022  -7.054  -0.063  1.00  0.00     0.074 A 
ATOM     59  C   UNL     1      19.352  -6.489  -0.182  1.00  0.00     0.031 C 
ATOM     60  C   UNL     1      17.467  -7.600   1.049  1.00  0.00     0.037 A 
BRANCH  47  61
ATOM     61  C   UNL     1      17.256  -8.311   6.506  1.00  0.00     0.058 A 
ATOM     62  C   UNL     1      18.386  -9.161   6.654  1.00  0.00     0.135 A 
ATOM     63  C   UNL     1      16.038  -8.831   6.961  1.00  0.00     0.135 A 
ATOM     64  F   UNL     1      19.616  -8.735   6.318  1.00  0.00    -0.206 F 
ATOM     65  C   UNL     1      18.288 -10.484   7.072  1.00  0.00     0.059 A 
ATOM     66  C   UNL     1      15.924 -10.147   7.430  1.00  0.00     0.059 A 
ATOM     67  F   UNL     1      14.912  -8.109   6.893  1.00  0.00    -0.206 F 
ATOM     68  C   UNL     1      17.042 -10.981   7.425  1.00  0.00     0.060 A 
BRANCH  68  69
ATOM     69  S   UNL     1      16.911 -12.735   7.837  1.00  0.00     0.124 S 
ATOM     70  O   UNL     1      17.094 -13.362   6.533  1.00  0.00    -0.237 OA
ATOM     71  O   UNL     1      18.010 -12.912   8.783  1.00  0.00    -0.237 OA
ATOM     72  O   UNL     1      15.575 -12.846   8.414  1.00  0.00    -0.744 OA
ENDBRANCH  68  69
ENDBRANCH  47  61
BRANCH  48  73
ATOM     73  C   UNL     1      17.789  -3.546  -2.936  1.00  0.00     0.058 A 
ATOM     74  C   UNL     1      17.522  -2.322  -3.559  1.00  0.00     0.135 A 
ATOM     75  C   UNL     1      18.780  -4.331  -3.601  1.00  0.00     0.135 A 
ATOM     76  F   UNL     1      16.524  -1.536  -3.138  1.00  0.00    -0.206 F 
ATOM     77  C   UNL     1      18.299  -1.841  -4.634  1.00  0.00     0.059 A 
ATOM     78  C   UNL     1      19.601  -3.855  -4.617  1.00  0.00     0.059 A 
ATOM     79  F   UNL     1      19.038  -5.597  -3.241  1.00  0.00    -0.206 F 
ATOM     80  C   UNL     1      19.380  -2.586  -5.107  1.00  0.00     0.060 A 
BRANCH  80  81
ATOM     81  S   UNL     1      20.588  -1.862  -6.240  1.00  0.00     0.124 S 
ATOM     82  O   UNL     1      19.961  -2.080  -7.537  1.00  0.00    -0.237 OA
ATOM     83  O   UNL     1      20.653  -0.476  -5.786  1.00  0.00    -0.237 OA
ATOM     84  O   UNL     1      21.796  -2.645  -5.984  1.00  0.00    -0.744 OA
ENDBRANCH  80  81
ENDBRANCH  48  73
BRANCH  60  85
ATOM     85  C   UNL     1      15.993  -7.963   0.915  1.00  0.00     0.058 A 
ATOM     86  C   UNL     1      15.579  -8.846  -0.098  1.00  0.00     0.135 A 
ATOM     87  C   UNL     1      14.958  -7.400   1.683  1.00  0.00     0.135 A 
ATOM     88  F   UNL     1      16.494  -9.444  -0.878  1.00  0.00    -0.206 F 
ATOM     89  C   UNL     1      14.233  -9.143  -0.338  1.00  0.00     0.059 A 
ATOM     90  C   UNL     1      13.602  -7.684   1.473  1.00  0.00     0.059 A 
ATOM     91  F   UNL     1      15.233  -6.546   2.667  1.00  0.00    -0.206 F 
ATOM     92  C   UNL     1      13.247  -8.560   0.456  1.00  0.00     0.060 A 
BRANCH  92  93
ATOM     93  S   UNL     1      11.517  -8.997   0.165  1.00  0.00     0.124 S 
ATOM     94  O   UNL     1      11.300  -8.532  -1.201  1.00  0.00    -0.237 OA
ATOM     95  O   UNL     1      11.534 -10.445   0.344  1.00  0.00    -0.237 OA
ATOM     96  O   UNL     1      10.795  -8.253   1.195  1.00  0.00    -0.744 OA
ENDBRANCH  92  93
ENDBRANCH  60  85
ENDBRANCH  34  35
ENDBRANCH  26  29
ENDBRANCH  24  25
ENDBRANCH  23  24
ENDBRANCH   1  23
TORSDOF 18
