REMARK SMILES O=C(NCCCNC(=O)[C@H]1CC(=O)N(Cc2cccc(Cl)c2)C1)c1ccc(-c2c3nc(c(-c4c(F)cc(S(=O)(=O)[O-])cc4F)c4ccc([nH]4)c(-c4c(F)cc(S(=O)(=O)[O-])cc4F)c4nc(c(-c5c(F)cc(S(=O)(=O)[O-])cc5F)c5ccc2[nH]5)C=C4)C=C3)cc1
REMARK SMILES IDX 4 1 3 2 1 3 2 4 24 6 25 7 89 8 26 9 88 10 27 11 28 12 29 13
REMARK SMILES IDX 82 14 30 15 87 16 81 17 83 18 31 19 86 20 80 21 79 22 32 24
REMARK SMILES IDX 66 25 45 26 65 27 46 28 49 29 64 30 84 31 47 32 48 33 63 35
REMARK SMILES IDX 85 36 50 37 33 38 34 39 43 40 35 41 36 42 42 43 44 44 37 45
REMARK SMILES IDX 38 46 39 47 40 48 41 49 67 50 68 51 77 52 69 53 70 54 76 55
REMARK SMILES IDX 78 56 71 57 72 58 73 59 74 60 75 61 51 62 52 63 61 64 53 65
REMARK SMILES IDX 54 66 60 67 62 68 55 69 56 70 57 71 58 72 59 73 5 74 6 75
REMARK SMILES IDX 7 76 8 77 9 79 10 80 11 81 23 82 12 83 14 84 13 85 15 86
REMARK SMILES IDX 16 87 17 88 22 89 18 90 20 91 19 92 21 93
REMARK H PARENT 3 5 83 23 49 34 7 78
REMARK Flexibility Score: inf
ROOT
ATOM      1  C   UNL     1       9.266   6.251  -1.284  1.00  0.00     0.118 C 
ENDROOT
BRANCH   1   2
ATOM      2  N   UNL     1       9.790   7.604  -1.439  1.00  0.00    -0.352 N 
ATOM      3  O   UNL     1      10.558   9.622  -0.801  1.00  0.00    -0.269 OA
ATOM      4  C   UNL     1      10.334   8.453  -0.503  1.00  0.00     0.251 C 
ATOM      5  H   UNL     1       9.747   7.965  -2.354  1.00  0.00     0.163 HD
BRANCH   4   6
ATOM      6  C   UNL     1      10.626   7.958   0.859  1.00  0.00     0.039 A 
ATOM      7  C   UNL     1      11.183   6.693   1.040  1.00  0.00     0.014 A 
ATOM      8  C   UNL     1      10.341   8.762   1.967  1.00  0.00     0.014 A 
ATOM      9  C   UNL     1      11.277   6.160   2.316  1.00  0.00     0.010 A 
ATOM     10  C   UNL     1      10.559   8.268   3.259  1.00  0.00     0.010 A 
ATOM     11  C   UNL     1      11.000   6.950   3.445  1.00  0.00    -0.014 A 
BRANCH  11  12
ATOM     12  C   UNL     1      11.283   6.380   4.788  1.00  0.00     0.031 A 
ATOM     13  C   UNL     1      10.196   6.170   5.806  1.00  0.00     0.074 A 
ATOM     14  C   UNL     1      12.546   5.984   5.049  1.00  0.00     0.049 A 
ATOM     15  N   UNL     1      10.281   5.621   6.991  1.00  0.00    -0.248 NA
ATOM     16  C   UNL     1       8.845   6.639   5.461  1.00  0.00     0.031 C 
ATOM     17  C   UNL     1      13.687   6.161   4.142  1.00  0.00     0.029 A 
ATOM     18  N   UNL     1      13.083   5.326   6.124  1.00  0.00    -0.354 N 
ATOM     19  C   UNL     1       9.003   5.678   7.535  1.00  0.00     0.074 A 
ATOM     20  C   UNL     1       8.166   6.351   6.565  1.00  0.00     0.031 C 
ATOM     21  C   UNL     1      14.767   5.571   4.668  1.00  0.00     0.029 A 
ATOM     22  C   UNL     1      14.423   5.047   5.983  1.00  0.00     0.049 A 
ATOM     23  H   UNL     1      12.561   5.078   6.921  1.00  0.00     0.167 HD
ATOM     24  C   UNL     1       8.571   5.202   8.729  1.00  0.00     0.037 A 
ATOM     25  C   UNL     1      15.290   4.457   6.825  1.00  0.00     0.037 A 
ATOM     26  C   UNL     1       9.418   4.532   9.687  1.00  0.00     0.049 A 
ATOM     27  C   UNL     1      14.785   3.966   8.151  1.00  0.00     0.074 A 
ATOM     28  C   UNL     1       9.072   4.003  10.919  1.00  0.00     0.029 A 
ATOM     29  N   UNL     1      10.777   4.299   9.524  1.00  0.00    -0.354 N 
ATOM     30  N   UNL     1      13.565   4.006   8.633  1.00  0.00    -0.248 NA
ATOM     31  C   UNL     1      15.771   3.352   9.047  1.00  0.00     0.031 C 
ATOM     32  C   UNL     1      10.228   3.494  11.521  1.00  0.00     0.029 A 
ATOM     33  C   UNL     1      11.285   3.652  10.640  1.00  0.00     0.049 A 
ATOM     34  H   UNL     1      11.302   4.555   8.732  1.00  0.00     0.167 HD
ATOM     35  C   UNL     1      13.636   3.412   9.886  1.00  0.00     0.074 A 
ATOM     36  C   UNL     1      15.010   2.988  10.069  1.00  0.00     0.031 C 
ATOM     37  C   UNL     1      12.657   3.242  10.809  1.00  0.00     0.037 A 
BRANCH  24  38
ATOM     38  C   UNL     1       7.117   5.381   9.081  1.00  0.00     0.058 A 
ATOM     39  C   UNL     1       6.110   4.638   8.444  1.00  0.00     0.135 A 
ATOM     40  C   UNL     1       6.734   6.238  10.126  1.00  0.00     0.135 A 
ATOM     41  F   UNL     1       6.415   3.816   7.428  1.00  0.00    -0.206 F 
ATOM     42  C   UNL     1       4.776   4.744   8.826  1.00  0.00     0.059 A 
ATOM     43  C   UNL     1       5.408   6.340  10.542  1.00  0.00     0.059 A 
ATOM     44  F   UNL     1       7.654   6.973  10.769  1.00  0.00    -0.206 F 
ATOM     45  C   UNL     1       4.435   5.591   9.882  1.00  0.00     0.060 A 
BRANCH  45  46
ATOM     46  S   UNL     1       2.704   5.684  10.386  1.00  0.00     0.124 S 
ATOM     47  O   UNL     1       2.106   6.377   9.249  1.00  0.00    -0.237 OA
ATOM     48  O   UNL     1       2.347   4.276  10.528  1.00  0.00    -0.237 OA
ATOM     49  O   UNL     1       2.751   6.445  11.631  1.00  0.00    -0.744 OA
ENDBRANCH  45  46
ENDBRANCH  24  38
BRANCH  25  50
ATOM     50  C   UNL     1      16.725   4.336   6.453  1.00  0.00     0.058 A 
ATOM     51  C   UNL     1      17.326   3.086   6.249  1.00  0.00     0.135 A 
ATOM     52  C   UNL     1      17.527   5.479   6.303  1.00  0.00     0.135 A 
ATOM     53  F   UNL     1      16.603   1.964   6.380  1.00  0.00    -0.206 F 
ATOM     54  C   UNL     1      18.679   2.971   5.946  1.00  0.00     0.059 A 
ATOM     55  C   UNL     1      18.871   5.392   5.963  1.00  0.00     0.059 A 
ATOM     56  F   UNL     1      16.996   6.702   6.464  1.00  0.00    -0.206 F 
ATOM     57  C   UNL     1      19.443   4.131   5.808  1.00  0.00     0.060 A 
BRANCH  57  58
ATOM     58  S   UNL     1      21.196   3.975   5.406  1.00  0.00     0.124 S 
ATOM     59  O   UNL     1      21.745   3.510   6.674  1.00  0.00    -0.237 OA
ATOM     60  O   UNL     1      21.176   2.999   4.321  1.00  0.00    -0.237 OA
ATOM     61  O   UNL     1      21.571   5.330   5.013  1.00  0.00    -0.744 OA
ENDBRANCH  57  58
ENDBRANCH  25  50
BRANCH  37  62
ATOM     62  C   UNL     1      13.042   2.546  12.086  1.00  0.00     0.058 A 
ATOM     63  C   UNL     1      13.878   3.156  13.035  1.00  0.00     0.135 A 
ATOM     64  C   UNL     1      12.569   1.253  12.363  1.00  0.00     0.135 A 
ATOM     65  F   UNL     1      14.364   4.388  12.815  1.00  0.00    -0.206 F 
ATOM     66  C   UNL     1      14.269   2.491  14.192  1.00  0.00     0.059 A 
ATOM     67  C   UNL     1      12.919   0.584  13.531  1.00  0.00     0.059 A 
ATOM     68  F   UNL     1      11.758   0.628  11.495  1.00  0.00    -0.206 F 
ATOM     69  C   UNL     1      13.787   1.203  14.429  1.00  0.00     0.060 A 
BRANCH  69  70
ATOM     70  S   UNL     1      14.304   0.351  15.934  1.00  0.00     0.124 S 
ATOM     71  O   UNL     1      15.688   0.014  15.619  1.00  0.00    -0.237 OA
ATOM     72  O   UNL     1      14.117   1.378  16.954  1.00  0.00    -0.237 OA
ATOM     73  O   UNL     1      13.385  -0.780  16.016  1.00  0.00    -0.744 OA
ENDBRANCH  69  70
ENDBRANCH  37  62
ENDBRANCH  11  12
ENDBRANCH   4   6
ENDBRANCH   1   2
BRANCH   1  74
ATOM     74  C   UNL     1       7.782   6.150  -1.609  1.00  0.00     0.042 C 
BRANCH  74  75
ATOM     75  C   UNL     1       7.461   6.458  -3.064  1.00  0.00     0.117 C 
BRANCH  75  76
ATOM     76  N   UNL     1       8.087   5.504  -3.962  1.00  0.00    -0.356 N 
ATOM     77  C   UNL     1       7.552   4.390  -4.538  1.00  0.00     0.225 C 
ATOM     78  H   UNL     1       9.028   5.687  -4.187  1.00  0.00     0.163 HD
ATOM     79  O   UNL     1       8.300   3.629  -5.148  1.00  0.00    -0.275 OA
BRANCH  77  80
ATOM     80  C   UNL     1       6.064   4.163  -4.418  1.00  0.00     0.107 C 
ATOM     81  C   UNL     1       5.281   5.065  -5.373  1.00  0.00     0.115 C 
ATOM     82  C   UNL     1       5.670   2.763  -4.856  1.00  0.00     0.133 C 
ATOM     83  C   UNL     1       4.075   4.235  -5.732  1.00  0.00     0.223 C 
ATOM     84  N   UNL     1       4.340   2.924  -5.387  1.00  0.00    -0.338 N 
ATOM     85  O   UNL     1       3.057   4.668  -6.249  1.00  0.00    -0.275 OA
BRANCH  84  86
ATOM     86  C   UNL     1       3.414   1.820  -5.570  1.00  0.00     0.155 C 
BRANCH  86  87
ATOM     87  C   UNL     1       3.889   0.780  -6.559  1.00  0.00    -0.027 A 
ATOM     88  C   UNL     1       4.975  -0.060  -6.261  1.00  0.00     0.005 A 
ATOM     89  C   UNL     1       3.236   0.619  -7.790  1.00  0.00     0.026 A 
ATOM     90  C   UNL     1       5.423  -1.009  -7.180  1.00  0.00     0.002 A 
ATOM     91  C   UNL     1       3.669  -0.353  -8.694  1.00  0.00     0.041 A 
ATOM     92  C   UNL     1       4.767  -1.159  -8.399  1.00  0.00     0.020 A 
ATOM     93  Cl  UNL     1       2.834  -0.569 -10.184  1.00  0.00    -0.084 Cl
ENDBRANCH  86  87
ENDBRANCH  84  86
ENDBRANCH  77  80
ENDBRANCH  75  76
ENDBRANCH  74  75
ENDBRANCH   1  74
TORSDOF 15
