REMARK SMILES C[C@]12C[C@@H](O)[C@@H]3[C@@H](CCC4=CC(=O)CC[C@]43C)[C@H]1CC[C@]2(O)C(=O)COC(=O)CCC(=O)NCCCNC(=O)c1ccc(-c2c3nc(c(-c4c(F)cc(S(=O)(=O)[O-])cc4F)c4ccc([nH]4)c(-c4c(F)cc(S(=O)(=O)[O-])cc4F)c4nc(c(-c5c(F)cc(S(=O)(=O)[O-])cc5F)c5ccc2[nH]5)C=C4)C=C3)cc1
REMARK SMILES IDX 31 1 32 2 33 3 30 5 29 6 27 7 28 8 26 9 25 10 23 11 24 12
REMARK SMILES IDX 21 13 17 14 16 15 15 16 10 17 6 18 14 19 11 20 9 21 7 22
REMARK SMILES IDX 4 23 12 24 8 25 18 26 3 27 13 28 2 29 19 30 1 31 20 32 5 33
REMARK SMILES IDX 22 35 34 37 35 38 36 39 37 40 38 41 39 43 40 44 41 45 105 46
REMARK SMILES IDX 42 47 104 48 43 49 44 50 45 51 98 52 46 53 103 54 97 55
REMARK SMILES IDX 99 56 47 57 102 58 96 59 95 60 48 62 82 63 61 64 81 65 62 66
REMARK SMILES IDX 65 67 80 68 100 69 63 70 64 71 79 73 101 74 66 75 49 76
REMARK SMILES IDX 50 77 59 78 51 79 52 80 58 81 60 82 53 83 54 84 55 85 56 86
REMARK SMILES IDX 57 87 83 88 84 89 93 90 85 91 86 92 92 93 94 94 87 95 88 96
REMARK SMILES IDX 89 97 90 98 91 99 67 100 68 101 77 102 69 103 70 104 76 105
REMARK SMILES IDX 78 106 71 107 72 108 73 109 74 110 75 111
REMARK H PARENT 33 4 5 34 22 36 37 42 99 61 65 72
REMARK Flexibility Score: inf
ROOT
ATOM      1  C   UNL     1      -2.234   6.933   2.555  1.00  0.00     0.220 C 
ATOM      2  O   UNL     1      -1.649   7.419   3.527  1.00  0.00    -0.275 OA
ATOM      3  N   UNL     1      -2.342   7.713   1.447  1.00  0.00    -0.356 N 
ATOM      4  H   UNL     1      -2.248   8.677   1.625  1.00  0.00     0.163 HD
ENDROOT
BRANCH   1   5
ATOM      5  C   UNL     1      -2.752   5.510   2.625  1.00  0.00     0.111 C 
BRANCH   5   6
ATOM      6  C   UNL     1      -4.230   5.347   2.311  1.00  0.00     0.132 C 
BRANCH   6   7
ATOM      7  C   UNL     1      -4.398   4.550   1.051  1.00  0.00     0.306 C 
ATOM      8  O   UNL     1      -4.039   3.378   0.893  1.00  0.00    -0.252 OA
BRANCH   7   9
ATOM      9  O   UNL     1      -4.885   5.329   0.070  1.00  0.00    -0.458 OA
BRANCH   9  10
ATOM     10  C   UNL     1      -4.966   4.745  -1.221  1.00  0.00     0.311 C 
BRANCH  10  11
ATOM     11  C   UNL     1      -3.797   5.108  -2.163  1.00  0.00     0.202 C 
ATOM     12  O   UNL     1      -4.007   6.057  -2.918  1.00  0.00    -0.293 OA
BRANCH  11  13
ATOM     13  C   UNL     1      -2.519   4.224  -2.314  1.00  0.00     0.132 C 
ATOM     14  C   UNL     1       1.739  -0.114   0.218  1.00  0.00     0.016 C 
ATOM     15  C   UNL     1       1.009   0.164  -1.138  1.00  0.00    -0.005 C 
ATOM     16  C   UNL     1       1.931  -0.428  -2.245  1.00  0.00     0.020 C 
ATOM     17  C   UNL     1      -0.291  -0.631  -1.352  1.00  0.00    -0.060 C 
ATOM     18  C   UNL     1       0.761   1.725  -1.288  1.00  0.00     0.031 C 
ATOM     19  C   UNL     1       1.808  -1.965  -2.376  1.00  0.00     0.081 C 
ATOM     20  C   UNL     1      -0.382  -1.933  -1.034  1.00  0.00     0.047 C 
ATOM     21  C   UNL     1      -1.192  -0.211  -2.485  1.00  0.00     0.032 C 
ATOM     22  C   UNL     1      -0.024   2.054  -2.573  1.00  0.00    -0.000 C 
ATOM     23  C   UNL     1       0.122   2.471  -0.060  1.00  0.00     0.119 C 
ATOM     24  C   UNL     1       0.895  -2.635  -1.345  1.00  0.00     0.155 C 
ATOM     25  C   UNL     1      -1.329   1.276  -2.558  1.00  0.00     0.009 C 
ATOM     26  C   UNL     1      -0.141   3.583  -2.703  1.00  0.00     0.002 C 
ATOM     27  C   UNL     1      -0.854   3.655  -0.265  1.00  0.00     0.042 C 
ATOM     28  O   UNL     1       1.084  -3.772  -0.927  1.00  0.00    -0.295 OA
ATOM     29  C   UNL     1      -1.030   4.313  -1.652  1.00  0.00     0.009 C 
ATOM     30  C   UNL     1      -0.696   4.079  -4.029  1.00  0.00     0.008 C 
ATOM     31  C   UNL     1      -0.408   5.735  -1.575  1.00  0.00     0.015 C 
ATOM     32  C   UNL     1      -2.204   4.169  -3.848  1.00  0.00     0.044 C 
BRANCH  23  33
ATOM     33  O   UNL     1      -0.538   1.586   0.849  1.00  0.00    -0.393 OA
ATOM     34  H   UNL     1      -1.345   1.241   0.436  1.00  0.00     0.210 HD
ENDBRANCH  23  33
BRANCH  13  35
ATOM     35  O   UNL     1      -3.161   2.986  -1.977  1.00  0.00    -0.381 OA
ATOM     36  H   UNL     1      -2.512   2.266  -2.012  1.00  0.00     0.212 HD
ENDBRANCH  13  35
ENDBRANCH  11  13
ENDBRANCH  10  11
ENDBRANCH   9  10
ENDBRANCH   7   9
ENDBRANCH   6   7
ENDBRANCH   5   6
ENDBRANCH   1   5
BRANCH   3  37
ATOM     37  C   UNL     1      -2.569   7.388   0.051  1.00  0.00     0.117 C 
BRANCH  37  38
ATOM     38  C   UNL     1      -3.692   8.165  -0.626  1.00  0.00     0.042 C 
BRANCH  38  39
ATOM     39  C   UNL     1      -3.213   9.057  -1.786  1.00  0.00     0.118 C 
BRANCH  39  40
ATOM     40  N   UNL     1      -2.637   8.414  -2.972  1.00  0.00    -0.352 N 
ATOM     41  C   UNL     1      -3.124   8.113  -4.234  1.00  0.00     0.251 C 
ATOM     42  H   UNL     1      -1.701   8.136  -2.844  1.00  0.00     0.163 HD
ATOM     43  O   UNL     1      -2.375   7.553  -5.037  1.00  0.00    -0.269 OA
BRANCH  41  44
ATOM     44  C   UNL     1      -4.516   8.425  -4.639  1.00  0.00     0.039 A 
ATOM     45  C   UNL     1      -5.252   7.535  -5.443  1.00  0.00     0.014 A 
ATOM     46  C   UNL     1      -5.081   9.641  -4.280  1.00  0.00     0.014 A 
ATOM     47  C   UNL     1      -6.555   7.859  -5.847  1.00  0.00     0.010 A 
ATOM     48  C   UNL     1      -6.407   9.909  -4.576  1.00  0.00     0.010 A 
ATOM     49  C   UNL     1      -7.144   9.049  -5.402  1.00  0.00    -0.014 A 
BRANCH  49  50
ATOM     50  C   UNL     1      -8.479   9.527  -5.838  1.00  0.00     0.031 A 
ATOM     51  C   UNL     1      -8.561  10.856  -6.548  1.00  0.00     0.074 A 
ATOM     52  C   UNL     1      -9.596   8.876  -5.466  1.00  0.00     0.049 A 
ATOM     53  N   UNL     1      -9.595  11.628  -6.753  1.00  0.00    -0.248 NA
ATOM     54  C   UNL     1      -7.287  11.419  -7.033  1.00  0.00     0.031 C 
ATOM     55  C   UNL     1      -9.637   7.598  -4.755  1.00  0.00     0.029 A 
ATOM     56  N   UNL     1     -10.916   9.226  -5.601  1.00  0.00    -0.354 N 
ATOM     57  C   UNL     1      -9.089  12.783  -7.342  1.00  0.00     0.074 A 
ATOM     58  C   UNL     1      -7.653  12.633  -7.412  1.00  0.00     0.031 C 
ATOM     59  C   UNL     1     -10.918   7.272  -4.511  1.00  0.00     0.029 A 
ATOM     60  C   UNL     1     -11.782   8.342  -5.000  1.00  0.00     0.049 A 
ATOM     61  H   UNL     1     -11.214  10.032  -6.080  1.00  0.00     0.167 HD
ATOM     62  C   UNL     1      -9.766  13.863  -7.800  1.00  0.00     0.037 A 
ATOM     63  C   UNL     1     -13.117   8.408  -4.838  1.00  0.00     0.037 A 
ATOM     64  C   UNL     1     -11.201  13.966  -7.769  1.00  0.00     0.049 A 
ATOM     65  C   UNL     1     -13.854   9.608  -5.371  1.00  0.00     0.074 A 
ATOM     66  C   UNL     1     -12.004  14.972  -8.274  1.00  0.00     0.029 A 
ATOM     67  N   UNL     1     -12.047  13.020  -7.208  1.00  0.00    -0.354 N 
ATOM     68  N   UNL     1     -13.371  10.677  -5.962  1.00  0.00    -0.248 NA
ATOM     69  C   UNL     1     -15.315   9.613  -5.217  1.00  0.00     0.031 C 
ATOM     70  C   UNL     1     -13.334  14.655  -7.979  1.00  0.00     0.029 A 
ATOM     71  C   UNL     1     -13.363  13.427  -7.337  1.00  0.00     0.049 A 
ATOM     72  H   UNL     1     -11.754  12.182  -6.781  1.00  0.00     0.167 HD
ATOM     73  C   UNL     1     -14.470  11.470  -6.272  1.00  0.00     0.074 A 
ATOM     74  C   UNL     1     -15.643  10.750  -5.817  1.00  0.00     0.031 C 
ATOM     75  C   UNL     1     -14.511  12.684  -6.876  1.00  0.00     0.037 A 
BRANCH  62  76
ATOM     76  C   UNL     1      -8.969  15.003  -8.376  1.00  0.00     0.058 A 
ATOM     77  C   UNL     1      -8.259  14.878  -9.582  1.00  0.00     0.135 A 
ATOM     78  C   UNL     1      -8.936  16.250  -7.729  1.00  0.00     0.135 A 
ATOM     79  F   UNL     1      -8.239  13.706 -10.237  1.00  0.00    -0.206 F 
ATOM     80  C   UNL     1      -7.521  15.934 -10.107  1.00  0.00     0.059 A 
ATOM     81  C   UNL     1      -8.231  17.330  -8.253  1.00  0.00     0.059 A 
ATOM     82  F   UNL     1      -9.591  16.428  -6.571  1.00  0.00    -0.206 F 
ATOM     83  C   UNL     1      -7.514  17.158  -9.437  1.00  0.00     0.060 A 
BRANCH  83  84
ATOM     84  S   UNL     1      -6.563  18.520 -10.141  1.00  0.00     0.124 S 
ATOM     85  O   UNL     1      -5.194  18.088  -9.875  1.00  0.00    -0.237 OA
ATOM     86  O   UNL     1      -6.973  18.495 -11.541  1.00  0.00    -0.237 OA
ATOM     87  O   UNL     1      -7.013  19.680  -9.379  1.00  0.00    -0.744 OA
ENDBRANCH  83  84
ENDBRANCH  62  76
BRANCH  63  88
ATOM     88  C   UNL     1     -13.839   7.300  -4.158  1.00  0.00     0.058 A 
ATOM     89  C   UNL     1     -14.671   6.436  -4.885  1.00  0.00     0.135 A 
ATOM     90  C   UNL     1     -13.691   7.058  -2.783  1.00  0.00     0.135 A 
ATOM     91  F   UNL     1     -14.850   6.629  -6.201  1.00  0.00    -0.206 F 
ATOM     92  C   UNL     1     -15.341   5.381  -4.274  1.00  0.00     0.059 A 
ATOM     93  C   UNL     1     -14.329   5.993  -2.154  1.00  0.00     0.059 A 
ATOM     94  F   UNL     1     -12.891   7.843  -2.044  1.00  0.00    -0.206 F 
ATOM     95  C   UNL     1     -15.160   5.165  -2.908  1.00  0.00     0.060 A 
BRANCH  95  96
ATOM     96  S   UNL     1     -15.990   3.758  -2.138  1.00  0.00     0.124 S 
ATOM     97  O   UNL     1     -17.377   4.208  -2.120  1.00  0.00    -0.237 OA
ATOM     98  O   UNL     1     -15.681   2.675  -3.067  1.00  0.00    -0.237 OA
ATOM     99  O   UNL     1     -15.341   3.658  -0.834  1.00  0.00    -0.744 OA
ENDBRANCH  95  96
ENDBRANCH  63  88
BRANCH  75 100
ATOM    100  C   UNL     1     -15.865  13.294  -7.103  1.00  0.00     0.058 A 
ATOM    101  C   UNL     1     -16.622  13.821  -6.045  1.00  0.00     0.135 A 
ATOM    102  C   UNL     1     -16.388  13.397  -8.402  1.00  0.00     0.135 A 
ATOM    103  F   UNL     1     -16.169  13.741  -4.784  1.00  0.00    -0.206 F 
ATOM    104  C   UNL     1     -17.863  14.407  -6.265  1.00  0.00     0.059 A 
ATOM    105  C   UNL     1     -17.613  14.007  -8.649  1.00  0.00     0.059 A 
ATOM    106  F   UNL     1     -15.697  12.920  -9.450  1.00  0.00    -0.206 F 
ATOM    107  C   UNL     1     -18.349  14.497  -7.571  1.00  0.00     0.060 A 
BRANCH 107 108
ATOM    108  S   UNL     1     -19.948  15.289  -7.844  1.00  0.00     0.124 S 
ATOM    109  O   UNL     1     -20.867  14.276  -7.337  1.00  0.00    -0.237 OA
ATOM    110  O   UNL     1     -19.835  16.503  -7.042  1.00  0.00    -0.237 OA
ATOM    111  O   UNL     1     -19.980  15.500  -9.288  1.00  0.00    -0.744 OA
ENDBRANCH 107 108
ENDBRANCH  75 100
ENDBRANCH  49  50
ENDBRANCH  41  44
ENDBRANCH  39  40
ENDBRANCH  38  39
ENDBRANCH  37  38
ENDBRANCH   3  37
TORSDOF 21
