REMARK SMILES COc1ccc(-c2ccc(C(=O)NCc3ccc(C(=O)NCCCNC(=O)c4ccc(-c5c6nc(c(-c7c(F)cc(S(=O)(=O)[O-])cc7F)c7ccc([nH]7)c(-c7c(F)cc(S(=O)(=O)[O-])cc7F)c7nc(c(-c8c(F)cc(S(=O)(=O)[O-])cc8F)c8ccc5[nH]8)C=C7)C=C6)cc4)cc3)o2)c([N+](=O)[O-])c1
REMARK SMILES IDX 22 1 21 2 19 3 20 4 18 6 15 7 16 8 95 9 17 10 94 11 14 12
REMARK SMILES IDX 13 13 11 14 12 15 10 17 7 18 8 19 96 20 9 21 6 22 3 23 4 24
REMARK SMILES IDX 101 25 5 26 97 27 2 28 1 29 98 30 99 31 100 32 23 33 24 34
REMARK SMILES IDX 25 35 26 36 27 38 28 39 29 40 93 41 30 42 92 43 31 44 32 45
REMARK SMILES IDX 33 46 86 47 34 48 91 49 85 50 87 51 35 52 90 53 84 54 83 55
REMARK SMILES IDX 36 57 70 58 49 59 69 60 50 61 53 62 68 63 88 64 51 65 52 66
REMARK SMILES IDX 67 68 89 69 54 70 37 71 38 72 47 73 39 74 40 75 46 76 48 77
REMARK SMILES IDX 41 78 42 79 43 80 44 81 45 82 71 83 72 84 81 85 73 86 74 87
REMARK SMILES IDX 80 88 82 89 75 90 76 91 77 92 78 93 79 94 55 95 56 96 65 97
REMARK SMILES IDX 57 98 58 99 64 100 66 101 59 102 60 103 61 104 62 105 63 106
REMARK H PARENT 21 5 13 16 25 37 87 56 53 67
REMARK Flexibility Score: inf
ROOT
ATOM      1  C   UNL     1       1.712  14.313  -1.483  1.00  0.00     0.118 C 
ENDROOT
BRANCH   1   2
ATOM      2  N   UNL     1       2.394  15.326  -0.699  1.00  0.00    -0.352 N 
ATOM      3  C   UNL     1       3.049  15.287   0.504  1.00  0.00     0.251 C 
ATOM      4  O   UNL     1       3.593  16.325   0.884  1.00  0.00    -0.269 OA
ATOM      5  H   UNL     1       2.385  16.218  -1.115  1.00  0.00     0.163 HD
BRANCH   3   6
ATOM      6  C   UNL     1       3.181  14.059   1.337  1.00  0.00     0.039 A 
ATOM      7  C   UNL     1       3.607  11.803   3.005  1.00  0.00    -0.029 A 
ATOM      8  C   UNL     1       4.511  12.873   3.003  1.00  0.00     0.006 A 
ATOM      9  C   UNL     1       2.484  11.886   2.171  1.00  0.00     0.006 A 
ATOM     10  C   UNL     1       4.298  13.986   2.183  1.00  0.00     0.014 A 
ATOM     11  C   UNL     1       2.259  13.014   1.370  1.00  0.00     0.014 A 
BRANCH   7  12
ATOM     12  C   UNL     1       3.884  10.597   3.872  1.00  0.00     0.152 C 
BRANCH  12  13
ATOM     13  N   UNL     1       2.681   9.977   4.379  1.00  0.00    -0.345 N 
ATOM     14  C   UNL     1       2.021   8.827   4.029  1.00  0.00     0.287 C 
ATOM     15  O   UNL     1       1.067   8.525   4.760  1.00  0.00    -0.266 OA
ATOM     16  H   UNL     1       2.254  10.474   5.114  1.00  0.00     0.164 HD
BRANCH  14  17
ATOM     17  C   UNL     1       2.405   8.030   2.880  1.00  0.00     0.192 A 
ATOM     18  C   UNL     1       2.302   6.189   1.648  1.00  0.00     0.142 A 
ATOM     19  C   UNL     1       3.171   7.035   0.999  1.00  0.00     0.052 A 
ATOM     20  O   UNL     1       1.825   6.783   2.772  1.00  0.00    -0.451 OA
ATOM     21  C   UNL     1       3.217   8.221   1.772  1.00  0.00     0.057 A 
BRANCH  18  22
ATOM     22  C   UNL     1       1.793   4.862   1.351  1.00  0.00     0.095 A 
ATOM     23  C   UNL     1       0.758   2.391   0.422  1.00  0.00     0.125 A 
ATOM     24  C   UNL     1      -0.061   3.517   0.522  1.00  0.00     0.047 A 
ATOM     25  C   UNL     1       2.087   2.480   0.824  1.00  0.00     0.132 A 
ATOM     26  C   UNL     1       0.444   4.735   0.992  1.00  0.00     0.023 A 
ATOM     27  C   UNL     1       2.594   3.712   1.287  1.00  0.00     0.284 A 
BRANCH  23  28
ATOM     28  O   UNL     1       0.151   1.289  -0.111  1.00  0.00    -0.497 OA
ATOM     29  C   UNL     1       0.836   0.048   0.001  1.00  0.00     0.278 C 
ENDBRANCH  23  28
BRANCH  27  30
ATOM     30  N   UNL     1       3.998   3.745   1.686  1.00  0.00     0.063 N 
ATOM     31  O   UNL     1       4.306   4.372   2.708  1.00  0.00    -0.258 OA
ATOM     32  O   UNL     1       4.796   3.103   0.987  1.00  0.00    -0.258 OA
ENDBRANCH  27  30
ENDBRANCH  18  22
ENDBRANCH  14  17
ENDBRANCH  12  13
ENDBRANCH   7  12
ENDBRANCH   3   6
ENDBRANCH   1   2
BRANCH   1  33
ATOM     33  C   UNL     1       0.195  14.444  -1.353  1.00  0.00     0.042 C 
BRANCH  33  34
ATOM     34  C   UNL     1      -0.375  15.652  -2.097  1.00  0.00     0.118 C 
BRANCH  34  35
ATOM     35  N   UNL     1      -0.235  15.517  -3.541  1.00  0.00    -0.352 N 
ATOM     36  C   UNL     1      -1.192  15.508  -4.524  1.00  0.00     0.251 C 
ATOM     37  H   UNL     1       0.690  15.416  -3.861  1.00  0.00     0.163 HD
ATOM     38  O   UNL     1      -0.885  15.136  -5.654  1.00  0.00    -0.269 OA
BRANCH  36  39
ATOM     39  C   UNL     1      -2.579  15.935  -4.236  1.00  0.00     0.039 A 
ATOM     40  C   UNL     1      -3.636  15.234  -4.824  1.00  0.00     0.014 A 
ATOM     41  C   UNL     1      -2.841  17.051  -3.435  1.00  0.00     0.014 A 
ATOM     42  C   UNL     1      -4.954  15.619  -4.566  1.00  0.00     0.010 A 
ATOM     43  C   UNL     1      -4.156  17.390  -3.123  1.00  0.00     0.010 A 
ATOM     44  C   UNL     1      -5.227  16.682  -3.689  1.00  0.00    -0.014 A 
BRANCH  44  45
ATOM     45  C   UNL     1      -6.623  17.058  -3.349  1.00  0.00     0.031 A 
ATOM     46  C   UNL     1      -7.158  18.415  -3.726  1.00  0.00     0.074 A 
ATOM     47  C   UNL     1      -7.387  16.199  -2.644  1.00  0.00     0.049 A 
ATOM     48  N   UNL     1      -8.325  18.944  -3.462  1.00  0.00    -0.248 NA
ATOM     49  C   UNL     1      -6.256  19.305  -4.477  1.00  0.00     0.031 C 
ATOM     50  C   UNL     1      -6.964  14.874  -2.182  1.00  0.00     0.029 A 
ATOM     51  N   UNL     1      -8.675  16.312  -2.182  1.00  0.00    -0.354 N 
ATOM     52  C   UNL     1      -8.290  20.230  -3.989  1.00  0.00     0.074 A 
ATOM     53  C   UNL     1      -6.973  20.417  -4.557  1.00  0.00     0.031 C 
ATOM     54  C   UNL     1      -7.979  14.291  -1.525  1.00  0.00     0.029 A 
ATOM     55  C   UNL     1      -9.109  15.212  -1.479  1.00  0.00     0.049 A 
ATOM     56  H   UNL     1      -9.235  17.106  -2.340  1.00  0.00     0.167 HD
ATOM     57  C   UNL     1      -9.272  21.162  -4.011  1.00  0.00     0.037 A 
ATOM     58  C   UNL     1     -10.282  14.977  -0.858  1.00  0.00     0.037 A 
ATOM     59  C   UNL     1     -10.593  20.951  -3.478  1.00  0.00     0.049 A 
ATOM     60  C   UNL     1     -11.355  16.032  -0.902  1.00  0.00     0.074 A 
ATOM     61  C   UNL     1     -11.685  21.800  -3.530  1.00  0.00     0.029 A 
ATOM     62  N   UNL     1     -11.001  19.818  -2.790  1.00  0.00    -0.354 N 
ATOM     63  N   UNL     1     -11.333  17.208  -1.483  1.00  0.00    -0.248 NA
ATOM     64  C   UNL     1     -12.616  15.728  -0.211  1.00  0.00     0.031 C 
ATOM     65  C   UNL     1     -12.736  21.205  -2.825  1.00  0.00     0.029 A 
ATOM     66  C   UNL     1     -12.318  19.959  -2.385  1.00  0.00     0.049 A 
ATOM     67  H   UNL     1     -10.438  19.029  -2.616  1.00  0.00     0.167 HD
ATOM     68  C   UNL     1     -12.587  17.767  -1.257  1.00  0.00     0.074 A 
ATOM     69  C   UNL     1     -13.346  16.796  -0.498  1.00  0.00     0.031 C 
ATOM     70  C   UNL     1     -13.066  18.975  -1.644  1.00  0.00     0.037 A 
BRANCH  57  71
ATOM     71  C   UNL     1      -8.970  22.500  -4.629  1.00  0.00     0.058 A 
ATOM     72  C   UNL     1      -8.809  22.658  -6.015  1.00  0.00     0.135 A 
ATOM     73  C   UNL     1      -8.918  23.654  -3.830  1.00  0.00     0.135 A 
ATOM     74  F   UNL     1      -8.834  21.589  -6.825  1.00  0.00    -0.206 F 
ATOM     75  C   UNL     1      -8.594  23.910  -6.584  1.00  0.00     0.059 A 
ATOM     76  C   UNL     1      -8.732  24.919  -4.380  1.00  0.00     0.059 A 
ATOM     77  F   UNL     1      -9.063  23.561  -2.498  1.00  0.00    -0.206 F 
ATOM     78  C   UNL     1      -8.564  25.036  -5.759  1.00  0.00     0.060 A 
BRANCH  78  79
ATOM     79  S   UNL     1      -8.322  26.655  -6.519  1.00  0.00     0.124 S 
ATOM     80  O   UNL     1      -6.918  26.586  -6.912  1.00  0.00    -0.237 OA
ATOM     81  O   UNL     1      -9.288  26.632  -7.613  1.00  0.00    -0.237 OA
ATOM     82  O   UNL     1      -8.626  27.588  -5.439  1.00  0.00    -0.744 OA
ENDBRANCH  78  79
ENDBRANCH  57  71
BRANCH  58  83
ATOM     83  C   UNL     1     -10.515  13.689  -0.149  1.00  0.00     0.058 A 
ATOM     84  C   UNL     1     -11.460  12.767  -0.623  1.00  0.00     0.135 A 
ATOM     85  C   UNL     1      -9.822  13.365   1.028  1.00  0.00     0.135 A 
ATOM     86  F   UNL     1     -12.152  13.031  -1.742  1.00  0.00    -0.206 F 
ATOM     87  C   UNL     1     -11.737  11.588   0.061  1.00  0.00     0.059 A 
ATOM     88  C   UNL     1     -10.059  12.178   1.713  1.00  0.00     0.059 A 
ATOM     89  F   UNL     1      -8.893  14.203   1.514  1.00  0.00    -0.206 F 
ATOM     90  C   UNL     1     -11.033  11.304   1.232  1.00  0.00     0.060 A 
BRANCH  90  91
ATOM     91  S   UNL     1     -11.393   9.767   2.108  1.00  0.00     0.124 S 
ATOM     92  O   UNL     1     -12.693  10.065   2.698  1.00  0.00    -0.237 OA
ATOM     93  O   UNL     1     -11.391   8.789   1.025  1.00  0.00    -0.237 OA
ATOM     94  O   UNL     1     -10.284   9.651   3.050  1.00  0.00    -0.744 OA
ENDBRANCH  90  91
ENDBRANCH  58  83
BRANCH  70  95
ATOM     95  C   UNL     1     -14.494  19.298  -1.296  1.00  0.00     0.058 A 
ATOM     96  C   UNL     1     -14.891  19.577   0.021  1.00  0.00     0.135 A 
ATOM     97  C   UNL     1     -15.467  19.378  -2.305  1.00  0.00     0.135 A 
ATOM     98  F   UNL     1     -14.001  19.509   1.024  1.00  0.00    -0.206 F 
ATOM     99  C   UNL     1     -16.209  19.898   0.329  1.00  0.00     0.059 A 
ATOM    100  C   UNL     1     -16.784  19.727  -2.025  1.00  0.00     0.059 A 
ATOM    101  F   UNL     1     -15.139  19.131  -3.584  1.00  0.00    -0.206 F 
ATOM    102  C   UNL     1     -17.148  19.973  -0.702  1.00  0.00     0.060 A 
BRANCH 102 103
ATOM    103  S   UNL     1     -18.848  20.422  -0.293  1.00  0.00     0.124 S 
ATOM    104  O   UNL     1     -19.328  19.203   0.348  1.00  0.00    -0.237 OA
ATOM    105  O   UNL     1     -18.663  21.571   0.588  1.00  0.00    -0.237 OA
ATOM    106  O   UNL     1     -19.442  20.725  -1.592  1.00  0.00    -0.744 OA
ENDBRANCH 102 103
ENDBRANCH  70  95
ENDBRANCH  44  45
ENDBRANCH  36  39
ENDBRANCH  34  35
ENDBRANCH  33  34
ENDBRANCH   1  33
TORSDOF 19
