REMARK SMILES Cc1cccc(OC2(C(=O)NCCCNC(=O)c3ccc(-c4c5nc(c(-c6c(F)cc(S(=O)(=O)[O-])cc6F)c6ccc([nH]6)c(-c6c(F)cc(S(=O)(=O)[O-])cc6F)c6nc(c(-c7c(F)cc(S(=O)(=O)[O-])cc7F)c7ccc4[nH]7)C=C6)C=C5)cc3)CCN(C(=O)c3cnc[nH]c3=O)CC2)c1
REMARK SMILES IDX 13 1 12 2 11 3 9 4 10 5 8 7 84 8 97 9 85 10 96 11 86 12
REMARK SMILES IDX 87 13 88 14 7 15 6 16 1 17 2 18 3 19 98 20 4 21 5 22 89 23
REMARK SMILES IDX 90 24 94 25 91 26 93 27 95 28 92 29 14 31 15 32 16 33 17 35
REMARK SMILES IDX 18 36 19 37 83 38 20 39 82 40 21 41 22 42 23 43 76 44 24 45
REMARK SMILES IDX 81 46 75 47 77 48 25 49 80 50 74 51 73 52 26 54 60 55 39 56
REMARK SMILES IDX 59 57 40 58 43 59 58 60 78 61 41 62 42 63 57 65 79 66 44 67
REMARK SMILES IDX 27 68 28 69 37 70 29 71 30 72 36 73 38 74 31 75 32 76 33 77
REMARK SMILES IDX 34 78 35 79 61 80 62 81 71 82 63 83 64 84 70 85 72 86 65 87
REMARK SMILES IDX 66 88 67 89 68 90 69 91 45 92 46 93 55 94 47 95 48 96 54 97
REMARK SMILES IDX 56 98 49 99 50 100 51 101 52 102 53 103
REMARK H PARENT 11 6 93 30 15 34 77 53 43 64
REMARK Flexibility Score: inf
ROOT
ATOM      1  C   UNL     1       1.240   6.437  -1.824  1.00  0.00     0.042 C 
ENDROOT
BRANCH   1   2
ATOM      2  C   UNL     1      -0.268   6.575  -1.590  1.00  0.00     0.118 C 
BRANCH   2   3
ATOM      3  N   UNL     1      -1.039   5.366  -1.923  1.00  0.00    -0.353 N 
ATOM      4  C   UNL     1      -1.358   4.202  -1.281  1.00  0.00     0.264 C 
ATOM      5  O   UNL     1      -2.239   3.530  -1.840  1.00  0.00    -0.270 OA
ATOM      6  H   UNL     1      -1.419   5.405  -2.831  1.00  0.00     0.163 HD
BRANCH   4   7
ATOM      7  C   UNL     1      -0.734   3.711   0.071  1.00  0.00     0.190 C 
ATOM      8  C   UNL     1       0.764   3.994   0.146  1.00  0.00     0.080 C 
ATOM      9  C   UNL     1      -1.435   4.448   1.248  1.00  0.00     0.080 C 
ATOM     10  C   UNL     1       1.387   3.696   1.493  1.00  0.00     0.124 C 
ATOM     11  C   UNL     1      -0.758   4.119   2.592  1.00  0.00     0.124 C 
ATOM     12  N   UNL     1       0.664   4.439   2.504  1.00  0.00    -0.338 N 
ATOM     13  C   UNL     1       1.254   5.564   3.050  1.00  0.00     0.261 C 
ATOM     14  O   UNL     1       2.183   6.172   2.524  1.00  0.00    -0.269 OA
BRANCH   7  15
ATOM     15  O   UNL     1      -1.165   2.343   0.266  1.00  0.00    -0.477 OA
BRANCH  15  16
ATOM     16  C   UNL     1      -0.561   1.154   0.034  1.00  0.00     0.121 A 
ATOM     17  C   UNL     1       2.754  -0.705  -0.168  1.00  0.00     0.044 C 
ATOM     18  C   UNL     1       1.276  -0.441  -0.129  1.00  0.00    -0.047 A 
ATOM     19  C   UNL     1       0.377  -1.506  -0.052  1.00  0.00     0.003 A 
ATOM     20  C   UNL     1       0.790   0.879  -0.134  1.00  0.00     0.049 A 
ATOM     21  C   UNL     1      -0.987  -1.251   0.040  1.00  0.00     0.004 A 
ATOM     22  C   UNL     1      -1.444   0.068   0.097  1.00  0.00     0.046 A 
ENDBRANCH  15  16
ENDBRANCH   7  15
BRANCH  13  23
ATOM     23  C   UNL     1       0.785   5.954   4.385  1.00  0.00     0.123 A 
ATOM     24  C   UNL     1       0.202   7.143   4.593  1.00  0.00     0.132 A 
ATOM     25  C   UNL     1       1.037   5.102   5.560  1.00  0.00     0.263 A 
ATOM     26  N   UNL     1      -0.222   7.605   5.818  1.00  0.00    -0.246 NA
ATOM     27  N   UNL     1       0.634   5.632   6.752  1.00  0.00    -0.312 N 
ATOM     28  O   UNL     1       1.572   4.000   5.505  1.00  0.00    -0.269 OA
ATOM     29  C   UNL     1       0.021   6.847   6.833  1.00  0.00     0.199 A 
ATOM     30  H   UNL     1       0.790   5.121   7.579  1.00  0.00     0.171 HD
ENDBRANCH  13  23
ENDBRANCH   4   7
ENDBRANCH   2   3
ENDBRANCH   1   2
BRANCH   1  31
ATOM     31  C   UNL     1       1.836   7.324  -2.909  1.00  0.00     0.118 C 
BRANCH  31  32
ATOM     32  N   UNL     1       2.569   8.472  -2.369  1.00  0.00    -0.352 N 
ATOM     33  C   UNL     1       3.735   9.050  -2.841  1.00  0.00     0.251 C 
ATOM     34  H   UNL     1       2.182   8.887  -1.565  1.00  0.00     0.163 HD
ATOM     35  O   UNL     1       4.303   9.993  -2.304  1.00  0.00    -0.269 OA
BRANCH  33  36
ATOM     36  C   UNL     1       4.247   8.517  -4.114  1.00  0.00     0.039 A 
ATOM     37  C   UNL     1       3.765   9.137  -5.271  1.00  0.00     0.014 A 
ATOM     38  C   UNL     1       4.744   7.214  -4.121  1.00  0.00     0.014 A 
ATOM     39  C   UNL     1       3.542   8.357  -6.396  1.00  0.00     0.010 A 
ATOM     40  C   UNL     1       4.468   6.429  -5.228  1.00  0.00     0.010 A 
ATOM     41  C   UNL     1       3.780   6.982  -6.320  1.00  0.00    -0.014 A 
BRANCH  41  42
ATOM     42  C   UNL     1       3.164   6.052  -7.264  1.00  0.00     0.031 A 
ATOM     43  C   UNL     1       3.979   5.421  -8.319  1.00  0.00     0.074 A 
ATOM     44  C   UNL     1       1.837   5.791  -7.206  1.00  0.00     0.049 A 
ATOM     45  N   UNL     1       3.510   5.056  -9.464  1.00  0.00    -0.248 NA
ATOM     46  C   UNL     1       5.413   5.194  -8.176  1.00  0.00     0.031 C 
ATOM     47  C   UNL     1       1.106   4.785  -7.971  1.00  0.00     0.029 A 
ATOM     48  N   UNL     1       0.832   6.553  -6.586  1.00  0.00    -0.354 N 
ATOM     49  C   UNL     1       4.497   4.360 -10.115  1.00  0.00     0.074 A 
ATOM     50  C   UNL     1       5.678   4.507  -9.292  1.00  0.00     0.031 C 
ATOM     51  C   UNL     1      -0.184   5.144  -8.033  1.00  0.00     0.029 A 
ATOM     52  C   UNL     1      -0.318   6.443  -7.399  1.00  0.00     0.049 A 
ATOM     53  H   UNL     1       0.914   7.063  -5.748  1.00  0.00     0.167 HD
ATOM     54  C   UNL     1       4.205   3.640 -11.233  1.00  0.00     0.037 A 
ATOM     55  C   UNL     1      -0.880   7.544  -7.974  1.00  0.00     0.037 A 
ATOM     56  C   UNL     1       2.807   3.761 -11.622  1.00  0.00     0.049 A 
ATOM     57  C   UNL     1      -0.802   7.574  -9.486  1.00  0.00     0.074 A 
ATOM     58  C   UNL     1       1.669   3.002 -11.402  1.00  0.00     0.029 A 
ATOM     59  N   UNL     1       2.361   4.981 -12.095  1.00  0.00    -0.354 N 
ATOM     60  N   UNL     1      -0.287   6.622 -10.216  1.00  0.00    -0.248 NA
ATOM     61  C   UNL     1      -1.234   8.716 -10.297  1.00  0.00     0.031 C 
ATOM     62  C   UNL     1       0.532   3.805 -11.706  1.00  0.00     0.029 A 
ATOM     63  C   UNL     1       0.982   5.043 -12.125  1.00  0.00     0.049 A 
ATOM     64  H   UNL     1       2.954   5.715 -12.375  1.00  0.00     0.167 HD
ATOM     65  C   UNL     1      -0.243   7.024 -11.526  1.00  0.00     0.074 A 
ATOM     66  C   UNL     1      -0.874   8.329 -11.534  1.00  0.00     0.031 C 
ATOM     67  C   UNL     1       0.347   6.291 -12.512  1.00  0.00     0.037 A 
BRANCH  54  68
ATOM     68  C   UNL     1       5.182   2.653 -11.802  1.00  0.00     0.058 A 
ATOM     69  C   UNL     1       4.765   1.369 -12.197  1.00  0.00     0.135 A 
ATOM     70  C   UNL     1       6.564   2.907 -11.909  1.00  0.00     0.135 A 
ATOM     71  F   UNL     1       3.470   1.026 -12.196  1.00  0.00    -0.206 F 
ATOM     72  C   UNL     1       5.665   0.371 -12.567  1.00  0.00     0.059 A 
ATOM     73  C   UNL     1       7.490   1.909 -12.223  1.00  0.00     0.059 A 
ATOM     74  F   UNL     1       7.054   4.138 -11.691  1.00  0.00    -0.206 F 
ATOM     75  C   UNL     1       7.029   0.637 -12.539  1.00  0.00     0.060 A 
BRANCH  75  76
ATOM     76  S   UNL     1       8.180  -0.714 -12.861  1.00  0.00     0.124 S 
ATOM     77  O   UNL     1       7.645  -1.784 -12.023  1.00  0.00    -0.237 OA
ATOM     78  O   UNL     1       8.033  -0.899 -14.299  1.00  0.00    -0.237 OA
ATOM     79  O   UNL     1       9.465  -0.175 -12.422  1.00  0.00    -0.744 OA
ENDBRANCH  75  76
ENDBRANCH  54  68
BRANCH  55  80
ATOM     80  C   UNL     1      -0.943   8.713  -7.059  1.00  0.00     0.058 A 
ATOM     81  C   UNL     1      -1.852   8.652  -5.984  1.00  0.00     0.135 A 
ATOM     82  C   UNL     1       0.078   9.667  -6.984  1.00  0.00     0.135 A 
ATOM     83  F   UNL     1      -2.861   7.765  -6.009  1.00  0.00    -0.206 F 
ATOM     84  C   UNL     1      -1.684   9.410  -4.830  1.00  0.00     0.059 A 
ATOM     85  C   UNL     1       0.272  10.435  -5.831  1.00  0.00     0.059 A 
ATOM     86  F   UNL     1       0.960   9.788  -7.987  1.00  0.00    -0.206 F 
ATOM     87  C   UNL     1      -0.582  10.257  -4.740  1.00  0.00     0.060 A 
BRANCH  87  88
ATOM     88  S   UNL     1      -0.252  11.052  -3.148  1.00  0.00     0.124 S 
ATOM     89  O   UNL     1      -1.544  11.648  -2.830  1.00  0.00    -0.237 OA
ATOM     90  O   UNL     1       0.129   9.913  -2.314  1.00  0.00    -0.237 OA
ATOM     91  O   UNL     1       0.818  11.991  -3.463  1.00  0.00    -0.744 OA
ENDBRANCH  87  88
ENDBRANCH  55  80
BRANCH  67  92
ATOM     92  C   UNL     1       0.368   6.712 -13.951  1.00  0.00     0.058 A 
ATOM     93  C   UNL     1      -0.808   7.033 -14.645  1.00  0.00     0.135 A 
ATOM     94  C   UNL     1       1.554   6.655 -14.711  1.00  0.00     0.135 A 
ATOM     95  F   UNL     1      -1.987   7.083 -14.003  1.00  0.00    -0.206 F 
ATOM     96  C   UNL     1      -0.808   7.293 -16.016  1.00  0.00     0.059 A 
ATOM     97  C   UNL     1       1.571   6.866 -16.086  1.00  0.00     0.059 A 
ATOM     98  F   UNL     1       2.738   6.411 -14.129  1.00  0.00    -0.206 F 
ATOM     99  C   UNL     1       0.387   7.201 -16.729  1.00  0.00     0.060 A 
BRANCH  99 100
ATOM    100  S   UNL     1       0.392   7.492 -18.509  1.00  0.00     0.124 S 
ATOM    101  O   UNL     1      -0.921   7.004 -18.921  1.00  0.00    -0.237 OA
ATOM    102  O   UNL     1       0.572   8.940 -18.564  1.00  0.00    -0.237 OA
ATOM    103  O   UNL     1       1.523   6.697 -18.975  1.00  0.00    -0.744 OA
ENDBRANCH  99 100
ENDBRANCH  67  92
ENDBRANCH  41  42
ENDBRANCH  33  36
ENDBRANCH  31  32
ENDBRANCH   1  31
TORSDOF 16
