REMARK SMILES CC1(C)[C@H](C(=O)NCCCNC(=O)c2ccc(-c3c4nc(c(-c5c(F)cc(S(=O)(=O)[O-])cc5F)c5ccc([nH]5)c(-c5c(F)cc(S(=O)(=O)[O-])cc5F)c5nc(c(-c6c(F)cc(S(=O)(=O)[O-])cc6F)c6ccc3[nH]6)C=C5)C=C4)cc2)[C@H]1C(=O)Nc1cccc2[nH]ccc12
REMARK SMILES IDX 9 1 8 2 7 3 5 4 6 5 4 7 1 8 2 9 3 10 80 11 81 12 82 13 83 14
REMARK SMILES IDX 84 16 85 17 92 18 86 19 88 20 91 21 87 22 89 23 90 24 10 26
REMARK SMILES IDX 11 27 12 28 13 30 14 31 15 32 79 33 16 34 78 35 17 36 18 37
REMARK SMILES IDX 19 38 72 39 20 40 77 41 71 42 73 43 21 44 76 45 70 46 69 47
REMARK SMILES IDX 22 49 56 50 35 51 55 52 36 53 39 54 54 55 74 56 37 57 38 58
REMARK SMILES IDX 53 60 75 61 40 62 23 63 24 64 33 65 25 66 26 67 32 68 34 69
REMARK SMILES IDX 27 70 28 71 29 72 30 73 31 74 57 75 58 76 67 77 59 78 60 79
REMARK SMILES IDX 66 80 68 81 61 82 62 83 63 84 64 85 65 86 41 87 42 88 51 89
REMARK SMILES IDX 43 90 44 91 50 92 52 93 45 94 46 95 47 96 48 97 49 98
REMARK H PARENT 7 6 83 15 89 25 11 29 73 48 39 59
REMARK Flexibility Score: inf
ROOT
ATOM      1  C   UNL     1      -0.653   4.059  -0.648  1.00  0.00     0.042 C 
ENDROOT
BRANCH   1   2
ATOM      2  C   UNL     1      -1.821   3.181  -0.208  1.00  0.00     0.117 C 
BRANCH   2   3
ATOM      3  N   UNL     1      -2.163   2.200  -1.210  1.00  0.00    -0.356 N 
ATOM      4  C   UNL     1      -1.815   0.903  -1.440  1.00  0.00     0.224 C 
ATOM      5  O   UNL     1      -2.358   0.386  -2.423  1.00  0.00    -0.275 OA
ATOM      6  H   UNL     1      -2.792   2.549  -1.883  1.00  0.00     0.163 HD
BRANCH   4   7
ATOM      7  C   UNL     1      -0.890   0.038  -0.659  1.00  0.00     0.098 C 
ATOM      8  C   UNL     1       1.560  -0.461  -0.321  1.00  0.00     0.013 C 
ATOM      9  C   UNL     1       0.387   0.375   0.121  1.00  0.00    -0.011 C 
ATOM     10  C   UNL     1       0.906   1.646   0.733  1.00  0.00     0.013 C 
ATOM     11  C   UNL     1      -0.887  -0.149   0.813  1.00  0.00     0.098 C 
BRANCH  11  12
ATOM     12  C   UNL     1      -0.920  -1.380   1.660  1.00  0.00     0.228 C 
ATOM     13  O   UNL     1      -0.896  -1.213   2.881  1.00  0.00    -0.274 OA
ATOM     14  N   UNL     1      -1.251  -2.630   1.193  1.00  0.00    -0.325 N 
ATOM     15  H   UNL     1      -1.856  -3.146   1.772  1.00  0.00     0.169 HD
BRANCH  14  16
ATOM     16  C   UNL     1      -0.857  -3.276   0.019  1.00  0.00     0.050 A 
ATOM     17  C   UNL     1      -1.855  -3.803  -0.807  1.00  0.00     0.027 A 
ATOM     18  C   UNL     1       0.493  -3.566  -0.286  1.00  0.00     0.023 A 
ATOM     19  C   UNL     1      -1.529  -4.411  -2.018  1.00  0.00     0.004 A 
ATOM     20  C   UNL     1       0.790  -4.110  -1.538  1.00  0.00     0.047 A 
ATOM     21  C   UNL     1       1.732  -3.498   0.419  1.00  0.00     0.030 A 
ATOM     22  C   UNL     1      -0.200  -4.517  -2.437  1.00  0.00     0.027 A 
ATOM     23  N   UNL     1       2.162  -4.121  -1.663  1.00  0.00    -0.361 N 
ATOM     24  C   UNL     1       2.743  -3.800  -0.466  1.00  0.00     0.083 A 
ATOM     25  H   UNL     1       2.652  -4.329  -2.491  1.00  0.00     0.166 HD
ENDBRANCH  14  16
ENDBRANCH  11  12
ENDBRANCH   4   7
ENDBRANCH   2   3
ENDBRANCH   1   2
BRANCH   1  26
ATOM     26  C   UNL     1      -1.034   5.174  -1.613  1.00  0.00     0.118 C 
BRANCH  26  27
ATOM     27  N   UNL     1      -1.834   6.208  -0.975  1.00  0.00    -0.352 N 
ATOM     28  C   UNL     1      -1.525   7.508  -0.658  1.00  0.00     0.251 C 
ATOM     29  H   UNL     1      -2.746   5.930  -0.730  1.00  0.00     0.163 HD
ATOM     30  O   UNL     1      -2.273   8.129   0.094  1.00  0.00    -0.269 OA
BRANCH  28  31
ATOM     31  C   UNL     1      -0.311   8.165  -1.197  1.00  0.00     0.039 A 
ATOM     32  C   UNL     1       0.391   9.061  -0.383  1.00  0.00     0.014 A 
ATOM     33  C   UNL     1       0.107   7.958  -2.514  1.00  0.00     0.014 A 
ATOM     34  C   UNL     1       1.531   9.706  -0.872  1.00  0.00     0.010 A 
ATOM     35  C   UNL     1       1.291   8.533  -2.971  1.00  0.00     0.010 A 
ATOM     36  C   UNL     1       2.008   9.427  -2.162  1.00  0.00    -0.014 A 
BRANCH  36  37
ATOM     37  C   UNL     1       3.227  10.083  -2.704  1.00  0.00     0.031 A 
ATOM     38  C   UNL     1       3.123  10.971  -3.917  1.00  0.00     0.074 A 
ATOM     39  C   UNL     1       4.430   9.834  -2.147  1.00  0.00     0.049 A 
ATOM     40  N   UNL     1       4.075  11.538  -4.612  1.00  0.00    -0.248 NA
ATOM     41  C   UNL     1       1.769  11.232  -4.435  1.00  0.00     0.031 C 
ATOM     42  C   UNL     1       4.666   8.968  -0.990  1.00  0.00     0.029 A 
ATOM     43  N   UNL     1       5.684  10.277  -2.488  1.00  0.00    -0.354 N 
ATOM     44  C   UNL     1       3.439  12.207  -5.653  1.00  0.00     0.074 A 
ATOM     45  C   UNL     1       2.025  11.929  -5.532  1.00  0.00     0.031 C 
ATOM     46  C   UNL     1       5.979   8.957  -0.707  1.00  0.00     0.029 A 
ATOM     47  C   UNL     1       6.684   9.779  -1.685  1.00  0.00     0.049 A 
ATOM     48  H   UNL     1       5.852  10.893  -3.238  1.00  0.00     0.167 HD
ATOM     49  C   UNL     1       3.980  13.002  -6.606  1.00  0.00     0.037 A 
ATOM     50  C   UNL     1       8.019   9.956  -1.740  1.00  0.00     0.037 A 
ATOM     51  C   UNL     1       5.385  13.303  -6.699  1.00  0.00     0.049 A 
ATOM     52  C   UNL     1       8.597  10.837  -2.816  1.00  0.00     0.074 A 
ATOM     53  C   UNL     1       6.030  14.126  -7.606  1.00  0.00     0.029 A 
ATOM     54  N   UNL     1       6.359  12.802  -5.849  1.00  0.00    -0.354 N 
ATOM     55  N   UNL     1       7.975  11.489  -3.770  1.00  0.00    -0.248 NA
ATOM     56  C   UNL     1      10.056  11.011  -2.822  1.00  0.00     0.031 C 
ATOM     57  C   UNL     1       7.400  14.097  -7.324  1.00  0.00     0.029 A 
ATOM     58  C   UNL     1       7.601  13.292  -6.214  1.00  0.00     0.049 A 
ATOM     59  H   UNL     1       6.192  12.189  -5.097  1.00  0.00     0.167 HD
ATOM     60  C   UNL     1       8.963  12.179  -4.464  1.00  0.00     0.074 A 
ATOM     61  C   UNL     1      10.221  11.870  -3.818  1.00  0.00     0.031 C 
ATOM     62  C   UNL     1       8.840  12.995  -5.540  1.00  0.00     0.037 A 
BRANCH  49  63
ATOM     63  C   UNL     1       3.051  13.623  -7.614  1.00  0.00     0.058 A 
ATOM     64  C   UNL     1       2.160  14.647  -7.256  1.00  0.00     0.135 A 
ATOM     65  C   UNL     1       3.087  13.228  -8.961  1.00  0.00     0.135 A 
ATOM     66  F   UNL     1       2.072  15.051  -5.979  1.00  0.00    -0.206 F 
ATOM     67  C   UNL     1       1.323  15.245  -8.193  1.00  0.00     0.059 A 
ATOM     68  C   UNL     1       2.279  13.832  -9.921  1.00  0.00     0.059 A 
ATOM     69  F   UNL     1       3.918  12.252  -9.359  1.00  0.00    -0.206 F 
ATOM     70  C   UNL     1       1.392  14.832  -9.524  1.00  0.00     0.060 A 
BRANCH  70  71
ATOM     71  S   UNL     1       0.315  15.636 -10.730  1.00  0.00     0.124 S 
ATOM     72  O   UNL     1      -0.986  15.078 -10.375  1.00  0.00    -0.237 OA
ATOM     73  O   UNL     1       0.503  17.050 -10.422  1.00  0.00    -0.237 OA
ATOM     74  O   UNL     1       0.856  15.199 -12.014  1.00  0.00    -0.744 OA
ENDBRANCH  70  71
ENDBRANCH  49  63
BRANCH  50  75
ATOM     75  C   UNL     1       8.906   9.300  -0.741  1.00  0.00     0.058 A 
ATOM     76  C   UNL     1       9.592  10.058   0.221  1.00  0.00     0.135 A 
ATOM     77  C   UNL     1       9.102   7.911  -0.737  1.00  0.00     0.135 A 
ATOM     78  F   UNL     1       9.442  11.391   0.256  1.00  0.00    -0.206 F 
ATOM     79  C   UNL     1      10.466   9.468   1.128  1.00  0.00     0.059 A 
ATOM     80  C   UNL     1       9.950   7.294   0.178  1.00  0.00     0.059 A 
ATOM     81  F   UNL     1       8.455   7.137  -1.622  1.00  0.00    -0.206 F 
ATOM     82  C   UNL     1      10.641   8.084   1.096  1.00  0.00     0.060 A 
BRANCH  82  83
ATOM     83  S   UNL     1      11.768   7.324   2.285  1.00  0.00     0.124 S 
ATOM     84  O   UNL     1      13.067   7.698   1.737  1.00  0.00    -0.237 OA
ATOM     85  O   UNL     1      11.388   7.980   3.532  1.00  0.00    -0.237 OA
ATOM     86  O   UNL     1      11.433   5.905   2.204  1.00  0.00    -0.744 OA
ENDBRANCH  82  83
ENDBRANCH  50  75
BRANCH  62  87
ATOM     87  C   UNL     1      10.086  13.659  -6.055  1.00  0.00     0.058 A 
ATOM     88  C   UNL     1      11.060  12.948  -6.772  1.00  0.00     0.135 A 
ATOM     89  C   UNL     1      10.272  15.040  -5.883  1.00  0.00     0.135 A 
ATOM     90  F   UNL     1      10.932  11.625  -6.957  1.00  0.00    -0.206 F 
ATOM     91  C   UNL     1      12.186  13.582  -7.287  1.00  0.00     0.059 A 
ATOM     92  C   UNL     1      11.377  15.699  -6.413  1.00  0.00     0.059 A 
ATOM     93  F   UNL     1       9.363  15.767  -5.213  1.00  0.00    -0.206 F 
ATOM     94  C   UNL     1      12.333  14.959  -7.106  1.00  0.00     0.060 A 
BRANCH  94  95
ATOM     95  S   UNL     1      13.775  15.777  -7.821  1.00  0.00     0.124 S 
ATOM     96  O   UNL     1      14.836  15.345  -6.917  1.00  0.00    -0.237 OA
ATOM     97  O   UNL     1      13.819  15.211  -9.166  1.00  0.00    -0.237 OA
ATOM     98  O   UNL     1      13.430  17.194  -7.755  1.00  0.00    -0.744 OA
ENDBRANCH  94  95
ENDBRANCH  62  87
ENDBRANCH  36  37
ENDBRANCH  28  31
ENDBRANCH  26  27
ENDBRANCH   1  26
TORSDOF 15
