REMARK SMILES COc1ccc2ncc(C(=O)NCCCNC(=O)c3ccc(-c4c5nc(c(-c6c(F)cc(S(=O)(=O)[O-])cc6F)c6ccc([nH]6)c(-c6c(F)cc(S(=O)(=O)[O-])cc6F)c6nc(c(-c7c(F)cc(S(=O)(=O)[O-])cc7F)c7ccc4[nH]7)C=C6)C=C5)cc3)c(Nc3ccccc3C)c2c1
REMARK SMILES IDX 14 1 13 2 12 3 10 4 11 5 9 7 3 8 4 9 95 10 5 11 94 12 6 13
REMARK SMILES IDX 85 14 7 15 8 16 2 17 1 18 86 19 87 21 88 22 92 23 89 24
REMARK SMILES IDX 91 25 93 26 90 27 15 28 16 29 17 30 18 32 19 33 20 34 84 35
REMARK SMILES IDX 21 36 83 37 22 38 23 39 24 40 77 41 25 42 82 43 76 44 78 45
REMARK SMILES IDX 26 46 81 47 75 48 74 49 27 51 61 52 40 53 60 54 41 55 44 56
REMARK SMILES IDX 59 57 79 58 42 59 43 60 58 62 80 63 45 64 28 65 29 66 38 67
REMARK SMILES IDX 30 68 31 69 37 70 39 71 32 72 33 73 34 74 35 75 36 76 62 77
REMARK SMILES IDX 63 78 72 79 64 80 65 81 71 82 73 83 66 84 67 85 68 86 69 87
REMARK SMILES IDX 70 88 46 89 47 90 56 91 48 92 49 93 55 94 57 95 50 96 51 97
REMARK SMILES IDX 52 98 53 99 54 100
REMARK H PARENT 12 6 86 20 16 31 78 50 44 61
REMARK Flexibility Score: inf
ROOT
ATOM      1  C   UNL     1       0.711   9.348  -5.713  1.00  0.00     0.042 C 
ENDROOT
BRANCH   1   2
ATOM      2  C   UNL     1       0.008   9.141  -4.379  1.00  0.00     0.118 C 
BRANCH   2   3
ATOM      3  N   UNL     1      -1.030   8.126  -4.461  1.00  0.00    -0.352 N 
ATOM      4  C   UNL     1      -1.214   7.164  -3.494  1.00  0.00     0.254 C 
ATOM      5  O   UNL     1      -2.141   7.288  -2.699  1.00  0.00    -0.269 OA
ATOM      6  H   UNL     1      -1.628   8.128  -5.243  1.00  0.00     0.163 HD
BRANCH   4   7
ATOM      7  C   UNL     1      -0.319   5.978  -3.440  1.00  0.00     0.082 A 
ATOM      8  C   UNL     1       0.657   1.496  -1.738  1.00  0.00     0.119 A 
ATOM      9  C   UNL     1       1.996   1.853  -1.692  1.00  0.00     0.048 A 
ATOM     10  C   UNL     1      -0.271   2.382  -2.290  1.00  0.00     0.059 A 
ATOM     11  C   UNL     1       2.388   3.103  -2.171  1.00  0.00     0.033 A 
ATOM     12  C   UNL     1       0.102   3.683  -2.718  1.00  0.00     0.028 A 
ATOM     13  C   UNL     1       1.473   4.019  -2.666  1.00  0.00     0.073 A 
ATOM     14  C   UNL     1      -0.817   4.689  -3.164  1.00  0.00     0.063 A 
ATOM     15  N   UNL     1       1.946   5.202  -3.059  1.00  0.00    -0.255 NA
ATOM     16  C   UNL     1       1.054   6.150  -3.423  1.00  0.00     0.127 A 
BRANCH   8  17
ATOM     17  O   UNL     1       0.156   0.305  -1.291  1.00  0.00    -0.497 OA
ATOM     18  C   UNL     1       0.804  -0.211  -0.131  1.00  0.00     0.278 C 
ENDBRANCH   8  17
BRANCH  14  19
ATOM     19  N   UNL     1      -2.183   4.326  -3.338  1.00  0.00    -0.354 N 
ATOM     20  H   UNL     1      -2.470   3.566  -2.781  1.00  0.00     0.167 HD
BRANCH  19  21
ATOM     21  C   UNL     1      -3.202   4.853  -4.160  1.00  0.00     0.041 A 
ATOM     22  C   UNL     1      -4.438   5.131  -3.543  1.00  0.00     0.026 A 
ATOM     23  C   UNL     1      -3.042   5.194  -5.518  1.00  0.00    -0.028 A 
ATOM     24  C   UNL     1      -5.478   5.757  -4.231  1.00  0.00     0.002 A 
ATOM     25  C   UNL     1      -4.095   5.842  -6.195  1.00  0.00     0.005 A 
ATOM     26  C   UNL     1      -1.801   4.891  -6.311  1.00  0.00     0.046 C 
ATOM     27  C   UNL     1      -5.302   6.123  -5.557  1.00  0.00     0.000 A 
ENDBRANCH  19  21
ENDBRANCH  14  19
ENDBRANCH   4   7
ENDBRANCH   2   3
ENDBRANCH   1   2
BRANCH   1  28
ATOM     28  C   UNL     1      -0.133  10.134  -6.714  1.00  0.00     0.118 C 
BRANCH  28  29
ATOM     29  N   UNL     1      -0.357  11.505  -6.270  1.00  0.00    -0.352 N 
ATOM     30  C   UNL     1       0.136  12.689  -6.758  1.00  0.00     0.251 C 
ATOM     31  H   UNL     1      -0.959  11.596  -5.497  1.00  0.00     0.163 HD
ATOM     32  O   UNL     1       0.063  13.700  -6.067  1.00  0.00    -0.269 OA
BRANCH  30  33
ATOM     33  C   UNL     1       0.742  12.757  -8.105  1.00  0.00     0.039 A 
ATOM     34  C   UNL     1       1.865  13.567  -8.304  1.00  0.00     0.014 A 
ATOM     35  C   UNL     1       0.163  12.087  -9.187  1.00  0.00     0.014 A 
ATOM     36  C   UNL     1       2.434  13.667  -9.576  1.00  0.00     0.010 A 
ATOM     37  C   UNL     1       0.767  12.137 -10.440  1.00  0.00     0.010 A 
ATOM     38  C   UNL     1       1.902  12.935 -10.649  1.00  0.00    -0.014 A 
BRANCH  38  39
ATOM     39  C   UNL     1       2.501  13.002 -12.006  1.00  0.00     0.031 A 
ATOM     40  C   UNL     1       1.717  13.598 -13.144  1.00  0.00     0.074 A 
ATOM     41  C   UNL     1       3.713  12.460 -12.226  1.00  0.00     0.049 A 
ATOM     42  N   UNL     1       2.012  13.642 -14.417  1.00  0.00    -0.248 NA
ATOM     43  C   UNL     1       0.416  14.200 -12.808  1.00  0.00     0.031 C 
ATOM     44  C   UNL     1       4.551  11.818 -11.210  1.00  0.00     0.029 A 
ATOM     45  N   UNL     1       4.447  12.348 -13.380  1.00  0.00    -0.354 N 
ATOM     46  C   UNL     1       0.927  14.249 -15.037  1.00  0.00     0.074 A 
ATOM     47  C   UNL     1      -0.049  14.525 -14.005  1.00  0.00     0.031 C 
ATOM     48  C   UNL     1       5.688  11.392 -11.784  1.00  0.00     0.029 A 
ATOM     49  C   UNL     1       5.647  11.700 -13.210  1.00  0.00     0.049 A 
ATOM     50  H   UNL     1       4.142  12.699 -14.248  1.00  0.00     0.167 HD
ATOM     51  C   UNL     1       0.766  14.563 -16.345  1.00  0.00     0.037 A 
ATOM     52  C   UNL     1       6.601  11.383 -14.105  1.00  0.00     0.037 A 
ATOM     53  C   UNL     1       1.758  14.322 -17.360  1.00  0.00     0.049 A 
ATOM     54  C   UNL     1       6.414  11.770 -15.545  1.00  0.00     0.074 A 
ATOM     55  C   UNL     1       1.713  14.648 -18.704  1.00  0.00     0.029 A 
ATOM     56  N   UNL     1       2.980  13.704 -17.139  1.00  0.00    -0.354 N 
ATOM     57  N   UNL     1       5.395  12.374 -16.109  1.00  0.00    -0.248 NA
ATOM     58  C   UNL     1       7.506  11.437 -16.471  1.00  0.00     0.031 C 
ATOM     59  C   UNL     1       2.901  14.208 -19.301  1.00  0.00     0.029 A 
ATOM     60  C   UNL     1       3.696  13.635 -18.322  1.00  0.00     0.049 A 
ATOM     61  H   UNL     1       3.291  13.364 -16.269  1.00  0.00     0.167 HD
ATOM     62  C   UNL     1       5.732  12.514 -17.450  1.00  0.00     0.074 A 
ATOM     63  C   UNL     1       7.052  11.938 -17.612  1.00  0.00     0.031 C 
ATOM     64  C   UNL     1       5.014  13.067 -18.457  1.00  0.00     0.037 A 
BRANCH  51  65
ATOM     65  C   UNL     1      -0.529  15.210 -16.748  1.00  0.00     0.058 A 
ATOM     66  C   UNL     1      -0.818  16.543 -16.414  1.00  0.00     0.135 A 
ATOM     67  C   UNL     1      -1.484  14.499 -17.492  1.00  0.00     0.135 A 
ATOM     68  F   UNL     1       0.054  17.262 -15.690  1.00  0.00    -0.206 F 
ATOM     69  C   UNL     1      -2.022  17.139 -16.776  1.00  0.00     0.059 A 
ATOM     70  C   UNL     1      -2.686  15.082 -17.885  1.00  0.00     0.059 A 
ATOM     71  F   UNL     1      -1.258  13.222 -17.837  1.00  0.00    -0.206 F 
ATOM     72  C   UNL     1      -2.952  16.398 -17.506  1.00  0.00     0.060 A 
BRANCH  72  73
ATOM     73  S   UNL     1      -4.514  17.179 -17.964  1.00  0.00     0.124 S 
ATOM     74  O   UNL     1      -5.250  17.116 -16.705  1.00  0.00    -0.237 OA
ATOM     75  O   UNL     1      -4.091  18.511 -18.383  1.00  0.00    -0.237 OA
ATOM     76  O   UNL     1      -5.021  16.322 -19.032  1.00  0.00    -0.744 OA
ENDBRANCH  72  73
ENDBRANCH  51  65
BRANCH  52  77
ATOM     77  C   UNL     1       7.833  10.684 -13.657  1.00  0.00     0.058 A 
ATOM     78  C   UNL     1       9.052  11.371 -13.566  1.00  0.00     0.135 A 
ATOM     79  C   UNL     1       7.813   9.330 -13.292  1.00  0.00     0.135 A 
ATOM     80  F   UNL     1       9.118  12.666 -13.908  1.00  0.00    -0.206 F 
ATOM     81  C   UNL     1      10.214  10.737 -13.140  1.00  0.00     0.059 A 
ATOM     82  C   UNL     1       8.958   8.679 -12.845  1.00  0.00     0.059 A 
ATOM     83  F   UNL     1       6.666   8.635 -13.345  1.00  0.00    -0.206 F 
ATOM     84  C   UNL     1      10.157   9.389 -12.781  1.00  0.00     0.060 A 
BRANCH  84  85
ATOM     85  S   UNL     1      11.659   8.586 -12.179  1.00  0.00     0.124 S 
ATOM     86  O   UNL     1      12.381   8.346 -13.422  1.00  0.00    -0.237 OA
ATOM     87  O   UNL     1      12.223   9.604 -11.298  1.00  0.00    -0.237 OA
ATOM     88  O   UNL     1      11.150   7.396 -11.502  1.00  0.00    -0.744 OA
ENDBRANCH  84  85
ENDBRANCH  52  77
BRANCH  64  89
ATOM     89  C   UNL     1       5.652  13.105 -19.815  1.00  0.00     0.058 A 
ATOM     90  C   UNL     1       5.728  11.960 -20.622  1.00  0.00     0.135 A 
ATOM     91  C   UNL     1       6.150  14.311 -20.332  1.00  0.00     0.135 A 
ATOM     92  F   UNL     1       5.271  10.782 -20.167  1.00  0.00    -0.206 F 
ATOM     93  C   UNL     1       6.292  12.005 -21.892  1.00  0.00     0.059 A 
ATOM     94  C   UNL     1       6.701  14.383 -21.607  1.00  0.00     0.059 A 
ATOM     95  F   UNL     1       6.093  15.435 -19.601  1.00  0.00    -0.206 F 
ATOM     96  C   UNL     1       6.777  13.222 -22.376  1.00  0.00     0.060 A 
BRANCH  96  97
ATOM     97  S   UNL     1       7.475  13.280 -24.040  1.00  0.00     0.124 S 
ATOM     98  O   UNL     1       8.803  12.716 -23.820  1.00  0.00    -0.237 OA
ATOM     99  O   UNL     1       6.550  12.446 -24.800  1.00  0.00    -0.237 OA
ATOM    100  O   UNL     1       7.442  14.702 -24.370  1.00  0.00    -0.744 OA
ENDBRANCH  96  97
ENDBRANCH  64  89
ENDBRANCH  38  39
ENDBRANCH  30  33
ENDBRANCH  28  29
ENDBRANCH   1  28
TORSDOF 16
