REMARK SMILES Cc1cc(F)ccc1S(=O)(=O)N1CCO[C@H](CC(=O)NCCCNC(=O)c2ccc(-c3c4nc(c(-c5c(F)cc(S(=O)(=O)[O-])cc5F)c5ccc([nH]5)c(-c5c(F)cc(S(=O)(=O)[O-])cc5F)c5nc(c(-c6c(F)cc(S(=O)(=O)[O-])cc6F)c6ccc3[nH]6)C=C5)C=C4)cc2)C1
REMARK SMILES IDX 22 1 21 2 20 3 18 4 19 5 17 7 16 8 12 9 13 10 93 11 14 12
REMARK SMILES IDX 15 13 9 14 10 15 11 16 8 17 1 18 2 19 3 20 4 21 7 22 5 23
REMARK SMILES IDX 6 24 23 25 24 26 25 27 26 29 27 30 28 31 92 32 29 33 91 34
REMARK SMILES IDX 30 35 31 36 32 37 85 38 33 39 90 40 84 41 86 42 34 43 89 44
REMARK SMILES IDX 83 45 82 46 35 48 69 49 48 50 68 51 49 52 52 53 67 54 87 55
REMARK SMILES IDX 50 56 51 57 66 59 88 60 53 61 36 62 37 63 46 64 38 65 39 66
REMARK SMILES IDX 45 67 47 68 40 69 41 70 42 71 43 72 44 73 70 74 71 75 80 76
REMARK SMILES IDX 72 77 73 78 79 79 81 80 74 81 75 82 76 83 77 84 78 85 54 86
REMARK SMILES IDX 55 87 64 88 56 89 57 90 63 91 65 92 58 93 59 94 60 95 61 96
REMARK SMILES IDX 62 97
REMARK H PARENT 20 6 24 28 86 47 52 58
REMARK Flexibility Score: inf
ROOT
ATOM      1  C   UNL     1       4.795   4.560  -3.058  1.00  0.00     0.042 C 
ENDROOT
BRANCH   1   2
ATOM      2  C   UNL     1       3.372   4.071  -2.832  1.00  0.00     0.117 C 
BRANCH   2   3
ATOM      3  N   UNL     1       2.993   3.091  -3.832  1.00  0.00    -0.356 N 
ATOM      4  C   UNL     1       3.031   1.736  -3.731  1.00  0.00     0.222 C 
ATOM      5  O   UNL     1       2.890   1.046  -4.739  1.00  0.00    -0.275 OA
ATOM      6  H   UNL     1       2.669   3.452  -4.689  1.00  0.00     0.163 HD
BRANCH   4   7
ATOM      7  C   UNL     1       3.192   1.116  -2.373  1.00  0.00     0.133 C 
BRANCH   7   8
ATOM      8  C   UNL     1       4.632   0.673  -2.096  1.00  0.00     0.142 C 
ATOM      9  N   UNL     1       3.942  -0.534  -0.119  1.00  0.00    -0.193 NA
ATOM     10  C   UNL     1       4.811   0.255   0.780  1.00  0.00     0.131 C 
ATOM     11  C   UNL     1       4.595  -0.712  -1.439  1.00  0.00     0.135 C 
ATOM     12  C   UNL     1       5.126   1.617   0.123  1.00  0.00     0.177 C 
ATOM     13  O   UNL     1       5.399   1.597  -1.289  1.00  0.00    -0.375 OA
BRANCH   9  14
ATOM     14  S   UNL     1       2.891  -1.687   0.489  1.00  0.00     0.243 S 
ATOM     15  O   UNL     1       3.055  -1.762   1.923  1.00  0.00    -0.207 OA
ATOM     16  O   UNL     1       3.026  -2.864  -0.348  1.00  0.00    -0.207 OA
BRANCH  14  17
ATOM     17  C   UNL     1       1.207  -1.071   0.224  1.00  0.00     0.085 A 
ATOM     18  C   UNL     1       1.628   1.359   0.992  1.00  0.00     0.046 C 
ATOM     19  C   UNL     1       0.774   0.251   0.470  1.00  0.00    -0.028 A 
ATOM     20  C   UNL     1      -0.592   0.561   0.293  1.00  0.00     0.044 A 
ATOM     21  C   UNL     1      -1.505  -0.415  -0.079  1.00  0.00     0.123 A 
ATOM     22  C   UNL     1       0.260  -2.043  -0.162  1.00  0.00     0.025 A 
ATOM     23  F   UNL     1      -2.800  -0.095  -0.197  1.00  0.00    -0.207 F 
ATOM     24  C   UNL     1      -1.092  -1.717  -0.301  1.00  0.00     0.040 A 
ENDBRANCH  14  17
ENDBRANCH   9  14
ENDBRANCH   7   8
ENDBRANCH   4   7
ENDBRANCH   2   3
ENDBRANCH   1   2
BRANCH   1  25
ATOM     25  C   UNL     1       4.969   5.297  -4.378  1.00  0.00     0.118 C 
BRANCH  25  26
ATOM     26  N   UNL     1       4.151   6.499  -4.451  1.00  0.00    -0.352 N 
ATOM     27  C   UNL     1       4.517   7.777  -4.785  1.00  0.00     0.251 C 
ATOM     28  H   UNL     1       3.199   6.377  -4.228  1.00  0.00     0.163 HD
ATOM     29  O   UNL     1       3.732   8.702  -4.602  1.00  0.00    -0.269 OA
BRANCH  27  30
ATOM     30  C   UNL     1       5.859   8.032  -5.348  1.00  0.00     0.039 A 
ATOM     31  C   UNL     1       6.582   9.136  -4.893  1.00  0.00     0.014 A 
ATOM     32  C   UNL     1       6.396   7.189  -6.326  1.00  0.00     0.014 A 
ATOM     33  C   UNL     1       7.865   9.371  -5.389  1.00  0.00     0.010 A 
ATOM     34  C   UNL     1       7.703   7.380  -6.760  1.00  0.00     0.010 A 
ATOM     35  C   UNL     1       8.445   8.480  -6.307  1.00  0.00    -0.014 A 
BRANCH  35  36
ATOM     36  C   UNL     1       9.815   8.699  -6.832  1.00  0.00     0.031 A 
ATOM     37  C   UNL     1      10.018   8.964  -8.300  1.00  0.00     0.074 A 
ATOM     38  C   UNL     1      10.873   8.599  -6.003  1.00  0.00     0.049 A 
ATOM     39  N   UNL     1      11.135   9.100  -8.967  1.00  0.00    -0.248 NA
ATOM     40  C   UNL     1       8.808   9.061  -9.134  1.00  0.00     0.031 C 
ATOM     41  C   UNL     1      10.803   8.298  -4.571  1.00  0.00     0.029 A 
ATOM     42  N   UNL     1      12.217   8.728  -6.248  1.00  0.00    -0.354 N 
ATOM     43  C   UNL     1      10.764   9.273 -10.296  1.00  0.00     0.074 A 
ATOM     44  C   UNL     1       9.322   9.181 -10.350  1.00  0.00     0.031 C 
ATOM     45  C   UNL     1      12.046   8.285  -4.062  1.00  0.00     0.029 A 
ATOM     46  C   UNL     1      13.002   8.539  -5.135  1.00  0.00     0.049 A 
ATOM     47  H   UNL     1      12.584   8.935  -7.137  1.00  0.00     0.167 HD
ATOM     48  C   UNL     1      11.554   9.510 -11.369  1.00  0.00     0.037 A 
ATOM     49  C   UNL     1      14.342   8.562  -4.998  1.00  0.00     0.037 A 
ATOM     50  C   UNL     1      12.984   9.649 -11.299  1.00  0.00     0.049 A 
ATOM     51  C   UNL     1      15.194   8.851  -6.206  1.00  0.00     0.074 A 
ATOM     52  C   UNL     1      13.869   9.959 -12.318  1.00  0.00     0.029 A 
ATOM     53  N   UNL     1      13.739   9.492 -10.147  1.00  0.00    -0.354 N 
ATOM     54  N   UNL     1      14.822   9.077  -7.443  1.00  0.00    -0.248 NA
ATOM     55  C   UNL     1      16.648   8.899  -5.998  1.00  0.00     0.031 C 
ATOM     56  C   UNL     1      15.163   9.954 -11.788  1.00  0.00     0.029 A 
ATOM     57  C   UNL     1      15.080   9.687 -10.431  1.00  0.00     0.049 A 
ATOM     58  H   UNL     1      13.376   9.275  -9.258  1.00  0.00     0.167 HD
ATOM     59  C   UNL     1      15.991   9.329  -8.152  1.00  0.00     0.074 A 
ATOM     60  C   UNL     1      17.082   9.236  -7.204  1.00  0.00     0.031 C 
ATOM     61  C   UNL     1      16.149   9.615  -9.468  1.00  0.00     0.037 A 
BRANCH  48  62
ATOM     62  C   UNL     1      10.894   9.651 -12.713  1.00  0.00     0.058 A 
ATOM     63  C   UNL     1      10.129  10.781 -13.043  1.00  0.00     0.135 A 
ATOM     64  C   UNL     1      11.081   8.674 -13.704  1.00  0.00     0.135 A 
ATOM     65  F   UNL     1       9.903  11.736 -12.127  1.00  0.00    -0.206 F 
ATOM     66  C   UNL     1       9.560  10.931 -14.303  1.00  0.00     0.059 A 
ATOM     67  C   UNL     1      10.543   8.816 -14.980  1.00  0.00     0.059 A 
ATOM     68  F   UNL     1      11.800   7.572 -13.440  1.00  0.00    -0.206 F 
ATOM     69  C   UNL     1       9.778   9.945 -15.268  1.00  0.00     0.060 A 
BRANCH  69  70
ATOM     70  S   UNL     1       9.063  10.173 -16.909  1.00  0.00     0.124 S 
ATOM     71  O   UNL     1       7.649   9.922 -16.648  1.00  0.00    -0.237 OA
ATOM     72  O   UNL     1       9.415  11.556 -17.213  1.00  0.00    -0.237 OA
ATOM     73  O   UNL     1       9.740   9.165 -17.718  1.00  0.00    -0.744 OA
ENDBRANCH  69  70
ENDBRANCH  48  62
BRANCH  49  74
ATOM     74  C   UNL     1      14.967   8.326  -3.670  1.00  0.00     0.058 A 
ATOM     75  C   UNL     1      15.613   9.364  -2.982  1.00  0.00     0.135 A 
ATOM     76  C   UNL     1      14.949   7.057  -3.070  1.00  0.00     0.135 A 
ATOM     77  F   UNL     1      15.659  10.594  -3.515  1.00  0.00    -0.206 F 
ATOM     78  C   UNL     1      16.250   9.147  -1.764  1.00  0.00     0.059 A 
ATOM     79  C   UNL     1      15.555   6.822  -1.839  1.00  0.00     0.059 A 
ATOM     80  F   UNL     1      14.325   6.035  -3.675  1.00  0.00    -0.206 F 
ATOM     81  C   UNL     1      16.218   7.870  -1.203  1.00  0.00     0.060 A 
BRANCH  81  82
ATOM     82  S   UNL     1      17.034   7.600   0.386  1.00  0.00     0.124 S 
ATOM     83  O   UNL     1      18.439   7.590  -0.005  1.00  0.00    -0.237 OA
ATOM     84  O   UNL     1      16.593   8.756   1.159  1.00  0.00    -0.237 OA
ATOM     85  O   UNL     1      16.490   6.318   0.826  1.00  0.00    -0.744 OA
ENDBRANCH  81  82
ENDBRANCH  49  74
BRANCH  61  86
ATOM     86  C   UNL     1      17.542   9.904  -9.952  1.00  0.00     0.058 A 
ATOM     87  C   UNL     1      18.499   8.889 -10.102  1.00  0.00     0.135 A 
ATOM     88  C   UNL     1      17.904  11.210 -10.321  1.00  0.00     0.135 A 
ATOM     89  F   UNL     1      18.204   7.626  -9.758  1.00  0.00    -0.206 F 
ATOM     90  C   UNL     1      19.776   9.164 -10.579  1.00  0.00     0.059 A 
ATOM     91  C   UNL     1      19.166  11.502 -10.826  1.00  0.00     0.059 A 
ATOM     92  F   UNL     1      17.020  12.214 -10.207  1.00  0.00    -0.206 F 
ATOM     93  C   UNL     1      20.100  10.474 -10.939  1.00  0.00     0.060 A 
BRANCH  93  94
ATOM     94  S   UNL     1      21.750  10.812 -11.588  1.00  0.00     0.124 S 
ATOM     95  O   UNL     1      22.559  10.760 -10.374  1.00  0.00    -0.237 OA
ATOM     96  O   UNL     1      21.948   9.714 -12.529  1.00  0.00    -0.237 OA
ATOM     97  O   UNL     1      21.612  12.132 -12.195  1.00  0.00    -0.744 OA
ENDBRANCH  93  94
ENDBRANCH  61  86
ENDBRANCH  35  36
ENDBRANCH  27  30
ENDBRANCH  25  26
ENDBRANCH   1  25
TORSDOF 16
