REMARK SMILES CCCCCCNC(=O)Oc1cccc(-c2ccc([C@@H](C)C(=O)NCCCNC(=O)c3ccc(-c4c5nc(c(-c6c(F)cc(S(=O)(=O)[O-])cc6F)c6ccc([nH]6)c(-c6c(F)cc(S(=O)(=O)[O-])cc6F)c6nc(c(-c7c(F)cc(S(=O)(=O)[O-])cc7F)c7ccc4[nH]7)C=C6)C=C5)cc3)cc2[N+](=O)[O-])c1
REMARK SMILES IDX 20 1 21 2 19 3 16 4 17 5 98 6 18 7 97 8 15 9 11 10 12 11
REMARK SMILES IDX 102 12 13 13 14 14 10 15 8 16 7 17 9 19 6 20 5 21 4 22 3 23
REMARK SMILES IDX 2 24 1 25 99 26 100 27 101 28 22 29 23 30 24 31 25 33 26 34
REMARK SMILES IDX 27 35 28 36 29 37 30 39 31 40 32 41 96 42 33 43 95 44 34 45
REMARK SMILES IDX 35 46 36 47 89 48 37 49 94 50 88 51 90 52 38 53 93 54 87 55
REMARK SMILES IDX 86 56 39 58 73 59 52 60 72 61 53 62 56 63 71 64 91 65 54 66
REMARK SMILES IDX 55 67 70 69 92 70 57 71 40 72 41 73 50 74 42 75 43 76 49 77
REMARK SMILES IDX 51 78 44 79 45 80 46 81 47 82 48 83 74 84 75 85 84 86 76 87
REMARK SMILES IDX 77 88 83 89 85 90 78 91 79 92 80 93 81 94 82 95 58 96 59 97
REMARK SMILES IDX 68 98 60 99 61 100 67 101 69 102 62 103 63 104 64 105 65 106
REMARK SMILES IDX 66 107
REMARK H PARENT 7 18 24 32 28 38 90 57 56 68
REMARK Flexibility Score: inf
ROOT
ATOM      1  C   UNL     1      -5.000 -11.130   7.733  1.00  0.00     0.105 C 
ATOM      2  C   UNL     1      -6.300 -11.752   8.240  1.00  0.00     0.023 C 
ENDROOT
BRANCH   1   3
ATOM      3  C   UNL     1      -5.127 -10.353   6.431  1.00  0.00    -0.029 A 
ATOM      4  C   UNL     1      -5.230  -8.884   3.954  1.00  0.00     0.060 A 
ATOM      5  C   UNL     1      -5.690 -10.209   4.065  1.00  0.00     0.016 A 
ATOM      6  C   UNL     1      -4.769  -8.296   5.147  1.00  0.00     0.277 A 
ATOM      7  C   UNL     1      -5.689 -10.903   5.280  1.00  0.00     0.005 A 
ATOM      8  C   UNL     1      -4.677  -9.026   6.355  1.00  0.00     0.090 A 
BRANCH   4   9
ATOM      9  C   UNL     1      -5.258  -8.245   2.618  1.00  0.00    -0.008 A 
ATOM     10  C   UNL     1      -4.235  -6.930   0.850  1.00  0.00     0.133 A 
ATOM     11  C   UNL     1      -5.357  -7.077   0.040  1.00  0.00     0.047 A 
ATOM     12  C   UNL     1      -4.167  -7.517   2.116  1.00  0.00     0.056 A 
ATOM     13  C   UNL     1      -6.434  -7.819   0.505  1.00  0.00     0.004 A 
ATOM     14  C   UNL     1      -6.390  -8.380   1.784  1.00  0.00     0.009 A 
BRANCH  10  15
ATOM     15  O   UNL     1      -3.259  -6.026   0.399  1.00  0.00    -0.410 OA
BRANCH  15  16
ATOM     16  C   UNL     1      -1.911  -6.313   0.533  1.00  0.00     0.412 C 
ATOM     17  N   UNL     1      -1.115  -5.234   0.259  1.00  0.00    -0.321 N 
ATOM     18  H   UNL     1      -0.143  -5.390   0.249  1.00  0.00     0.167 HD
ATOM     19  O   UNL     1      -1.432  -7.388   0.870  1.00  0.00    -0.224 OA
BRANCH  17  20
ATOM     20  C   UNL     1      -1.565  -3.884  -0.018  1.00  0.00     0.119 C 
BRANCH  20  21
ATOM     21  C   UNL     1      -1.005  -2.884   0.995  1.00  0.00     0.021 C 
BRANCH  21  22
ATOM     22  C   UNL     1       0.523  -2.747   0.983  1.00  0.00     0.002 C 
BRANCH  22  23
ATOM     23  C   UNL     1       1.132  -2.327  -0.359  1.00  0.00    -0.000 C 
BRANCH  23  24
ATOM     24  C   UNL     1       0.644  -0.983  -0.905  1.00  0.00    -0.003 C 
ATOM     25  C   UNL     1       1.010   0.194  -0.014  1.00  0.00     0.004 C 
ENDBRANCH  23  24
ENDBRANCH  22  23
ENDBRANCH  21  22
ENDBRANCH  20  21
ENDBRANCH  17  20
ENDBRANCH  15  16
ENDBRANCH  10  15
ENDBRANCH   4   9
BRANCH   6  26
ATOM     26  N   UNL     1      -4.450  -6.871   5.229  1.00  0.00     0.063 N 
ATOM     27  O   UNL     1      -3.456  -6.550   5.897  1.00  0.00    -0.258 OA
ATOM     28  O   UNL     1      -5.234  -6.071   4.700  1.00  0.00    -0.258 OA
ENDBRANCH   6  26
ENDBRANCH   1   3
BRANCH   1  29
ATOM     29  C   UNL     1      -3.776 -12.056   7.801  1.00  0.00     0.227 C 
ATOM     30  O   UNL     1      -2.785 -11.709   8.457  1.00  0.00    -0.274 OA
ATOM     31  N   UNL     1      -3.694 -13.271   7.196  1.00  0.00    -0.356 N 
ATOM     32  H   UNL     1      -2.864 -13.759   7.398  1.00  0.00     0.163 HD
BRANCH  31  33
ATOM     33  C   UNL     1      -4.593 -13.986   6.311  1.00  0.00     0.117 C 
BRANCH  33  34
ATOM     34  C   UNL     1      -4.199 -13.834   4.844  1.00  0.00     0.042 C 
BRANCH  34  35
ATOM     35  C   UNL     1      -3.098 -14.786   4.400  1.00  0.00     0.118 C 
BRANCH  35  36
ATOM     36  N   UNL     1      -3.562 -16.166   4.335  1.00  0.00    -0.352 N 
ATOM     37  C   UNL     1      -3.702 -17.007   3.257  1.00  0.00     0.251 C 
ATOM     38  H   UNL     1      -3.815 -16.558   5.201  1.00  0.00     0.163 HD
ATOM     39  O   UNL     1      -4.332 -18.053   3.398  1.00  0.00    -0.269 OA
BRANCH  37  40
ATOM     40  C   UNL     1      -3.120 -16.665   1.939  1.00  0.00     0.039 A 
ATOM     41  C   UNL     1      -3.828 -16.997   0.779  1.00  0.00     0.014 A 
ATOM     42  C   UNL     1      -1.863 -16.064   1.834  1.00  0.00     0.014 A 
ATOM     43  C   UNL     1      -3.304 -16.672  -0.477  1.00  0.00     0.010 A 
ATOM     44  C   UNL     1      -1.383 -15.664   0.590  1.00  0.00     0.010 A 
ATOM     45  C   UNL     1      -2.092 -15.972  -0.580  1.00  0.00    -0.014 A 
BRANCH  45  46
ATOM     46  C   UNL     1      -1.530 -15.568  -1.895  1.00  0.00     0.031 A 
ATOM     47  C   UNL     1      -0.198 -16.112  -2.340  1.00  0.00     0.074 A 
ATOM     48  C   UNL     1      -2.174 -14.654  -2.647  1.00  0.00     0.049 A 
ATOM     49  N   UNL     1       0.521 -15.788  -3.384  1.00  0.00    -0.248 NA
ATOM     50  C   UNL     1       0.421 -17.134  -1.480  1.00  0.00     0.031 C 
ATOM     51  C   UNL     1      -3.452 -14.025  -2.306  1.00  0.00     0.029 A 
ATOM     52  N   UNL     1      -1.833 -14.078  -3.846  1.00  0.00    -0.354 N 
ATOM     53  C   UNL     1       1.683 -16.546  -3.293  1.00  0.00     0.074 A 
ATOM     54  C   UNL     1       1.595 -17.311  -2.069  1.00  0.00     0.031 C 
ATOM     55  C   UNL     1      -3.791 -13.161  -3.276  1.00  0.00     0.029 A 
ATOM     56  C   UNL     1      -2.737 -13.140  -4.286  1.00  0.00     0.049 A 
ATOM     57  H   UNL     1      -1.017 -14.314  -4.344  1.00  0.00     0.167 HD
ATOM     58  C   UNL     1       2.720 -16.614  -4.162  1.00  0.00     0.037 A 
ATOM     59  C   UNL     1      -2.712 -12.339  -5.370  1.00  0.00     0.037 A 
ATOM     60  C   UNL     1       2.785 -15.872  -5.394  1.00  0.00     0.049 A 
ATOM     61  C   UNL     1      -1.548 -12.427  -6.318  1.00  0.00     0.074 A 
ATOM     62  C   UNL     1       3.763 -15.912  -6.372  1.00  0.00     0.029 A 
ATOM     63  N   UNL     1       1.834 -14.955  -5.817  1.00  0.00    -0.354 N 
ATOM     64  N   UNL     1      -0.482 -13.190  -6.246  1.00  0.00    -0.248 NA
ATOM     65  C   UNL     1      -1.579 -11.550  -7.497  1.00  0.00     0.031 C 
ATOM     66  C   UNL     1       3.425 -14.990  -7.367  1.00  0.00     0.029 A 
ATOM     67  C   UNL     1       2.210 -14.410  -7.034  1.00  0.00     0.049 A 
ATOM     68  H   UNL     1       1.012 -14.725  -5.326  1.00  0.00     0.167 HD
ATOM     69  C   UNL     1       0.267 -12.906  -7.382  1.00  0.00     0.074 A 
ATOM     70  C   UNL     1      -0.469 -11.907  -8.129  1.00  0.00     0.031 C 
ATOM     71  C   UNL     1       1.455 -13.429  -7.773  1.00  0.00     0.037 A 
BRANCH  58  72
ATOM     72  C   UNL     1       3.866 -17.524  -3.814  1.00  0.00     0.058 A 
ATOM     73  C   UNL     1       3.731 -18.922  -3.836  1.00  0.00     0.135 A 
ATOM     74  C   UNL     1       5.126 -16.996  -3.486  1.00  0.00     0.135 A 
ATOM     75  F   UNL     1       2.546 -19.482  -4.129  1.00  0.00    -0.206 F 
ATOM     76  C   UNL     1       4.792 -19.762  -3.514  1.00  0.00     0.059 A 
ATOM     77  C   UNL     1       6.210 -17.818  -3.189  1.00  0.00     0.059 A 
ATOM     78  F   UNL     1       5.313 -15.667  -3.451  1.00  0.00    -0.206 F 
ATOM     79  C   UNL     1       6.028 -19.200  -3.190  1.00  0.00     0.060 A 
BRANCH  79  80
ATOM     80  S   UNL     1       7.394 -20.305  -2.777  1.00  0.00     0.124 S 
ATOM     81  O   UNL     1       7.001 -20.768  -1.450  1.00  0.00    -0.237 OA
ATOM     82  O   UNL     1       7.324 -21.300  -3.841  1.00  0.00    -0.237 OA
ATOM     83  O   UNL     1       8.563 -19.431  -2.815  1.00  0.00    -0.744 OA
ENDBRANCH  79  80
ENDBRANCH  58  72
BRANCH  59  84
ATOM     84  C   UNL     1      -3.835 -11.396  -5.622  1.00  0.00     0.058 A 
ATOM     85  C   UNL     1      -4.736 -11.614  -6.675  1.00  0.00     0.135 A 
ATOM     86  C   UNL     1      -4.044 -10.274  -4.806  1.00  0.00     0.135 A 
ATOM     87  F   UNL     1      -4.575 -12.669  -7.487  1.00  0.00    -0.206 F 
ATOM     88  C   UNL     1      -5.796 -10.746  -6.919  1.00  0.00     0.059 A 
ATOM     89  C   UNL     1      -5.111  -9.405  -5.014  1.00  0.00     0.059 A 
ATOM     90  F   UNL     1      -3.220 -10.028  -3.775  1.00  0.00    -0.206 F 
ATOM     91  C   UNL     1      -5.977  -9.645  -6.080  1.00  0.00     0.060 A 
BRANCH  91  92
ATOM     92  S   UNL     1      -7.387  -8.555  -6.371  1.00  0.00     0.124 S 
ATOM     93  O   UNL     1      -6.962  -7.837  -7.567  1.00  0.00    -0.237 OA
ATOM     94  O   UNL     1      -8.479  -9.507  -6.551  1.00  0.00    -0.237 OA
ATOM     95  O   UNL     1      -7.455  -7.761  -5.147  1.00  0.00    -0.744 OA
ENDBRANCH  91  92
ENDBRANCH  59  84
BRANCH  71  96
ATOM     96  C   UNL     1       2.022 -12.969  -9.087  1.00  0.00     0.058 A 
ATOM     97  C   UNL     1       2.603 -11.701  -9.238  1.00  0.00     0.135 A 
ATOM     98  C   UNL     1       2.055 -13.843 -10.186  1.00  0.00     0.135 A 
ATOM     99  F   UNL     1       2.588 -10.826  -8.221  1.00  0.00    -0.206 F 
ATOM    100  C   UNL     1       3.191 -11.312 -10.437  1.00  0.00     0.059 A 
ATOM    101  C   UNL     1       2.661 -13.485 -11.386  1.00  0.00     0.059 A 
ATOM    102  F   UNL     1       1.520 -15.071 -10.090  1.00  0.00    -0.206 F 
ATOM    103  C   UNL     1       3.221 -12.214 -11.503  1.00  0.00     0.060 A 
BRANCH 103 104
ATOM    104  S   UNL     1       4.042 -11.718 -13.033  1.00  0.00     0.124 S 
ATOM    105  O   UNL     1       3.082 -10.771 -13.589  1.00  0.00    -0.237 OA
ATOM    106  O   UNL     1       5.291 -11.140 -12.544  1.00  0.00    -0.237 OA
ATOM    107  O   UNL     1       4.184 -12.972 -13.765  1.00  0.00    -0.744 OA
ENDBRANCH 103 104
ENDBRANCH  71  96
ENDBRANCH  45  46
ENDBRANCH  37  40
ENDBRANCH  35  36
ENDBRANCH  34  35
ENDBRANCH  33  34
ENDBRANCH  31  33
ENDBRANCH   1  29
TORSDOF 23
