REMARK SMILES Cc1ccccc1-c1c(Cl)ccc2c1C=C(C(=O)NCCCNC(=O)c1ccc(-c3c4nc(c(-c5c(F)cc(S(=O)(=O)[O-])cc5F)c5ccc([nH]5)c(-c5c(F)cc(S(=O)(=O)[O-])cc5F)c5nc(c(-c6c(F)cc(S(=O)(=O)[O-])cc6F)c6ccc3[nH]6)C=C5)C=C4)cc1)[C@@H](C(F)(F)F)O2
REMARK SMILES IDX 22 1 21 2 20 3 19 4 17 5 18 6 16 8 8 9 9 10 14 11 10 12
REMARK SMILES IDX 11 13 13 14 15 15 12 16 97 17 92 18 7 19 1 20 2 21 3 22 4 23
REMARK SMILES IDX 6 24 5 25 93 26 94 27 95 28 96 29 23 30 24 31 25 33 26 34
REMARK SMILES IDX 27 35 91 36 28 37 90 38 29 39 30 40 31 41 84 42 32 43 89 44
REMARK SMILES IDX 83 45 85 46 33 47 88 48 82 49 81 50 34 52 68 53 47 54 67 55
REMARK SMILES IDX 48 56 51 57 66 58 86 59 49 60 50 61 65 63 87 64 52 65 35 66
REMARK SMILES IDX 36 67 45 68 37 69 38 70 44 71 46 72 39 73 40 74 41 75 42 76
REMARK SMILES IDX 43 77 69 78 70 79 79 80 71 81 72 82 78 83 80 84 73 85 74 86
REMARK SMILES IDX 75 87 76 88 77 89 53 90 54 91 63 92 55 93 56 94 62 95 64 96
REMARK SMILES IDX 57 97 58 98 59 99 60 100 61 101
REMARK H PARENT 19 7 23 32 85 51 51 62
REMARK Flexibility Score: inf
ROOT
ATOM      1  C   UNL     1       6.874  -2.138  -2.170  1.00  0.00     0.118 C 
ENDROOT
BRANCH   1   2
ATOM      2  C   UNL     1       5.713  -1.363  -2.775  1.00  0.00     0.042 C 
BRANCH   2   3
ATOM      3  C   UNL     1       4.976  -0.532  -1.743  1.00  0.00     0.118 C 
BRANCH   3   4
ATOM      4  N   UNL     1       5.539   0.802  -1.648  1.00  0.00    -0.352 N 
ATOM      5  C   UNL     1       5.116   2.008  -2.081  1.00  0.00     0.251 C 
ATOM      6  O   UNL     1       5.929   2.935  -2.034  1.00  0.00    -0.270 OA
ATOM      7  H   UNL     1       6.402   0.833  -1.174  1.00  0.00     0.163 HD
BRANCH   5   8
ATOM      8  C   UNL     1       3.720   2.301  -2.546  1.00  0.00     0.067 C 
ATOM      9  C   UNL     1       1.175   2.423   0.116  1.00  0.00     0.012 A 
ATOM     10  C   UNL     1       0.880   3.396   1.105  1.00  0.00     0.049 A 
ATOM     11  C   UNL     1       2.040   2.810  -0.944  1.00  0.00     0.027 A 
ATOM     12  Cl  UNL     1      -0.116   3.041   2.481  1.00  0.00    -0.084 Cl
ATOM     13  C   UNL     1       1.371   4.704   1.021  1.00  0.00     0.025 A 
ATOM     14  C   UNL     1       2.471   4.154  -1.040  1.00  0.00     0.128 A 
ATOM     15  C   UNL     1       2.679   1.817  -1.846  1.00  0.00     0.026 C 
ATOM     16  C   UNL     1       2.146   5.089  -0.064  1.00  0.00     0.049 A 
ATOM     17  O   UNL     1       3.262   4.641  -2.053  1.00  0.00    -0.475 OA
ATOM     18  C   UNL     1       3.568   3.699  -3.103  1.00  0.00     0.314 C 
BRANCH   9  19
ATOM     19  C   UNL     1       0.467   1.115   0.119  1.00  0.00    -0.013 A 
ATOM     20  C   UNL     1       2.473  -0.340   0.853  1.00  0.00     0.045 C 
ATOM     21  C   UNL     1       1.040  -0.135   0.440  1.00  0.00    -0.043 A 
ATOM     22  C   UNL     1       0.249  -1.300   0.354  1.00  0.00     0.004 A 
ATOM     23  C   UNL     1      -1.098  -1.240   0.005  1.00  0.00     0.000 A 
ATOM     24  C   UNL     1      -0.902   1.143  -0.232  1.00  0.00     0.009 A 
ATOM     25  C   UNL     1      -1.680  -0.013  -0.276  1.00  0.00     0.001 A 
ENDBRANCH   9  19
BRANCH  18  26
ATOM     26  C   UNL     1       2.539   3.769  -4.244  1.00  0.00     0.429 C 
ATOM     27  F   UNL     1       2.511   5.005  -4.804  1.00  0.00    -0.167 F 
ATOM     28  F   UNL     1       2.845   2.901  -5.242  1.00  0.00    -0.167 F 
ATOM     29  F   UNL     1       1.275   3.490  -3.849  1.00  0.00    -0.167 F 
ENDBRANCH  18  26
ENDBRANCH   5   8
ENDBRANCH   3   4
ENDBRANCH   2   3
ENDBRANCH   1   2
BRANCH   1  30
ATOM     30  N   UNL     1       6.548  -3.549  -1.962  1.00  0.00    -0.352 N 
ATOM     31  C   UNL     1       7.402  -4.634  -1.911  1.00  0.00     0.251 C 
ATOM     32  H   UNL     1       5.592  -3.753  -1.842  1.00  0.00     0.163 HD
ATOM     33  O   UNL     1       7.017  -5.796  -1.841  1.00  0.00    -0.269 OA
BRANCH  31  34
ATOM     34  C   UNL     1       8.838  -4.330  -1.810  1.00  0.00     0.039 A 
ATOM     35  C   UNL     1       9.397  -4.412  -0.531  1.00  0.00     0.014 A 
ATOM     36  C   UNL     1       9.437  -3.598  -2.831  1.00  0.00     0.014 A 
ATOM     37  C   UNL     1      10.434  -3.553  -0.202  1.00  0.00     0.010 A 
ATOM     38  C   UNL     1      10.398  -2.674  -2.473  1.00  0.00     0.010 A 
ATOM     39  C   UNL     1      10.839  -2.607  -1.144  1.00  0.00    -0.014 A 
BRANCH  39  40
ATOM     40  C   UNL     1      11.651  -1.456  -0.774  1.00  0.00     0.031 A 
ATOM     41  C   UNL     1      13.080  -1.446  -1.138  1.00  0.00     0.074 A 
ATOM     42  C   UNL     1      11.097  -0.430  -0.089  1.00  0.00     0.049 A 
ATOM     43  N   UNL     1      13.999  -0.805  -0.502  1.00  0.00    -0.248 NA
ATOM     44  C   UNL     1      13.593  -2.242  -2.245  1.00  0.00     0.031 C 
ATOM     45  C   UNL     1      11.714   0.851   0.238  1.00  0.00     0.029 A 
ATOM     46  N   UNL     1       9.913  -0.454   0.662  1.00  0.00    -0.354 N 
ATOM     47  C   UNL     1      15.159  -0.891  -1.240  1.00  0.00     0.074 A 
ATOM     48  C   UNL     1      14.866  -1.844  -2.283  1.00  0.00     0.031 C 
ATOM     49  C   UNL     1      11.092   1.362   1.312  1.00  0.00     0.029 A 
ATOM     50  C   UNL     1      10.132   0.375   1.779  1.00  0.00     0.049 A 
ATOM     51  H   UNL     1       9.090  -0.952   0.450  1.00  0.00     0.167 HD
ATOM     52  C   UNL     1      16.194  -0.044  -0.963  1.00  0.00     0.037 A 
ATOM     53  C   UNL     1      10.094  -0.136   3.043  1.00  0.00     0.037 A 
ATOM     54  C   UNL     1      15.919   0.723   0.254  1.00  0.00     0.049 A 
ATOM     55  C   UNL     1      11.425  -0.072   3.759  1.00  0.00     0.074 A 
ATOM     56  C   UNL     1      15.397   1.989   0.466  1.00  0.00     0.029 A 
ATOM     57  N   UNL     1      15.836   0.060   1.478  1.00  0.00    -0.354 N 
ATOM     58  N   UNL     1      12.567   0.158   3.166  1.00  0.00    -0.248 NA
ATOM     59  C   UNL     1      11.578  -0.252   5.200  1.00  0.00     0.031 C 
ATOM     60  C   UNL     1      14.892   2.041   1.792  1.00  0.00     0.029 A 
ATOM     61  C   UNL     1      15.146   0.825   2.402  1.00  0.00     0.049 A 
ATOM     62  H   UNL     1      16.216  -0.830   1.660  1.00  0.00     0.167 HD
ATOM     63  C   UNL     1      13.581   0.145   4.090  1.00  0.00     0.074 A 
ATOM     64  C   UNL     1      12.905  -0.092   5.353  1.00  0.00     0.031 C 
ATOM     65  C   UNL     1      14.894   0.329   3.751  1.00  0.00     0.037 A 
BRANCH  52  66
ATOM     66  C   UNL     1      17.242   0.306  -2.007  1.00  0.00     0.058 A 
ATOM     67  C   UNL     1      17.760   1.615  -2.105  1.00  0.00     0.135 A 
ATOM     68  C   UNL     1      17.694  -0.573  -3.012  1.00  0.00     0.135 A 
ATOM     69  F   UNL     1      17.529   2.531  -1.155  1.00  0.00    -0.206 F 
ATOM     70  C   UNL     1      18.530   2.051  -3.189  1.00  0.00     0.059 A 
ATOM     71  C   UNL     1      18.402  -0.149  -4.142  1.00  0.00     0.059 A 
ATOM     72  F   UNL     1      17.505  -1.896  -2.911  1.00  0.00    -0.206 F 
ATOM     73  C   UNL     1      18.805   1.174  -4.230  1.00  0.00     0.060 A 
BRANCH  73  74
ATOM     74  S   UNL     1      19.697   1.778  -5.677  1.00  0.00     0.124 S 
ATOM     75  O   UNL     1      18.925   2.961  -6.047  1.00  0.00    -0.237 OA
ATOM     76  O   UNL     1      21.025   2.031  -5.129  1.00  0.00    -0.237 OA
ATOM     77  O   UNL     1      19.608   0.665  -6.619  1.00  0.00    -0.744 OA
ENDBRANCH  73  74
ENDBRANCH  52  66
BRANCH  53  78
ATOM     78  C   UNL     1       8.993  -1.118   3.253  1.00  0.00     0.058 A 
ATOM     79  C   UNL     1       7.672  -0.626   3.217  1.00  0.00     0.135 A 
ATOM     80  C   UNL     1       9.161  -2.499   3.095  1.00  0.00     0.135 A 
ATOM     81  F   UNL     1       7.443   0.686   3.388  1.00  0.00    -0.206 F 
ATOM     82  C   UNL     1       6.585  -1.435   2.897  1.00  0.00     0.059 A 
ATOM     83  C   UNL     1       8.082  -3.334   2.772  1.00  0.00     0.059 A 
ATOM     84  F   UNL     1      10.388  -3.039   3.145  1.00  0.00    -0.206 F 
ATOM     85  C   UNL     1       6.810  -2.779   2.611  1.00  0.00     0.060 A 
BRANCH  85  86
ATOM     86  S   UNL     1       5.428  -3.751   1.959  1.00  0.00     0.124 S 
ATOM     87  O   UNL     1       4.349  -3.419   2.883  1.00  0.00    -0.237 OA
ATOM     88  O   UNL     1       5.277  -3.201   0.612  1.00  0.00    -0.237 OA
ATOM     89  O   UNL     1       5.920  -5.120   2.032  1.00  0.00    -0.744 OA
ENDBRANCH  85  86
ENDBRANCH  53  78
BRANCH  65  90
ATOM     90  C   UNL     1      16.070   0.153   4.686  1.00  0.00     0.058 A 
ATOM     91  C   UNL     1      16.111  -0.791   5.726  1.00  0.00     0.135 A 
ATOM     92  C   UNL     1      17.276   0.858   4.454  1.00  0.00     0.135 A 
ATOM     93  F   UNL     1      15.068  -1.596   5.977  1.00  0.00    -0.206 F 
ATOM     94  C   UNL     1      17.244  -0.980   6.522  1.00  0.00     0.059 A 
ATOM     95  C   UNL     1      18.434   0.644   5.197  1.00  0.00     0.059 A 
ATOM     96  F   UNL     1      17.373   1.776   3.480  1.00  0.00    -0.206 F 
ATOM     97  C   UNL     1      18.403  -0.261   6.248  1.00  0.00     0.060 A 
BRANCH  97  98
ATOM     98  S   UNL     1      19.898  -0.549   7.212  1.00  0.00     0.124 S 
ATOM     99  O   UNL     1      19.803   0.501   8.220  1.00  0.00    -0.237 OA
ATOM    100  O   UNL     1      19.714  -1.912   7.704  1.00  0.00    -0.237 OA
ATOM    101  O   UNL     1      20.961  -0.388   6.225  1.00  0.00    -0.744 OA
ENDBRANCH  97  98
ENDBRANCH  65  90
ENDBRANCH  39  40
ENDBRANCH  31  34
ENDBRANCH   1  30
TORSDOF 15
