REMARK SMILES COc1ccccc1Nc1nc(C)c(C(=O)NCCCNC(=O)c2ccc(-c3c4nc(c(-c5c(F)cc(S(=O)(=O)[O-])cc5F)c5ccc([nH]5)c(-c5c(F)cc(S(=O)(=O)[O-])cc5F)c5nc(c(-c6c(F)cc(S(=O)(=O)[O-])cc6F)c6ccc3[nH]6)C=C5)C=C4)cc2)s1
REMARK SMILES IDX 19 1 18 2 17 3 15 4 16 5 14 7 10 8 11 9 90 10 12 11 13 12
REMARK SMILES IDX 9 13 8 15 3 16 4 17 5 18 7 19 6 20 2 21 1 22 20 23 21 24
REMARK SMILES IDX 22 25 23 27 24 28 25 29 89 30 26 31 88 32 27 33 28 34 29 35
REMARK SMILES IDX 82 36 30 37 87 38 81 39 83 40 31 41 86 42 80 43 79 44 32 46
REMARK SMILES IDX 66 47 45 48 65 49 46 50 49 51 64 52 84 53 47 54 48 55 63 57
REMARK SMILES IDX 85 58 50 59 33 60 34 61 43 62 35 63 36 64 42 65 44 66 37 67
REMARK SMILES IDX 38 68 39 69 40 70 41 71 67 72 68 73 77 74 69 75 70 76 76 77
REMARK SMILES IDX 78 78 71 79 72 80 73 81 74 82 75 83 51 84 52 85 61 86 53 87
REMARK SMILES IDX 54 88 60 89 62 90 55 91 56 92 57 93 58 94 59 95
REMARK H PARENT 17 6 9 14 21 26 83 45 49 56
REMARK Flexibility Score: inf
ROOT
ATOM      1  C   UNL     1      10.324   1.765   1.719  1.00  0.00     0.042 C 
ENDROOT
BRANCH   1   2
ATOM      2  C   UNL     1       9.595   0.534   2.252  1.00  0.00     0.118 C 
BRANCH   2   3
ATOM      3  N   UNL     1       8.769   0.879   3.384  1.00  0.00    -0.351 N 
ATOM      4  C   UNL     1       7.428   1.119   3.536  1.00  0.00     0.263 C 
ATOM      5  O   UNL     1       7.114   1.356   4.709  1.00  0.00    -0.268 OA
ATOM      6  H   UNL     1       9.276   0.960   4.224  1.00  0.00     0.163 HD
BRANCH   4   7
ATOM      7  C   UNL     1       6.445   1.074   2.460  1.00  0.00     0.117 A 
ATOM      8  C   UNL     1       4.220   1.138   1.410  1.00  0.00     0.188 A 
ATOM      9  N   UNL     1       5.158   1.125   0.502  1.00  0.00    -0.225 NA
ATOM     10  S   UNL     1       4.793   0.851   2.991  1.00  0.00    -0.091 S 
ATOM     11  C   UNL     1       6.416   1.228   1.076  1.00  0.00     0.063 A 
ATOM     12  C   UNL     1       7.461   1.569   0.081  1.00  0.00     0.068 C 
BRANCH   8  13
ATOM     13  N   UNL     1       2.932   1.297   1.044  1.00  0.00    -0.328 N 
ATOM     14  H   UNL     1       2.618   0.706   0.322  1.00  0.00     0.169 HD
BRANCH  13  15
ATOM     15  C   UNL     1       1.972   2.199   1.557  1.00  0.00     0.083 A 
ATOM     16  C   UNL     1       0.659   2.198   1.036  1.00  0.00     0.142 A 
ATOM     17  C   UNL     1      -0.267   3.168   1.441  1.00  0.00     0.048 A 
ATOM     18  C   UNL     1       0.075   4.118   2.401  1.00  0.00     0.004 A 
ATOM     19  C   UNL     1       2.280   3.149   2.546  1.00  0.00     0.030 A 
ATOM     20  C   UNL     1       1.346   4.103   2.960  1.00  0.00     0.002 A 
BRANCH  16  21
ATOM     21  O   UNL     1       0.212   1.378   0.027  1.00  0.00    -0.495 OA
ATOM     22  C   UNL     1       0.492  -0.010   0.184  1.00  0.00     0.278 C 
ENDBRANCH  16  21
ENDBRANCH  13  15
ENDBRANCH   8  13
ENDBRANCH   4   7
ENDBRANCH   2   3
ENDBRANCH   1   2
BRANCH   1  23
ATOM     23  C   UNL     1      11.605   2.094   2.474  1.00  0.00     0.118 C 
BRANCH  23  24
ATOM     24  N   UNL     1      12.669   1.157   2.155  1.00  0.00    -0.352 N 
ATOM     25  C   UNL     1      13.864   1.366   1.510  1.00  0.00     0.251 C 
ATOM     26  H   UNL     1      12.509   0.230   2.446  1.00  0.00     0.163 HD
ATOM     27  O   UNL     1      14.496   0.395   1.104  1.00  0.00    -0.269 OA
BRANCH  25  28
ATOM     28  C   UNL     1      14.390   2.736   1.299  1.00  0.00     0.039 A 
ATOM     29  C   UNL     1      15.087   3.015   0.119  1.00  0.00     0.014 A 
ATOM     30  C   UNL     1      14.264   3.725   2.278  1.00  0.00     0.014 A 
ATOM     31  C   UNL     1      15.618   4.290  -0.095  1.00  0.00     0.010 A 
ATOM     32  C   UNL     1      14.723   5.017   2.030  1.00  0.00     0.010 A 
ATOM     33  C   UNL     1      15.421   5.309   0.850  1.00  0.00    -0.014 A 
BRANCH  33  34
ATOM     34  C   UNL     1      15.967   6.675   0.644  1.00  0.00     0.031 A 
ATOM     35  C   UNL     1      17.011   7.217   1.585  1.00  0.00     0.074 A 
ATOM     36  C   UNL     1      15.480   7.448  -0.346  1.00  0.00     0.049 A 
ATOM     37  N   UNL     1      17.544   8.411   1.631  1.00  0.00    -0.248 NA
ATOM     38  C   UNL     1      17.499   6.304   2.631  1.00  0.00     0.031 C 
ATOM     39  C   UNL     1      14.438   7.050  -1.295  1.00  0.00     0.029 A 
ATOM     40  N   UNL     1      15.786   8.734  -0.712  1.00  0.00    -0.354 N 
ATOM     41  C   UNL     1      18.408   8.400   2.720  1.00  0.00     0.074 A 
ATOM     42  C   UNL     1      18.293   7.096   3.336  1.00  0.00     0.031 C 
ATOM     43  C   UNL     1      14.204   8.064  -2.143  1.00  0.00     0.029 A 
ATOM     44  C   UNL     1      15.051   9.195  -1.778  1.00  0.00     0.049 A 
ATOM     45  H   UNL     1      16.468   9.277  -0.253  1.00  0.00     0.167 HD
ATOM     46  C   UNL     1      19.239   9.378   3.153  1.00  0.00     0.037 A 
ATOM     47  C   UNL     1      15.054  10.397  -2.387  1.00  0.00     0.037 A 
ATOM     48  C   UNL     1      19.373  10.660   2.513  1.00  0.00     0.049 A 
ATOM     49  C   UNL     1      15.995  11.463  -1.898  1.00  0.00     0.074 A 
ATOM     50  C   UNL     1      20.229  11.699   2.835  1.00  0.00     0.029 A 
ATOM     51  N   UNL     1      18.634  11.077   1.415  1.00  0.00    -0.354 N 
ATOM     52  N   UNL     1      16.844  11.417  -0.899  1.00  0.00    -0.248 NA
ATOM     53  C   UNL     1      15.984  12.742  -2.621  1.00  0.00     0.031 C 
ATOM     54  C   UNL     1      19.982  12.758   1.954  1.00  0.00     0.029 A 
ATOM     55  C   UNL     1      19.002  12.363   1.056  1.00  0.00     0.049 A 
ATOM     56  H   UNL     1      17.948  10.538   0.959  1.00  0.00     0.167 HD
ATOM     57  C   UNL     1      17.486  12.650  -0.889  1.00  0.00     0.074 A 
ATOM     58  C   UNL     1      16.935  13.416  -1.988  1.00  0.00     0.031 C 
ATOM     59  C   UNL     1      18.446  13.107  -0.046  1.00  0.00     0.037 A 
BRANCH  46  60
ATOM     60  C   UNL     1      20.070   9.096   4.376  1.00  0.00     0.058 A 
ATOM     61  C   UNL     1      21.135   8.181   4.348  1.00  0.00     0.135 A 
ATOM     62  C   UNL     1      19.812   9.762   5.585  1.00  0.00     0.135 A 
ATOM     63  F   UNL     1      21.417   7.505   3.223  1.00  0.00    -0.206 F 
ATOM     64  C   UNL     1      21.893   7.911   5.483  1.00  0.00     0.059 A 
ATOM     65  C   UNL     1      20.576   9.527   6.726  1.00  0.00     0.059 A 
ATOM     66  F   UNL     1      18.807  10.647   5.670  1.00  0.00    -0.206 F 
ATOM     67  C   UNL     1      21.603   8.586   6.669  1.00  0.00     0.060 A 
BRANCH  67  68
ATOM     68  S   UNL     1      22.591   8.219   8.135  1.00  0.00     0.124 S 
ATOM     69  O   UNL     1      22.067   6.912   8.518  1.00  0.00    -0.237 OA
ATOM     70  O   UNL     1      23.951   8.226   7.606  1.00  0.00    -0.237 OA
ATOM     71  O   UNL     1      22.270   9.315   9.044  1.00  0.00    -0.744 OA
ENDBRANCH  67  68
ENDBRANCH  46  60
BRANCH  47  72
ATOM     72  C   UNL     1      14.152  10.642  -3.544  1.00  0.00     0.058 A 
ATOM     73  C   UNL     1      14.664  10.742  -4.846  1.00  0.00     0.135 A 
ATOM     74  C   UNL     1      12.764  10.756  -3.376  1.00  0.00     0.135 A 
ATOM     75  F   UNL     1      15.986  10.644  -5.056  1.00  0.00    -0.206 F 
ATOM     76  C   UNL     1      13.834  10.957  -5.941  1.00  0.00     0.059 A 
ATOM     77  C   UNL     1      11.910  10.949  -4.458  1.00  0.00     0.059 A 
ATOM     78  F   UNL     1      12.223  10.650  -2.153  1.00  0.00    -0.206 F 
ATOM     79  C   UNL     1      12.456  11.056  -5.737  1.00  0.00     0.060 A 
BRANCH  79  80
ATOM     80  S   UNL     1      11.382  11.278  -7.172  1.00  0.00     0.124 S 
ATOM     81  O   UNL     1      11.626  12.676  -7.507  1.00  0.00    -0.237 OA
ATOM     82  O   UNL     1      11.914  10.294  -8.109  1.00  0.00    -0.237 OA
ATOM     83  O   UNL     1      10.054  10.976  -6.645  1.00  0.00    -0.744 OA
ENDBRANCH  79  80
ENDBRANCH  47  72
BRANCH  59  84
ATOM     84  C   UNL     1      18.985  14.487  -0.298  1.00  0.00     0.058 A 
ATOM     85  C   UNL     1      18.239  15.635   0.009  1.00  0.00     0.135 A 
ATOM     86  C   UNL     1      20.283  14.661  -0.803  1.00  0.00     0.135 A 
ATOM     87  F   UNL     1      16.990  15.522   0.487  1.00  0.00    -0.206 F 
ATOM     88  C   UNL     1      18.755  16.910  -0.196  1.00  0.00     0.059 A 
ATOM     89  C   UNL     1      20.829  15.926  -0.992  1.00  0.00     0.059 A 
ATOM     90  F   UNL     1      21.041  13.594  -1.102  1.00  0.00    -0.206 F 
ATOM     91  C   UNL     1      20.052  17.046  -0.696  1.00  0.00     0.060 A 
BRANCH  91  92
ATOM     92  S   UNL     1      20.725  18.705  -0.923  1.00  0.00     0.124 S 
ATOM     93  O   UNL     1      20.030  19.141  -2.130  1.00  0.00    -0.237 OA
ATOM     94  O   UNL     1      20.330  19.376   0.312  1.00  0.00    -0.237 OA
ATOM     95  O   UNL     1      22.158  18.473  -1.072  1.00  0.00    -0.744 OA
ENDBRANCH  91  92
ENDBRANCH  59  84
ENDBRANCH  33  34
ENDBRANCH  25  28
ENDBRANCH  23  24
ENDBRANCH   1  23
TORSDOF 16
