REMARK SMILES C[C@@]1(C(=O)NCCCNC(=O)c2ccc(-c3c4nc(c(-c5c(F)cc(S(=O)(=O)[O-])cc5F)c5ccc([nH]5)c(-c5c(F)cc(S(=O)(=O)[O-])cc5F)c5nc(c(-c6c(F)cc(S(=O)(=O)[O-])cc6F)c6ccc3[nH]6)C=C5)C=C4)cc2)CCCCCC[C@@H]1O
REMARK SMILES IDX 6 1 5 2 3 3 4 4 2 6 1 7 78 8 79 9 80 10 81 11 82 12 84 14
REMARK SMILES IDX 83 15 85 17 7 19 8 20 9 21 10 22 11 24 12 25 13 26 77 27
REMARK SMILES IDX 14 28 76 29 15 30 16 31 17 32 70 33 18 34 75 35 69 36 71 37
REMARK SMILES IDX 19 38 74 39 68 40 67 41 20 43 54 44 33 45 53 46 34 47 37 48
REMARK SMILES IDX 52 49 72 50 35 51 36 52 51 54 73 55 38 56 21 57 22 58 31 59
REMARK SMILES IDX 23 60 24 61 30 62 32 63 25 64 26 65 27 66 28 67 29 68 55 69
REMARK SMILES IDX 56 70 65 71 57 72 58 73 64 74 66 75 59 76 60 77 61 78 62 79
REMARK SMILES IDX 63 80 39 81 40 82 49 83 41 84 42 85 48 86 50 87 43 88 44 89
REMARK SMILES IDX 45 90 46 91 47 92
REMARK H PARENT 5 5 85 18 9 23 71 42 37 53
REMARK Flexibility Score: 80.00
ROOT
ATOM      1  C   UNL     1      -1.368  -2.924   2.888  1.00  0.00     0.117 C 
ENDROOT
BRANCH   1   2
ATOM      2  N   UNL     1      -0.117  -2.892   2.122  1.00  0.00    -0.355 N 
ATOM      3  C   UNL     1       0.635  -1.917   1.255  1.00  0.00     0.228 C 
ATOM      4  O   UNL     1       1.750  -1.928   0.721  1.00  0.00    -0.274 OA
ATOM      5  H   UNL     1       0.366  -3.747   2.196  1.00  0.00     0.163 HD
BRANCH   3   6
ATOM      6  C   UNL     1      -0.127  -0.766   0.987  1.00  0.00     0.072 C 
ATOM      7  C   UNL     1       0.548   0.353   0.139  1.00  0.00     0.024 C 
BRANCH   6   8
ATOM      8  C   UNL     1       0.340  -0.466   2.539  1.00  0.00     0.019 C 
BRANCH   8   9
ATOM      9  C   UNL     1       1.481  -1.437   3.409  1.00  0.00     0.001 C 
BRANCH   9  10
ATOM     10  C   UNL     1       2.436  -2.742   2.865  1.00  0.00     0.000 C 
BRANCH  10  11
ATOM     11  C   UNL     1       2.142  -4.079   1.811  1.00  0.00     0.000 C 
BRANCH  11  12
ATOM     12  C   UNL     1       1.285  -4.198   0.301  1.00  0.00     0.003 CG0
ATOM     13  G   UNL     1      -0.175  -3.496  -0.294  1.00  0.00     0.000 G0
ENDBRANCH  11  12
ENDBRANCH  10  11
ENDBRANCH   9  10
ENDBRANCH   8   9
ENDBRANCH   6   8
BRANCH   6  14
ATOM     14  C   UNL     1      -0.842  -1.893  -0.008  1.00  0.00     0.129 C 
BRANCH  14  15
ATOM     15  C   UNL     1      -0.175  -3.496  -0.294  1.00  0.00     0.033 CG0
ATOM     16  G   UNL     1       1.285  -4.198   0.301  1.00  0.00     0.000 G0
ENDBRANCH  14  15
BRANCH  14  17
ATOM     17  O   UNL     1      -1.082  -1.333  -1.318  1.00  0.00    -0.392 OA
ATOM     18  H   UNL     1      -0.236  -1.200  -1.772  1.00  0.00     0.210 HD
ENDBRANCH  14  17
ENDBRANCH   6  14
ENDBRANCH   3   6
ENDBRANCH   1   2
BRANCH   1  19
ATOM     19  C   UNL     1      -2.087  -4.288   2.779  1.00  0.00     0.042 C 
BRANCH  19  20
ATOM     20  C   UNL     1      -1.285  -5.608   2.827  1.00  0.00     0.118 C 
BRANCH  20  21
ATOM     21  N   UNL     1      -0.640  -5.949   4.088  1.00  0.00    -0.352 N 
ATOM     22  C   UNL     1      -0.485  -7.214   4.630  1.00  0.00     0.251 C 
ATOM     23  H   UNL     1      -0.275  -5.199   4.611  1.00  0.00     0.163 HD
ATOM     24  O   UNL     1       0.093  -7.366   5.708  1.00  0.00    -0.269 OA
BRANCH  22  25
ATOM     25  C   UNL     1      -1.053  -8.389   3.930  1.00  0.00     0.039 A 
ATOM     26  C   UNL     1      -2.088  -9.110   4.534  1.00  0.00     0.014 A 
ATOM     27  C   UNL     1      -0.597  -8.750   2.659  1.00  0.00     0.014 A 
ATOM     28  C   UNL     1      -2.732 -10.132   3.826  1.00  0.00     0.010 A 
ATOM     29  C   UNL     1      -1.268  -9.746   1.941  1.00  0.00     0.010 A 
ATOM     30  C   UNL     1      -2.358 -10.431   2.505  1.00  0.00    -0.014 A 
BRANCH  30  31
ATOM     31  C   UNL     1      -3.106 -11.437   1.695  1.00  0.00     0.031 A 
ATOM     32  C   UNL     1      -2.426 -12.702   1.244  1.00  0.00     0.074 A 
ATOM     33  C   UNL     1      -4.373 -11.181   1.304  1.00  0.00     0.049 A 
ATOM     34  N   UNL     1      -2.870 -13.644   0.451  1.00  0.00    -0.248 NA
ATOM     35  C   UNL     1      -1.058 -12.926   1.734  1.00  0.00     0.031 C 
ATOM     36  C   UNL     1      -5.138  -9.982   1.652  1.00  0.00     0.029 A 
ATOM     37  N   UNL     1      -5.239 -11.904   0.516  1.00  0.00    -0.354 N 
ATOM     38  C   UNL     1      -1.832 -14.562   0.333  1.00  0.00     0.074 A 
ATOM     39  C   UNL     1      -0.721 -14.040   1.100  1.00  0.00     0.031 C 
ATOM     40  C   UNL     1      -6.356 -10.055   1.091  1.00  0.00     0.029 A 
ATOM     41  C   UNL     1      -6.450 -11.283   0.306  1.00  0.00     0.049 A 
ATOM     42  H   UNL     1      -5.013 -12.784   0.137  1.00  0.00     0.167 HD
ATOM     43  C   UNL     1      -1.812 -15.739  -0.339  1.00  0.00     0.037 A 
ATOM     44  C   UNL     1      -7.510 -11.650  -0.445  1.00  0.00     0.037 A 
ATOM     45  C   UNL     1      -2.929 -16.259  -1.085  1.00  0.00     0.049 A 
ATOM     46  C   UNL     1      -7.459 -12.953  -1.200  1.00  0.00     0.074 A 
ATOM     47  C   UNL     1      -3.023 -17.461  -1.764  1.00  0.00     0.029 A 
ATOM     48  N   UNL     1      -4.143 -15.610  -1.252  1.00  0.00    -0.354 N 
ATOM     49  N   UNL     1      -6.485 -13.830  -1.261  1.00  0.00    -0.248 NA
ATOM     50  C   UNL     1      -8.646 -13.323  -1.985  1.00  0.00     0.031 C 
ATOM     51  C   UNL     1      -4.274 -17.515  -2.386  1.00  0.00     0.029 A 
ATOM     52  C   UNL     1      -4.985 -16.377  -2.039  1.00  0.00     0.049 A 
ATOM     53  H   UNL     1      -4.372 -14.732  -0.868  1.00  0.00     0.167 HD
ATOM     54  C   UNL     1      -6.958 -14.873  -2.051  1.00  0.00     0.074 A 
ATOM     55  C   UNL     1      -8.303 -14.517  -2.452  1.00  0.00     0.031 C 
ATOM     56  C   UNL     1      -6.336 -16.024  -2.403  1.00  0.00     0.037 A 
BRANCH  43  57
ATOM     57  C   UNL     1      -0.540 -16.545  -0.305  1.00  0.00     0.058 A 
ATOM     58  C   UNL     1      -0.091 -17.170   0.870  1.00  0.00     0.135 A 
ATOM     59  C   UNL     1       0.222 -16.727  -1.472  1.00  0.00     0.135 A 
ATOM     60  F   UNL     1      -0.772 -17.023   2.017  1.00  0.00    -0.206 F 
ATOM     61  C   UNL     1       1.084 -17.914   0.896  1.00  0.00     0.059 A 
ATOM     62  C   UNL     1       1.383 -17.494  -1.476  1.00  0.00     0.059 A 
ATOM     63  F   UNL     1      -0.161 -16.157  -2.625  1.00  0.00    -0.206 F 
ATOM     64  C   UNL     1       1.815 -18.070  -0.283  1.00  0.00     0.060 A 
BRANCH  64  65
ATOM     65  S   UNL     1       3.338 -19.038  -0.229  1.00  0.00     0.124 S 
ATOM     66  O   UNL     1       4.223 -18.146   0.513  1.00  0.00    -0.237 OA
ATOM     67  O   UNL     1       2.917 -20.243   0.477  1.00  0.00    -0.237 OA
ATOM     68  O   UNL     1       3.674 -19.225  -1.637  1.00  0.00    -0.744 OA
ENDBRANCH  64  65
ENDBRANCH  43  57
BRANCH  44  69
ATOM     69  C   UNL     1      -8.719 -10.779  -0.511  1.00  0.00     0.058 A 
ATOM     70  C   UNL     1      -9.933 -11.177   0.068  1.00  0.00     0.135 A 
ATOM     71  C   UNL     1      -8.683  -9.528  -1.149  1.00  0.00     0.135 A 
ATOM     72  F   UNL     1     -10.025 -12.367   0.681  1.00  0.00    -0.206 F 
ATOM     73  C   UNL     1     -11.071 -10.377   0.005  1.00  0.00     0.059 A 
ATOM     74  C   UNL     1      -9.800  -8.698  -1.200  1.00  0.00     0.059 A 
ATOM     75  F   UNL     1      -7.544  -9.090  -1.708  1.00  0.00    -0.206 F 
ATOM     76  C   UNL     1     -10.993  -9.136  -0.628  1.00  0.00     0.060 A 
BRANCH  76  77
ATOM     77  S   UNL     1     -12.463  -8.085  -0.661  1.00  0.00     0.124 S 
ATOM     78  O   UNL     1     -13.316  -8.801  -1.602  1.00  0.00    -0.237 OA
ATOM     79  O   UNL     1     -12.887  -8.113   0.735  1.00  0.00    -0.237 OA
ATOM     80  O   UNL     1     -11.947  -6.801  -1.126  1.00  0.00    -0.744 OA
ENDBRANCH  76  77
ENDBRANCH  44  69
BRANCH  56  81
ATOM     81  C   UNL     1      -7.111 -17.032  -3.208  1.00  0.00     0.058 A 
ATOM     82  C   UNL     1      -7.375 -16.851  -4.573  1.00  0.00     0.135 A 
ATOM     83  C   UNL     1      -7.491 -18.251  -2.622  1.00  0.00     0.135 A 
ATOM     84  F   UNL     1      -7.041 -15.701  -5.180  1.00  0.00    -0.206 F 
ATOM     85  C   UNL     1      -7.986 -17.845  -5.331  1.00  0.00     0.059 A 
ATOM     86  C   UNL     1      -8.078 -19.269  -3.366  1.00  0.00     0.059 A 
ATOM     87  F   UNL     1      -7.255 -18.477  -1.319  1.00  0.00    -0.206 F 
ATOM     88  C   UNL     1      -8.321 -19.056  -4.721  1.00  0.00     0.060 A 
BRANCH  88  89
ATOM     89  S   UNL     1      -9.032 -20.369  -5.736  1.00  0.00     0.124 S 
ATOM     90  O   UNL     1     -10.371 -19.851  -5.995  1.00  0.00    -0.237 OA
ATOM     91  O   UNL     1      -8.131 -20.398  -6.884  1.00  0.00    -0.237 OA
ATOM     92  O   UNL     1      -8.971 -21.542  -4.869  1.00  0.00    -0.744 OA
ENDBRANCH  88  89
ENDBRANCH  56  81
ENDBRANCH  30  31
ENDBRANCH  22  25
ENDBRANCH  20  21
ENDBRANCH  19  20
ENDBRANCH   1  19
TORSDOF 14
