REMARK SMILES CO[C@H]1C[C@@H](C(=O)NCCCNC(=O)c2ccc(-c3c4nc(c(-c5c(F)cc(S(=O)(=O)[O-])cc5F)c5ccc([nH]5)c(-c5c(F)cc(S(=O)(=O)[O-])cc5F)c5nc(c(-c6c(F)cc(S(=O)(=O)[O-])cc6F)c6ccc3[nH]6)C=C5)C=C4)cc2)N(C(=O)Nc2cc(C)cc(F)c2)C1
REMARK SMILES IDX 10 1 9 2 8 3 6 4 7 5 5 7 3 8 4 9 93 10 81 11 2 12 1 13 82 14
REMARK SMILES IDX 83 15 84 16 85 18 86 19 92 20 87 21 90 22 88 23 89 24 91 25
REMARK SMILES IDX 11 26 12 27 13 28 14 30 15 31 16 32 80 33 17 34 79 35 18 36
REMARK SMILES IDX 19 37 20 38 73 39 21 40 78 41 72 42 74 43 22 44 77 45 71 46
REMARK SMILES IDX 70 47 23 49 57 50 36 51 56 52 37 53 40 54 55 55 75 56 38 57
REMARK SMILES IDX 39 58 54 60 76 61 41 62 24 63 25 64 34 65 26 66 27 67 33 68
REMARK SMILES IDX 35 69 28 70 29 71 30 72 31 73 32 74 58 75 59 76 68 77 60 78
REMARK SMILES IDX 61 79 67 80 69 81 62 82 63 83 64 84 65 85 66 86 42 87 43 88
REMARK SMILES IDX 52 89 44 90 45 91 51 92 53 93 46 94 47 95 48 96 49 97 50 98
REMARK H PARENT 8 6 84 17 12 29 74 48 40 59
REMARK Flexibility Score: inf
ROOT
ATOM      1  C   UNL     1      -3.114  -3.032  -6.246  1.00  0.00     0.042 C 
ENDROOT
BRANCH   1   2
ATOM      2  C   UNL     1      -1.578  -2.970  -6.235  1.00  0.00     0.117 C 
BRANCH   2   3
ATOM      3  N   UNL     1      -1.003  -1.629  -6.300  1.00  0.00    -0.354 N 
ATOM      4  C   UNL     1       0.142  -1.231  -5.646  1.00  0.00     0.242 C 
ATOM      5  O   UNL     1       1.045  -0.745  -6.333  1.00  0.00    -0.273 OA
ATOM      6  H   UNL     1      -1.468  -0.959  -6.853  1.00  0.00     0.163 HD
BRANCH   4   7
ATOM      7  C   UNL     1       0.136  -1.040  -4.114  1.00  0.00     0.179 C 
ATOM      8  C   UNL     1       1.223  -1.504  -2.026  1.00  0.00     0.140 C 
ATOM      9  C   UNL     1       1.528  -1.148  -3.484  1.00  0.00     0.069 C 
ATOM     10  C   UNL     1       0.047  -2.465  -2.207  1.00  0.00     0.154 C 
ATOM     11  N   UNL     1      -0.752  -1.802  -3.231  1.00  0.00    -0.310 N 
BRANCH   8  12
ATOM     12  O   UNL     1       2.345  -2.099  -1.391  1.00  0.00    -0.380 OA
ATOM     13  C   UNL     1       3.231  -1.114  -0.865  1.00  0.00     0.195 C 
ENDBRANCH   8  12
BRANCH  11  14
ATOM     14  C   UNL     1      -1.982  -1.228  -2.884  1.00  0.00     0.322 C 
ATOM     15  O   UNL     1      -2.396  -1.162  -1.737  1.00  0.00    -0.248 OA
ATOM     16  N   UNL     1      -2.628  -0.716  -3.980  1.00  0.00    -0.308 N 
ATOM     17  H   UNL     1      -2.630  -1.271  -4.793  1.00  0.00     0.171 HD
BRANCH  16  18
ATOM     18  C   UNL     1      -3.283   0.514  -4.057  1.00  0.00     0.046 A 
ATOM     19  C   UNL     1      -4.614   0.529  -4.474  1.00  0.00     0.029 A 
ATOM     20  C   UNL     1      -2.504   1.666  -4.161  1.00  0.00     0.065 A 
ATOM     21  C   UNL     1      -5.177   1.700  -4.999  1.00  0.00    -0.046 A 
ATOM     22  C   UNL     1      -3.051   2.809  -4.723  1.00  0.00     0.125 A 
ATOM     23  C   UNL     1      -6.596   1.703  -5.485  1.00  0.00     0.044 C 
ATOM     24  C   UNL     1      -4.371   2.835  -5.154  1.00  0.00     0.042 A 
ATOM     25  F   UNL     1      -2.267   3.878  -4.921  1.00  0.00    -0.207 F 
ENDBRANCH  16  18
ENDBRANCH  11  14
ENDBRANCH   4   7
ENDBRANCH   2   3
ENDBRANCH   1   2
BRANCH   1  26
ATOM     26  C   UNL     1      -3.850  -2.049  -7.163  1.00  0.00     0.118 C 
BRANCH  26  27
ATOM     27  N   UNL     1      -3.768  -2.424  -8.561  1.00  0.00    -0.352 N 
ATOM     28  C   UNL     1      -4.726  -2.912  -9.415  1.00  0.00     0.251 C 
ATOM     29  H   UNL     1      -2.877  -2.310  -8.965  1.00  0.00     0.163 HD
ATOM     30  O   UNL     1      -4.353  -3.376 -10.493  1.00  0.00    -0.269 OA
BRANCH  28  31
ATOM     31  C   UNL     1      -6.179  -2.899  -9.098  1.00  0.00     0.039 A 
ATOM     32  C   UNL     1      -6.950  -3.988  -9.527  1.00  0.00     0.014 A 
ATOM     33  C   UNL     1      -6.822  -1.791  -8.537  1.00  0.00     0.014 A 
ATOM     34  C   UNL     1      -8.345  -3.966  -9.405  1.00  0.00     0.010 A 
ATOM     35  C   UNL     1      -8.218  -1.788  -8.376  1.00  0.00     0.010 A 
ATOM     36  C   UNL     1      -8.998  -2.862  -8.837  1.00  0.00    -0.014 A 
BRANCH  36  37
ATOM     37  C   UNL     1     -10.490  -2.805  -8.808  1.00  0.00     0.031 A 
ATOM     38  C   UNL     1     -11.234  -1.833  -9.693  1.00  0.00     0.074 A 
ATOM     39  C   UNL     1     -11.191  -3.632  -8.008  1.00  0.00     0.049 A 
ATOM     40  N   UNL     1     -12.525  -1.647  -9.820  1.00  0.00    -0.248 NA
ATOM     41  C   UNL     1     -10.418  -0.943 -10.532  1.00  0.00     0.031 C 
ATOM     42  C   UNL     1     -10.612  -4.606  -7.082  1.00  0.00     0.029 A 
ATOM     43  N   UNL     1     -12.548  -3.789  -7.848  1.00  0.00    -0.354 N 
ATOM     44  C   UNL     1     -12.675  -0.611 -10.736  1.00  0.00     0.074 A 
ATOM     45  C   UNL     1     -11.342  -0.185 -11.105  1.00  0.00     0.031 C 
ATOM     46  C   UNL     1     -11.604  -5.272  -6.467  1.00  0.00     0.029 A 
ATOM     47  C   UNL     1     -12.890  -4.764  -6.941  1.00  0.00     0.049 A 
ATOM     48  H   UNL     1     -13.212  -3.253  -8.338  1.00  0.00     0.167 HD
ATOM     49  C   UNL     1     -13.814  -0.074 -11.242  1.00  0.00     0.037 A 
ATOM     50  C   UNL     1     -14.099  -5.209  -6.542  1.00  0.00     0.037 A 
ATOM     51  C   UNL     1     -15.145  -0.515 -10.912  1.00  0.00     0.049 A 
ATOM     52  C   UNL     1     -15.348  -4.631  -7.151  1.00  0.00     0.074 A 
ATOM     53  C   UNL     1     -16.355  -0.050 -11.399  1.00  0.00     0.029 A 
ATOM     54  N   UNL     1     -15.443  -1.533 -10.019  1.00  0.00    -0.354 N 
ATOM     55  N   UNL     1     -15.466  -3.675  -8.041  1.00  0.00    -0.248 NA
ATOM     56  C   UNL     1     -16.629  -5.206  -6.713  1.00  0.00     0.031 C 
ATOM     57  C   UNL     1     -17.385  -0.775 -10.788  1.00  0.00     0.029 A 
ATOM     58  C   UNL     1     -16.815  -1.712  -9.944  1.00  0.00     0.049 A 
ATOM     59  H   UNL     1     -14.777  -2.053  -9.513  1.00  0.00     0.167 HD
ATOM     60  C   UNL     1     -16.829  -3.555  -8.291  1.00  0.00     0.074 A 
ATOM     61  C   UNL     1     -17.495  -4.540  -7.465  1.00  0.00     0.031 C 
ATOM     62  C   UNL     1     -17.470  -2.705  -9.131  1.00  0.00     0.037 A 
BRANCH  49  63
ATOM     63  C   UNL     1     -13.666   1.061 -12.219  1.00  0.00     0.058 A 
ATOM     64  C   UNL     1     -13.213   0.848 -13.530  1.00  0.00     0.135 A 
ATOM     65  C   UNL     1     -13.997   2.373 -11.845  1.00  0.00     0.135 A 
ATOM     66  F   UNL     1     -12.872  -0.386 -13.935  1.00  0.00    -0.206 F 
ATOM     67  C   UNL     1     -13.056   1.901 -14.425  1.00  0.00     0.059 A 
ATOM     68  C   UNL     1     -13.870   3.439 -12.732  1.00  0.00     0.059 A 
ATOM     69  F   UNL     1     -14.440   2.632 -10.604  1.00  0.00    -0.206 F 
ATOM     70  C   UNL     1     -13.379   3.195 -14.014  1.00  0.00     0.060 A 
BRANCH  70  71
ATOM     71  S   UNL     1     -13.149   4.559 -15.175  1.00  0.00     0.124 S 
ATOM     72  O   UNL     1     -11.706   4.762 -15.099  1.00  0.00    -0.237 OA
ATOM     73  O   UNL     1     -13.645   3.996 -16.427  1.00  0.00    -0.237 OA
ATOM     74  O   UNL     1     -13.965   5.627 -14.607  1.00  0.00    -0.744 OA
ENDBRANCH  70  71
ENDBRANCH  49  63
BRANCH  50  75
ATOM     75  C   UNL     1     -14.189  -6.299  -5.535  1.00  0.00     0.058 A 
ATOM     76  C   UNL     1     -14.555  -7.599  -5.913  1.00  0.00     0.135 A 
ATOM     77  C   UNL     1     -13.906  -6.064  -4.182  1.00  0.00     0.135 A 
ATOM     78  F   UNL     1     -14.844  -7.868  -7.196  1.00  0.00    -0.206 F 
ATOM     79  C   UNL     1     -14.649  -8.628  -4.983  1.00  0.00     0.059 A 
ATOM     80  C   UNL     1     -13.974  -7.082  -3.236  1.00  0.00     0.059 A 
ATOM     81  F   UNL     1     -13.539  -4.839  -3.775  1.00  0.00    -0.206 F 
ATOM     82  C   UNL     1     -14.355  -8.360  -3.645  1.00  0.00     0.060 A 
BRANCH  82  83
ATOM     83  S   UNL     1     -14.423  -9.713  -2.451  1.00  0.00     0.124 S 
ATOM     84  O   UNL     1     -15.858  -9.840  -2.232  1.00  0.00    -0.237 OA
ATOM     85  O   UNL     1     -13.790 -10.805  -3.186  1.00  0.00    -0.237 OA
ATOM     86  O   UNL     1     -13.652  -9.200  -1.323  1.00  0.00    -0.744 OA
ENDBRANCH  82  83
ENDBRANCH  50  75
BRANCH  62  87
ATOM     87  C   UNL     1     -18.964  -2.832  -9.233  1.00  0.00     0.058 A 
ATOM     88  C   UNL     1     -19.816  -2.366  -8.220  1.00  0.00     0.135 A 
ATOM     89  C   UNL     1     -19.552  -3.408 -10.371  1.00  0.00     0.135 A 
ATOM     90  F   UNL     1     -19.304  -1.811  -7.110  1.00  0.00    -0.206 F 
ATOM     91  C   UNL     1     -21.198  -2.495  -8.316  1.00  0.00     0.059 A 
ATOM     92  C   UNL     1     -20.932  -3.529 -10.498  1.00  0.00     0.059 A 
ATOM     93  F   UNL     1     -18.782  -3.860 -11.374  1.00  0.00    -0.206 F 
ATOM     94  C   UNL     1     -21.747  -3.084  -9.457  1.00  0.00     0.060 A 
BRANCH  94  95
ATOM     95  S   UNL     1     -23.542  -3.241  -9.582  1.00  0.00     0.124 S 
ATOM     96  O   UNL     1     -23.791  -4.418  -8.757  1.00  0.00    -0.237 OA
ATOM     97  O   UNL     1     -24.011  -1.972  -9.033  1.00  0.00    -0.237 OA
ATOM     98  O   UNL     1     -23.767  -3.416 -11.014  1.00  0.00    -0.744 OA
ENDBRANCH  94  95
ENDBRANCH  62  87
ENDBRANCH  36  37
ENDBRANCH  28  31
ENDBRANCH  26  27
ENDBRANCH   1  26
TORSDOF 16
