REMARK SMILES C[NH+]1CCC([NH+]2CCC(Oc3ccc4ccccc4c3)(C(=O)NCCCNC(=O)c3ccc(-c4c5nc(c(-c6c(F)cc(S(=O)(=O)[O-])cc6F)c6ccc([nH]6)c(-c6c(F)cc(S(=O)(=O)[O-])cc6F)c6nc(c(-c7c(F)cc(S(=O)(=O)[O-])cc7F)c7ccc4[nH]7)C=C6)C=C5)cc3)CC2)CC1
REMARK SMILES IDX 25 1 24 2 23 3 21 4 22 5 9 7 6 8 7 9 97 10 8 12 96 13 5 14
REMARK SMILES IDX 1 15 2 16 3 17 99 18 4 20 98 21 10 22 11 23 12 24 20 25
REMARK SMILES IDX 13 26 19 27 14 28 18 29 15 30 17 31 16 32 26 33 27 34 28 35
REMARK SMILES IDX 29 37 30 38 31 39 95 40 32 41 94 42 33 43 34 44 35 45 88 46
REMARK SMILES IDX 36 47 93 48 87 49 89 50 37 51 92 52 86 53 85 54 38 56 72 57
REMARK SMILES IDX 51 58 71 59 52 60 55 61 70 62 90 63 53 64 54 65 69 67 91 68
REMARK SMILES IDX 56 69 39 70 40 71 49 72 41 73 42 74 48 75 50 76 43 77 44 78
REMARK SMILES IDX 45 79 46 80 47 81 73 82 74 83 83 84 75 85 76 86 82 87 84 88
REMARK SMILES IDX 77 89 78 90 79 91 80 92 81 93 57 94 58 95 67 96 59 97 60 98
REMARK SMILES IDX 66 99 68 100 61 101 62 102 63 103 64 104 65 105
REMARK H PARENT 23 6 6 11 2 19 27 36 89 55 55 66
REMARK Flexibility Score: inf
ROOT
ATOM      1  C   UNL     1       4.723  -1.146   5.536  1.00  0.00     0.042 C 
ENDROOT
BRANCH   1   2
ATOM      2  C   UNL     1       5.829  -1.644   4.611  1.00  0.00     0.118 C 
BRANCH   2   3
ATOM      3  N   UNL     1       5.321  -2.510   3.560  1.00  0.00    -0.353 N 
ATOM      4  C   UNL     1       5.245  -2.324   2.207  1.00  0.00     0.264 C 
ATOM      5  O   UNL     1       4.883  -3.306   1.550  1.00  0.00    -0.270 OA
ATOM      6  H   UNL     1       4.973  -3.376   3.874  1.00  0.00     0.163 HD
BRANCH   4   7
ATOM      7  C   UNL     1       5.593  -0.956   1.544  1.00  0.00     0.197 C 
ATOM      8  N   UNL     1       3.100  -0.114   0.214  1.00  0.00    -0.332 N 
ATOM      9  C   UNL     1       3.216  -0.123   1.676  1.00  0.00     0.267 C 
ATOM     10  C   UNL     1       3.927  -1.169  -0.395  1.00  0.00     0.267 C 
ATOM     11  H   UNL     1       3.470   0.784  -0.098  1.00  0.00     0.348 HD
ATOM     12  C   UNL     1       4.664   0.148   2.059  1.00  0.00     0.120 C 
ATOM     13  C   UNL     1       5.408  -1.063   0.014  1.00  0.00     0.120 C 
BRANCH   8  14
ATOM     14  C   UNL     1       1.696  -0.134  -0.273  1.00  0.00     0.195 C 
ATOM     15  C   UNL     1      -2.614   0.070  -0.236  1.00  0.00     0.332 C 
ATOM     16  N   UNL     1      -1.199   0.017   0.121  1.00  0.00    -0.337 N 
ATOM     17  C   UNL     1      -0.478   1.175  -0.419  1.00  0.00     0.268 C 
ATOM     18  C   UNL     1      -0.586  -1.236  -0.327  1.00  0.00     0.268 C 
ATOM     19  H   UNL     1      -1.133   0.051   1.138  1.00  0.00     0.347 HD
ATOM     20  C   UNL     1       0.968   1.181   0.075  1.00  0.00     0.126 C 
ATOM     21  C   UNL     1       0.855  -1.341   0.178  1.00  0.00     0.126 C 
ENDBRANCH   8  14
BRANCH   7  22
ATOM     22  O   UNL     1       6.989  -0.824   1.914  1.00  0.00    -0.477 OA
BRANCH  22  23
ATOM     23  C   UNL     1       7.697   0.260   1.496  1.00  0.00     0.121 A 
ATOM     24  C   UNL     1       7.470   1.541   1.986  1.00  0.00     0.047 A 
ATOM     25  C   UNL     1       8.799   0.019   0.675  1.00  0.00     0.055 A 
ATOM     26  C   UNL     1       8.265   2.606   1.563  1.00  0.00     0.012 A 
ATOM     27  C   UNL     1       9.637   1.072   0.271  1.00  0.00    -0.015 A 
ATOM     28  C   UNL     1       9.348   2.388   0.701  1.00  0.00    -0.018 A 
ATOM     29  C   UNL     1      10.761   0.849  -0.540  1.00  0.00     0.009 A 
ATOM     30  C   UNL     1      10.165   3.447   0.279  1.00  0.00     0.009 A 
ATOM     31  C   UNL     1      11.574   1.911  -0.938  1.00  0.00     0.001 A 
ATOM     32  C   UNL     1      11.271   3.210  -0.537  1.00  0.00     0.001 A 
ENDBRANCH  22  23
ENDBRANCH   7  22
ENDBRANCH   4   7
ENDBRANCH   2   3
ENDBRANCH   1   2
BRANCH   1  33
ATOM     33  C   UNL     1       4.032  -2.241   6.340  1.00  0.00     0.118 C 
BRANCH  33  34
ATOM     34  N   UNL     1       4.932  -2.908   7.268  1.00  0.00    -0.352 N 
ATOM     35  C   UNL     1       4.898  -2.985   8.637  1.00  0.00     0.251 C 
ATOM     36  H   UNL     1       5.687  -3.378   6.846  1.00  0.00     0.163 HD
ATOM     37  O   UNL     1       5.878  -3.439   9.233  1.00  0.00    -0.269 OA
BRANCH  35  38
ATOM     38  C   UNL     1       3.721  -2.521   9.404  1.00  0.00     0.039 A 
ATOM     39  C   UNL     1       3.931  -1.844  10.609  1.00  0.00     0.014 A 
ATOM     40  C   UNL     1       2.417  -2.783   8.974  1.00  0.00     0.014 A 
ATOM     41  C   UNL     1       2.839  -1.380  11.349  1.00  0.00     0.010 A 
ATOM     42  C   UNL     1       1.332  -2.255   9.673  1.00  0.00     0.010 A 
ATOM     43  C   UNL     1       1.530  -1.552  10.870  1.00  0.00    -0.014 A 
BRANCH  43  44
ATOM     44  C   UNL     1       0.365  -0.997  11.607  1.00  0.00     0.031 A 
ATOM     45  C   UNL     1      -0.682  -1.913  12.183  1.00  0.00     0.074 A 
ATOM     46  C   UNL     1       0.219   0.339  11.706  1.00  0.00     0.049 A 
ATOM     47  N   UNL     1      -1.790  -1.610  12.809  1.00  0.00    -0.248 NA
ATOM     48  C   UNL     1      -0.469  -3.359  12.009  1.00  0.00     0.031 C 
ATOM     49  C   UNL     1       1.135   1.334  11.142  1.00  0.00     0.029 A 
ATOM     50  N   UNL     1      -0.759   1.093  12.305  1.00  0.00    -0.354 N 
ATOM     51  C   UNL     1      -2.413  -2.821  13.090  1.00  0.00     0.074 A 
ATOM     52  C   UNL     1      -1.582  -3.861  12.523  1.00  0.00     0.031 C 
ATOM     53  C   UNL     1       0.686   2.564  11.438  1.00  0.00     0.029 A 
ATOM     54  C   UNL     1      -0.565   2.449  12.180  1.00  0.00     0.049 A 
ATOM     55  H   UNL     1      -1.527   0.701  12.779  1.00  0.00     0.167 HD
ATOM     56  C   UNL     1      -3.560  -3.046  13.774  1.00  0.00     0.037 A 
ATOM     57  C   UNL     1      -1.313   3.484  12.609  1.00  0.00     0.037 A 
ATOM     58  C   UNL     1      -4.369  -2.007  14.360  1.00  0.00     0.049 A 
ATOM     59  C   UNL     1      -2.574   3.209  13.382  1.00  0.00     0.074 A 
ATOM     60  C   UNL     1      -5.510  -2.137  15.132  1.00  0.00     0.029 A 
ATOM     61  N   UNL     1      -4.124  -0.647  14.237  1.00  0.00    -0.354 N 
ATOM     62  N   UNL     1      -3.109   2.055  13.700  1.00  0.00    -0.248 NA
ATOM     63  C   UNL     1      -3.327   4.376  13.861  1.00  0.00     0.031 C 
ATOM     64  C   UNL     1      -5.979  -0.856  15.440  1.00  0.00     0.029 A 
ATOM     65  C   UNL     1      -5.104   0.073  14.900  1.00  0.00     0.049 A 
ATOM     66  H   UNL     1      -3.365  -0.252  13.750  1.00  0.00     0.167 HD
ATOM     67  C   UNL     1      -4.251   2.356  14.435  1.00  0.00     0.074 A 
ATOM     68  C   UNL     1      -4.319   3.800  14.527  1.00  0.00     0.031 C 
ATOM     69  C   UNL     1      -5.160   1.512  14.983  1.00  0.00     0.037 A 
BRANCH  56  70
ATOM     70  C   UNL     1      -4.010  -4.473  13.931  1.00  0.00     0.058 A 
ATOM     71  C   UNL     1      -3.325  -5.376  14.760  1.00  0.00     0.135 A 
ATOM     72  C   UNL     1      -5.159  -4.937  13.270  1.00  0.00     0.135 A 
ATOM     73  F   UNL     1      -2.213  -4.991  15.406  1.00  0.00    -0.206 F 
ATOM     74  C   UNL     1      -3.742  -6.696  14.902  1.00  0.00     0.059 A 
ATOM     75  C   UNL     1      -5.611  -6.246  13.419  1.00  0.00     0.059 A 
ATOM     76  F   UNL     1      -5.854  -4.117  12.466  1.00  0.00    -0.206 F 
ATOM     77  C   UNL     1      -4.886  -7.122  14.226  1.00  0.00     0.060 A 
BRANCH  77  78
ATOM     78  S   UNL     1      -5.415  -8.837  14.420  1.00  0.00     0.124 S 
ATOM     79  O   UNL     1      -4.421  -9.540  13.613  1.00  0.00    -0.237 OA
ATOM     80  O   UNL     1      -5.314  -9.035  15.862  1.00  0.00    -0.237 OA
ATOM     81  O   UNL     1      -6.772  -8.838  13.883  1.00  0.00    -0.744 OA
ENDBRANCH  77  78
ENDBRANCH  56  70
BRANCH  57  82
ATOM     82  C   UNL     1      -0.873   4.878  12.334  1.00  0.00     0.058 A 
ATOM     83  C   UNL     1      -0.386   5.697  13.362  1.00  0.00     0.135 A 
ATOM     84  C   UNL     1      -0.910   5.409  11.035  1.00  0.00     0.135 A 
ATOM     85  F   UNL     1      -0.336   5.236  14.621  1.00  0.00    -0.206 F 
ATOM     86  C   UNL     1       0.038   7.000  13.117  1.00  0.00     0.059 A 
ATOM     87  C   UNL     1      -0.470   6.700  10.761  1.00  0.00     0.059 A 
ATOM     88  F   UNL     1      -1.352   4.659  10.014  1.00  0.00    -0.206 F 
ATOM     89  C   UNL     1      -0.005   7.491  11.811  1.00  0.00     0.060 A 
BRANCH  89  90
ATOM     90  S   UNL     1       0.600   9.163  11.493  1.00  0.00     0.124 S 
ATOM     91  O   UNL     1      -0.483   9.975  12.035  1.00  0.00    -0.237 OA
ATOM     92  O   UNL     1       1.852   9.184  12.244  1.00  0.00    -0.237 OA
ATOM     93  O   UNL     1       0.750   9.194  10.041  1.00  0.00    -0.744 OA
ENDBRANCH  89  90
ENDBRANCH  57  82
BRANCH  69  94
ATOM     94  C   UNL     1      -6.294   2.128  15.755  1.00  0.00     0.058 A 
ATOM     95  C   UNL     1      -7.345   2.799  15.110  1.00  0.00     0.135 A 
ATOM     96  C   UNL     1      -6.348   2.014  17.153  1.00  0.00     0.135 A 
ATOM     97  F   UNL     1      -7.338   2.941  13.775  1.00  0.00    -0.206 F 
ATOM     98  C   UNL     1      -8.397   3.359  15.827  1.00  0.00     0.059 A 
ATOM     99  C   UNL     1      -7.404   2.543  17.888  1.00  0.00     0.059 A 
ATOM    100  F   UNL     1      -5.374   1.373  17.818  1.00  0.00    -0.206 F 
ATOM    101  C   UNL     1      -8.417   3.227  17.217  1.00  0.00     0.060 A 
BRANCH 101 102
ATOM    102  S   UNL     1      -9.799   3.938  18.136  1.00  0.00     0.124 S 
ATOM    103  O   UNL     1      -9.473   5.360  18.100  1.00  0.00    -0.237 OA
ATOM    104  O   UNL     1     -10.950   3.532  17.336  1.00  0.00    -0.237 OA
ATOM    105  O   UNL     1      -9.698   3.303  19.446  1.00  0.00    -0.744 OA
ENDBRANCH 101 102
ENDBRANCH  69  94
ENDBRANCH  43  44
ENDBRANCH  35  38
ENDBRANCH  33  34
ENDBRANCH   1  33
TORSDOF 16
