REMARK SMILES CNc1cc(-c2cncc(SCC(=O)NCCCNC(=O)c3ccc(-c4c5nc(c(-c6c(F)cc(S(=O)(=O)[O-])cc6F)c6ccc([nH]6)c(-c6c(F)cc(S(=O)(=O)[O-])cc6F)c6nc(c(-c7c(F)cc(S(=O)(=O)[O-])cc7F)c7ccc4[nH]7)C=C6)C=C5)cc3)n2)c2cc[nH]c2n1
REMARK SMILES IDX 16 1 15 2 13 3 14 4 12 6 11 7 10 8 6 9 7 10 88 11 8 12 9 13
REMARK SMILES IDX 5 14 3 15 4 16 94 17 93 18 89 19 92 20 90 21 91 22 2 24 1 25
REMARK SMILES IDX 17 27 18 28 19 29 20 30 21 32 22 33 23 34 87 35 24 36 86 37
REMARK SMILES IDX 25 38 26 39 27 40 80 41 28 42 85 43 79 44 81 45 29 46 84 47
REMARK SMILES IDX 78 48 77 49 30 51 64 52 43 53 63 54 44 55 47 56 62 57 82 58
REMARK SMILES IDX 45 59 46 60 61 62 83 63 48 64 31 65 32 66 41 67 33 68 34 69
REMARK SMILES IDX 40 70 42 71 35 72 36 73 37 74 38 75 39 76 65 77 66 78 75 79
REMARK SMILES IDX 67 80 68 81 74 82 76 83 69 84 70 85 71 86 72 87 73 88 49 89
REMARK SMILES IDX 50 90 59 91 51 92 52 93 58 94 60 95 53 96 54 97 55 98 56 99
REMARK SMILES IDX 57 100
REMARK H PARENT 15 5 92 23 2 26 19 31 81 50 47 61
REMARK Flexibility Score: inf
ROOT
ATOM      1  C   UNL     1      -5.592   2.418  -8.134  1.00  0.00     0.117 C 
ENDROOT
BRANCH   1   2
ATOM      2  N   UNL     1      -4.420   2.869  -7.407  1.00  0.00    -0.355 N 
ATOM      3  C   UNL     1      -3.351   2.170  -6.929  1.00  0.00     0.230 C 
ATOM      4  O   UNL     1      -2.410   2.834  -6.486  1.00  0.00    -0.274 OA
ATOM      5  H   UNL     1      -4.392   3.837  -7.230  1.00  0.00     0.163 HD
BRANCH   3   6
ATOM      6  C   UNL     1      -3.239   0.665  -7.085  1.00  0.00     0.176 C 
BRANCH   6   7
ATOM      7  S   UNL     1      -4.601  -0.305  -6.378  1.00  0.00    -0.095 SA
BRANCH   7   8
ATOM      8  C   UNL     1      -4.480   0.050  -4.640  1.00  0.00     0.116 A 
ATOM      9  C   UNL     1      -3.422   1.005  -2.829  1.00  0.00     0.091 A 
ATOM     10  C   UNL     1      -4.409   0.485  -1.993  1.00  0.00     0.140 A 
ATOM     11  N   UNL     1      -3.448   0.784  -4.172  1.00  0.00    -0.238 NA
ATOM     12  N   UNL     1      -5.440  -0.263  -2.445  1.00  0.00    -0.260 NA
ATOM     13  C   UNL     1      -5.452  -0.463  -3.783  1.00  0.00     0.146 A 
BRANCH   9  14
ATOM     14  C   UNL     1      -2.305   1.777  -2.298  1.00  0.00     0.016 A 
ATOM     15  C   UNL     1      -0.339   2.011  -0.878  1.00  0.00     0.128 A 
ATOM     16  C   UNL     1      -1.374   1.233  -1.394  1.00  0.00     0.058 A 
ATOM     17  N   UNL     1      -0.186   3.316  -1.164  1.00  0.00    -0.213 NA
ATOM     18  C   UNL     1      -1.080   3.804  -2.039  1.00  0.00     0.140 A 
ATOM     19  C   UNL     1      -2.132   3.129  -2.645  1.00  0.00     0.028 A 
ATOM     20  N   UNL     1      -1.084   5.095  -2.490  1.00  0.00    -0.346 N 
ATOM     21  C   UNL     1      -2.783   4.076  -3.487  1.00  0.00     0.030 A 
ATOM     22  C   UNL     1      -2.112   5.276  -3.377  1.00  0.00     0.085 A 
ATOM     23  H   UNL     1      -0.443   5.791  -2.217  1.00  0.00     0.167 HD
BRANCH  15  24
ATOM     24  N   UNL     1       0.624   1.507  -0.038  1.00  0.00    -0.373 N 
ATOM     25  C   UNL     1       1.002   0.121   0.015  1.00  0.00     0.141 C 
ATOM     26  H   UNL     1       1.084   2.134   0.565  1.00  0.00     0.161 HD
ENDBRANCH  15  24
ENDBRANCH   9  14
ENDBRANCH   7   8
ENDBRANCH   6   7
ENDBRANCH   3   6
ENDBRANCH   1   2
BRANCH   1  27
ATOM     27  C   UNL     1      -6.862   2.503  -7.292  1.00  0.00     0.042 C 
BRANCH  27  28
ATOM     28  C   UNL     1      -7.250   3.923  -6.883  1.00  0.00     0.118 C 
BRANCH  28  29
ATOM     29  N   UNL     1      -7.582   4.769  -8.021  1.00  0.00    -0.352 N 
ATOM     30  C   UNL     1      -8.738   5.451  -8.311  1.00  0.00     0.251 C 
ATOM     31  H   UNL     1      -6.865   4.867  -8.688  1.00  0.00     0.163 HD
ATOM     32  O   UNL     1      -8.867   5.964  -9.423  1.00  0.00    -0.269 OA
BRANCH  30  33
ATOM     33  C   UNL     1      -9.829   5.558  -7.318  1.00  0.00     0.039 A 
ATOM     34  C   UNL     1     -11.151   5.426  -7.753  1.00  0.00     0.014 A 
ATOM     35  C   UNL     1      -9.565   5.815  -5.970  1.00  0.00     0.014 A 
ATOM     36  C   UNL     1     -12.198   5.484  -6.830  1.00  0.00     0.010 A 
ATOM     37  C   UNL     1     -10.603   5.795  -5.040  1.00  0.00     0.010 A 
ATOM     38  C   UNL     1     -11.931   5.630  -5.458  1.00  0.00    -0.014 A 
BRANCH  38  39
ATOM     39  C   UNL     1     -13.027   5.598  -4.452  1.00  0.00     0.031 A 
ATOM     40  C   UNL     1     -13.303   6.797  -3.585  1.00  0.00     0.074 A 
ATOM     41  C   UNL     1     -13.728   4.461  -4.271  1.00  0.00     0.049 A 
ATOM     42  N   UNL     1     -14.167   6.932  -2.612  1.00  0.00    -0.248 NA
ATOM     43  C   UNL     1     -12.481   7.993  -3.826  1.00  0.00     0.031 C 
ATOM     44  C   UNL     1     -13.520   3.213  -5.008  1.00  0.00     0.029 A 
ATOM     45  N   UNL     1     -14.746   4.163  -3.399  1.00  0.00    -0.354 N 
ATOM     46  C   UNL     1     -13.984   8.217  -2.115  1.00  0.00     0.074 A 
ATOM     47  C   UNL     1     -12.890   8.803  -2.860  1.00  0.00     0.031 C 
ATOM     48  C   UNL     1     -14.389   2.290  -4.568  1.00  0.00     0.029 A 
ATOM     49  C   UNL     1     -15.188   2.864  -3.490  1.00  0.00     0.049 A 
ATOM     50  H   UNL     1     -15.124   4.817  -2.768  1.00  0.00     0.167 HD
ATOM     51  C   UNL     1     -14.677   8.858  -1.143  1.00  0.00     0.037 A 
ATOM     52  C   UNL     1     -16.120   2.200  -2.776  1.00  0.00     0.037 A 
ATOM     53  C   UNL     1     -15.775   8.273  -0.416  1.00  0.00     0.049 A 
ATOM     54  C   UNL     1     -16.877   2.930  -1.701  1.00  0.00     0.074 A 
ATOM     55  C   UNL     1     -16.582   8.860   0.542  1.00  0.00     0.029 A 
ATOM     56  N   UNL     1     -16.212   6.963  -0.556  1.00  0.00    -0.354 N 
ATOM     57  N   UNL     1     -16.745   4.172  -1.298  1.00  0.00    -0.248 NA
ATOM     58  C   UNL     1     -17.917   2.175  -0.989  1.00  0.00     0.031 C 
ATOM     59  C   UNL     1     -17.471   7.891   1.020  1.00  0.00     0.029 A 
ATOM     60  C   UNL     1     -17.259   6.715   0.317  1.00  0.00     0.049 A 
ATOM     61  H   UNL     1     -15.833   6.306  -1.184  1.00  0.00     0.167 HD
ATOM     62  C   UNL     1     -17.699   4.354  -0.303  1.00  0.00     0.074 A 
ATOM     63  C   UNL     1     -18.412   3.099  -0.176  1.00  0.00     0.031 C 
ATOM     64  C   UNL     1     -17.962   5.460   0.436  1.00  0.00     0.037 A 
BRANCH  51  65
ATOM     65  C   UNL     1     -14.263  10.267  -0.804  1.00  0.00     0.058 A 
ATOM     66  C   UNL     1     -14.447  11.330  -1.704  1.00  0.00     0.135 A 
ATOM     67  C   UNL     1     -13.693  10.562   0.445  1.00  0.00     0.135 A 
ATOM     68  F   UNL     1     -14.977  11.106  -2.917  1.00  0.00    -0.206 F 
ATOM     69  C   UNL     1     -14.044  12.625  -1.394  1.00  0.00     0.059 A 
ATOM     70  C   UNL     1     -13.312  11.857   0.789  1.00  0.00     0.059 A 
ATOM     71  F   UNL     1     -13.497   9.588   1.347  1.00  0.00    -0.206 F 
ATOM     72  C   UNL     1     -13.473  12.878  -0.146  1.00  0.00     0.060 A 
BRANCH  72  73
ATOM     73  S   UNL     1     -12.942  14.561   0.234  1.00  0.00     0.124 S 
ATOM     74  O   UNL     1     -11.759  14.689  -0.612  1.00  0.00    -0.237 OA
ATOM     75  O   UNL     1     -14.099  15.352  -0.172  1.00  0.00    -0.237 OA
ATOM     76  O   UNL     1     -12.685  14.522   1.670  1.00  0.00    -0.744 OA
ENDBRANCH  72  73
ENDBRANCH  51  65
BRANCH  52  77
ATOM     77  C   UNL     1     -16.387   0.766  -3.068  1.00  0.00     0.058 A 
ATOM     78  C   UNL     1     -17.585   0.359  -3.675  1.00  0.00     0.135 A 
ATOM     79  C   UNL     1     -15.434  -0.223  -2.777  1.00  0.00     0.135 A 
ATOM     80  F   UNL     1     -18.530   1.265  -3.966  1.00  0.00    -0.206 F 
ATOM     81  C   UNL     1     -17.834  -0.977  -3.974  1.00  0.00     0.059 A 
ATOM     82  C   UNL     1     -15.648  -1.561  -3.091  1.00  0.00     0.059 A 
ATOM     83  F   UNL     1     -14.265   0.115  -2.212  1.00  0.00    -0.206 F 
ATOM     84  C   UNL     1     -16.855  -1.929  -3.684  1.00  0.00     0.060 A 
BRANCH  84  85
ATOM     85  S   UNL     1     -17.160  -3.651  -4.138  1.00  0.00     0.124 S 
ATOM     86  O   UNL     1     -18.168  -4.039  -3.159  1.00  0.00    -0.237 OA
ATOM     87  O   UNL     1     -17.623  -3.525  -5.517  1.00  0.00    -0.237 OA
ATOM     88  O   UNL     1     -15.851  -4.277  -3.980  1.00  0.00    -0.744 OA
ENDBRANCH  84  85
ENDBRANCH  52  77
BRANCH  64  89
ATOM     89  C   UNL     1     -19.088   5.380   1.431  1.00  0.00     0.058 A 
ATOM     90  C   UNL     1     -18.982   4.630   2.613  1.00  0.00     0.135 A 
ATOM     91  C   UNL     1     -20.271   6.109   1.224  1.00  0.00     0.135 A 
ATOM     92  F   UNL     1     -17.876   3.909   2.859  1.00  0.00    -0.206 F 
ATOM     93  C   UNL     1     -20.017   4.585   3.542  1.00  0.00     0.059 A 
ATOM     94  C   UNL     1     -21.307   6.103   2.153  1.00  0.00     0.059 A 
ATOM     95  F   UNL     1     -20.423   6.851   0.115  1.00  0.00    -0.206 F 
ATOM     96  C   UNL     1     -21.175   5.329   3.304  1.00  0.00     0.060 A 
BRANCH  96  97
ATOM     97  S   UNL     1     -22.496   5.289   4.534  1.00  0.00     0.124 S 
ATOM     98  O   UNL     1     -23.038   3.948   4.341  1.00  0.00    -0.237 OA
ATOM     99  O   UNL     1     -21.769   5.506   5.781  1.00  0.00    -0.237 OA
ATOM    100  O   UNL     1     -23.372   6.384   4.128  1.00  0.00    -0.744 OA
ENDBRANCH  96  97
ENDBRANCH  64  89
ENDBRANCH  38  39
ENDBRANCH  30  33
ENDBRANCH  28  29
ENDBRANCH  27  28
ENDBRANCH   1  27
TORSDOF 17
