REMARK SMILES O=C(NCCCNC(=O)[C@H](CO)NC(=O)[C@H](Cc1ccc(O)cc1)NC(=O)c1ccc(F)cc1)c1ccc(-c2c3nc(c(-c4c(F)cc(S(=O)(=O)[O-])cc4F)c4ccc([nH]4)c(-c4c(F)cc(S(=O)(=O)[O-])cc4F)c4nc(c(-c5c(F)cc(S(=O)(=O)[O-])cc5F)c5ccc2[nH]5)C=C4)C=C3)cc1
REMARK SMILES IDX 6 1 5 2 4 3 3 4 1 5 2 6 35 8 36 9 100 10 37 11 99 12 38 13
REMARK SMILES IDX 39 14 40 15 93 16 41 17 98 18 92 19 94 20 42 21 97 22 91 23
REMARK SMILES IDX 90 24 43 26 77 27 56 28 76 29 57 30 60 31 75 32 95 33 58 34
REMARK SMILES IDX 59 35 74 37 96 38 61 39 44 40 45 41 54 42 46 43 47 44 53 45
REMARK SMILES IDX 55 46 48 47 49 48 50 49 51 50 52 51 78 52 79 53 88 54 80 55
REMARK SMILES IDX 81 56 87 57 89 58 82 59 83 60 84 61 85 62 86 63 62 64 63 65
REMARK SMILES IDX 72 66 64 67 65 68 71 69 73 70 66 71 67 72 68 73 69 74 70 75
REMARK SMILES IDX 7 76 8 77 9 79 10 80 13 81 14 82 15 84 16 85 25 86 26 87
REMARK SMILES IDX 27 89 28 90 29 91 34 92 30 93 33 94 31 95 32 96 17 97 18 98
REMARK SMILES IDX 19 99 24 100 20 101 23 102 21 103 22 104 11 106 12 107
REMARK H PARENT 3 7 94 25 60 36 7 78 13 83 25 88 22 105 12 108
REMARK Flexibility Score: inf
ROOT
ATOM      1  C   UNL     1       2.657  -0.141   4.825  1.00  0.00     0.117 C 
ENDROOT
BRANCH   1   2
ATOM      2  C   UNL     1       3.016   0.968   3.836  1.00  0.00     0.042 C 
BRANCH   2   3
ATOM      3  C   UNL     1       2.591   0.717   2.388  1.00  0.00     0.118 C 
BRANCH   3   4
ATOM      4  N   UNL     1       1.336   1.380   2.089  1.00  0.00    -0.352 N 
ATOM      5  O   UNL     1       0.015   3.012   1.319  1.00  0.00    -0.269 OA
ATOM      6  C   UNL     1       1.065   2.385   1.192  1.00  0.00     0.251 C 
ATOM      7  H   UNL     1       0.561   1.062   2.607  1.00  0.00     0.163 HD
BRANCH   6   8
ATOM      8  C   UNL     1       1.988   2.720   0.075  1.00  0.00     0.039 A 
ATOM      9  C   UNL     1       2.628   1.731  -0.680  1.00  0.00     0.014 A 
ATOM     10  C   UNL     1       2.080   4.059  -0.329  1.00  0.00     0.014 A 
ATOM     11  C   UNL     1       3.362   2.080  -1.822  1.00  0.00     0.010 A 
ATOM     12  C   UNL     1       2.787   4.405  -1.487  1.00  0.00     0.010 A 
ATOM     13  C   UNL     1       3.417   3.416  -2.255  1.00  0.00    -0.014 A 
BRANCH  13  14
ATOM     14  C   UNL     1       3.970   3.753  -3.593  1.00  0.00     0.031 A 
ATOM     15  C   UNL     1       5.280   4.464  -3.757  1.00  0.00     0.074 A 
ATOM     16  C   UNL     1       3.238   3.452  -4.684  1.00  0.00     0.049 A 
ATOM     17  N   UNL     1       5.872   4.846  -4.861  1.00  0.00    -0.248 NA
ATOM     18  C   UNL     1       6.018   4.794  -2.531  1.00  0.00     0.031 C 
ATOM     19  C   UNL     1       1.931   2.792  -4.661  1.00  0.00     0.029 A 
ATOM     20  N   UNL     1       3.482   3.665  -6.018  1.00  0.00    -0.354 N 
ATOM     21  C   UNL     1       7.047   5.472  -4.468  1.00  0.00     0.074 A 
ATOM     22  C   UNL     1       7.079   5.425  -3.019  1.00  0.00     0.031 C 
ATOM     23  C   UNL     1       1.496   2.638  -5.921  1.00  0.00     0.029 A 
ATOM     24  C   UNL     1       2.477   3.213  -6.838  1.00  0.00     0.049 A 
ATOM     25  H   UNL     1       4.298   4.099  -6.354  1.00  0.00     0.167 HD
ATOM     26  C   UNL     1       8.008   6.031  -5.242  1.00  0.00     0.037 A 
ATOM     27  C   UNL     1       2.344   3.262  -8.178  1.00  0.00     0.037 A 
ATOM     28  C   UNL     1       7.988   6.071  -6.682  1.00  0.00     0.049 A 
ATOM     29  C   UNL     1       3.411   3.898  -9.013  1.00  0.00     0.074 A 
ATOM     30  C   UNL     1       8.959   6.555  -7.543  1.00  0.00     0.029 A 
ATOM     31  N   UNL     1       6.940   5.627  -7.474  1.00  0.00    -0.354 N 
ATOM     32  N   UNL     1       4.541   4.437  -8.624  1.00  0.00    -0.248 NA
ATOM     33  C   UNL     1       3.185   3.946 -10.464  1.00  0.00     0.031 C 
ATOM     34  C   UNL     1       8.487   6.427  -8.855  1.00  0.00     0.029 A 
ATOM     35  C   UNL     1       7.229   5.849  -8.811  1.00  0.00     0.049 A 
ATOM     36  H   UNL     1       6.113   5.215  -7.136  1.00  0.00     0.167 HD
ATOM     37  C   UNL     1       5.160   4.893  -9.781  1.00  0.00     0.074 A 
ATOM     38  C   UNL     1       4.286   4.557 -10.887  1.00  0.00     0.031 C 
ATOM     39  C   UNL     1       6.347   5.532  -9.906  1.00  0.00     0.037 A 
BRANCH  26  40
ATOM     40  C   UNL     1       9.175   6.656  -4.539  1.00  0.00     0.058 A 
ATOM     41  C   UNL     1       9.239   8.046  -4.360  1.00  0.00     0.135 A 
ATOM     42  C   UNL     1      10.245   5.879  -4.070  1.00  0.00     0.135 A 
ATOM     43  F   UNL     1       8.236   8.829  -4.785  1.00  0.00    -0.206 F 
ATOM     44  C   UNL     1      10.325   8.646  -3.730  1.00  0.00     0.059 A 
ATOM     45  C   UNL     1      11.336   6.457  -3.429  1.00  0.00     0.059 A 
ATOM     46  F   UNL     1      10.219   4.543  -4.205  1.00  0.00    -0.206 F 
ATOM     47  C   UNL     1      11.370   7.843  -3.269  1.00  0.00     0.060 A 
BRANCH  47  48
ATOM     48  S   UNL     1      12.740   8.613  -2.378  1.00  0.00     0.124 S 
ATOM     49  O   UNL     1      13.594   9.060  -3.472  1.00  0.00    -0.237 OA
ATOM     50  O   UNL     1      12.072   9.666  -1.618  1.00  0.00    -0.237 OA
ATOM     51  O   UNL     1      13.266   7.515  -1.572  1.00  0.00    -0.744 OA
ENDBRANCH  47  48
ENDBRANCH  26  40
BRANCH  27  52
ATOM     52  C   UNL     1       1.134   2.664  -8.790  1.00  0.00     0.058 A 
ATOM     53  C   UNL     1      -0.097   3.335  -8.761  1.00  0.00     0.135 A 
ATOM     54  C   UNL     1       1.168   1.361  -9.302  1.00  0.00     0.135 A 
ATOM     55  F   UNL     1      -0.172   4.582  -8.272  1.00  0.00    -0.206 F 
ATOM     56  C   UNL     1      -1.268   2.714  -9.178  1.00  0.00     0.059 A 
ATOM     57  C   UNL     1       0.011   0.722  -9.735  1.00  0.00     0.059 A 
ATOM     58  F   UNL     1       2.328   0.690  -9.352  1.00  0.00    -0.206 F 
ATOM     59  C   UNL     1      -1.206   1.398  -9.641  1.00  0.00     0.060 A 
BRANCH  59  60
ATOM     60  S   UNL     1      -2.742   0.565 -10.098  1.00  0.00     0.124 S 
ATOM     61  O   UNL     1      -3.266   0.190  -8.789  1.00  0.00    -0.237 OA
ATOM     62  O   UNL     1      -3.473   1.616 -10.799  1.00  0.00    -0.237 OA
ATOM     63  O   UNL     1      -2.284  -0.540 -10.934  1.00  0.00    -0.744 OA
ENDBRANCH  59  60
ENDBRANCH  27  52
BRANCH  39  64
ATOM     64  C   UNL     1       6.773   5.936 -11.286  1.00  0.00     0.058 A 
ATOM     65  C   UNL     1       7.699   5.168 -12.007  1.00  0.00     0.135 A 
ATOM     66  C   UNL     1       6.305   7.124 -11.867  1.00  0.00     0.135 A 
ATOM     67  F   UNL     1       8.171   4.021 -11.494  1.00  0.00    -0.206 F 
ATOM     68  C   UNL     1       8.162   5.574 -13.255  1.00  0.00     0.059 A 
ATOM     69  C   UNL     1       6.747   7.545 -13.117  1.00  0.00     0.059 A 
ATOM     70  F   UNL     1       5.406   7.882 -11.220  1.00  0.00    -0.206 F 
ATOM     71  C   UNL     1       7.689   6.771 -13.797  1.00  0.00     0.060 A 
BRANCH  71  72
ATOM     72  S   UNL     1       8.291   7.290 -15.419  1.00  0.00     0.124 S 
ATOM     73  O   UNL     1       9.597   7.848 -15.086  1.00  0.00    -0.237 OA
ATOM     74  O   UNL     1       8.308   6.035 -16.165  1.00  0.00    -0.237 OA
ATOM     75  O   UNL     1       7.286   8.255 -15.856  1.00  0.00    -0.744 OA
ENDBRANCH  71  72
ENDBRANCH  39  64
ENDBRANCH  13  14
ENDBRANCH   6   8
ENDBRANCH   3   4
ENDBRANCH   2   3
ENDBRANCH   1   2
BRANCH   1  76
ATOM     76  N   UNL     1       3.081  -1.489   4.467  1.00  0.00    -0.354 N 
ATOM     77  C   UNL     1       4.133  -2.254   4.916  1.00  0.00     0.244 C 
ATOM     78  H   UNL     1       2.519  -1.926   3.787  1.00  0.00     0.163 HD
ATOM     79  O   UNL     1       3.912  -3.472   4.984  1.00  0.00    -0.273 OA
BRANCH  77  80
ATOM     80  C   UNL     1       5.565  -1.552   5.579  1.00  0.00     0.197 C 
BRANCH  80  81
ATOM     81  N   UNL     1       5.097  -2.167   7.090  1.00  0.00    -0.340 N 
ATOM     82  C   UNL     1       5.216  -1.790   8.402  1.00  0.00     0.243 C 
ATOM     83  H   UNL     1       4.612  -3.019   7.000  1.00  0.00     0.164 HD
ATOM     84  O   UNL     1       4.613  -2.478   9.237  1.00  0.00    -0.273 OA
BRANCH  82  85
ATOM     85  C   UNL     1       6.184  -0.667   8.904  1.00  0.00     0.176 C 
BRANCH  85  86
ATOM     86  N   UNL     1       7.313  -1.226   9.677  1.00  0.00    -0.340 N 
ATOM     87  C   UNL     1       7.732  -0.873  10.928  1.00  0.00     0.251 C 
ATOM     88  H   UNL     1       7.827  -1.941   9.236  1.00  0.00     0.164 HD
ATOM     89  O   UNL     1       8.919  -0.947  11.230  1.00  0.00    -0.269 OA
BRANCH  87  90
ATOM     90  C   UNL     1       6.757  -0.463  11.950  1.00  0.00     0.040 A 
ATOM     91  C   UNL     1       5.841  -1.410  12.421  1.00  0.00     0.017 A 
ATOM     92  C   UNL     1       6.881   0.785  12.569  1.00  0.00     0.017 A 
ATOM     93  C   UNL     1       5.051  -1.107  13.530  1.00  0.00     0.040 A 
ATOM     94  C   UNL     1       6.071   1.090  13.665  1.00  0.00     0.040 A 
ATOM     95  C   UNL     1       5.174   0.137  14.142  1.00  0.00     0.123 A 
ATOM     96  F   UNL     1       4.433   0.415  15.223  1.00  0.00    -0.207 F 
ENDBRANCH  87  90
ENDBRANCH  85  86
BRANCH  85  97
ATOM     97  C   UNL     1       6.774   0.272   7.852  1.00  0.00     0.070 C 
BRANCH  97  98
ATOM     98  C   UNL     1       7.033  -0.459   6.565  1.00  0.00    -0.045 A 
ATOM     99  C   UNL     1       6.399   0.344   5.079  1.00  0.00     0.007 A 
ATOM    100  C   UNL     1       7.317  -2.265   6.576  1.00  0.00     0.007 A 
ATOM    101  C   UNL     1       5.924  -0.680   3.667  1.00  0.00     0.046 A 
ATOM    102  C   UNL     1       6.809  -3.251   5.172  1.00  0.00     0.046 A 
ATOM    103  C   UNL     1       6.182  -2.442   3.707  1.00  0.00     0.115 A 
BRANCH 103 104
ATOM    104  O   UNL     1       5.946  -3.200   2.603  1.00  0.00    -0.508 OA
ATOM    105  H   UNL     1       5.617  -2.800   1.822  1.00  0.00     0.293 HD
ENDBRANCH 103 104
ENDBRANCH  97  98
ENDBRANCH  85  97
ENDBRANCH  82  85
ENDBRANCH  80  81
BRANCH  80 106
ATOM    106  C   UNL     1       7.595  -1.333   4.761  1.00  0.00     0.191 C 
BRANCH 106 107
ATOM    107  O   UNL     1       8.133  -0.335   3.678  1.00  0.00    -0.394 OA
ATOM    108  H   UNL     1       7.809  -0.602   2.803  1.00  0.00     0.210 HD
ENDBRANCH 106 107
ENDBRANCH  80 106
ENDBRANCH  77  80
ENDBRANCH   1  76
TORSDOF 22
