REMARK SMILES Cc1cc(C)n(CCC(=O)N[C@@H](C(=O)NCCCNC(=O)c2ccc(-c3c4nc(c(-c5c(F)cc(S(=O)(=O)[O-])cc5F)c5ccc([nH]5)c(-c5c(F)cc(S(=O)(=O)[O-])cc5F)c5nc(c(-c6c(F)cc(S(=O)(=O)[O-])cc6F)c6ccc3[nH]6)C=C5)C=C4)cc2)[C@@H](C)O)n1
REMARK SMILES IDX 16 1 15 2 13 3 14 4 12 6 11 7 9 8 10 9 8 11 7 12 6 13 1 14
REMARK SMILES IDX 2 15 3 16 91 17 4 18 5 19 88 20 89 21 90 22 17 24 18 25
REMARK SMILES IDX 19 26 20 27 21 29 22 30 23 31 87 32 24 33 86 34 25 35 26 36
REMARK SMILES IDX 27 37 80 38 28 39 85 40 79 41 81 42 29 43 84 44 78 45 77 46
REMARK SMILES IDX 30 48 64 49 43 50 63 51 44 52 47 53 62 54 82 55 45 56 46 57
REMARK SMILES IDX 61 59 83 60 48 61 31 62 32 63 41 64 33 65 34 66 40 67 42 68
REMARK SMILES IDX 35 69 36 70 37 71 38 72 39 73 65 74 66 75 75 76 67 77 68 78
REMARK SMILES IDX 74 79 76 80 69 81 70 82 71 83 72 84 73 85 49 86 50 87 59 88
REMARK SMILES IDX 51 89 52 90 58 91 60 92 53 93 54 94 55 95 56 96 57 97
REMARK H PARENT 15 5 11 10 90 23 19 28 81 47 47 58
REMARK Flexibility Score: inf
ROOT
ATOM      1  C   UNL     1      -1.080  -4.660  -0.710  1.00  0.00     0.117 C 
ENDROOT
BRANCH   1   2
ATOM      2  N   UNL     1       0.383  -4.943  -0.722  1.00  0.00    -0.354 N 
ATOM      3  C   UNL     1       1.606  -4.581  -1.197  1.00  0.00     0.245 C 
ATOM      4  O   UNL     1       2.489  -5.345  -0.762  1.00  0.00    -0.273 OA
ATOM      5  H   UNL     1       0.526  -5.723  -0.138  1.00  0.00     0.163 HD
BRANCH   3   6
ATOM      6  C   UNL     1       2.042  -3.512  -2.289  1.00  0.00     0.199 C 
BRANCH   6   7
ATOM      7  N   UNL     1       1.944  -4.143  -3.628  1.00  0.00    -0.342 N 
ATOM      8  C   UNL     1       1.739  -3.691  -4.895  1.00  0.00     0.222 C 
ATOM      9  O   UNL     1       1.583  -4.551  -5.770  1.00  0.00    -0.275 OA
ATOM     10  H   UNL     1       2.054  -5.120  -3.592  1.00  0.00     0.164 HD
BRANCH   8  11
ATOM     11  C   UNL     1       1.730  -2.227  -5.313  1.00  0.00     0.123 C 
BRANCH  11  12
ATOM     12  C   UNL     1       0.379  -1.534  -5.349  1.00  0.00     0.154 C 
BRANCH  12  13
ATOM     13  N   UNL     1      -0.060  -1.175  -4.017  1.00  0.00    -0.269 N 
ATOM     14  C   UNL     1       0.566   0.769  -1.121  1.00  0.00     0.069 C 
ATOM     15  C   UNL     1       0.082  -0.185  -2.149  1.00  0.00     0.060 A 
ATOM     16  C   UNL     1      -0.731  -1.321  -1.949  1.00  0.00     0.048 A 
ATOM     17  N   UNL     1       0.479  -0.091  -3.422  1.00  0.00    -0.178 NA
ATOM     18  C   UNL     1      -0.793  -1.960  -3.174  1.00  0.00     0.036 A 
ATOM     19  C   UNL     1      -1.313  -3.289  -3.584  1.00  0.00     0.066 C 
ENDBRANCH  12  13
ENDBRANCH  11  12
ENDBRANCH   8  11
ENDBRANCH   6   7
BRANCH   6  20
ATOM     20  C   UNL     1       3.516  -3.036  -1.952  1.00  0.00     0.143 C 
ATOM     21  C   UNL     1       4.447  -2.696  -3.120  1.00  0.00     0.041 C 
BRANCH  20  22
ATOM     22  O   UNL     1       3.460  -1.865  -1.117  1.00  0.00    -0.391 OA
ATOM     23  H   UNL     1       3.063  -1.132  -1.613  1.00  0.00     0.211 HD
ENDBRANCH  20  22
ENDBRANCH   6  20
ENDBRANCH   3   6
ENDBRANCH   1   2
BRANCH   1  24
ATOM     24  C   UNL     1      -1.926  -5.736  -1.436  1.00  0.00     0.042 C 
BRANCH  24  25
ATOM     25  C   UNL     1      -3.407  -5.862  -1.023  1.00  0.00     0.118 C 
BRANCH  25  26
ATOM     26  N   UNL     1      -4.330  -4.785  -1.406  1.00  0.00    -0.352 N 
ATOM     27  C   UNL     1      -5.586  -4.538  -0.828  1.00  0.00     0.251 C 
ATOM     28  H   UNL     1      -4.044  -4.184  -2.131  1.00  0.00     0.163 HD
ATOM     29  O   UNL     1      -6.466  -3.950  -1.409  1.00  0.00    -0.269 OA
BRANCH  27  30
ATOM     30  C   UNL     1      -5.770  -5.025   0.556  1.00  0.00     0.039 A 
ATOM     31  C   UNL     1      -6.670  -6.052   0.850  1.00  0.00     0.014 A 
ATOM     32  C   UNL     1      -4.786  -4.632   1.455  1.00  0.00     0.014 A 
ATOM     33  C   UNL     1      -6.450  -6.816   1.998  1.00  0.00     0.010 A 
ATOM     34  C   UNL     1      -4.500  -5.472   2.507  1.00  0.00     0.010 A 
ATOM     35  C   UNL     1      -5.312  -6.577   2.787  1.00  0.00    -0.014 A 
BRANCH  35  36
ATOM     36  C   UNL     1      -4.867  -7.580   3.767  1.00  0.00     0.031 A 
ATOM     37  C   UNL     1      -4.878  -9.010   3.319  1.00  0.00     0.074 A 
ATOM     38  C   UNL     1      -4.230  -7.285   4.922  1.00  0.00     0.049 A 
ATOM     39  N   UNL     1      -5.645  -9.965   3.736  1.00  0.00    -0.248 NA
ATOM     40  C   UNL     1      -3.989  -9.414   2.218  1.00  0.00     0.031 C 
ATOM     41  C   UNL     1      -3.818  -5.969   5.424  1.00  0.00     0.029 A 
ATOM     42  N   UNL     1      -3.704  -8.136   5.848  1.00  0.00    -0.354 N 
ATOM     43  C   UNL     1      -5.179 -11.136   3.136  1.00  0.00     0.074 A 
ATOM     44  C   UNL     1      -4.295 -10.707   2.083  1.00  0.00     0.031 C 
ATOM     45  C   UNL     1      -2.906  -6.123   6.406  1.00  0.00     0.029 A 
ATOM     46  C   UNL     1      -2.833  -7.530   6.744  1.00  0.00     0.049 A 
ATOM     47  H   UNL     1      -3.922  -9.095   5.879  1.00  0.00     0.167 HD
ATOM     48  C   UNL     1      -5.371 -12.360   3.712  1.00  0.00     0.037 A 
ATOM     49  C   UNL     1      -2.107  -8.121   7.719  1.00  0.00     0.037 A 
ATOM     50  C   UNL     1      -6.367 -12.291   4.756  1.00  0.00     0.049 A 
ATOM     51  C   UNL     1      -2.788  -9.394   8.056  1.00  0.00     0.074 A 
ATOM     52  C   UNL     1      -7.680 -11.866   4.838  1.00  0.00     0.029 A 
ATOM     53  N   UNL     1      -5.932 -12.378   6.057  1.00  0.00    -0.354 N 
ATOM     54  N   UNL     1      -3.975  -9.462   8.596  1.00  0.00    -0.248 NA
ATOM     55  C   UNL     1      -2.320 -10.620   7.431  1.00  0.00     0.031 C 
ATOM     56  C   UNL     1      -7.785 -11.241   6.118  1.00  0.00     0.029 A 
ATOM     57  C   UNL     1      -6.555 -11.382   6.761  1.00  0.00     0.049 A 
ATOM     58  H   UNL     1      -5.291 -13.033   6.416  1.00  0.00     0.167 HD
ATOM     59  C   UNL     1      -4.568 -10.567   8.008  1.00  0.00     0.074 A 
ATOM     60  C   UNL     1      -3.463 -11.309   7.408  1.00  0.00     0.031 C 
ATOM     61  C   UNL     1      -5.921 -10.630   7.823  1.00  0.00     0.037 A 
BRANCH  48  62
ATOM     62  C   UNL     1      -4.406 -13.535   3.629  1.00  0.00     0.058 A 
ATOM     63  C   UNL     1      -4.774 -14.768   4.218  1.00  0.00     0.135 A 
ATOM     64  C   UNL     1      -3.040 -13.417   3.292  1.00  0.00     0.135 A 
ATOM     65  F   UNL     1      -6.049 -15.009   4.562  1.00  0.00    -0.206 F 
ATOM     66  C   UNL     1      -3.840 -15.747   4.564  1.00  0.00     0.059 A 
ATOM     67  C   UNL     1      -2.101 -14.405   3.577  1.00  0.00     0.059 A 
ATOM     68  F   UNL     1      -2.524 -12.304   2.762  1.00  0.00    -0.206 F 
ATOM     69  C   UNL     1      -2.498 -15.539   4.266  1.00  0.00     0.060 A 
BRANCH  69  70
ATOM     70  S   UNL     1      -1.265 -16.715   4.851  1.00  0.00     0.124 S 
ATOM     71  O   UNL     1      -1.256 -16.429   6.280  1.00  0.00    -0.237 OA
ATOM     72  O   UNL     1      -1.849 -17.992   4.455  1.00  0.00    -0.237 OA
ATOM     73  O   UNL     1      -0.063 -16.328   4.118  1.00  0.00    -0.744 OA
ENDBRANCH  69  70
ENDBRANCH  48  62
BRANCH  49  74
ATOM     74  C   UNL     1      -0.758  -7.749   8.207  1.00  0.00     0.058 A 
ATOM     75  C   UNL     1      -0.248  -8.271   9.406  1.00  0.00     0.135 A 
ATOM     76  C   UNL     1       0.164  -7.084   7.371  1.00  0.00     0.135 A 
ATOM     77  F   UNL     1      -1.054  -8.928  10.253  1.00  0.00    -0.206 F 
ATOM     78  C   UNL     1       1.109  -8.193   9.731  1.00  0.00     0.059 A 
ATOM     79  C   UNL     1       1.518  -6.981   7.680  1.00  0.00     0.059 A 
ATOM     80  F   UNL     1      -0.210  -6.593   6.179  1.00  0.00    -0.206 F 
ATOM     81  C   UNL     1       1.989  -7.566   8.849  1.00  0.00     0.060 A 
BRANCH  81  82
ATOM     82  S   UNL     1       3.766  -7.638   9.172  1.00  0.00     0.124 S 
ATOM     83  O   UNL     1       3.899  -6.753  10.323  1.00  0.00    -0.237 OA
ATOM     84  O   UNL     1       3.974  -9.059   9.430  1.00  0.00    -0.237 OA
ATOM     85  O   UNL     1       4.356  -7.141   7.931  1.00  0.00    -0.744 OA
ENDBRANCH  81  82
ENDBRANCH  49  74
BRANCH  61  86
ATOM     86  C   UNL     1      -6.800  -9.687   8.603  1.00  0.00     0.058 A 
ATOM     87  C   UNL     1      -6.782  -8.287   8.484  1.00  0.00     0.135 A 
ATOM     88  C   UNL     1      -7.804 -10.246   9.409  1.00  0.00     0.135 A 
ATOM     89  F   UNL     1      -5.928  -7.674   7.653  1.00  0.00    -0.206 F 
ATOM     90  C   UNL     1      -7.689  -7.479   9.172  1.00  0.00     0.059 A 
ATOM     91  C   UNL     1      -8.740  -9.463  10.079  1.00  0.00     0.059 A 
ATOM     92  F   UNL     1      -7.917 -11.581   9.515  1.00  0.00    -0.206 F 
ATOM     93  C   UNL     1      -8.666  -8.077   9.968  1.00  0.00     0.060 A 
BRANCH  93  94
ATOM     94  S   UNL     1      -9.883  -7.034  10.801  1.00  0.00     0.124 S 
ATOM     95  O   UNL     1      -9.090  -6.426  11.864  1.00  0.00    -0.237 OA
ATOM     96  O   UNL     1     -10.313  -6.133   9.736  1.00  0.00    -0.237 OA
ATOM     97  O   UNL     1     -10.899  -7.985  11.247  1.00  0.00    -0.744 OA
ENDBRANCH  93  94
ENDBRANCH  61  86
ENDBRANCH  35  36
ENDBRANCH  27  30
ENDBRANCH  25  26
ENDBRANCH  24  25
ENDBRANCH   1  24
TORSDOF 19
