REMARK SMILES CCn1nccc1[C@H](F)C(=O)NCCCNC(=O)c1ccc(-c2c3nc(c(-c4c(F)cc(S(=O)(=O)[O-])cc4F)c4ccc([nH]4)c(-c4c(F)cc(S(=O)(=O)[O-])cc4F)c4nc(c(-c5c(F)cc(S(=O)(=O)[O-])cc5F)c5ccc2[nH]5)C=C4)C=C3)cc1
REMARK SMILES IDX 14 1 13 2 12 3 10 4 11 5 8 7 9 8 7 9 3 10 4 11 5 12 6 13
REMARK SMILES IDX 2 14 1 15 15 16 16 17 17 18 18 20 19 21 20 22 84 23 21 24
REMARK SMILES IDX 83 25 22 26 23 27 24 28 77 29 25 30 82 31 76 32 78 33 26 34
REMARK SMILES IDX 81 35 75 36 74 37 27 39 61 40 40 41 60 42 41 43 44 44 59 45
REMARK SMILES IDX 79 46 42 47 43 48 58 50 80 51 45 52 28 53 29 54 38 55 30 56
REMARK SMILES IDX 31 57 37 58 39 59 32 60 33 61 34 62 35 63 36 64 62 65 63 66
REMARK SMILES IDX 72 67 64 68 65 69 71 70 73 71 66 72 67 73 68 74 69 75 70 76
REMARK SMILES IDX 46 77 47 78 56 79 48 80 49 81 55 82 57 83 50 84 51 85 52 86
REMARK SMILES IDX 53 87 54 88
REMARK H PARENT 12 6 16 19 78 38 44 49
REMARK Flexibility Score: inf
ROOT
ATOM      1  C   UNL     1       3.025  -0.822  -5.734  1.00  0.00     0.042 C 
ENDROOT
BRANCH   1   2
ATOM      2  C   UNL     1       2.182  -1.917  -5.090  1.00  0.00     0.117 C 
BRANCH   2   3
ATOM      3  N   UNL     1       2.597  -2.285  -3.747  1.00  0.00    -0.353 N 
ATOM      4  C   UNL     1       1.909  -2.091  -2.575  1.00  0.00     0.260 C 
ATOM      5  O   UNL     1       2.295  -2.681  -1.562  1.00  0.00    -0.271 OA
ATOM      6  H   UNL     1       3.475  -2.725  -3.669  1.00  0.00     0.163 HD
BRANCH   4   7
ATOM      7  C   UNL     1       0.655  -1.200  -2.546  1.00  0.00     0.303 C 
ATOM      8  F   UNL     1       0.857  -0.042  -3.253  1.00  0.00    -0.230 F 
BRANCH   7   9
ATOM      9  C   UNL     1      -0.527  -1.931  -3.104  1.00  0.00     0.082 A 
ATOM     10  N   UNL     1      -1.117  -3.048  -2.561  1.00  0.00    -0.266 N 
ATOM     11  N   UNL     1      -2.042  -3.592  -3.386  1.00  0.00    -0.181 NA
ATOM     12  C   UNL     1      -2.101  -2.756  -4.420  1.00  0.00     0.135 A 
ATOM     13  C   UNL     1      -1.235  -1.670  -4.265  1.00  0.00     0.049 A 
BRANCH  10  14
ATOM     14  C   UNL     1      -0.888  -3.712  -1.288  1.00  0.00     0.141 C 
ATOM     15  C   UNL     1      -0.911  -2.798  -0.074  1.00  0.00     0.029 C 
ENDBRANCH  10  14
ENDBRANCH   7   9
ENDBRANCH   4   7
ENDBRANCH   2   3
ENDBRANCH   1   2
BRANCH   1  16
ATOM     16  C   UNL     1       4.302  -1.363  -6.350  1.00  0.00     0.118 C 
BRANCH  16  17
ATOM     17  N   UNL     1       4.048  -2.270  -7.479  1.00  0.00    -0.352 N 
ATOM     18  C   UNL     1       4.956  -3.044  -8.170  1.00  0.00     0.251 C 
ATOM     19  H   UNL     1       3.112  -2.332  -7.779  1.00  0.00     0.163 HD
ATOM     20  O   UNL     1       4.680  -3.543  -9.243  1.00  0.00    -0.269 OA
BRANCH  18  21
ATOM     21  C   UNL     1       6.297  -3.217  -7.571  1.00  0.00     0.039 A 
ATOM     22  C   UNL     1       7.444  -2.881  -8.290  1.00  0.00     0.014 A 
ATOM     23  C   UNL     1       6.359  -3.561  -6.227  1.00  0.00     0.014 A 
ATOM     24  C   UNL     1       8.655  -2.777  -7.607  1.00  0.00     0.010 A 
ATOM     25  C   UNL     1       7.521  -3.309  -5.536  1.00  0.00     0.010 A 
ATOM     26  C   UNL     1       8.688  -2.948  -6.215  1.00  0.00    -0.014 A 
BRANCH  26  27
ATOM     27  C   UNL     1       9.903  -2.633  -5.452  1.00  0.00     0.031 A 
ATOM     28  C   UNL     1      10.533  -1.297  -5.702  1.00  0.00     0.074 A 
ATOM     29  C   UNL     1      10.305  -3.358  -4.385  1.00  0.00     0.049 A 
ATOM     30  N   UNL     1      11.742  -1.034  -6.086  1.00  0.00    -0.248 NA
ATOM     31  C   UNL     1       9.688  -0.100  -5.561  1.00  0.00     0.031 C 
ATOM     32  C   UNL     1       9.646  -4.525  -3.783  1.00  0.00     0.029 A 
ATOM     33  N   UNL     1      11.329  -3.113  -3.520  1.00  0.00    -0.354 N 
ATOM     34  C   UNL     1      11.878   0.355  -6.038  1.00  0.00     0.074 A 
ATOM     35  C   UNL     1      10.548   0.876  -5.858  1.00  0.00     0.031 C 
ATOM     36  C   UNL     1      10.122  -4.720  -2.537  1.00  0.00     0.029 A 
ATOM     37  C   UNL     1      11.248  -3.829  -2.335  1.00  0.00     0.049 A 
ATOM     38  H   UNL     1      12.061  -2.485  -3.718  1.00  0.00     0.167 HD
ATOM     39  C   UNL     1      13.098   0.960  -5.940  1.00  0.00     0.037 A 
ATOM     40  C   UNL     1      12.036  -3.712  -1.242  1.00  0.00     0.037 A 
ATOM     41  C   UNL     1      14.160   0.058  -6.311  1.00  0.00     0.049 A 
ATOM     42  C   UNL     1      13.309  -3.097  -1.682  1.00  0.00     0.074 A 
ATOM     43  C   UNL     1      14.485  -0.663  -7.444  1.00  0.00     0.029 A 
ATOM     44  N   UNL     1      14.932  -0.470  -5.306  1.00  0.00    -0.354 N 
ATOM     45  N   UNL     1      14.151  -3.669  -2.499  1.00  0.00    -0.248 NA
ATOM     46  C   UNL     1      13.482  -1.663  -1.517  1.00  0.00     0.031 C 
ATOM     47  C   UNL     1      15.058  -1.878  -6.961  1.00  0.00     0.029 A 
ATOM     48  C   UNL     1      15.084  -1.807  -5.566  1.00  0.00     0.049 A 
ATOM     49  H   UNL     1      15.308   0.021  -4.540  1.00  0.00     0.167 HD
ATOM     50  C   UNL     1      14.672  -2.633  -3.258  1.00  0.00     0.074 A 
ATOM     51  C   UNL     1      14.332  -1.422  -2.518  1.00  0.00     0.031 C 
ATOM     52  C   UNL     1      15.083  -2.835  -4.546  1.00  0.00     0.037 A 
BRANCH  39  53
ATOM     53  C   UNL     1      13.375   2.243  -5.170  1.00  0.00     0.058 A 
ATOM     54  C   UNL     1      14.673   2.805  -5.204  1.00  0.00     0.135 A 
ATOM     55  C   UNL     1      12.525   2.765  -4.170  1.00  0.00     0.135 A 
ATOM     56  F   UNL     1      15.569   2.406  -6.122  1.00  0.00    -0.206 F 
ATOM     57  C   UNL     1      15.125   3.719  -4.248  1.00  0.00     0.059 A 
ATOM     58  C   UNL     1      12.938   3.717  -3.242  1.00  0.00     0.059 A 
ATOM     59  F   UNL     1      11.282   2.311  -3.976  1.00  0.00    -0.206 F 
ATOM     60  C   UNL     1      14.255   4.143  -3.251  1.00  0.00     0.060 A 
BRANCH  60  61
ATOM     61  S   UNL     1      14.873   5.180  -1.912  1.00  0.00     0.124 S 
ATOM     62  O   UNL     1      15.692   4.229  -1.169  1.00  0.00    -0.237 OA
ATOM     63  O   UNL     1      15.596   6.219  -2.637  1.00  0.00    -0.237 OA
ATOM     64  O   UNL     1      13.653   5.623  -1.244  1.00  0.00    -0.744 OA
ENDBRANCH  60  61
ENDBRANCH  39  53
BRANCH  40  65
ATOM     65  C   UNL     1      11.640  -3.892   0.173  1.00  0.00     0.058 A 
ATOM     66  C   UNL     1      12.587  -4.124   1.181  1.00  0.00     0.135 A 
ATOM     67  C   UNL     1      10.326  -3.603   0.601  1.00  0.00     0.135 A 
ATOM     68  F   UNL     1      13.864  -4.378   0.860  1.00  0.00    -0.206 F 
ATOM     69  C   UNL     1      12.259  -4.045   2.538  1.00  0.00     0.059 A 
ATOM     70  C   UNL     1       9.973  -3.532   1.946  1.00  0.00     0.059 A 
ATOM     71  F   UNL     1       9.363  -3.298  -0.283  1.00  0.00    -0.206 F 
ATOM     72  C   UNL     1      10.951  -3.734   2.911  1.00  0.00     0.060 A 
BRANCH  72  73
ATOM     73  S   UNL     1      10.562  -3.484   4.659  1.00  0.00     0.124 S 
ATOM     74  O   UNL     1      10.693  -4.835   5.193  1.00  0.00    -0.237 OA
ATOM     75  O   UNL     1      11.588  -2.532   5.069  1.00  0.00    -0.237 OA
ATOM     76  O   UNL     1       9.200  -2.954   4.631  1.00  0.00    -0.744 OA
ENDBRANCH  72  73
ENDBRANCH  40  65
BRANCH  52  77
ATOM     77  C   UNL     1      15.289  -4.254  -5.016  1.00  0.00     0.058 A 
ATOM     78  C   UNL     1      14.256  -5.198  -5.151  1.00  0.00     0.135 A 
ATOM     79  C   UNL     1      16.552  -4.622  -5.503  1.00  0.00     0.135 A 
ATOM     80  F   UNL     1      12.997  -4.894  -4.812  1.00  0.00    -0.206 F 
ATOM     81  C   UNL     1      14.474  -6.460  -5.706  1.00  0.00     0.059 A 
ATOM     82  C   UNL     1      16.788  -5.864  -6.089  1.00  0.00     0.059 A 
ATOM     83  F   UNL     1      17.569  -3.743  -5.466  1.00  0.00    -0.206 F 
ATOM     84  C   UNL     1      15.744  -6.784  -6.177  1.00  0.00     0.060 A 
BRANCH  84  85
ATOM     85  S   UNL     1      15.998  -8.378  -6.987  1.00  0.00     0.124 S 
ATOM     86  O   UNL     1      15.982  -9.302  -5.858  1.00  0.00    -0.237 OA
ATOM     87  O   UNL     1      14.854  -8.463  -7.891  1.00  0.00    -0.237 OA
ATOM     88  O   UNL     1      17.291  -8.223  -7.649  1.00  0.00    -0.744 OA
ENDBRANCH  84  85
ENDBRANCH  52  77
ENDBRANCH  26  27
ENDBRANCH  18  21
ENDBRANCH  16  17
ENDBRANCH   1  16
TORSDOF 15
