REMARK SMILES Cc1ccc(NC(=O)c2csc(Br)c2)c(C(=O)NCCCNC(=O)c2ccc(-c3c4nc(c(-c5c(F)cc(S(=O)(=O)[O-])cc5F)c5ccc([nH]5)c(-c5c(F)cc(S(=O)(=O)[O-])cc5F)c5nc(c(-c6c(F)cc(S(=O)(=O)[O-])cc6F)c6ccc3[nH]6)C=C5)C=C4)cc2)c1
REMARK SMILES IDX 20 1 19 2 18 3 16 4 17 5 15 7 1 8 2 9 3 10 91 11 4 12 5 13
REMARK SMILES IDX 6 14 7 15 8 17 9 18 10 19 14 20 11 21 12 22 13 23 21 24
REMARK SMILES IDX 22 25 23 26 24 28 25 29 26 30 90 31 27 32 89 33 28 34 29 35
REMARK SMILES IDX 30 36 83 37 31 38 88 39 82 40 84 41 32 42 87 43 81 44 80 45
REMARK SMILES IDX 33 47 67 48 46 49 66 50 47 51 50 52 65 53 85 54 48 55 49 56
REMARK SMILES IDX 64 58 86 59 51 60 34 61 35 62 44 63 36 64 37 65 43 66 45 67
REMARK SMILES IDX 38 68 39 69 40 70 41 71 42 72 68 73 69 74 78 75 70 76 71 77
REMARK SMILES IDX 77 78 79 79 72 80 73 81 74 82 75 83 76 84 52 85 53 86 62 87
REMARK SMILES IDX 54 88 55 89 61 90 63 91 56 92 57 93 58 94 59 95 60 96
REMARK H PARENT 18 6 6 16 22 27 84 46 50 57
REMARK Flexibility Score: inf
ROOT
ATOM      1  C   UNL     1       1.183   4.098  -0.449  1.00  0.00     0.042 C 
ENDROOT
BRANCH   1   2
ATOM      2  C   UNL     1       0.279   4.027   0.783  1.00  0.00     0.118 C 
BRANCH   2   3
ATOM      3  N   UNL     1      -1.056   3.512   0.494  1.00  0.00    -0.352 N 
ATOM      4  C   UNL     1      -1.599   2.267   0.278  1.00  0.00     0.253 C 
ATOM      5  O   UNL     1      -2.832   2.234   0.202  1.00  0.00    -0.269 OA
ATOM      6  H   UNL     1      -1.730   4.228   0.441  1.00  0.00     0.163 HD
BRANCH   4   7
ATOM      7  C   UNL     1      -0.836   0.980   0.072  1.00  0.00     0.063 A 
ATOM      8  C   UNL     1       2.783  -0.255  -0.118  1.00  0.00     0.044 C 
ATOM      9  C   UNL     1       1.285  -0.236  -0.207  1.00  0.00    -0.050 A 
ATOM     10  C   UNL     1       0.592  -1.362  -0.625  1.00  0.00     0.005 A 
ATOM     11  C   UNL     1       0.564   0.915   0.141  1.00  0.00     0.019 A 
ATOM     12  C   UNL     1      -0.801  -1.345  -0.659  1.00  0.00     0.027 A 
ATOM     13  C   UNL     1      -1.535  -0.221  -0.248  1.00  0.00     0.054 A 
BRANCH  13  14
ATOM     14  N   UNL     1      -2.952  -0.265  -0.184  1.00  0.00    -0.321 N 
ATOM     15  C   UNL     1      -3.870  -1.291  -0.170  1.00  0.00     0.256 C 
ATOM     16  H   UNL     1      -3.366   0.627  -0.139  1.00  0.00     0.170 HD
ATOM     17  O   UNL     1      -5.059  -1.049  -0.377  1.00  0.00    -0.269 OA
BRANCH  15  18
ATOM     18  C   UNL     1      -3.449  -2.656   0.138  1.00  0.00     0.052 A 
ATOM     19  C   UNL     1      -3.903  -3.745  -0.591  1.00  0.00     0.080 A 
ATOM     20  C   UNL     1      -2.594  -3.090   1.213  1.00  0.00     0.041 A 
ATOM     21  S   UNL     1      -3.204  -5.221  -0.079  1.00  0.00    -0.136 S 
ATOM     22  C   UNL     1      -2.358  -4.440   1.161  1.00  0.00     0.071 A 
ATOM     23  Br  UNL     1      -1.200  -5.335   2.330  1.00  0.00    -0.039 Br
ENDBRANCH  15  18
ENDBRANCH  13  14
ENDBRANCH   4   7
ENDBRANCH   2   3
ENDBRANCH   1   2
BRANCH   1  24
ATOM     24  C   UNL     1       1.215   5.477  -1.093  1.00  0.00     0.118 C 
BRANCH  24  25
ATOM     25  N   UNL     1       2.538   6.090  -1.044  1.00  0.00    -0.352 N 
ATOM     26  C   UNL     1       2.965   7.212  -1.733  1.00  0.00     0.251 C 
ATOM     27  H   UNL     1       3.199   5.658  -0.456  1.00  0.00     0.163 HD
ATOM     28  O   UNL     1       4.141   7.508  -1.858  1.00  0.00    -0.269 OA
BRANCH  26  29
ATOM     29  C   UNL     1       1.900   8.128  -2.179  1.00  0.00     0.039 A 
ATOM     30  C   UNL     1       1.684   9.264  -1.389  1.00  0.00     0.014 A 
ATOM     31  C   UNL     1       0.955   7.686  -3.099  1.00  0.00     0.014 A 
ATOM     32  C   UNL     1       0.432   9.867  -1.394  1.00  0.00     0.010 A 
ATOM     33  C   UNL     1      -0.310   8.236  -3.040  1.00  0.00     0.010 A 
ATOM     34  C   UNL     1      -0.583   9.294  -2.155  1.00  0.00    -0.014 A 
BRANCH  34  35
ATOM     35  C   UNL     1      -1.982   9.693  -2.067  1.00  0.00     0.031 A 
ATOM     36  C   UNL     1      -2.586  10.471  -3.171  1.00  0.00     0.074 A 
ATOM     37  C   UNL     1      -2.745   9.242  -1.048  1.00  0.00     0.049 A 
ATOM     38  N   UNL     1      -3.721  11.080  -3.112  1.00  0.00    -0.248 NA
ATOM     39  C   UNL     1      -1.903  10.660  -4.445  1.00  0.00     0.031 C 
ATOM     40  C   UNL     1      -4.203   9.195  -0.995  1.00  0.00     0.029 A 
ATOM     41  N   UNL     1      -2.338   8.919   0.250  1.00  0.00    -0.354 N 
ATOM     42  C   UNL     1      -4.045  11.498  -4.386  1.00  0.00     0.074 A 
ATOM     43  C   UNL     1      -2.855  11.256  -5.167  1.00  0.00     0.031 C 
ATOM     44  C   UNL     1      -4.590   9.111   0.286  1.00  0.00     0.029 A 
ATOM     45  C   UNL     1      -3.402   9.275   1.105  1.00  0.00     0.049 A 
ATOM     46  H   UNL     1      -1.477   8.521   0.516  1.00  0.00     0.167 HD
ATOM     47  C   UNL     1      -5.327  11.881  -4.658  1.00  0.00     0.037 A 
ATOM     48  C   UNL     1      -3.252  10.243   2.058  1.00  0.00     0.037 A 
ATOM     49  C   UNL     1      -6.127  11.925  -3.435  1.00  0.00     0.049 A 
ATOM     50  C   UNL     1      -4.175  11.427   1.880  1.00  0.00     0.074 A 
ATOM     51  C   UNL     1      -6.989  11.015  -2.844  1.00  0.00     0.029 A 
ATOM     52  N   UNL     1      -5.851  12.888  -2.470  1.00  0.00    -0.354 N 
ATOM     53  N   UNL     1      -4.792  11.710   0.766  1.00  0.00    -0.248 NA
ATOM     54  C   UNL     1      -4.479  12.385   2.941  1.00  0.00     0.031 C 
ATOM     55  C   UNL     1      -7.166  11.392  -1.489  1.00  0.00     0.029 A 
ATOM     56  C   UNL     1      -6.436  12.547  -1.265  1.00  0.00     0.049 A 
ATOM     57  H   UNL     1      -5.314  13.699  -2.623  1.00  0.00     0.167 HD
ATOM     58  C   UNL     1      -5.540  12.849   0.928  1.00  0.00     0.074 A 
ATOM     59  C   UNL     1      -5.326  13.222   2.314  1.00  0.00     0.031 C 
ATOM     60  C   UNL     1      -6.271  13.392  -0.091  1.00  0.00     0.037 A 
BRANCH  47  61
ATOM     61  C   UNL     1      -5.911  11.907  -6.059  1.00  0.00     0.058 A 
ATOM     62  C   UNL     1      -7.269  11.585  -6.281  1.00  0.00     0.135 A 
ATOM     63  C   UNL     1      -5.175  12.159  -7.234  1.00  0.00     0.135 A 
ATOM     64  F   UNL     1      -8.127  11.426  -5.264  1.00  0.00    -0.206 F 
ATOM     65  C   UNL     1      -7.812  11.397  -7.555  1.00  0.00     0.059 A 
ATOM     66  C   UNL     1      -5.676  11.919  -8.518  1.00  0.00     0.059 A 
ATOM     67  F   UNL     1      -3.953  12.704  -7.184  1.00  0.00    -0.206 F 
ATOM     68  C   UNL     1      -6.996  11.523  -8.670  1.00  0.00     0.060 A 
BRANCH  68  69
ATOM     69  S   UNL     1      -7.683  11.176 -10.300  1.00  0.00     0.124 S 
ATOM     70  O   UNL     1      -8.247   9.841 -10.120  1.00  0.00    -0.237 OA
ATOM     71  O   UNL     1      -8.648  12.258 -10.460  1.00  0.00    -0.237 OA
ATOM     72  O   UNL     1      -6.519  11.240 -11.180  1.00  0.00    -0.744 OA
ENDBRANCH  68  69
ENDBRANCH  47  61
BRANCH  48  73
ATOM     73  C   UNL     1      -1.883  10.275   2.643  1.00  0.00     0.058 A 
ATOM     74  C   UNL     1      -1.485   9.163   3.411  1.00  0.00     0.135 A 
ATOM     75  C   UNL     1      -0.873  11.079   2.097  1.00  0.00     0.135 A 
ATOM     76  F   UNL     1      -2.411   8.370   3.975  1.00  0.00    -0.206 F 
ATOM     77  C   UNL     1      -0.156   8.758   3.479  1.00  0.00     0.059 A 
ATOM     78  C   UNL     1       0.470  10.697   2.163  1.00  0.00     0.059 A 
ATOM     79  F   UNL     1      -1.190  12.158   1.367  1.00  0.00    -0.206 F 
ATOM     80  C   UNL     1       0.803   9.493   2.787  1.00  0.00     0.060 A 
BRANCH  80  81
ATOM     81  S   UNL     1       2.434   8.740   2.564  1.00  0.00     0.124 S 
ATOM     82  O   UNL     1       2.881   8.566   3.941  1.00  0.00    -0.237 OA
ATOM     83  O   UNL     1       2.100   7.505   1.853  1.00  0.00    -0.237 OA
ATOM     84  O   UNL     1       3.160   9.735   1.784  1.00  0.00    -0.744 OA
ENDBRANCH  80  81
ENDBRANCH  48  73
BRANCH  60  85
ATOM     85  C   UNL     1      -6.971  14.729  -0.061  1.00  0.00     0.058 A 
ATOM     86  C   UNL     1      -6.497  15.845   0.647  1.00  0.00     0.135 A 
ATOM     87  C   UNL     1      -8.093  14.964  -0.894  1.00  0.00     0.135 A 
ATOM     88  F   UNL     1      -5.383  15.776   1.391  1.00  0.00    -0.206 F 
ATOM     89  C   UNL     1      -7.120  17.094   0.580  1.00  0.00     0.059 A 
ATOM     90  C   UNL     1      -8.696  16.213  -1.018  1.00  0.00     0.059 A 
ATOM     91  F   UNL     1      -8.634  13.983  -1.631  1.00  0.00    -0.206 F 
ATOM     92  C   UNL     1      -8.216  17.270  -0.259  1.00  0.00     0.060 A 
BRANCH  92  93
ATOM     93  S   UNL     1      -8.982  18.895  -0.418  1.00  0.00     0.124 S 
ATOM     94  O   UNL     1     -10.063  18.804   0.558  1.00  0.00    -0.237 OA
ATOM     95  O   UNL     1      -7.894  19.805  -0.069  1.00  0.00    -0.237 OA
ATOM     96  O   UNL     1      -9.391  18.930  -1.818  1.00  0.00    -0.744 OA
ENDBRANCH  92  93
ENDBRANCH  60  85
ENDBRANCH  34  35
ENDBRANCH  26  29
ENDBRANCH  24  25
ENDBRANCH   1  24
TORSDOF 15
