REMARK SMILES COC(=O)c1c(NC(=O)[C@@H]2C[C@@H]2C(=O)NCCCNC(=O)c2ccc(-c3c4nc(c(-c5c(F)cc(S(=O)(=O)[O-])cc5F)c5ccc([nH]5)c(-c5c(F)cc(S(=O)(=O)[O-])cc5F)c5nc(c(-c6c(F)cc(S(=O)(=O)[O-])cc6F)c6ccc3[nH]6)C=C5)C=C4)cc2)sc2c1CC[N@@H+](Cc1ccccc1)C2
REMARK SMILES IDX 16 1 15 2 13 3 14 4 12 6 10 7 11 8 8 9 7 10 9 12 6 13 5 14
REMARK SMILES IDX 90 15 88 16 89 17 91 18 101 19 92 20 93 21 3 23 4 24 2 25
REMARK SMILES IDX 1 26 94 27 95 28 96 29 100 30 97 31 99 32 98 33 17 34 18 35
REMARK SMILES IDX 19 36 20 37 21 39 22 40 23 41 87 42 24 43 86 44 25 45 26 46
REMARK SMILES IDX 27 47 80 48 28 49 85 50 79 51 81 52 29 53 84 54 78 55 77 56
REMARK SMILES IDX 30 58 64 59 43 60 63 61 44 62 47 63 62 64 82 65 45 66 46 67
REMARK SMILES IDX 61 69 83 70 48 71 31 72 32 73 41 74 33 75 34 76 40 77 42 78
REMARK SMILES IDX 35 79 36 80 37 81 38 82 39 83 65 84 66 85 75 86 67 87 68 88
REMARK SMILES IDX 74 89 76 90 69 91 70 92 71 93 72 94 73 95 49 96 50 97 59 98
REMARK SMILES IDX 51 99 52 100 58 101 60 102 53 103 54 104 55 105 56 106
REMARK SMILES IDX 57 107
REMARK H PARENT 15 5 7 11 93 22 19 38 81 57 47 68
REMARK Flexibility Score: inf
ROOT
ATOM      1  C   UNL     1      -3.376  -2.869  -1.713  1.00  0.00     0.117 C 
ENDROOT
BRANCH   1   2
ATOM      2  N   UNL     1      -2.994  -1.810  -2.612  1.00  0.00    -0.356 N 
ATOM      3  C   UNL     1      -1.973  -0.908  -2.577  1.00  0.00     0.223 C 
ATOM      4  O   UNL     1      -1.790  -0.232  -3.588  1.00  0.00    -0.275 OA
ATOM      5  H   UNL     1      -3.580  -1.720  -3.398  1.00  0.00     0.163 HD
BRANCH   3   6
ATOM      6  C   UNL     1      -1.056  -0.656  -1.435  1.00  0.00     0.091 C 
ATOM      7  C   UNL     1      -0.995  -0.781   0.064  1.00  0.00     0.092 C 
ATOM      8  C   UNL     1      -1.611   0.441  -0.531  1.00  0.00     0.028 C 
BRANCH   7   9
ATOM      9  C   UNL     1      -1.722  -1.686   0.951  1.00  0.00     0.228 C 
ATOM     10  N   UNL     1      -1.531  -3.037   0.949  1.00  0.00    -0.317 N 
ATOM     11  H   UNL     1      -2.178  -3.509   1.521  1.00  0.00     0.170 HD
ATOM     12  O   UNL     1      -2.529  -1.215   1.752  1.00  0.00    -0.274 OA
BRANCH  10  13
ATOM     13  C   UNL     1      -0.649  -3.891   0.337  1.00  0.00     0.110 A 
ATOM     14  C   UNL     1       0.562  -3.871  -0.333  1.00  0.00     0.098 A 
ATOM     15  C   UNL     1       1.013  -5.233  -0.574  1.00  0.00    -0.006 A 
ATOM     16  S   UNL     1      -1.299  -5.483   0.471  1.00  0.00    -0.116 S 
ATOM     17  C   UNL     1       0.130  -6.175  -0.093  1.00  0.00     0.065 A 
ATOM     18  C   UNL     1       2.387  -5.647  -1.033  1.00  0.00     0.099 C 
ATOM     19  C   UNL     1       0.449  -7.626   0.070  1.00  0.00     0.310 C 
ATOM     20  C   UNL     1       2.686  -7.144  -0.752  1.00  0.00     0.267 C 
ATOM     21  N   UNL     1       1.894  -7.821   0.292  1.00  0.00    -0.326 N 
ATOM     22  H   UNL     1       2.078  -8.818   0.176  1.00  0.00     0.348 HD
BRANCH  14  23
ATOM     23  C   UNL     1       1.417  -2.736  -0.639  1.00  0.00     0.341 C 
ATOM     24  O   UNL     1       1.970  -2.601  -1.726  1.00  0.00    -0.246 OA
BRANCH  23  25
ATOM     25  O   UNL     1       1.625  -1.916   0.426  1.00  0.00    -0.465 OA
ATOM     26  C   UNL     1       2.434  -0.768   0.149  1.00  0.00     0.282 C 
ENDBRANCH  23  25
ENDBRANCH  14  23
BRANCH  21  27
ATOM     27  C   UNL     1       2.350  -7.628   1.681  1.00  0.00     0.299 C 
BRANCH  27  28
ATOM     28  C   UNL     1       2.332  -6.235   2.279  1.00  0.00     0.006 A 
ATOM     29  C   UNL     1       3.460  -5.404   2.204  1.00  0.00     0.009 A 
ATOM     30  C   UNL     1       1.178  -5.729   2.897  1.00  0.00     0.009 A 
ATOM     31  C   UNL     1       3.403  -4.080   2.647  1.00  0.00     0.001 A 
ATOM     32  C   UNL     1       1.112  -4.399   3.319  1.00  0.00     0.001 A 
ATOM     33  C   UNL     1       2.222  -3.571   3.181  1.00  0.00     0.000 A 
ENDBRANCH  27  28
ENDBRANCH  21  27
ENDBRANCH  10  13
ENDBRANCH   7   9
ENDBRANCH   3   6
ENDBRANCH   1   2
BRANCH   1  34
ATOM     34  C   UNL     1      -4.219  -2.401  -0.528  1.00  0.00     0.042 C 
BRANCH  34  35
ATOM     35  C   UNL     1      -5.709  -2.403  -0.763  1.00  0.00     0.118 C 
BRANCH  35  36
ATOM     36  N   UNL     1      -6.266  -3.764  -0.794  1.00  0.00    -0.352 N 
ATOM     37  C   UNL     1      -7.497  -4.180  -1.280  1.00  0.00     0.251 C 
ATOM     38  H   UNL     1      -5.691  -4.471  -0.422  1.00  0.00     0.163 HD
ATOM     39  O   UNL     1      -7.999  -5.232  -0.906  1.00  0.00    -0.269 OA
BRANCH  37  40
ATOM     40  C   UNL     1      -8.174  -3.307  -2.251  1.00  0.00     0.039 A 
ATOM     41  C   UNL     1      -9.538  -3.019  -2.202  1.00  0.00     0.014 A 
ATOM     42  C   UNL     1      -7.338  -2.641  -3.130  1.00  0.00     0.014 A 
ATOM     43  C   UNL     1     -10.014  -1.968  -2.985  1.00  0.00     0.010 A 
ATOM     44  C   UNL     1      -7.742  -1.426  -3.589  1.00  0.00     0.010 A 
ATOM     45  C   UNL     1      -9.093  -1.146  -3.656  1.00  0.00    -0.014 A 
BRANCH  45  46
ATOM     46  C   UNL     1      -9.483   0.018  -4.439  1.00  0.00     0.031 A 
ATOM     47  C   UNL     1     -10.470   0.922  -3.799  1.00  0.00     0.074 A 
ATOM     48  C   UNL     1      -8.885   0.358  -5.604  1.00  0.00     0.049 A 
ATOM     49  N   UNL     1     -11.729   1.013  -4.062  1.00  0.00    -0.248 NA
ATOM     50  C   UNL     1     -10.045   1.710  -2.634  1.00  0.00     0.031 C 
ATOM     51  C   UNL     1      -7.690  -0.203  -6.258  1.00  0.00     0.029 A 
ATOM     52  N   UNL     1      -9.214   1.376  -6.438  1.00  0.00    -0.354 N 
ATOM     53  C   UNL     1     -12.225   2.022  -3.243  1.00  0.00     0.074 A 
ATOM     54  C   UNL     1     -11.196   2.280  -2.268  1.00  0.00     0.031 C 
ATOM     55  C   UNL     1      -7.270   0.623  -7.239  1.00  0.00     0.029 A 
ATOM     56  C   UNL     1      -8.280   1.641  -7.429  1.00  0.00     0.049 A 
ATOM     57  H   UNL     1     -10.050   1.887  -6.347  1.00  0.00     0.167 HD
ATOM     58  C   UNL     1     -13.364   2.700  -3.564  1.00  0.00     0.037 A 
ATOM     59  C   UNL     1      -8.340   2.624  -8.356  1.00  0.00     0.037 A 
ATOM     60  C   UNL     1     -14.069   2.044  -4.641  1.00  0.00     0.049 A 
ATOM     61  C   UNL     1      -9.771   3.011  -8.464  1.00  0.00     0.074 A 
ATOM     62  C   UNL     1     -14.657   0.803  -4.796  1.00  0.00     0.029 A 
ATOM     63  N   UNL     1     -13.884   2.531  -5.914  1.00  0.00    -0.354 N 
ATOM     64  N   UNL     1     -10.705   2.216  -8.917  1.00  0.00    -0.248 NA
ATOM     65  C   UNL     1     -10.240   4.103  -7.624  1.00  0.00     0.031 C 
ATOM     66  C   UNL     1     -14.341   0.411  -6.130  1.00  0.00     0.029 A 
ATOM     67  C   UNL     1     -13.640   1.457  -6.735  1.00  0.00     0.049 A 
ATOM     68  H   UNL     1     -13.920   3.477  -6.187  1.00  0.00     0.167 HD
ATOM     69  C   UNL     1     -11.806   2.450  -8.103  1.00  0.00     0.074 A 
ATOM     70  C   UNL     1     -11.485   3.682  -7.383  1.00  0.00     0.031 C 
ATOM     71  C   UNL     1     -12.751   1.487  -7.881  1.00  0.00     0.037 A 
BRANCH  58  72
ATOM     72  C   UNL     1     -13.687   4.112  -3.144  1.00  0.00     0.058 A 
ATOM     73  C   UNL     1     -14.984   4.620  -3.369  1.00  0.00     0.135 A 
ATOM     74  C   UNL     1     -12.715   5.066  -2.775  1.00  0.00     0.135 A 
ATOM     75  F   UNL     1     -15.989   3.803  -3.723  1.00  0.00    -0.206 F 
ATOM     76  C   UNL     1     -15.274   5.984  -3.308  1.00  0.00     0.059 A 
ATOM     77  C   UNL     1     -12.995   6.423  -2.654  1.00  0.00     0.059 A 
ATOM     78  F   UNL     1     -11.426   4.746  -2.613  1.00  0.00    -0.206 F 
ATOM     79  C   UNL     1     -14.265   6.879  -2.968  1.00  0.00     0.060 A 
BRANCH  79  80
ATOM     80  S   UNL     1     -14.601   8.648  -3.013  1.00  0.00     0.124 S 
ATOM     81  O   UNL     1     -14.751   8.877  -4.445  1.00  0.00    -0.237 OA
ATOM     82  O   UNL     1     -15.821   8.746  -2.218  1.00  0.00    -0.237 OA
ATOM     83  O   UNL     1     -13.412   9.231  -2.400  1.00  0.00    -0.744 OA
ENDBRANCH  79  80
ENDBRANCH  58  72
BRANCH  59  84
ATOM     84  C   UNL     1      -7.217   3.458  -8.848  1.00  0.00     0.058 A 
ATOM     85  C   UNL     1      -7.362   4.271  -9.983  1.00  0.00     0.135 A 
ATOM     86  C   UNL     1      -6.073   3.691  -8.054  1.00  0.00     0.135 A 
ATOM     87  F   UNL     1      -8.428   4.124 -10.784  1.00  0.00    -0.206 F 
ATOM     88  C   UNL     1      -6.459   5.296 -10.284  1.00  0.00     0.059 A 
ATOM     89  C   UNL     1      -5.155   4.701  -8.338  1.00  0.00     0.059 A 
ATOM     90  F   UNL     1      -5.865   3.001  -6.922  1.00  0.00    -0.206 F 
ATOM     91  C   UNL     1      -5.370   5.519  -9.440  1.00  0.00     0.060 A 
BRANCH  91  92
ATOM     92  S   UNL     1      -4.314   6.961  -9.719  1.00  0.00     0.124 S 
ATOM     93  O   UNL     1      -3.613   6.589 -10.943  1.00  0.00    -0.237 OA
ATOM     94  O   UNL     1      -5.291   8.037  -9.846  1.00  0.00    -0.237 OA
ATOM     95  O   UNL     1      -3.487   7.014  -8.516  1.00  0.00    -0.744 OA
ENDBRANCH  91  92
ENDBRANCH  59  84
BRANCH  71  96
ATOM     96  C   UNL     1     -12.735   0.249  -8.746  1.00  0.00     0.058 A 
ATOM     97  C   UNL     1     -11.708  -0.713  -8.742  1.00  0.00     0.135 A 
ATOM     98  C   UNL     1     -13.895  -0.066  -9.472  1.00  0.00     0.135 A 
ATOM     99  F   UNL     1     -10.606  -0.540  -8.001  1.00  0.00    -0.206 F 
ATOM    100  C   UNL     1     -11.819  -1.916  -9.444  1.00  0.00     0.059 A 
ATOM    101  C   UNL     1     -14.039  -1.271 -10.156  1.00  0.00     0.059 A 
ATOM    102  F   UNL     1     -14.937   0.782  -9.470  1.00  0.00    -0.206 F 
ATOM    103  C   UNL     1     -12.993  -2.190 -10.144  1.00  0.00     0.060 A 
BRANCH 103 104
ATOM    104  S   UNL     1     -13.176  -3.787 -10.970  1.00  0.00     0.124 S 
ATOM    105  O   UNL     1     -12.272  -3.651 -12.107  1.00  0.00    -0.237 OA
ATOM    106  O   UNL     1     -12.757  -4.731  -9.938  1.00  0.00    -0.237 OA
ATOM    107  O   UNL     1     -14.597  -3.837 -11.306  1.00  0.00    -0.744 OA
ENDBRANCH 103 104
ENDBRANCH  71  96
ENDBRANCH  45  46
ENDBRANCH  37  40
ENDBRANCH  35  36
ENDBRANCH  34  35
ENDBRANCH   1  34
TORSDOF 19
