REMARK SMILES CC(C)[C@@H]([NH3+])C(=O)N[C@@H](Cc1ccccc1)C(=O)NCCCNC(=O)c1ccc(-c2c3nc(c(-c4c(F)cc(S(=O)(=O)[O-])cc4F)c4ccc([nH]4)c(-c4c(F)cc(S(=O)(=O)[O-])cc4F)c4nc(c(-c5c(F)cc(S(=O)(=O)[O-])cc5F)c5ccc2[nH]5)C=C4)C=C3)cc1
REMARK SMILES IDX 21 1 20 2 19 3 17 4 18 5 9 7 8 8 6 9 7 10 4 12 2 13 1 14
REMARK SMILES IDX 3 15 5 16 10 20 11 21 12 22 16 23 13 24 15 25 14 26 22 27
REMARK SMILES IDX 23 28 24 29 25 31 26 32 27 33 91 34 28 35 90 36 29 37 30 38
REMARK SMILES IDX 31 39 84 40 32 41 89 42 83 43 85 44 33 45 88 46 82 47 81 48
REMARK SMILES IDX 34 50 68 51 47 52 67 53 48 54 51 55 66 56 86 57 49 58 50 59
REMARK SMILES IDX 65 61 87 62 52 63 35 64 36 65 45 66 37 67 38 68 44 69 46 70
REMARK SMILES IDX 39 71 40 72 41 73 42 74 43 75 69 76 70 77 79 78 71 79 72 80
REMARK SMILES IDX 78 81 80 82 73 83 74 84 75 85 76 86 77 87 53 88 54 89 63 90
REMARK SMILES IDX 55 91 56 92 62 93 64 94 57 95 58 96 59 97 60 98 61 99
REMARK H PARENT 19 6 8 11 5 17 5 18 5 19 23 30 85 49 51 60
REMARK Flexibility Score: inf
ROOT
ATOM      1  C   UNL     1      -3.195   6.965  -1.137  1.00  0.00     0.042 C 
ENDROOT
BRANCH   1   2
ATOM      2  C   UNL     1      -1.802   6.604  -0.680  1.00  0.00     0.117 C 
BRANCH   2   3
ATOM      3  N   UNL     1      -1.736   5.843   0.545  1.00  0.00    -0.354 N 
ATOM      4  C   UNL     1      -0.847   4.856   0.866  1.00  0.00     0.242 C 
ATOM      5  O   UNL     1      -0.581   4.721   2.067  1.00  0.00    -0.273 OA
ATOM      6  H   UNL     1      -2.409   6.061   1.230  1.00  0.00     0.163 HD
BRANCH   4   7
ATOM      7  C   UNL     1      -0.101   4.017  -0.202  1.00  0.00     0.175 C 
BRANCH   7   8
ATOM      8  N   UNL     1      -0.950   3.539  -1.302  1.00  0.00    -0.339 N 
ATOM      9  C   UNL     1      -1.365   2.281  -1.611  1.00  0.00     0.279 C 
ATOM     10  O   UNL     1      -2.176   2.162  -2.534  1.00  0.00    -0.268 OA
ATOM     11  H   UNL     1      -1.270   4.241  -1.913  1.00  0.00     0.164 HD
BRANCH   9  12
ATOM     12  C   UNL     1      -0.857   1.031  -0.854  1.00  0.00     0.273 C 
BRANCH  12  13
ATOM     13  C   UNL     1       0.668   0.804  -0.994  1.00  0.00     0.051 C 
ATOM     14  C   UNL     1       1.142  -0.441  -0.237  1.00  0.00     0.014 C 
ATOM     15  C   UNL     1       1.077   0.689  -2.467  1.00  0.00     0.014 C 
ENDBRANCH  12  13
BRANCH  12  16
ATOM     16  N   UNL     1      -1.315   1.107   0.549  1.00  0.00    -0.347 N 
ATOM     17  H   UNL     1      -0.917   1.935   0.992  1.00  0.00     0.345 HD
ATOM     18  H   UNL     1      -1.011   0.274   1.052  1.00  0.00     0.345 HD
ATOM     19  H   UNL     1      -2.333   1.166   0.571  1.00  0.00     0.345 HD
ENDBRANCH  12  16
ENDBRANCH   9  12
ENDBRANCH   7   8
BRANCH   7  20
ATOM     20  C   UNL     1       1.242   4.622  -0.684  1.00  0.00     0.070 C 
BRANCH  20  21
ATOM     21  C   UNL     1       1.209   5.920  -1.460  1.00  0.00    -0.045 A 
ATOM     22  C   UNL     1       1.579   7.122  -0.837  1.00  0.00     0.004 A 
ATOM     23  C   UNL     1       0.759   5.962  -2.791  1.00  0.00     0.004 A 
ATOM     24  C   UNL     1       1.430   8.342  -1.500  1.00  0.00     0.000 A 
ATOM     25  C   UNL     1       0.584   7.187  -3.441  1.00  0.00     0.000 A 
ATOM     26  C   UNL     1       0.908   8.377  -2.792  1.00  0.00     0.000 A 
ENDBRANCH  20  21
ENDBRANCH   7  20
ENDBRANCH   4   7
ENDBRANCH   2   3
ENDBRANCH   1   2
BRANCH   1  27
ATOM     27  C   UNL     1      -3.814   8.090  -0.331  1.00  0.00     0.118 C 
BRANCH  27  28
ATOM     28  N   UNL     1      -3.071   9.346  -0.429  1.00  0.00    -0.352 N 
ATOM     29  C   UNL     1      -3.347  10.528  -1.081  1.00  0.00     0.251 C 
ATOM     30  H   UNL     1      -2.217   9.348   0.061  1.00  0.00     0.163 HD
ATOM     31  O   UNL     1      -2.481  11.387  -1.157  1.00  0.00    -0.269 OA
BRANCH  29  32
ATOM     32  C   UNL     1      -4.668  10.746  -1.713  1.00  0.00     0.039 A 
ATOM     33  C   UNL     1      -4.743  11.443  -2.923  1.00  0.00     0.014 A 
ATOM     34  C   UNL     1      -5.833  10.263  -1.123  1.00  0.00     0.014 A 
ATOM     35  C   UNL     1      -5.972  11.560  -3.581  1.00  0.00     0.010 A 
ATOM     36  C   UNL     1      -7.019  10.252  -1.841  1.00  0.00     0.010 A 
ATOM     37  C   UNL     1      -7.110  10.914  -3.072  1.00  0.00    -0.014 A 
BRANCH  37  38
ATOM     38  C   UNL     1      -8.415  10.926  -3.782  1.00  0.00     0.031 A 
ATOM     39  C   UNL     1      -9.640  11.458  -3.085  1.00  0.00     0.074 A 
ATOM     40  C   UNL     1      -8.520  10.367  -5.004  1.00  0.00     0.049 A 
ATOM     41  N   UNL     1     -10.890  11.429  -3.468  1.00  0.00    -0.248 NA
ATOM     42  C   UNL     1      -9.437  12.057  -1.754  1.00  0.00     0.031 C 
ATOM     43  C   UNL     1      -7.421   9.758  -5.758  1.00  0.00     0.029 A 
ATOM     44  N   UNL     1      -9.608  10.210  -5.824  1.00  0.00    -0.354 N 
ATOM     45  C   UNL     1     -11.620  11.966  -2.413  1.00  0.00     0.074 A 
ATOM     46  C   UNL     1     -10.682  12.248  -1.350  1.00  0.00     0.031 C 
ATOM     47  C   UNL     1      -7.883   9.335  -6.946  1.00  0.00     0.029 A 
ATOM     48  C   UNL     1      -9.316   9.599  -7.020  1.00  0.00     0.049 A 
ATOM     49  H   UNL     1     -10.514  10.508  -5.579  1.00  0.00     0.167 HD
ATOM     50  C   UNL     1     -12.947  12.232  -2.346  1.00  0.00     0.037 A 
ATOM     51  C   UNL     1     -10.113   9.287  -8.059  1.00  0.00     0.037 A 
ATOM     52  C   UNL     1     -13.863  12.000  -3.430  1.00  0.00     0.049 A 
ATOM     53  C   UNL     1     -11.576   9.623  -7.982  1.00  0.00     0.074 A 
ATOM     54  C   UNL     1     -15.210  12.303  -3.501  1.00  0.00     0.029 A 
ATOM     55  N   UNL     1     -13.518  11.415  -4.641  1.00  0.00    -0.354 N 
ATOM     56  N   UNL     1     -12.242  10.181  -6.999  1.00  0.00    -0.248 NA
ATOM     57  C   UNL     1     -12.396   9.290  -9.155  1.00  0.00     0.031 C 
ATOM     58  C   UNL     1     -15.688  11.872  -4.744  1.00  0.00     0.029 A 
ATOM     59  C   UNL     1     -14.630  11.337  -5.462  1.00  0.00     0.049 A 
ATOM     60  H   UNL     1     -12.616  11.102  -4.881  1.00  0.00     0.167 HD
ATOM     61  C   UNL     1     -13.555  10.290  -7.443  1.00  0.00     0.074 A 
ATOM     62  C   UNL     1     -13.586   9.746  -8.787  1.00  0.00     0.031 C 
ATOM     63  C   UNL     1     -14.636  10.795  -6.799  1.00  0.00     0.037 A 
BRANCH  50  64
ATOM     64  C   UNL     1     -13.467  12.812  -1.059  1.00  0.00     0.058 A 
ATOM     65  C   UNL     1     -13.124  14.110  -0.642  1.00  0.00     0.135 A 
ATOM     66  C   UNL     1     -14.294  12.053  -0.215  1.00  0.00     0.135 A 
ATOM     67  F   UNL     1     -12.323  14.874  -1.402  1.00  0.00    -0.206 F 
ATOM     68  C   UNL     1     -13.532  14.612   0.589  1.00  0.00     0.059 A 
ATOM     69  C   UNL     1     -14.741  12.549   1.007  1.00  0.00     0.059 A 
ATOM     70  F   UNL     1     -14.657  10.809  -0.563  1.00  0.00    -0.206 F 
ATOM     71  C   UNL     1     -14.332  13.819   1.412  1.00  0.00     0.060 A 
BRANCH  71  72
ATOM     72  S   UNL     1     -14.819  14.464   3.026  1.00  0.00     0.124 S 
ATOM     73  O   UNL     1     -13.588  14.287   3.791  1.00  0.00    -0.237 OA
ATOM     74  O   UNL     1     -15.179  15.844   2.718  1.00  0.00    -0.237 OA
ATOM     75  O   UNL     1     -15.930  13.601   3.414  1.00  0.00    -0.744 OA
ENDBRANCH  71  72
ENDBRANCH  50  64
BRANCH  51  76
ATOM     76  C   UNL     1      -9.525   8.675  -9.280  1.00  0.00     0.058 A 
ATOM     77  C   UNL     1      -9.361   9.435 -10.447  1.00  0.00     0.135 A 
ATOM     78  C   UNL     1      -9.070   7.348  -9.293  1.00  0.00     0.135 A 
ATOM     79  F   UNL     1      -9.786  10.707 -10.483  1.00  0.00    -0.206 F 
ATOM     80  C   UNL     1      -8.768   8.903 -11.586  1.00  0.00     0.059 A 
ATOM     81  C   UNL     1      -8.454   6.799 -10.415  1.00  0.00     0.059 A 
ATOM     82  F   UNL     1      -9.188   6.585  -8.195  1.00  0.00    -0.206 F 
ATOM     83  C   UNL     1      -8.310   7.585 -11.558  1.00  0.00     0.060 A 
BRANCH  83  84
ATOM     84  S   UNL     1      -7.470   6.931 -13.018  1.00  0.00     0.124 S 
ATOM     85  O   UNL     1      -8.584   6.745 -13.940  1.00  0.00    -0.237 OA
ATOM     86  O   UNL     1      -6.542   8.010 -13.345  1.00  0.00    -0.237 OA
ATOM     87  O   UNL     1      -6.845   5.707 -12.525  1.00  0.00    -0.744 OA
ENDBRANCH  83  84
ENDBRANCH  51  76
BRANCH  63  88
ATOM     88  C   UNL     1     -15.937  10.812  -7.549  1.00  0.00     0.058 A 
ATOM     89  C   UNL     1     -16.682   9.642  -7.756  1.00  0.00     0.135 A 
ATOM     90  C   UNL     1     -16.470  12.024  -8.016  1.00  0.00     0.135 A 
ATOM     91  F   UNL     1     -16.211   8.457  -7.334  1.00  0.00    -0.206 F 
ATOM     92  C   UNL     1     -17.904   9.669  -8.418  1.00  0.00     0.059 A 
ATOM     93  C   UNL     1     -17.702  12.078  -8.659  1.00  0.00     0.059 A 
ATOM     94  F   UNL     1     -15.800  13.173  -7.833  1.00  0.00    -0.206 F 
ATOM     95  C   UNL     1     -18.407  10.893  -8.864  1.00  0.00     0.060 A 
BRANCH  95  96
ATOM     96  S   UNL     1     -20.013  10.921  -9.688  1.00  0.00     0.124 S 
ATOM     97  O   UNL     1     -19.677  10.392 -11.005  1.00  0.00    -0.237 OA
ATOM     98  O   UNL     1     -20.817  10.047  -8.839  1.00  0.00    -0.237 OA
ATOM     99  O   UNL     1     -20.386  12.332  -9.653  1.00  0.00    -0.744 OA
ENDBRANCH  95  96
ENDBRANCH  63  88
ENDBRANCH  37  38
ENDBRANCH  29  32
ENDBRANCH  27  28
ENDBRANCH   1  27
TORSDOF 19
