REMARK SMILES Cc1ncccc1Oc1ccc(C(=O)NCCCNC(=O)c2ccc(-c3c4nc(c(-c5c(F)cc(S(=O)(=O)[O-])cc5F)c5ccc([nH]5)c(-c5c(F)cc(S(=O)(=O)[O-])cc5F)c5nc(c(-c6c(F)cc(S(=O)(=O)[O-])cc6F)c6ccc3[nH]6)C=C5)C=C4)cc2)cc1Cl
REMARK SMILES IDX 17 1 16 2 15 3 13 4 14 5 12 7 9 8 10 9 89 10 11 11 88 12
REMARK SMILES IDX 90 13 8 14 7 15 1 16 2 17 3 18 4 19 6 20 5 21 18 22 19 23
REMARK SMILES IDX 20 24 21 26 22 27 23 28 87 29 24 30 86 31 25 32 26 33 27 34
REMARK SMILES IDX 80 35 28 36 85 37 79 38 81 39 29 40 84 41 78 42 77 43 30 45
REMARK SMILES IDX 64 46 43 47 63 48 44 49 47 50 62 51 82 52 45 53 46 54 61 56
REMARK SMILES IDX 83 57 48 58 31 59 32 60 41 61 33 62 34 63 40 64 42 65 35 66
REMARK SMILES IDX 36 67 37 68 38 69 39 70 65 71 66 72 75 73 67 74 68 75 74 76
REMARK SMILES IDX 76 77 69 78 70 79 71 80 72 81 73 82 49 83 50 84 59 85 51 86
REMARK SMILES IDX 52 87 58 88 60 89 53 90 54 91 55 92 56 93 57 94
REMARK H PARENT 15 6 19 25 81 44 47 55
REMARK Flexibility Score: inf
ROOT
ATOM      1  C   UNL     1       6.914  -1.529   3.371  1.00  0.00     0.042 C 
ENDROOT
BRANCH   1   2
ATOM      2  C   UNL     1       6.751  -1.080   1.920  1.00  0.00     0.118 C 
BRANCH   2   3
ATOM      3  N   UNL     1       7.103  -2.145   0.995  1.00  0.00    -0.352 N 
ATOM      4  C   UNL     1       6.338  -2.990   0.234  1.00  0.00     0.251 C 
ATOM      5  O   UNL     1       6.906  -3.765  -0.532  1.00  0.00    -0.269 OA
ATOM      6  H   UNL     1       8.073  -2.285   0.897  1.00  0.00     0.163 HD
BRANCH   4   7
ATOM      7  C   UNL     1       4.854  -2.942   0.238  1.00  0.00     0.041 A 
ATOM      8  C   UNL     1       2.083  -2.658   0.024  1.00  0.00     0.146 A 
ATOM      9  C   UNL     1       2.827  -3.046  -1.091  1.00  0.00     0.049 A 
ATOM     10  C   UNL     1       2.699  -2.557   1.274  1.00  0.00     0.084 A 
ATOM     11  C   UNL     1       4.211  -3.171  -0.987  1.00  0.00     0.018 A 
ATOM     12  C   UNL     1       4.084  -2.708   1.381  1.00  0.00     0.038 A 
ATOM     13  Cl  UNL     1       1.799  -2.216   2.706  1.00  0.00    -0.080 Cl
BRANCH   8  14
ATOM     14  O   UNL     1       0.744  -2.463  -0.170  1.00  0.00    -0.454 OA
BRANCH  14  15
ATOM     15  C   UNL     1       0.216  -1.189  -0.133  1.00  0.00     0.148 A 
ATOM     16  C   UNL     1       2.303   0.276  -0.520  1.00  0.00     0.071 C 
ATOM     17  C   UNL     1       0.838   0.057  -0.295  1.00  0.00     0.080 A 
ATOM     18  N   UNL     1       0.132   1.225  -0.257  1.00  0.00    -0.258 NA
ATOM     19  C   UNL     1      -1.201   1.167  -0.068  1.00  0.00     0.111 A 
ATOM     20  C   UNL     1      -1.175  -1.200   0.043  1.00  0.00     0.050 A 
ATOM     21  C   UNL     1      -1.897  -0.013   0.080  1.00  0.00     0.024 A 
ENDBRANCH  14  15
ENDBRANCH   8  14
ENDBRANCH   4   7
ENDBRANCH   2   3
ENDBRANCH   1   2
BRANCH   1  22
ATOM     22  C   UNL     1       8.368  -1.705   3.800  1.00  0.00     0.118 C 
BRANCH  22  23
ATOM     23  N   UNL     1       9.070  -0.436   3.895  1.00  0.00    -0.352 N 
ATOM     24  C   UNL     1       9.778   0.110   4.936  1.00  0.00     0.251 C 
ATOM     25  H   UNL     1       9.031   0.121   3.084  1.00  0.00     0.163 HD
ATOM     26  O   UNL     1      10.118   1.288   4.865  1.00  0.00    -0.269 OA
BRANCH  24  27
ATOM     27  C   UNL     1      10.127  -0.688   6.137  1.00  0.00     0.039 A 
ATOM     28  C   UNL     1      10.113  -0.051   7.382  1.00  0.00     0.014 A 
ATOM     29  C   UNL     1      10.528  -2.025   6.050  1.00  0.00     0.014 A 
ATOM     30  C   UNL     1      10.465  -0.758   8.534  1.00  0.00     0.010 A 
ATOM     31  C   UNL     1      10.811  -2.750   7.209  1.00  0.00     0.010 A 
ATOM     32  C   UNL     1      10.798  -2.121   8.461  1.00  0.00    -0.014 A 
BRANCH  32  33
ATOM     33  C   UNL     1      11.136  -2.881   9.694  1.00  0.00     0.031 A 
ATOM     34  C   UNL     1      12.522  -3.434   9.900  1.00  0.00     0.074 A 
ATOM     35  C   UNL     1      10.182  -3.091  10.623  1.00  0.00     0.049 A 
ATOM     36  N   UNL     1      13.002  -4.098  10.921  1.00  0.00    -0.248 NA
ATOM     37  C   UNL     1      13.488  -3.238   8.808  1.00  0.00     0.031 C 
ATOM     38  C   UNL     1       8.786  -2.662  10.511  1.00  0.00     0.029 A 
ATOM     39  N   UNL     1      10.240  -3.714  11.844  1.00  0.00    -0.354 N 
ATOM     40  C   UNL     1      14.317  -4.406  10.592  1.00  0.00     0.074 A 
ATOM     41  C   UNL     1      14.544  -3.902   9.255  1.00  0.00     0.031 C 
ATOM     42  C   UNL     1       8.129  -3.004  11.631  1.00  0.00     0.029 A 
ATOM     43  C   UNL     1       9.049  -3.695  12.530  1.00  0.00     0.049 A 
ATOM     44  H   UNL     1      11.058  -4.135  12.196  1.00  0.00     0.167 HD
ATOM     45  C   UNL     1      15.258  -5.029  11.344  1.00  0.00     0.037 A 
ATOM     46  C   UNL     1       8.735  -4.170  13.750  1.00  0.00     0.037 A 
ATOM     47  C   UNL     1      15.035  -5.505  12.685  1.00  0.00     0.049 A 
ATOM     48  C   UNL     1       9.806  -4.816  14.583  1.00  0.00     0.074 A 
ATOM     49  C   UNL     1      15.937  -6.100  13.551  1.00  0.00     0.029 A 
ATOM     50  N   UNL     1      13.824  -5.437  13.359  1.00  0.00    -0.354 N 
ATOM     51  N   UNL     1      11.063  -5.039  14.281  1.00  0.00    -0.248 NA
ATOM     52  C   UNL     1       9.422  -5.260  15.930  1.00  0.00     0.031 C 
ATOM     53  C   UNL     1      15.263  -6.420  14.736  1.00  0.00     0.029 A 
ATOM     54  C   UNL     1      13.952  -5.988  14.624  1.00  0.00     0.049 A 
ATOM     55  H   UNL     1      12.995  -5.055  12.991  1.00  0.00     0.167 HD
ATOM     56  C   UNL     1      11.626  -5.628  15.408  1.00  0.00     0.074 A 
ATOM     57  C   UNL     1      10.576  -5.709  16.403  1.00  0.00     0.031 C 
ATOM     58  C   UNL     1      12.896  -6.063  15.602  1.00  0.00     0.037 A 
BRANCH  45  59
ATOM     59  C   UNL     1      16.621  -5.221  10.734  1.00  0.00     0.058 A 
ATOM     60  C   UNL     1      17.491  -4.139  10.523  1.00  0.00     0.135 A 
ATOM     61  C   UNL     1      17.076  -6.503  10.385  1.00  0.00     0.135 A 
ATOM     62  F   UNL     1      17.103  -2.890  10.825  1.00  0.00    -0.206 F 
ATOM     63  C   UNL     1      18.750  -4.316   9.957  1.00  0.00     0.059 A 
ATOM     64  C   UNL     1      18.342  -6.706   9.842  1.00  0.00     0.059 A 
ATOM     65  F   UNL     1      16.287  -7.573  10.566  1.00  0.00    -0.206 F 
ATOM     66  C   UNL     1      19.166  -5.604   9.617  1.00  0.00     0.060 A 
BRANCH  66  67
ATOM     67  S   UNL     1      20.802  -5.818   8.884  1.00  0.00     0.124 S 
ATOM     68  O   UNL     1      20.579  -5.326   7.528  1.00  0.00    -0.237 OA
ATOM     69  O   UNL     1      21.639  -4.977   9.734  1.00  0.00    -0.237 OA
ATOM     70  O   UNL     1      21.040  -7.254   8.999  1.00  0.00    -0.744 OA
ENDBRANCH  66  67
ENDBRANCH  45  59
BRANCH  46  71
ATOM     71  C   UNL     1       7.354  -4.006  14.275  1.00  0.00     0.058 A 
ATOM     72  C   UNL     1       7.077  -3.091  15.302  1.00  0.00     0.135 A 
ATOM     73  C   UNL     1       6.282  -4.744  13.750  1.00  0.00     0.135 A 
ATOM     74  F   UNL     1       8.069  -2.365  15.839  1.00  0.00    -0.206 F 
ATOM     75  C   UNL     1       5.790  -2.925  15.803  1.00  0.00     0.059 A 
ATOM     76  C   UNL     1       4.982  -4.578  14.218  1.00  0.00     0.059 A 
ATOM     77  F   UNL     1       6.492  -5.617  12.753  1.00  0.00    -0.206 F 
ATOM     78  C   UNL     1       4.748  -3.673  15.252  1.00  0.00     0.060 A 
BRANCH  78  79
ATOM     79  S   UNL     1       3.071  -3.413  15.872  1.00  0.00     0.124 S 
ATOM     80  O   UNL     1       3.118  -4.117  17.148  1.00  0.00    -0.237 OA
ATOM     81  O   UNL     1       2.992  -1.958  15.947  1.00  0.00    -0.237 OA
ATOM     82  O   UNL     1       2.237  -4.025  14.842  1.00  0.00    -0.744 OA
ENDBRANCH  78  79
ENDBRANCH  46  71
BRANCH  58  83
ATOM     83  C   UNL     1      13.220  -6.638  16.953  1.00  0.00     0.058 A 
ATOM     84  C   UNL     1      12.741  -7.896  17.352  1.00  0.00     0.135 A 
ATOM     85  C   UNL     1      14.025  -5.925  17.855  1.00  0.00     0.135 A 
ATOM     86  F   UNL     1      11.965  -8.617  16.528  1.00  0.00    -0.206 F 
ATOM     87  C   UNL     1      13.013  -8.407  18.617  1.00  0.00     0.059 A 
ATOM     88  C   UNL     1      14.332  -6.429  19.115  1.00  0.00     0.059 A 
ATOM     89  F   UNL     1      14.520  -4.723  17.517  1.00  0.00    -0.206 F 
ATOM     90  C   UNL     1      13.803  -7.662  19.494  1.00  0.00     0.060 A 
BRANCH  90  91
ATOM     91  S   UNL     1      14.145  -8.329  21.137  1.00  0.00     0.124 S 
ATOM     92  O   UNL     1      12.890  -8.056  21.830  1.00  0.00    -0.237 OA
ATOM     93  O   UNL     1      14.421  -9.735  20.856  1.00  0.00    -0.237 OA
ATOM     94  O   UNL     1      15.294  -7.550  21.586  1.00  0.00    -0.744 OA
ENDBRANCH  90  91
ENDBRANCH  58  83
ENDBRANCH  32  33
ENDBRANCH  24  27
ENDBRANCH  22  23
ENDBRANCH   1  22
TORSDOF 15
