REMARK SMILES O=C(NCCCNC(=O)C1CC[NH+]([C@@H]2CC(=O)N(c3ccc(Oc4ccccc4)cc3)C2=O)CC1)c1ccc(-c2c3nc(c(-c4c(F)cc(S(=O)(=O)[O-])cc4F)c4ccc([nH]4)c(-c4c(F)cc(S(=O)(=O)[O-])cc4F)c4nc(c(-c5c(F)cc(S(=O)(=O)[O-])cc5F)c5ccc2[nH]5)C=C4)C=C3)cc1
REMARK SMILES IDX 5 1 4 2 3 3 1 4 2 5 36 7 37 8 101 9 38 10 100 11 39 12 40 13
REMARK SMILES IDX 41 14 94 15 42 16 99 17 93 18 95 19 43 20 98 21 92 22 91 23
REMARK SMILES IDX 44 25 78 26 57 27 77 28 58 29 61 30 76 31 96 32 59 33 60 34
REMARK SMILES IDX 75 36 97 37 62 38 45 39 46 40 55 41 47 42 48 43 54 44 56 45
REMARK SMILES IDX 49 46 50 47 51 48 52 49 53 50 79 51 80 52 89 53 81 54 82 55
REMARK SMILES IDX 88 56 90 57 83 58 84 59 85 60 86 61 87 62 63 63 64 64 73 65
REMARK SMILES IDX 65 66 66 67 72 68 74 69 67 70 68 71 69 72 70 73 71 74 6 75
REMARK SMILES IDX 7 76 8 77 9 79 10 80 11 81 35 82 12 83 34 84 13 85 14 87
REMARK SMILES IDX 15 88 32 89 16 90 18 91 33 92 17 93 19 94 20 95 31 96 21 97
REMARK SMILES IDX 30 98 22 99 23 100 24 101 25 102 29 103 26 104 28 105 27 106
REMARK H PARENT 3 6 95 24 61 35 7 78 13 86
REMARK Flexibility Score: inf
ROOT
ATOM      1  C   UNL     1       4.146   1.093   2.142  1.00  0.00     0.042 C 
ENDROOT
BRANCH   1   2
ATOM      2  C   UNL     1       3.889  -0.367   1.783  1.00  0.00     0.118 C 
BRANCH   2   3
ATOM      3  N   UNL     1       2.538  -0.556   1.283  1.00  0.00    -0.352 N 
ATOM      4  O   UNL     1       0.828  -0.330  -0.138  1.00  0.00    -0.269 OA
ATOM      5  C   UNL     1       2.042  -0.474   0.002  1.00  0.00     0.251 C 
ATOM      6  H   UNL     1       1.870  -0.779   1.971  1.00  0.00     0.163 HD
BRANCH   5   7
ATOM      7  C   UNL     1       2.914  -0.561  -1.200  1.00  0.00     0.039 A 
ATOM      8  C   UNL     1       4.031  -1.396  -1.245  1.00  0.00     0.014 A 
ATOM      9  C   UNL     1       2.526   0.114  -2.367  1.00  0.00     0.014 A 
ATOM     10  C   UNL     1       4.809  -1.472  -2.401  1.00  0.00     0.010 A 
ATOM     11  C   UNL     1       3.253  -0.041  -3.557  1.00  0.00     0.010 A 
ATOM     12  C   UNL     1       4.410  -0.833  -3.587  1.00  0.00    -0.014 A 
BRANCH  12  13
ATOM     13  C   UNL     1       5.138  -1.113  -4.858  1.00  0.00     0.031 A 
ATOM     14  C   UNL     1       5.804  -0.022  -5.655  1.00  0.00     0.074 A 
ATOM     15  C   UNL     1       5.188  -2.386  -5.306  1.00  0.00     0.049 A 
ATOM     16  N   UNL     1       6.467  -0.113  -6.781  1.00  0.00    -0.248 NA
ATOM     17  C   UNL     1       5.712   1.348  -5.128  1.00  0.00     0.031 C 
ATOM     18  C   UNL     1       4.556  -3.533  -4.646  1.00  0.00     0.029 A 
ATOM     19  N   UNL     1       5.794  -2.937  -6.407  1.00  0.00    -0.354 N 
ATOM     20  C   UNL     1       6.858   1.180  -7.108  1.00  0.00     0.074 A 
ATOM     21  C   UNL     1       6.338   2.045  -6.068  1.00  0.00     0.031 C 
ATOM     22  C   UNL     1       4.843  -4.650  -5.327  1.00  0.00     0.029 A 
ATOM     23  C   UNL     1       5.611  -4.297  -6.514  1.00  0.00     0.049 A 
ATOM     24  H   UNL     1       6.311  -2.410  -7.059  1.00  0.00     0.167 HD
ATOM     25  C   UNL     1       7.584   1.604  -8.172  1.00  0.00     0.037 A 
ATOM     26  C   UNL     1       5.983  -5.167  -7.472  1.00  0.00     0.037 A 
ATOM     27  C   UNL     1       8.096   0.735  -9.205  1.00  0.00     0.049 A 
ATOM     28  C   UNL     1       6.749  -4.665  -8.660  1.00  0.00     0.074 A 
ATOM     29  C   UNL     1       8.876   1.071 -10.300  1.00  0.00     0.029 A 
ATOM     30  N   UNL     1       7.867  -0.631  -9.287  1.00  0.00    -0.354 N 
ATOM     31  N   UNL     1       7.161  -3.447  -8.918  1.00  0.00    -0.248 NA
ATOM     32  C   UNL     1       7.098  -5.650  -9.691  1.00  0.00     0.031 C 
ATOM     33  C   UNL     1       9.066  -0.078 -11.075  1.00  0.00     0.029 A 
ATOM     34  C   UNL     1       8.460  -1.145 -10.431  1.00  0.00     0.049 A 
ATOM     35  H   UNL     1       7.357  -1.159  -8.630  1.00  0.00     0.167 HD
ATOM     36  C   UNL     1       7.829  -3.522 -10.133  1.00  0.00     0.074 A 
ATOM     37  C   UNL     1       7.787  -4.909 -10.548  1.00  0.00     0.031 C 
ATOM     38  C   UNL     1       8.420  -2.528 -10.840  1.00  0.00     0.037 A 
BRANCH  25  39
ATOM     39  C   UNL     1       7.860   3.081  -8.297  1.00  0.00     0.058 A 
ATOM     40  C   UNL     1       8.745   3.745  -7.433  1.00  0.00     0.135 A 
ATOM     41  C   UNL     1       7.281   3.830  -9.337  1.00  0.00     0.135 A 
ATOM     42  F   UNL     1       9.322   3.083  -6.417  1.00  0.00    -0.206 F 
ATOM     43  C   UNL     1       9.025   5.101  -7.577  1.00  0.00     0.059 A 
ATOM     44  C   UNL     1       7.569   5.181  -9.517  1.00  0.00     0.059 A 
ATOM     45  F   UNL     1       6.432   3.247 -10.198  1.00  0.00    -0.206 F 
ATOM     46  C   UNL     1       8.432   5.811  -8.623  1.00  0.00     0.060 A 
BRANCH  46  47
ATOM     47  S   UNL     1       8.807   7.569  -8.792  1.00  0.00     0.124 S 
ATOM     48  O   UNL     1       8.108   8.127  -7.639  1.00  0.00    -0.237 OA
ATOM     49  O   UNL     1      10.265   7.585  -8.717  1.00  0.00    -0.237 OA
ATOM     50  O   UNL     1       8.245   7.915 -10.094  1.00  0.00    -0.744 OA
ENDBRANCH  46  47
ENDBRANCH  25  39
BRANCH  26  51
ATOM     51  C   UNL     1       5.607  -6.601  -7.352  1.00  0.00     0.058 A 
ATOM     52  C   UNL     1       6.577  -7.589  -7.135  1.00  0.00     0.135 A 
ATOM     53  C   UNL     1       4.264  -7.009  -7.431  1.00  0.00     0.135 A 
ATOM     54  F   UNL     1       7.874  -7.251  -7.058  1.00  0.00    -0.206 F 
ATOM     55  C   UNL     1       6.234  -8.932  -7.013  1.00  0.00     0.059 A 
ATOM     56  C   UNL     1       3.893  -8.340  -7.279  1.00  0.00     0.059 A 
ATOM     57  F   UNL     1       3.295  -6.100  -7.622  1.00  0.00    -0.206 F 
ATOM     58  C   UNL     1       4.887  -9.296  -7.082  1.00  0.00     0.060 A 
BRANCH  58  59
ATOM     59  S   UNL     1       4.449 -11.035  -6.873  1.00  0.00     0.124 S 
ATOM     60  O   UNL     1       4.912 -11.607  -8.132  1.00  0.00    -0.237 OA
ATOM     61  O   UNL     1       5.214 -11.402  -5.685  1.00  0.00    -0.237 OA
ATOM     62  O   UNL     1       3.001 -10.997  -6.690  1.00  0.00    -0.744 OA
ENDBRANCH  58  59
ENDBRANCH  26  51
BRANCH  38  63
ATOM     63  C   UNL     1       9.107  -2.906 -12.124  1.00  0.00     0.058 A 
ATOM     64  C   UNL     1       8.386  -3.276 -13.270  1.00  0.00     0.135 A 
ATOM     65  C   UNL     1      10.507  -2.852 -12.220  1.00  0.00     0.135 A 
ATOM     66  F   UNL     1       7.046  -3.357 -13.230  1.00  0.00    -0.206 F 
ATOM     67  C   UNL     1       9.029  -3.598 -14.461  1.00  0.00     0.059 A 
ATOM     68  C   UNL     1      11.170  -3.139 -13.409  1.00  0.00     0.059 A 
ATOM     69  F   UNL     1      11.244  -2.500 -11.155  1.00  0.00    -0.206 F 
ATOM     70  C   UNL     1      10.422  -3.522 -14.522  1.00  0.00     0.060 A 
BRANCH  70  71
ATOM     71  S   UNL     1      11.241  -3.901 -16.086  1.00  0.00     0.124 S 
ATOM     72  O   UNL     1      11.075  -5.349 -16.162  1.00  0.00    -0.237 OA
ATOM     73  O   UNL     1      10.462  -3.122 -17.043  1.00  0.00    -0.237 OA
ATOM     74  O   UNL     1      12.609  -3.437 -15.875  1.00  0.00    -0.744 OA
ENDBRANCH  70  71
ENDBRANCH  38  63
ENDBRANCH  12  13
ENDBRANCH   5   7
ENDBRANCH   2   3
ENDBRANCH   1   2
BRANCH   1  75
ATOM     75  C   UNL     1       3.713   1.480   3.551  1.00  0.00     0.117 C 
BRANCH  75  76
ATOM     76  N   UNL     1       4.496   0.847   4.594  1.00  0.00    -0.356 N 
ATOM     77  C   UNL     1       5.454   1.256   5.452  1.00  0.00     0.223 C 
ATOM     78  H   UNL     1       4.278  -0.107   4.701  1.00  0.00     0.163 HD
ATOM     79  O   UNL     1       5.696   0.456   6.368  1.00  0.00    -0.275 OA
BRANCH  77  80
ATOM     80  C   UNL     1       6.327   2.510   5.348  1.00  0.00     0.089 C 
ATOM     81  C   UNL     1       5.819   3.836   4.803  1.00  0.00     0.075 C 
ATOM     82  C   UNL     1       7.677   2.156   4.735  1.00  0.00     0.075 C 
ATOM     83  C   UNL     1       6.026   4.069   3.301  1.00  0.00     0.263 C 
ATOM     84  C   UNL     1       7.643   2.195   3.216  1.00  0.00     0.263 C 
ATOM     85  N   UNL     1       7.235   3.503   2.710  1.00  0.00    -0.324 N 
ATOM     86  H   UNL     1       7.983   4.084   3.090  1.00  0.00     0.348 HD
BRANCH  85  87
ATOM     87  C   UNL     1       7.366   3.727   1.240  1.00  0.00     0.284 C 
ATOM     88  C   UNL     1       6.161   3.520   0.327  1.00  0.00     0.176 C 
ATOM     89  C   UNL     1       8.413   2.827   0.594  1.00  0.00     0.292 C 
ATOM     90  C   UNL     1       6.454   2.253  -0.412  1.00  0.00     0.240 C 
ATOM     91  N   UNL     1       7.769   1.914  -0.216  1.00  0.00    -0.245 N 
ATOM     92  O   UNL     1       9.615   2.930   0.810  1.00  0.00    -0.267 OA
ATOM     93  O   UNL     1       5.588   1.666  -1.044  1.00  0.00    -0.274 OA
BRANCH  91  94
ATOM     94  C   UNL     1       8.403   0.779  -0.787  1.00  0.00     0.052 A 
ATOM     95  C   UNL     1       9.482   0.164  -0.136  1.00  0.00     0.031 A 
ATOM     96  C   UNL     1       7.972   0.232  -2.001  1.00  0.00     0.031 A 
ATOM     97  C   UNL     1      10.134  -0.936  -0.702  1.00  0.00     0.049 A 
ATOM     98  C   UNL     1       8.632  -0.862  -2.578  1.00  0.00     0.049 A 
ATOM     99  C   UNL     1       9.736  -1.430  -1.942  1.00  0.00     0.127 A 
BRANCH  99 100
ATOM    100  O   UNL     1      10.473  -2.491  -2.420  1.00  0.00    -0.457 OA
BRANCH 100 101
ATOM    101  C   UNL     1      10.391  -2.799  -3.757  1.00  0.00     0.127 A 
ATOM    102  C   UNL     1      10.012  -4.099  -4.088  1.00  0.00     0.047 A 
ATOM    103  C   UNL     1      10.717  -1.880  -4.758  1.00  0.00     0.047 A 
ATOM    104  C   UNL     1       9.892  -4.465  -5.428  1.00  0.00     0.004 A 
ATOM    105  C   UNL     1      10.583  -2.245  -6.097  1.00  0.00     0.004 A 
ATOM    106  C   UNL     1      10.163  -3.534  -6.431  1.00  0.00     0.000 A 
ENDBRANCH 100 101
ENDBRANCH  99 100
ENDBRANCH  91  94
ENDBRANCH  85  87
ENDBRANCH  77  80
ENDBRANCH  75  76
ENDBRANCH   1  75
TORSDOF 17
