REMARK SMILES Cn1cc(S(=O)(=O)N2CCC(C(=O)NCCCNC(=O)c3ccc(-c4c5nc(c(-c6c(F)cc(S(=O)(=O)[O-])cc6F)c6ccc([nH]6)c(-c6c(F)cc(S(=O)(=O)[O-])cc6F)c6nc(c(-c7c(F)cc(S(=O)(=O)[O-])cc7F)c7ccc4[nH]7)C=C6)C=C5)cc3)CC2)cc1C(=O)N1CCCCC1
REMARK SMILES IDX 16 1 15 2 14 3 12 4 13 5 11 7 8 8 9 9 88 10 10 11 87 12 5 13
REMARK SMILES IDX 6 14 7 15 4 16 1 17 2 18 3 19 90 20 89 21 91 22 92 23 93 24
REMARK SMILES IDX 94 25 98 26 95 27 97 28 96 29 17 30 18 31 19 32 20 34 21 35
REMARK SMILES IDX 22 36 86 37 23 38 85 39 24 40 25 41 26 42 79 43 27 44 84 45
REMARK SMILES IDX 78 46 80 47 28 48 83 49 77 50 76 51 29 53 63 54 42 55 62 56
REMARK SMILES IDX 43 57 46 58 61 59 81 60 44 61 45 62 60 64 82 65 47 66 30 67
REMARK SMILES IDX 31 68 40 69 32 70 33 71 39 72 41 73 34 74 35 75 36 76 37 77
REMARK SMILES IDX 38 78 64 79 65 80 74 81 66 82 67 83 73 84 75 85 68 86 69 87
REMARK SMILES IDX 70 88 71 89 72 90 48 91 49 92 58 93 50 94 51 95 57 96 59 97
REMARK SMILES IDX 52 98 53 99 54 100 55 101 56 102
REMARK H PARENT 14 6 18 33 80 52 46 63
REMARK Flexibility Score: inf
ROOT
ATOM      1  C   UNL     1      -9.069   0.279  -1.320  1.00  0.00     0.042 C 
ENDROOT
BRANCH   1   2
ATOM      2  C   UNL     1      -8.473  -0.267  -0.030  1.00  0.00     0.117 C 
BRANCH   2   3
ATOM      3  N   UNL     1      -8.274  -1.707  -0.083  1.00  0.00    -0.356 N 
ATOM      4  C   UNL     1      -7.147  -2.462  -0.122  1.00  0.00     0.223 C 
ATOM      5  O   UNL     1      -7.281  -3.688  -0.176  1.00  0.00    -0.275 OA
ATOM      6  H   UNL     1      -9.109  -2.229  -0.091  1.00  0.00     0.163 HD
BRANCH   4   7
ATOM      7  C   UNL     1      -5.760  -1.851  -0.063  1.00  0.00     0.081 C 
ATOM      8  N   UNL     1      -3.936   0.356   0.161  1.00  0.00    -0.198 NA
ATOM      9  C   UNL     1      -4.067  -0.335  -1.146  1.00  0.00     0.103 C 
ATOM     10  C   UNL     1      -4.144  -0.509   1.343  1.00  0.00     0.103 C 
ATOM     11  C   UNL     1      -5.448  -0.960  -1.266  1.00  0.00     0.030 C 
ATOM     12  C   UNL     1      -5.507  -1.175   1.286  1.00  0.00     0.030 C 
BRANCH   8  13
ATOM     13  S   UNL     1      -2.631   1.451   0.282  1.00  0.00     0.244 S 
ATOM     14  O   UNL     1      -2.619   2.017   1.615  1.00  0.00    -0.207 OA
ATOM     15  O   UNL     1      -2.615   2.281  -0.900  1.00  0.00    -0.207 OA
BRANCH  13  16
ATOM     16  C   UNL     1      -1.125   0.596   0.195  1.00  0.00     0.101 A 
ATOM     17  C   UNL     1       2.407   0.474  -0.519  1.00  0.00     0.150 C 
ATOM     18  N   UNL     1       1.042   0.186  -0.135  1.00  0.00    -0.345 N 
ATOM     19  C   UNL     1       0.119   1.181   0.087  1.00  0.00     0.107 A 
ATOM     20  C   UNL     1       0.423  -1.050  -0.103  1.00  0.00     0.108 A 
ATOM     21  C   UNL     1      -0.923  -0.799   0.135  1.00  0.00     0.055 A 
BRANCH  20  22
ATOM     22  C   UNL     1       0.956  -2.354  -0.468  1.00  0.00     0.270 C 
ATOM     23  O   UNL     1       0.275  -3.137  -1.130  1.00  0.00    -0.267 OA
ATOM     24  N   UNL     1       2.252  -2.688  -0.099  1.00  0.00    -0.337 N 
ATOM     25  C   UNL     1       2.979  -3.644  -0.926  1.00  0.00     0.120 C 
ATOM     26  C   UNL     1       2.900  -2.268   1.141  1.00  0.00     0.120 C 
ATOM     27  C   UNL     1       3.411  -4.867  -0.130  1.00  0.00     0.022 C 
ATOM     28  C   UNL     1       3.357  -3.479   1.960  1.00  0.00     0.022 C 
ATOM     29  C   UNL     1       4.187  -4.446   1.115  1.00  0.00     0.004 C 
ENDBRANCH  20  22
ENDBRANCH  13  16
ENDBRANCH   8  13
ENDBRANCH   4   7
ENDBRANCH   2   3
ENDBRANCH   1   2
BRANCH   1  30
ATOM     30  C   UNL     1     -10.470  -0.240  -1.613  1.00  0.00     0.118 C 
BRANCH  30  31
ATOM     31  N   UNL     1     -11.440   0.180  -0.610  1.00  0.00    -0.352 N 
ATOM     32  C   UNL     1     -12.499   1.048  -0.718  1.00  0.00     0.251 C 
ATOM     33  H   UNL     1     -11.318  -0.220   0.281  1.00  0.00     0.163 HD
ATOM     34  O   UNL     1     -13.076   1.432   0.296  1.00  0.00    -0.269 OA
BRANCH  32  35
ATOM     35  C   UNL     1     -12.930   1.532  -2.046  1.00  0.00     0.039 A 
ATOM     36  C   UNL     1     -13.222   2.888  -2.214  1.00  0.00     0.014 A 
ATOM     37  C   UNL     1     -13.050   0.649  -3.122  1.00  0.00     0.014 A 
ATOM     38  C   UNL     1     -13.553   3.372  -3.482  1.00  0.00     0.010 A 
ATOM     39  C   UNL     1     -13.304   1.144  -4.396  1.00  0.00     0.010 A 
ATOM     40  C   UNL     1     -13.555   2.510  -4.590  1.00  0.00    -0.014 A 
BRANCH  40  41
ATOM     41  C   UNL     1     -13.806   3.005  -5.967  1.00  0.00     0.031 A 
ATOM     42  C   UNL     1     -15.000   2.510  -6.734  1.00  0.00     0.074 A 
ATOM     43  C   UNL     1     -12.907   3.816  -6.559  1.00  0.00     0.049 A 
ATOM     44  N   UNL     1     -15.307   2.693  -7.992  1.00  0.00    -0.248 NA
ATOM     45  C   UNL     1     -15.960   1.673  -5.996  1.00  0.00     0.031 C 
ATOM     46  C   UNL     1     -11.686   4.329  -5.934  1.00  0.00     0.029 A 
ATOM     47  N   UNL     1     -12.869   4.332  -7.830  1.00  0.00    -0.354 N 
ATOM     48  C   UNL     1     -16.474   1.970  -8.205  1.00  0.00     0.074 A 
ATOM     49  C   UNL     1     -16.803   1.319  -6.955  1.00  0.00     0.031 C 
ATOM     50  C   UNL     1     -11.026   5.095  -6.818  1.00  0.00     0.029 A 
ATOM     51  C   UNL     1     -11.753   5.094  -8.083  1.00  0.00     0.049 A 
ATOM     52  H   UNL     1     -13.575   4.172  -8.497  1.00  0.00     0.167 HD
ATOM     53  C   UNL     1     -17.213   1.871  -9.336  1.00  0.00     0.037 A 
ATOM     54  C   UNL     1     -11.352   5.707  -9.213  1.00  0.00     0.037 A 
ATOM     55  C   UNL     1     -16.907   2.556 -10.563  1.00  0.00     0.049 A 
ATOM     56  C   UNL     1     -12.197   5.597 -10.450  1.00  0.00     0.074 A 
ATOM     57  C   UNL     1     -17.632   2.578 -11.741  1.00  0.00     0.029 A 
ATOM     58  N   UNL     1     -15.785   3.346 -10.768  1.00  0.00    -0.354 N 
ATOM     59  N   UNL     1     -13.321   4.943 -10.623  1.00  0.00    -0.248 NA
ATOM     60  C   UNL     1     -11.719   6.301 -11.648  1.00  0.00     0.031 C 
ATOM     61  C   UNL     1     -16.936   3.362 -12.668  1.00  0.00     0.029 A 
ATOM     62  C   UNL     1     -15.791   3.850 -12.057  1.00  0.00     0.049 A 
ATOM     63  H   UNL     1     -15.088   3.522 -10.096  1.00  0.00     0.167 HD
ATOM     64  C   UNL     1     -13.693   5.170 -11.942  1.00  0.00     0.074 A 
ATOM     65  C   UNL     1     -12.680   6.028 -12.522  1.00  0.00     0.031 C 
ATOM     66  C   UNL     1     -14.775   4.707 -12.613  1.00  0.00     0.037 A 
BRANCH  53  67
ATOM     67  C   UNL     1     -18.430   0.992  -9.291  1.00  0.00     0.058 A 
ATOM     68  C   UNL     1     -19.591   1.382  -8.606  1.00  0.00     0.135 A 
ATOM     69  C   UNL     1     -18.443  -0.244  -9.955  1.00  0.00     0.135 A 
ATOM     70  F   UNL     1     -19.624   2.548  -7.941  1.00  0.00    -0.206 F 
ATOM     71  C   UNL     1     -20.714   0.564  -8.556  1.00  0.00     0.059 A 
ATOM     72  C   UNL     1     -19.563  -1.070  -9.937  1.00  0.00     0.059 A 
ATOM     73  F   UNL     1     -17.357  -0.665 -10.623  1.00  0.00    -0.206 F 
ATOM     74  C   UNL     1     -20.689  -0.664  -9.220  1.00  0.00     0.060 A 
BRANCH  74  75
ATOM     75  S   UNL     1     -22.150  -1.722  -9.142  1.00  0.00     0.124 S 
ATOM     76  O   UNL     1     -22.020  -2.297  -7.807  1.00  0.00    -0.237 OA
ATOM     77  O   UNL     1     -23.241  -0.768  -9.317  1.00  0.00    -0.237 OA
ATOM     78  O   UNL     1     -21.953  -2.652 -10.250  1.00  0.00    -0.744 OA
ENDBRANCH  74  75
ENDBRANCH  53  67
BRANCH  54  79
ATOM     79  C   UNL     1     -10.090   6.491  -9.219  1.00  0.00     0.058 A 
ATOM     80  C   UNL     1     -10.119   7.893  -9.225  1.00  0.00     0.135 A 
ATOM     81  C   UNL     1      -8.838   5.860  -9.195  1.00  0.00     0.135 A 
ATOM     82  F   UNL     1     -11.295   8.539  -9.254  1.00  0.00    -0.206 F 
ATOM     83  C   UNL     1      -8.950   8.645  -9.217  1.00  0.00     0.059 A 
ATOM     84  C   UNL     1      -7.654   6.590  -9.167  1.00  0.00     0.059 A 
ATOM     85  F   UNL     1      -8.760   4.520  -9.172  1.00  0.00    -0.206 F 
ATOM     86  C   UNL     1      -7.720   7.984  -9.187  1.00  0.00     0.060 A 
BRANCH  86  87
ATOM     87  S   UNL     1      -6.207   8.967  -9.121  1.00  0.00     0.124 S 
ATOM     88  O   UNL     1      -6.079   9.400 -10.508  1.00  0.00    -0.237 OA
ATOM     89  O   UNL     1      -6.554  10.007  -8.157  1.00  0.00    -0.237 OA
ATOM     90  O   UNL     1      -5.206   8.008  -8.662  1.00  0.00    -0.744 OA
ENDBRANCH  86  87
ENDBRANCH  54  79
BRANCH  66  91
ATOM     91  C   UNL     1     -14.933   5.132 -14.044  1.00  0.00     0.058 A 
ATOM     92  C   UNL     1     -14.185   4.535 -15.069  1.00  0.00     0.135 A 
ATOM     93  C   UNL     1     -15.887   6.099 -14.398  1.00  0.00     0.135 A 
ATOM     94  F   UNL     1     -13.255   3.612 -14.777  1.00  0.00    -0.206 F 
ATOM     95  C   UNL     1     -14.374   4.887 -16.401  1.00  0.00     0.059 A 
ATOM     96  C   UNL     1     -16.105   6.453 -15.725  1.00  0.00     0.059 A 
ATOM     97  F   UNL     1     -16.631   6.693 -13.452  1.00  0.00    -0.206 F 
ATOM     98  C   UNL     1     -15.338   5.846 -16.720  1.00  0.00     0.060 A 
BRANCH  98  99
ATOM     99  S   UNL     1     -15.614   6.257 -18.456  1.00  0.00     0.124 S 
ATOM    100  O   UNL     1     -14.483   7.138 -18.732  1.00  0.00    -0.237 OA
ATOM    101  O   UNL     1     -15.570   4.949 -19.102  1.00  0.00    -0.237 OA
ATOM    102  O   UNL     1     -16.924   6.900 -18.447  1.00  0.00    -0.744 OA
ENDBRANCH  98  99
ENDBRANCH  66  91
ENDBRANCH  40  41
ENDBRANCH  32  35
ENDBRANCH  30  31
ENDBRANCH   1  30
TORSDOF 16
