REMARK SMILES CCCCOC(=O)[C@@H]1[C@H]2c3ccccc3[C@H](c3ccccc32)[C@@H]1C(=O)NCCCNC(=O)c1ccc(-c2c3nc(c(-c4c(F)cc(S(=O)(=O)[O-])cc4F)c4ccc([nH]4)c(-c4c(F)cc(S(=O)(=O)[O-])cc4F)c4nc(c(-c5c(F)cc(S(=O)(=O)[O-])cc5F)c5ccc2[nH]5)C=C4)C=C3)cc1
REMARK SMILES IDX 27 1 26 2 24 3 25 4 23 6 8 7 9 8 22 9 10 10 16 11 21 12
REMARK SMILES IDX 17 13 15 14 11 15 20 16 18 17 14 18 12 19 19 20 13 21 6 22
REMARK SMILES IDX 7 23 5 24 4 25 3 26 2 27 1 28 28 29 29 30 30 31 31 32 32 34
REMARK SMILES IDX 33 35 34 36 98 37 35 38 97 39 36 40 37 41 38 42 91 43 39 44
REMARK SMILES IDX 96 45 90 46 92 47 40 48 95 49 89 50 88 51 41 53 75 54 54 55
REMARK SMILES IDX 74 56 55 57 58 58 73 59 93 60 56 61 57 62 72 64 94 65 59 66
REMARK SMILES IDX 42 67 43 68 52 69 44 70 45 71 51 72 53 73 46 74 47 75 48 76
REMARK SMILES IDX 49 77 50 78 76 79 77 80 86 81 78 82 79 83 85 84 87 85 80 86
REMARK SMILES IDX 81 87 82 88 83 89 84 90 60 91 61 92 70 93 62 94 63 95 69 96
REMARK SMILES IDX 71 97 64 98 65 99 66 100 67 101 68 102
REMARK H PARENT 26 5 30 33 92 52 58 63
REMARK Flexibility Score: inf
ROOT
ATOM      1  C   UNL     1      -6.377   0.277  -0.808  1.00  0.00     0.117 C 
ENDROOT
BRANCH   1   2
ATOM      2  N   UNL     1      -5.731   0.415   0.486  1.00  0.00    -0.356 N 
ATOM      3  C   UNL     1      -4.527  -0.016   0.937  1.00  0.00     0.224 C 
ATOM      4  O   UNL     1      -4.107   0.528   1.967  1.00  0.00    -0.275 OA
ATOM      5  H   UNL     1      -6.261   0.909   1.153  1.00  0.00     0.163 HD
BRANCH   3   6
ATOM      6  C   UNL     1      -3.698  -1.144   0.317  1.00  0.00     0.105 C 
ATOM      7  C   UNL     1      -3.048  -1.010  -1.106  1.00  0.00     0.124 C 
ATOM      8  C   UNL     1      -3.366  -2.293  -1.943  1.00  0.00     0.065 C 
ATOM      9  C   UNL     1      -4.869  -2.591  -1.918  1.00  0.00    -0.036 A 
ATOM     10  C   UNL     1      -2.748  -3.462  -1.132  1.00  0.00    -0.036 A 
ATOM     11  C   UNL     1      -4.361  -2.540   0.498  1.00  0.00     0.063 C 
ATOM     12  C   UNL     1      -5.670  -2.847  -3.024  1.00  0.00     0.004 A 
ATOM     13  C   UNL     1      -5.387  -2.772  -0.604  1.00  0.00    -0.036 A 
ATOM     14  C   UNL     1      -3.264  -3.565   0.195  1.00  0.00    -0.036 A 
ATOM     15  C   UNL     1      -1.919  -4.458  -1.628  1.00  0.00     0.004 A 
ATOM     16  C   UNL     1      -6.973  -3.311  -2.816  1.00  0.00     0.000 A 
ATOM     17  C   UNL     1      -6.665  -3.279  -0.404  1.00  0.00     0.004 A 
ATOM     18  C   UNL     1      -2.919  -4.620   1.027  1.00  0.00     0.004 A 
ATOM     19  C   UNL     1      -1.589  -5.532  -0.792  1.00  0.00     0.000 A 
ATOM     20  C   UNL     1      -7.459  -3.545  -1.520  1.00  0.00     0.000 A 
ATOM     21  C   UNL     1      -2.074  -5.606   0.524  1.00  0.00     0.000 A 
BRANCH   7  22
ATOM     22  C   UNL     1      -3.219   0.339  -1.779  1.00  0.00     0.310 C 
ATOM     23  O   UNL     1      -3.817   1.291  -1.292  1.00  0.00    -0.252 OA
BRANCH  22  24
ATOM     24  O   UNL     1      -2.487   0.461  -2.922  1.00  0.00    -0.465 OA
BRANCH  24  25
ATOM     25  C   UNL     1      -2.429   1.809  -3.443  1.00  0.00     0.233 C 
BRANCH  25  26
ATOM     26  C   UNL     1      -3.274   1.954  -4.706  1.00  0.00     0.041 C 
BRANCH  26  27
ATOM     27  C   UNL     1      -4.750   1.578  -4.553  1.00  0.00     0.000 C 
ATOM     28  C   UNL     1      -5.580   2.633  -3.839  1.00  0.00     0.004 C 
ENDBRANCH  26  27
ENDBRANCH  25  26
ENDBRANCH  24  25
ENDBRANCH  22  24
ENDBRANCH   7  22
ENDBRANCH   3   6
ENDBRANCH   1   2
BRANCH   1  29
ATOM     29  C   UNL     1      -7.806  -0.209  -0.683  1.00  0.00     0.042 C 
BRANCH  29  30
ATOM     30  C   UNL     1      -8.783   0.948  -0.715  1.00  0.00     0.118 C 
BRANCH  30  31
ATOM     31  N   UNL     1      -9.060   1.391  -2.085  1.00  0.00    -0.352 N 
ATOM     32  C   UNL     1     -10.095   1.107  -2.950  1.00  0.00     0.251 C 
ATOM     33  H   UNL     1      -8.383   2.003  -2.455  1.00  0.00     0.163 HD
ATOM     34  O   UNL     1      -9.990   1.404  -4.137  1.00  0.00    -0.269 OA
BRANCH  32  35
ATOM     35  C   UNL     1     -11.310   0.415  -2.464  1.00  0.00     0.039 A 
ATOM     36  C   UNL     1     -11.759   0.632  -1.170  1.00  0.00     0.014 A 
ATOM     37  C   UNL     1     -11.998  -0.482  -3.286  1.00  0.00     0.014 A 
ATOM     38  C   UNL     1     -12.644  -0.260  -0.596  1.00  0.00     0.010 A 
ATOM     39  C   UNL     1     -13.048  -1.244  -2.756  1.00  0.00     0.010 A 
ATOM     40  C   UNL     1     -13.327  -1.198  -1.382  1.00  0.00    -0.014 A 
BRANCH  40  41
ATOM     41  C   UNL     1     -14.316  -2.093  -0.720  1.00  0.00     0.031 A 
ATOM     42  C   UNL     1     -14.193  -3.592  -0.817  1.00  0.00     0.074 A 
ATOM     43  C   UNL     1     -15.282  -1.541   0.045  1.00  0.00     0.049 A 
ATOM     44  N   UNL     1     -14.959  -4.513  -0.289  1.00  0.00    -0.248 NA
ATOM     45  C   UNL     1     -13.082  -4.132  -1.617  1.00  0.00     0.031 C 
ATOM     46  C   UNL     1     -15.496  -0.100   0.221  1.00  0.00     0.029 A 
ATOM     47  N   UNL     1     -16.234  -2.110   0.851  1.00  0.00    -0.354 N 
ATOM     48  C   UNL     1     -14.451  -5.731  -0.728  1.00  0.00     0.074 A 
ATOM     49  C   UNL     1     -13.326  -5.434  -1.585  1.00  0.00     0.031 C 
ATOM     50  C   UNL     1     -16.446   0.100   1.142  1.00  0.00     0.029 A 
ATOM     51  C   UNL     1     -16.994  -1.190   1.537  1.00  0.00     0.049 A 
ATOM     52  H   UNL     1     -16.363  -3.083   0.930  1.00  0.00     0.167 HD
ATOM     53  C   UNL     1     -14.881  -6.982  -0.432  1.00  0.00     0.037 A 
ATOM     54  C   UNL     1     -18.041  -1.354   2.366  1.00  0.00     0.037 A 
ATOM     55  C   UNL     1     -15.977  -7.260   0.461  1.00  0.00     0.049 A 
ATOM     56  C   UNL     1     -18.517  -2.745   2.654  1.00  0.00     0.074 A 
ATOM     57  C   UNL     1     -16.461  -8.491   0.866  1.00  0.00     0.029 A 
ATOM     58  N   UNL     1     -16.760  -6.298   1.084  1.00  0.00    -0.354 N 
ATOM     59  N   UNL     1     -18.013  -3.884   2.243  1.00  0.00    -0.248 NA
ATOM     60  C   UNL     1     -19.709  -2.879   3.498  1.00  0.00     0.031 C 
ATOM     61  C   UNL     1     -17.575  -8.274   1.682  1.00  0.00     0.029 A 
ATOM     62  C   UNL     1     -17.750  -6.907   1.836  1.00  0.00     0.049 A 
ATOM     63  H   UNL     1     -16.630  -5.325   1.003  1.00  0.00     0.167 HD
ATOM     64  C   UNL     1     -18.832  -4.873   2.770  1.00  0.00     0.074 A 
ATOM     65  C   UNL     1     -19.843  -4.198   3.559  1.00  0.00     0.031 C 
ATOM     66  C   UNL     1     -18.758  -6.217   2.604  1.00  0.00     0.037 A 
BRANCH  53  67
ATOM     67  C   UNL     1     -14.191  -8.143  -1.098  1.00  0.00     0.058 A 
ATOM     68  C   UNL     1     -12.876  -8.518  -0.777  1.00  0.00     0.135 A 
ATOM     69  C   UNL     1     -14.875  -8.920  -2.049  1.00  0.00     0.135 A 
ATOM     70  F   UNL     1     -12.167  -7.805   0.113  1.00  0.00    -0.206 F 
ATOM     71  C   UNL     1     -12.256  -9.601  -1.395  1.00  0.00     0.059 A 
ATOM     72  C   UNL     1     -14.285 -10.025  -2.657  1.00  0.00     0.059 A 
ATOM     73  F   UNL     1     -16.134  -8.609  -2.396  1.00  0.00    -0.206 F 
ATOM     74  C   UNL     1     -12.969 -10.349  -2.333  1.00  0.00     0.060 A 
BRANCH  74  75
ATOM     75  S   UNL     1     -12.146 -11.747  -3.126  1.00  0.00     0.124 S 
ATOM     76  O   UNL     1     -11.147 -11.069  -3.947  1.00  0.00    -0.237 OA
ATOM     77  O   UNL     1     -11.627 -12.489  -1.981  1.00  0.00    -0.237 OA
ATOM     78  O   UNL     1     -13.220 -12.405  -3.863  1.00  0.00    -0.744 OA
ENDBRANCH  74  75
ENDBRANCH  53  67
BRANCH  54  79
ATOM     79  C   UNL     1     -18.710  -0.154   2.936  1.00  0.00     0.058 A 
ATOM     80  C   UNL     1     -18.607   0.157   4.298  1.00  0.00     0.135 A 
ATOM     81  C   UNL     1     -19.392   0.755   2.108  1.00  0.00     0.135 A 
ATOM     82  F   UNL     1     -17.974  -0.682   5.132  1.00  0.00    -0.206 F 
ATOM     83  C   UNL     1     -19.140   1.333   4.818  1.00  0.00     0.059 A 
ATOM     84  C   UNL     1     -19.905   1.951   2.598  1.00  0.00     0.059 A 
ATOM     85  F   UNL     1     -19.505   0.512   0.793  1.00  0.00    -0.206 F 
ATOM     86  C   UNL     1     -19.773   2.231   3.956  1.00  0.00     0.060 A 
BRANCH  86  87
ATOM     87  S   UNL     1     -20.371   3.798   4.626  1.00  0.00     0.124 S 
ATOM     88  O   UNL     1     -21.476   3.355   5.469  1.00  0.00    -0.237 OA
ATOM     89  O   UNL     1     -19.192   4.297   5.326  1.00  0.00    -0.237 OA
ATOM     90  O   UNL     1     -20.750   4.552   3.434  1.00  0.00    -0.744 OA
ENDBRANCH  86  87
ENDBRANCH  54  79
BRANCH  66  91
ATOM     91  C   UNL     1     -19.810  -7.053   3.276  1.00  0.00     0.058 A 
ATOM     92  C   UNL     1     -21.127  -7.091   2.794  1.00  0.00     0.135 A 
ATOM     93  C   UNL     1     -19.479  -7.889   4.354  1.00  0.00     0.135 A 
ATOM     94  F   UNL     1     -21.497  -6.301   1.772  1.00  0.00    -0.206 F 
ATOM     95  C   UNL     1     -22.083  -7.925   3.362  1.00  0.00     0.059 A 
ATOM     96  C   UNL     1     -20.412  -8.754   4.918  1.00  0.00     0.059 A 
ATOM     97  F   UNL     1     -18.230  -7.896   4.848  1.00  0.00    -0.206 F 
ATOM     98  C   UNL     1     -21.712  -8.761   4.417  1.00  0.00     0.060 A 
BRANCH  98  99
ATOM     99  S   UNL     1     -22.952  -9.880   5.100  1.00  0.00     0.124 S 
ATOM    100  O   UNL     1     -23.866  -8.947   5.749  1.00  0.00    -0.237 OA
ATOM    101  O   UNL     1     -23.463 -10.542   3.904  1.00  0.00    -0.237 OA
ATOM    102  O   UNL     1     -22.182 -10.732   6.002  1.00  0.00    -0.744 OA
ENDBRANCH  98  99
ENDBRANCH  66  91
ENDBRANCH  40  41
ENDBRANCH  32  35
ENDBRANCH  30  31
ENDBRANCH  29  30
ENDBRANCH   1  29
TORSDOF 18
