REMARK SMILES Cc1c(CCC(=O)N[C@@H](C)C(=O)NCCCNC(=O)c2ccc(-c3c4nc(c(-c5c(F)cc(S(=O)(=O)[O-])cc5F)c5ccc([nH]5)c(-c5c(F)cc(S(=O)(=O)[O-])cc5F)c5nc(c(-c6c(F)cc(S(=O)(=O)[O-])cc6F)c6ccc3[nH]6)C=C5)C=C4)cc2)c(=O)oc2cc3oc4c(c3cc12)CCCC4
REMARK SMILES IDX 14 1 13 2 11 3 12 4 9 6 10 7 8 8 6 9 7 10 5 12 4 13 3 14
REMARK SMILES IDX 1 15 2 16 97 17 86 18 89 19 96 20 87 21 88 22 90 23 95 24
REMARK SMILES IDX 91 25 94 26 92 27 93 28 98 29 101 30 99 31 100 32 15 33
REMARK SMILES IDX 16 34 17 35 18 36 19 38 20 39 21 40 85 41 22 42 84 43 23 44
REMARK SMILES IDX 24 45 25 46 78 47 26 48 83 49 77 50 79 51 27 52 82 53 76 54
REMARK SMILES IDX 75 55 28 57 62 58 41 59 61 60 42 61 45 62 60 63 80 64 43 65
REMARK SMILES IDX 44 66 59 68 81 69 46 70 29 71 30 72 39 73 31 74 32 75 38 76
REMARK SMILES IDX 40 77 33 78 34 79 35 80 36 81 37 82 63 83 64 84 73 85 65 86
REMARK SMILES IDX 66 87 72 88 74 89 67 90 68 91 69 92 70 93 71 94 47 95 48 96
REMARK SMILES IDX 57 97 49 98 50 99 56 100 58 101 51 102 52 103 53 104 54 105
REMARK SMILES IDX 55 106
REMARK H PARENT 13 5 8 11 17 37 79 56 45 67
REMARK Flexibility Score: inf
ROOT
ATOM      1  C   UNL     1       4.816  -2.021   0.659  1.00  0.00     0.117 C 
ENDROOT
BRANCH   1   2
ATOM      2  N   UNL     1       4.361  -2.115   2.046  1.00  0.00    -0.354 N 
ATOM      3  C   UNL     1       3.404  -1.464   2.774  1.00  0.00     0.242 C 
ATOM      4  O   UNL     1       3.532  -1.549   4.002  1.00  0.00    -0.273 OA
ATOM      5  H   UNL     1       4.848  -2.792   2.568  1.00  0.00     0.163 HD
BRANCH   3   6
ATOM      6  C   UNL     1       2.128  -0.825   2.162  1.00  0.00     0.168 C 
ATOM      7  C   UNL     1       2.262  -0.320   0.745  1.00  0.00     0.041 C 
BRANCH   6   8
ATOM      8  N   UNL     1       1.595   0.307   2.927  1.00  0.00    -0.345 N 
ATOM      9  C   UNL     1       0.280   0.699   2.876  1.00  0.00     0.220 C 
ATOM     10  O   UNL     1       0.004   1.883   2.701  1.00  0.00    -0.275 OA
ATOM     11  H   UNL     1       2.211   0.811   3.506  1.00  0.00     0.164 HD
BRANCH   9  12
ATOM     12  C   UNL     1      -0.801  -0.340   3.123  1.00  0.00     0.105 C 
BRANCH  12  13
ATOM     13  C   UNL     1      -1.715  -0.657   1.928  1.00  0.00     0.053 C 
BRANCH  13  14
ATOM     14  C   UNL     1      -1.174  -1.739   1.017  1.00  0.00     0.042 A 
ATOM     15  C   UNL     1      -1.022  -0.295  -1.077  1.00  0.00     0.046 C 
ATOM     16  C   UNL     1      -0.766  -1.530  -0.248  1.00  0.00    -0.030 A 
ATOM     17  C   UNL     1       0.108  -2.555  -0.824  1.00  0.00     0.022 A 
ATOM     18  C   UNL     1      -1.146  -3.126   1.589  1.00  0.00     0.339 A 
ATOM     19  C   UNL     1       0.060  -3.868  -0.363  1.00  0.00     0.142 A 
ATOM     20  C   UNL     1       1.119  -2.192  -1.711  1.00  0.00     0.024 A 
ATOM     21  O   UNL     1      -1.547  -3.357   2.726  1.00  0.00    -0.246 OA
ATOM     22  O   UNL     1      -0.739  -4.165   0.753  1.00  0.00    -0.422 OA
ATOM     23  C   UNL     1       0.823  -4.909  -0.922  1.00  0.00     0.095 A 
ATOM     24  C   UNL     1       2.041  -3.157  -2.108  1.00  0.00     0.025 A 
ATOM     25  C   UNL     1       1.770  -4.496  -1.854  1.00  0.00     0.138 A 
ATOM     26  C   UNL     1       3.230  -3.121  -2.852  1.00  0.00     0.001 A 
ATOM     27  O   UNL     1       2.501  -5.261  -2.735  1.00  0.00    -0.461 OA
ATOM     28  C   UNL     1       3.238  -4.360  -3.446  1.00  0.00     0.108 A 
ATOM     29  C   UNL     1       3.948  -1.984  -3.466  1.00  0.00     0.040 C 
ATOM     30  C   UNL     1       3.468  -4.487  -4.913  1.00  0.00     0.076 C 
ATOM     31  C   UNL     1       3.478  -1.843  -4.918  1.00  0.00     0.005 C 
ATOM     32  C   UNL     1       2.920  -3.161  -5.543  1.00  0.00     0.008 C 
ENDBRANCH  13  14
ENDBRANCH  12  13
ENDBRANCH   9  12
ENDBRANCH   6   8
ENDBRANCH   3   6
ENDBRANCH   1   2
BRANCH   1  33
ATOM     33  C   UNL     1       5.792  -0.860   0.491  1.00  0.00     0.042 C 
BRANCH  33  34
ATOM     34  C   UNL     1       7.176  -1.251   1.006  1.00  0.00     0.118 C 
BRANCH  34  35
ATOM     35  N   UNL     1       8.008  -1.872  -0.019  1.00  0.00    -0.352 N 
ATOM     36  C   UNL     1       8.687  -1.297  -1.078  1.00  0.00     0.251 C 
ATOM     37  H   UNL     1       8.100  -2.849   0.054  1.00  0.00     0.163 HD
ATOM     38  O   UNL     1       9.229  -1.992  -1.915  1.00  0.00    -0.269 OA
BRANCH  36  39
ATOM     39  C   UNL     1       8.676   0.176  -1.210  1.00  0.00     0.039 A 
ATOM     40  C   UNL     1       8.981   0.977  -0.111  1.00  0.00     0.014 A 
ATOM     41  C   UNL     1       8.266   0.746  -2.419  1.00  0.00     0.014 A 
ATOM     42  C   UNL     1       8.648   2.319  -0.140  1.00  0.00     0.010 A 
ATOM     43  C   UNL     1       8.013   2.115  -2.475  1.00  0.00     0.010 A 
ATOM     44  C   UNL     1       8.124   2.879  -1.309  1.00  0.00    -0.014 A 
BRANCH  44  45
ATOM     45  C   UNL     1       7.736   4.286  -1.202  1.00  0.00     0.031 A 
ATOM     46  C   UNL     1       8.717   5.228  -1.811  1.00  0.00     0.074 A 
ATOM     47  C   UNL     1       6.436   4.641  -1.172  1.00  0.00     0.049 A 
ATOM     48  N   UNL     1       8.773   5.478  -3.084  1.00  0.00    -0.248 NA
ATOM     49  C   UNL     1       9.860   5.734  -1.051  1.00  0.00     0.031 C 
ATOM     50  C   UNL     1       5.383   4.084  -2.027  1.00  0.00     0.029 A 
ATOM     51  N   UNL     1       5.845   5.715  -0.553  1.00  0.00    -0.354 N 
ATOM     52  C   UNL     1       9.958   6.155  -3.310  1.00  0.00     0.074 A 
ATOM     53  C   UNL     1      10.608   6.276  -2.024  1.00  0.00     0.031 C 
ATOM     54  C   UNL     1       4.330   4.924  -2.016  1.00  0.00     0.029 A 
ATOM     55  C   UNL     1       4.583   6.001  -1.066  1.00  0.00     0.049 A 
ATOM     56  H   UNL     1       6.268   6.227   0.173  1.00  0.00     0.167 HD
ATOM     57  C   UNL     1      10.337   6.598  -4.535  1.00  0.00     0.037 A 
ATOM     58  C   UNL     1       4.064   7.259  -1.124  1.00  0.00     0.037 A 
ATOM     59  C   UNL     1       9.377   6.405  -5.579  1.00  0.00     0.049 A 
ATOM     60  C   UNL     1       4.790   7.778  -2.346  1.00  0.00     0.074 A 
ATOM     61  C   UNL     1       9.111   5.467  -6.550  1.00  0.00     0.029 A 
ATOM     62  N   UNL     1       8.347   7.314  -5.667  1.00  0.00    -0.354 N 
ATOM     63  N   UNL     1       4.488   7.501  -3.591  1.00  0.00    -0.248 NA
ATOM     64  C   UNL     1       6.146   8.308  -2.163  1.00  0.00     0.031 C 
ATOM     65  C   UNL     1       7.723   5.622  -6.857  1.00  0.00     0.029 A 
ATOM     66  C   UNL     1       7.221   6.613  -6.013  1.00  0.00     0.049 A 
ATOM     67  H   UNL     1       8.408   8.284  -5.511  1.00  0.00     0.167 HD
ATOM     68  C   UNL     1       5.702   7.536  -4.286  1.00  0.00     0.074 A 
ATOM     69  C   UNL     1       6.670   8.088  -3.362  1.00  0.00     0.031 C 
ATOM     70  C   UNL     1       5.907   6.927  -5.490  1.00  0.00     0.037 A 
BRANCH  57  71
ATOM     71  C   UNL     1      11.535   7.420  -4.787  1.00  0.00     0.058 A 
ATOM     72  C   UNL     1      11.374   8.806  -4.917  1.00  0.00     0.135 A 
ATOM     73  C   UNL     1      12.777   6.860  -5.104  1.00  0.00     0.135 A 
ATOM     74  F   UNL     1      10.194   9.375  -4.615  1.00  0.00    -0.206 F 
ATOM     75  C   UNL     1      12.389   9.610  -5.410  1.00  0.00     0.059 A 
ATOM     76  C   UNL     1      13.816   7.649  -5.596  1.00  0.00     0.059 A 
ATOM     77  F   UNL     1      12.975   5.537  -4.989  1.00  0.00    -0.206 F 
ATOM     78  C   UNL     1      13.598   9.017  -5.775  1.00  0.00     0.060 A 
BRANCH  78  79
ATOM     79  S   UNL     1      14.851  10.066  -6.541  1.00  0.00     0.124 S 
ATOM     80  O   UNL     1      14.194  10.455  -7.784  1.00  0.00    -0.237 OA
ATOM     81  O   UNL     1      15.010  11.123  -5.547  1.00  0.00    -0.237 OA
ATOM     82  O   UNL     1      15.996   9.172  -6.690  1.00  0.00    -0.744 OA
ENDBRANCH  78  79
ENDBRANCH  57  71
BRANCH  58  83
ATOM     83  C   UNL     1       4.015   7.924   0.220  1.00  0.00     0.058 A 
ATOM     84  C   UNL     1       3.377   7.219   1.269  1.00  0.00     0.135 A 
ATOM     85  C   UNL     1       4.623   9.134   0.576  1.00  0.00     0.135 A 
ATOM     86  F   UNL     1       2.655   6.118   1.000  1.00  0.00    -0.206 F 
ATOM     87  C   UNL     1       3.513   7.580   2.604  1.00  0.00     0.059 A 
ATOM     88  C   UNL     1       4.792   9.508   1.911  1.00  0.00     0.059 A 
ATOM     89  F   UNL     1       5.110   9.964  -0.355  1.00  0.00    -0.206 F 
ATOM     90  C   UNL     1       4.279   8.695   2.919  1.00  0.00     0.060 A 
BRANCH  90  91
ATOM     91  S   UNL     1       4.667   9.005   4.653  1.00  0.00     0.124 S 
ATOM     92  O   UNL     1       3.341   9.166   5.240  1.00  0.00    -0.237 OA
ATOM     93  O   UNL     1       5.382   7.784   5.015  1.00  0.00    -0.237 OA
ATOM     94  O   UNL     1       5.486  10.212   4.606  1.00  0.00    -0.744 OA
ENDBRANCH  90  91
ENDBRANCH  58  83
BRANCH  70  95
ATOM     95  C   UNL     1       4.702   6.353  -6.155  1.00  0.00     0.058 A 
ATOM     96  C   UNL     1       3.763   7.194  -6.763  1.00  0.00     0.135 A 
ATOM     97  C   UNL     1       4.519   4.965  -6.274  1.00  0.00     0.135 A 
ATOM     98  F   UNL     1       3.896   8.528  -6.685  1.00  0.00    -0.206 F 
ATOM     99  C   UNL     1       2.703   6.679  -7.503  1.00  0.00     0.059 A 
ATOM    100  C   UNL     1       3.482   4.429  -7.031  1.00  0.00     0.059 A 
ATOM    101  F   UNL     1       5.372   4.106  -5.691  1.00  0.00    -0.206 F 
ATOM    102  C   UNL     1       2.583   5.296  -7.649  1.00  0.00     0.060 A 
BRANCH 102 103
ATOM    103  S   UNL     1       1.288   4.647  -8.724  1.00  0.00     0.124 S 
ATOM    104  O   UNL     1       0.085   4.902  -7.938  1.00  0.00    -0.237 OA
ATOM    105  O   UNL     1       1.444   5.460  -9.927  1.00  0.00    -0.237 OA
ATOM    106  O   UNL     1       1.646   3.240  -8.880  1.00  0.00    -0.744 OA
ENDBRANCH 102 103
ENDBRANCH  70  95
ENDBRANCH  44  45
ENDBRANCH  36  39
ENDBRANCH  34  35
ENDBRANCH  33  34
ENDBRANCH   1  33
TORSDOF 17
