REMARK SMILES Cc1ccc(-c2csc(NC(=O)[C@H]3[C@@H](C(=O)NCCCNC(=O)c4ccc(-c5c6nc(c(-c7c(F)cc(S(=O)(=O)[O-])cc7F)c7ccc([nH]7)c(-c7c(F)cc(S(=O)(=O)[O-])cc7F)c7nc(c(-c8c(F)cc(S(=O)(=O)[O-])cc8F)c8ccc5[nH]8)C=C7)C=C6)cc4)[C@H]4C=C[C@@H]3C4)c2C(=O)NC2CC2)cc1
REMARK SMILES IDX 18 1 17 2 15 3 16 4 14 6 13 7 93 8 90 9 92 10 94 11 91 12
REMARK SMILES IDX 11 13 10 14 12 16 9 17 6 18 7 19 95 20 8 21 5 22 1 23 2 24
REMARK SMILES IDX 3 25 103 26 4 27 102 28 96 29 97 30 98 31 99 33 100 34
REMARK SMILES IDX 101 35 19 36 20 37 21 38 22 39 23 41 24 42 25 43 89 44 26 45
REMARK SMILES IDX 88 46 27 47 28 48 29 49 82 50 30 51 87 52 81 53 83 54 31 55
REMARK SMILES IDX 86 56 80 57 79 58 32 60 66 61 45 62 65 63 46 64 49 65 64 66
REMARK SMILES IDX 84 67 47 68 48 69 63 71 85 72 50 73 33 74 34 75 43 76 35 77
REMARK SMILES IDX 36 78 42 79 44 80 37 81 38 82 39 83 40 84 41 85 67 86 68 87
REMARK SMILES IDX 77 88 69 89 70 90 76 91 78 92 71 93 72 94 73 95 74 96 75 97
REMARK SMILES IDX 51 98 52 99 61 100 53 101 54 102 60 103 62 104 55 105 56 106
REMARK SMILES IDX 57 107 58 108 59 109
REMARK H PARENT 17 5 10 15 98 32 21 40 83 59 49 70
REMARK Flexibility Score: inf
ROOT
ATOM      1  C   UNL     1      -4.488   2.222  -0.001  1.00  0.00     0.117 C 
ENDROOT
BRANCH   1   2
ATOM      2  N   UNL     1      -5.154   1.671  -1.175  1.00  0.00    -0.356 N 
ATOM      3  C   UNL     1      -6.432   1.197  -1.313  1.00  0.00     0.224 C 
ATOM      4  O   UNL     1      -6.785   0.784  -2.418  1.00  0.00    -0.275 OA
ATOM      5  H   UNL     1      -4.603   1.633  -1.990  1.00  0.00     0.163 HD
BRANCH   3   6
ATOM      6  C   UNL     1      -7.389   1.345  -0.130  1.00  0.00     0.098 C 
ATOM      7  C   UNL     1      -8.584   0.322   0.065  1.00  0.00     0.099 C 
ATOM      8  C   UNL     1      -9.815   1.260  -0.069  1.00  0.00     0.025 C 
ATOM      9  C   UNL     1      -8.131   2.711  -0.263  1.00  0.00     0.025 C 
ATOM     10  C   UNL     1      -9.899   1.842  -1.454  1.00  0.00    -0.027 C 
ATOM     11  C   UNL     1      -9.307   2.500   0.684  1.00  0.00     0.017 C 
ATOM     12  C   UNL     1      -8.910   2.739  -1.562  1.00  0.00    -0.027 C 
BRANCH   7  13
ATOM     13  C   UNL     1      -8.499  -0.961  -0.763  1.00  0.00     0.229 C 
ATOM     14  N   UNL     1      -9.613  -1.607  -1.224  1.00  0.00    -0.317 N 
ATOM     15  H   UNL     1      -9.506  -2.053  -2.095  1.00  0.00     0.170 HD
ATOM     16  O   UNL     1      -7.405  -1.495  -0.973  1.00  0.00    -0.274 OA
BRANCH  14  17
ATOM     17  C   UNL     1     -10.868  -1.729  -0.653  1.00  0.00     0.108 A 
ATOM     18  C   UNL     1     -13.160  -1.967  -0.311  1.00  0.00     0.007 A 
ATOM     19  C   UNL     1     -12.685  -1.737   0.969  1.00  0.00     0.076 A 
ATOM     20  C   UNL     1     -12.075  -2.044  -1.283  1.00  0.00     0.082 A 
ATOM     21  S   UNL     1     -10.992  -1.704   1.043  1.00  0.00    -0.125 S 
BRANCH  18  22
ATOM     22  C   UNL     1     -14.605  -2.106  -0.472  1.00  0.00    -0.017 A 
ATOM     23  C   UNL     1     -18.727  -3.048  -1.276  1.00  0.00     0.044 C 
ATOM     24  C   UNL     1     -17.336  -2.630  -0.900  1.00  0.00    -0.051 A 
ATOM     25  C   UNL     1     -16.606  -3.409   0.000  1.00  0.00     0.004 A 
ATOM     26  C   UNL     1     -16.708  -1.542  -1.528  1.00  0.00     0.004 A 
ATOM     27  C   UNL     1     -15.261  -3.131   0.231  1.00  0.00     0.009 A 
ATOM     28  C   UNL     1     -15.346  -1.279  -1.318  1.00  0.00     0.009 A 
ENDBRANCH  18  22
BRANCH  20  29
ATOM     29  C   UNL     1     -12.117  -2.140  -2.743  1.00  0.00     0.255 C 
ATOM     30  O   UNL     1     -11.619  -1.235  -3.422  1.00  0.00    -0.269 OA
ATOM     31  N   UNL     1     -12.592  -3.205  -3.470  1.00  0.00    -0.349 N 
ATOM     32  H   UNL     1     -12.483  -3.042  -4.435  1.00  0.00     0.164 HD
BRANCH  31  33
ATOM     33  C   UNL     1     -13.194  -4.472  -3.239  1.00  0.00     0.082 C 
ATOM     34  C   UNL     1     -13.739  -5.066  -1.989  1.00  0.00     0.027 C 
ATOM     35  C   UNL     1     -14.681  -4.488  -3.006  1.00  0.00     0.027 C 
ENDBRANCH  31  33
ENDBRANCH  20  29
ENDBRANCH  14  17
ENDBRANCH   7  13
ENDBRANCH   3   6
ENDBRANCH   1   2
BRANCH   1  36
ATOM     36  C   UNL     1      -3.869   1.125   0.861  1.00  0.00     0.042 C 
BRANCH  36  37
ATOM     37  C   UNL     1      -2.549   0.622   0.286  1.00  0.00     0.118 C 
BRANCH  37  38
ATOM     38  N   UNL     1      -1.380   1.095   1.017  1.00  0.00    -0.352 N 
ATOM     39  C   UNL     1      -0.062   0.691   0.867  1.00  0.00     0.251 C 
ATOM     40  H   UNL     1      -1.547   1.785   1.700  1.00  0.00     0.163 HD
ATOM     41  O   UNL     1       0.787   0.914   1.705  1.00  0.00    -0.269 OA
BRANCH  39  42
ATOM     42  C   UNL     1       0.302   0.102  -0.441  1.00  0.00     0.039 A 
ATOM     43  C   UNL     1       1.114   0.876  -1.280  1.00  0.00     0.014 A 
ATOM     44  C   UNL     1      -0.371  -1.016  -0.920  1.00  0.00     0.014 A 
ATOM     45  C   UNL     1       1.111   0.633  -2.651  1.00  0.00     0.010 A 
ATOM     46  C   UNL     1      -0.442  -1.200  -2.286  1.00  0.00     0.010 A 
ATOM     47  C   UNL     1       0.263  -0.351  -3.155  1.00  0.00    -0.014 A 
BRANCH  47  48
ATOM     48  C   UNL     1      -0.035  -0.518  -4.574  1.00  0.00     0.031 A 
ATOM     49  C   UNL     1       0.473  -1.700  -5.309  1.00  0.00     0.074 A 
ATOM     50  C   UNL     1      -0.894   0.332  -5.176  1.00  0.00     0.049 A 
ATOM     51  N   UNL     1       0.530  -1.801  -6.594  1.00  0.00    -0.248 NA
ATOM     52  C   UNL     1       1.007  -2.871  -4.623  1.00  0.00     0.031 C 
ATOM     53  C   UNL     1      -1.624   0.107  -6.419  1.00  0.00     0.029 A 
ATOM     54  N   UNL     1      -1.160   1.662  -4.856  1.00  0.00    -0.354 N 
ATOM     55  C   UNL     1       0.831  -3.110  -6.906  1.00  0.00     0.074 A 
ATOM     56  C   UNL     1       1.172  -3.720  -5.642  1.00  0.00     0.031 C 
ATOM     57  C   UNL     1      -2.074   1.284  -6.882  1.00  0.00     0.029 A 
ATOM     58  C   UNL     1      -1.505   2.326  -6.046  1.00  0.00     0.049 A 
ATOM     59  H   UNL     1      -1.115   2.064  -3.958  1.00  0.00     0.167 HD
ATOM     60  C   UNL     1       0.630  -3.562  -8.180  1.00  0.00     0.037 A 
ATOM     61  C   UNL     1      -0.747   3.360  -6.522  1.00  0.00     0.037 A 
ATOM     62  C   UNL     1       0.189  -2.475  -9.055  1.00  0.00     0.049 A 
ATOM     63  C   UNL     1      -0.097   3.080  -7.857  1.00  0.00     0.074 A 
ATOM     64  C   UNL     1      -1.070  -2.067  -9.465  1.00  0.00     0.029 A 
ATOM     65  N   UNL     1       1.064  -1.445  -9.384  1.00  0.00    -0.354 N 
ATOM     66  N   UNL     1       0.031   1.888  -8.371  1.00  0.00    -0.248 NA
ATOM     67  C   UNL     1       0.475   4.118  -8.712  1.00  0.00     0.031 C 
ATOM     68  C   UNL     1      -0.960  -0.751  -9.976  1.00  0.00     0.029 A 
ATOM     69  C   UNL     1       0.367  -0.367  -9.898  1.00  0.00     0.049 A 
ATOM     70  H   UNL     1       2.041  -1.479  -9.267  1.00  0.00     0.167 HD
ATOM     71  C   UNL     1       0.716   1.969  -9.554  1.00  0.00     0.074 A 
ATOM     72  C   UNL     1       0.946   3.389  -9.740  1.00  0.00     0.031 C 
ATOM     73  C   UNL     1       1.051   0.860 -10.278  1.00  0.00     0.037 A 
BRANCH  60  74
ATOM     74  C   UNL     1       0.528  -5.032  -8.557  1.00  0.00     0.058 A 
ATOM     75  C   UNL     1      -0.294  -5.448  -9.629  1.00  0.00     0.135 A 
ATOM     76  C   UNL     1       1.159  -6.088  -7.870  1.00  0.00     0.135 A 
ATOM     77  F   UNL     1      -0.872  -4.566 -10.455  1.00  0.00    -0.206 F 
ATOM     78  C   UNL     1      -0.572  -6.790  -9.907  1.00  0.00     0.059 A 
ATOM     79  C   UNL     1       0.855  -7.438  -8.090  1.00  0.00     0.059 A 
ATOM     80  F   UNL     1       2.146  -5.859  -6.995  1.00  0.00    -0.206 F 
ATOM     81  C   UNL     1      -0.026  -7.780  -9.104  1.00  0.00     0.060 A 
BRANCH  81  82
ATOM     82  S   UNL     1      -0.468  -9.499  -9.418  1.00  0.00     0.124 S 
ATOM     83  O   UNL     1      -1.926  -9.461  -9.350  1.00  0.00    -0.237 OA
ATOM     84  O   UNL     1       0.100  -9.724 -10.743  1.00  0.00    -0.237 OA
ATOM     85  O   UNL     1       0.182 -10.223  -8.328  1.00  0.00    -0.744 OA
ENDBRANCH  81  82
ENDBRANCH  60  74
BRANCH  61  86
ATOM     86  C   UNL     1      -0.168   4.205  -5.442  1.00  0.00     0.058 A 
ATOM     87  C   UNL     1      -1.060   4.998  -4.696  1.00  0.00     0.135 A 
ATOM     88  C   UNL     1       1.068   3.890  -4.859  1.00  0.00     0.135 A 
ATOM     89  F   UNL     1      -2.244   5.351  -5.221  1.00  0.00    -0.206 F 
ATOM     90  C   UNL     1      -0.821   5.304  -3.361  1.00  0.00     0.059 A 
ATOM     91  C   UNL     1       1.332   4.194  -3.522  1.00  0.00     0.059 A 
ATOM     92  F   UNL     1       1.963   3.150  -5.529  1.00  0.00    -0.206 F 
ATOM     93  C   UNL     1       0.345   4.828  -2.764  1.00  0.00     0.060 A 
BRANCH  93  94
ATOM     94  S   UNL     1       0.446   4.884  -0.959  1.00  0.00     0.124 S 
ATOM     95  O   UNL     1       0.286   6.308  -0.687  1.00  0.00    -0.237 OA
ATOM     96  O   UNL     1      -0.684   4.039  -0.573  1.00  0.00    -0.237 OA
ATOM     97  O   UNL     1       1.767   4.333  -0.680  1.00  0.00    -0.744 OA
ENDBRANCH  93  94
ENDBRANCH  61  86
BRANCH  73  98
ATOM     98  C   UNL     1       1.970   0.857 -11.472  1.00  0.00     0.058 A 
ATOM     99  C   UNL     1       3.073   1.716 -11.606  1.00  0.00     0.135 A 
ATOM    100  C   UNL     1       1.831  -0.126 -12.480  1.00  0.00     0.135 A 
ATOM    101  F   UNL     1       3.375   2.613 -10.655  1.00  0.00    -0.206 F 
ATOM    102  C   UNL     1       3.932   1.664 -12.704  1.00  0.00     0.059 A 
ATOM    103  C   UNL     1       2.706  -0.230 -13.558  1.00  0.00     0.059 A 
ATOM    104  F   UNL     1       0.837  -1.026 -12.444  1.00  0.00    -0.206 F 
ATOM    105  C   UNL     1       3.737   0.692 -13.680  1.00  0.00     0.060 A 
BRANCH 105 106
ATOM    106  S   UNL     1       4.859   0.596 -15.087  1.00  0.00     0.124 S 
ATOM    107  O   UNL     1       4.181   1.449 -16.058  1.00  0.00    -0.237 OA
ATOM    108  O   UNL     1       6.107   1.127 -14.547  1.00  0.00    -0.237 OA
ATOM    109  O   UNL     1       4.878  -0.830 -15.400  1.00  0.00    -0.744 OA
ENDBRANCH 105 106
ENDBRANCH  73  98
ENDBRANCH  47  48
ENDBRANCH  39  42
ENDBRANCH  37  38
ENDBRANCH  36  37
ENDBRANCH   1  36
TORSDOF 18
