REMARK SMILES CC(C)C[C@H](NC(=O)[C@H](C)NC(=O)[C@@H](NC(=O)CNC(=O)OCc1ccccc1)C(C)C)C(=O)NCCCNC(=O)c1ccc(-c2c3nc(c(-c4c(F)cc(S(=O)(=O)[O-])cc4F)c4ccc([nH]4)c(-c4c(F)cc(S(=O)(=O)[O-])cc4F)c4nc(c(-c5c(F)cc(S(=O)(=O)[O-])cc5F)c5ccc2[nH]5)C=C4)C=C3)cc1
REMARK SMILES IDX 6 1 7 2 8 3 5 5 4 6 2 7 1 8 3 9 33 10 34 11 35 12 36 14
REMARK SMILES IDX 37 15 38 16 39 17 40 18 41 20 42 21 43 22 107 23 44 24
REMARK SMILES IDX 106 25 45 26 46 27 47 28 100 29 48 30 105 31 99 32 101 33
REMARK SMILES IDX 49 34 104 35 98 36 97 37 50 39 84 40 63 41 83 42 64 43 67 44
REMARK SMILES IDX 82 45 102 46 65 47 66 48 81 50 103 51 68 52 51 53 52 54
REMARK SMILES IDX 61 55 53 56 54 57 60 58 62 59 55 60 56 61 57 62 58 63 59 64
REMARK SMILES IDX 85 65 86 66 95 67 87 68 88 69 94 70 96 71 89 72 90 73 91 74
REMARK SMILES IDX 92 75 93 76 69 77 70 78 79 79 71 80 72 81 78 82 80 83 73 84
REMARK SMILES IDX 74 85 75 86 76 87 77 88 9 89 10 90 11 91 12 92 13 94 14 95
REMARK SMILES IDX 15 96 16 97 17 99 18 100 19 101 20 102 21 104 22 105 23 106
REMARK SMILES IDX 24 107 25 108 29 109 26 110 28 111 27 112 30 113 31 114
REMARK SMILES IDX 32 115
REMARK H PARENT 6 4 35 13 39 19 101 38 67 49 11 93 15 98 19 103
REMARK Flexibility Score: inf
ROOT
ATOM      1  N   UNL     1      -5.479  -5.842   5.764  1.00  0.00    -0.343 N 
ATOM      2  C   UNL     1      -4.132  -5.781   6.062  1.00  0.00     0.242 C 
ATOM      3  O   UNL     1      -3.793  -5.644   7.237  1.00  0.00    -0.273 OA
ATOM      4  H   UNL     1      -6.053  -6.402   6.336  1.00  0.00     0.164 HD
ENDROOT
BRANCH   1   5
ATOM      5  C   UNL     1      -6.111  -5.127   4.651  1.00  0.00     0.171 C 
BRANCH   5   6
ATOM      6  C   UNL     1      -5.965  -3.561   4.937  1.00  0.00     0.038 C 
BRANCH   6   7
ATOM      7  C   UNL     1      -4.517  -3.051   5.117  1.00  0.00    -0.015 C 
ATOM      8  C   UNL     1      -3.915  -2.901   3.769  1.00  0.00     0.007 C 
ATOM      9  C   UNL     1      -4.154  -1.816   5.937  1.00  0.00     0.007 C 
ENDBRANCH   6   7
ENDBRANCH   5   6
BRANCH   5  10
ATOM     10  C   UNL     1      -5.890  -5.675   3.158  1.00  0.00     0.242 C 
ATOM     11  O   UNL     1      -6.373  -5.092   2.185  1.00  0.00    -0.273 OA
ATOM     12  N   UNL     1      -5.166  -6.856   2.934  1.00  0.00    -0.354 N 
ATOM     13  H   UNL     1      -5.292  -7.629   3.531  1.00  0.00     0.163 HD
BRANCH  12  14
ATOM     14  C   UNL     1      -4.209  -6.947   1.798  1.00  0.00     0.117 C 
BRANCH  14  15
ATOM     15  C   UNL     1      -2.803  -7.604   2.053  1.00  0.00     0.042 C 
BRANCH  15  16
ATOM     16  C   UNL     1      -1.897  -7.889   0.832  1.00  0.00     0.118 C 
BRANCH  16  17
ATOM     17  N   UNL     1      -0.577  -7.203   0.808  1.00  0.00    -0.352 N 
ATOM     18  C   UNL     1       0.654  -7.343   1.426  1.00  0.00     0.251 C 
ATOM     19  H   UNL     1      -0.580  -6.444   0.182  1.00  0.00     0.163 HD
ATOM     20  O   UNL     1       1.504  -6.489   1.162  1.00  0.00    -0.269 OA
BRANCH  18  21
ATOM     21  C   UNL     1       1.029  -8.454   2.343  1.00  0.00     0.039 A 
ATOM     22  C   UNL     1       2.179  -8.352   3.150  1.00  0.00     0.014 A 
ATOM     23  C   UNL     1       0.343  -9.659   2.346  1.00  0.00     0.014 A 
ATOM     24  C   UNL     1       2.604  -9.440   3.935  1.00  0.00     0.010 A 
ATOM     25  C   UNL     1       0.675 -10.679   3.231  1.00  0.00     0.010 A 
ATOM     26  C   UNL     1       1.841 -10.616   3.994  1.00  0.00    -0.014 A 
BRANCH  26  27
ATOM     27  C   UNL     1       2.251 -11.818   4.775  1.00  0.00     0.031 A 
ATOM     28  C   UNL     1       2.377 -13.166   4.089  1.00  0.00     0.074 A 
ATOM     29  C   UNL     1       2.423 -11.720   6.108  1.00  0.00     0.049 A 
ATOM     30  N   UNL     1       2.632 -14.341   4.606  1.00  0.00    -0.248 NA
ATOM     31  C   UNL     1       2.124 -13.210   2.637  1.00  0.00     0.031 C 
ATOM     32  C   UNL     1       2.233 -10.500   6.898  1.00  0.00     0.029 A 
ATOM     33  N   UNL     1       2.796 -12.657   7.038  1.00  0.00    -0.354 N 
ATOM     34  C   UNL     1       2.531 -15.252   3.556  1.00  0.00     0.074 A 
ATOM     35  C   UNL     1       2.101 -14.511   2.396  1.00  0.00     0.031 C 
ATOM     36  C   UNL     1       2.553 -10.747   8.178  1.00  0.00     0.029 A 
ATOM     37  C   UNL     1       2.928 -12.150   8.310  1.00  0.00     0.049 A 
ATOM     38  H   UNL     1       2.955 -13.603   6.815  1.00  0.00     0.167 HD
ATOM     39  C   UNL     1       2.818 -16.577   3.543  1.00  0.00     0.037 A 
ATOM     40  C   UNL     1       3.323 -12.748   9.450  1.00  0.00     0.037 A 
ATOM     41  C   UNL     1       3.314 -17.287   4.693  1.00  0.00     0.049 A 
ATOM     42  C   UNL     1       3.713 -14.200   9.398  1.00  0.00     0.074 A 
ATOM     43  C   UNL     1       3.715 -18.607   4.788  1.00  0.00     0.029 A 
ATOM     44  N   UNL     1       3.492 -16.722   5.948  1.00  0.00    -0.354 N 
ATOM     45  N   UNL     1       3.675 -15.029   8.380  1.00  0.00    -0.248 NA
ATOM     46  C   UNL     1       4.215 -14.794  10.642  1.00  0.00     0.031 C 
ATOM     47  C   UNL     1       4.095 -18.851   6.113  1.00  0.00     0.029 A 
ATOM     48  C   UNL     1       3.985 -17.669   6.828  1.00  0.00     0.049 A 
ATOM     49  H   UNL     1       3.296 -15.785   6.178  1.00  0.00     0.167 HD
ATOM     50  C   UNL     1       4.174 -16.237   8.855  1.00  0.00     0.074 A 
ATOM     51  C   UNL     1       4.529 -16.018  10.243  1.00  0.00     0.031 C 
ATOM     52  C   UNL     1       4.323 -17.421   8.208  1.00  0.00     0.037 A 
BRANCH  39  53
ATOM     53  C   UNL     1       2.631 -17.330   2.248  1.00  0.00     0.058 A 
ATOM     54  C   UNL     1       3.424 -17.071   1.116  1.00  0.00     0.135 A 
ATOM     55  C   UNL     1       1.662 -18.342   2.139  1.00  0.00     0.135 A 
ATOM     56  F   UNL     1       4.358 -16.107   1.150  1.00  0.00    -0.206 F 
ATOM     57  C   UNL     1       3.237 -17.754  -0.083  1.00  0.00     0.059 A 
ATOM     58  C   UNL     1       1.481 -19.063   0.960  1.00  0.00     0.059 A 
ATOM     59  F   UNL     1       0.873 -18.638   3.183  1.00  0.00    -0.206 F 
ATOM     60  C   UNL     1       2.263 -18.750  -0.151  1.00  0.00     0.060 A 
BRANCH  60  61
ATOM     61  S   UNL     1       2.041 -19.632  -1.711  1.00  0.00     0.124 S 
ATOM     62  O   UNL     1       1.417 -18.605  -2.540  1.00  0.00    -0.237 OA
ATOM     63  O   UNL     1       3.411 -19.986  -2.066  1.00  0.00    -0.237 OA
ATOM     64  O   UNL     1       1.179 -20.753  -1.349  1.00  0.00    -0.744 OA
ENDBRANCH  60  61
ENDBRANCH  39  53
BRANCH  40  65
ATOM     65  C   UNL     1       3.430 -11.958  10.708  1.00  0.00     0.058 A 
ATOM     66  C   UNL     1       4.681 -11.660  11.271  1.00  0.00     0.135 A 
ATOM     67  C   UNL     1       2.290 -11.457  11.357  1.00  0.00     0.135 A 
ATOM     68  F   UNL     1       5.802 -12.114  10.691  1.00  0.00    -0.206 F 
ATOM     69  C   UNL     1       4.798 -10.916  12.441  1.00  0.00     0.059 A 
ATOM     70  C   UNL     1       2.383 -10.684  12.511  1.00  0.00     0.059 A 
ATOM     71  F   UNL     1       1.070 -11.691  10.848  1.00  0.00    -0.206 F 
ATOM     72  C   UNL     1       3.642 -10.430  13.053  1.00  0.00     0.060 A 
BRANCH  72  73
ATOM     73  S   UNL     1       3.809  -9.429  14.548  1.00  0.00     0.124 S 
ATOM     74  O   UNL     1       4.200 -10.433  15.531  1.00  0.00    -0.237 OA
ATOM     75  O   UNL     1       4.844  -8.474  14.164  1.00  0.00    -0.237 OA
ATOM     76  O   UNL     1       2.476  -8.861  14.722  1.00  0.00    -0.744 OA
ENDBRANCH  72  73
ENDBRANCH  40  65
BRANCH  52  77
ATOM     77  C   UNL     1       4.925 -18.551   8.995  1.00  0.00     0.058 A 
ATOM     78  C   UNL     1       4.233 -19.170  10.047  1.00  0.00     0.135 A 
ATOM     79  C   UNL     1       6.212 -19.020   8.687  1.00  0.00     0.135 A 
ATOM     80  F   UNL     1       2.998 -18.759  10.379  1.00  0.00    -0.206 F 
ATOM     81  C   UNL     1       4.819 -20.176  10.806  1.00  0.00     0.059 A 
ATOM     82  C   UNL     1       6.803 -20.051   9.409  1.00  0.00     0.059 A 
ATOM     83  F   UNL     1       6.909 -18.477   7.677  1.00  0.00    -0.206 F 
ATOM     84  C   UNL     1       6.108 -20.604  10.484  1.00  0.00     0.060 A 
BRANCH  84  85
ATOM     85  S   UNL     1       6.868 -21.892  11.491  1.00  0.00     0.124 S 
ATOM     86  O   UNL     1       7.196 -21.156  12.707  1.00  0.00    -0.237 OA
ATOM     87  O   UNL     1       5.790 -22.870  11.613  1.00  0.00    -0.237 OA
ATOM     88  O   UNL     1       8.009 -22.322  10.689  1.00  0.00    -0.744 OA
ENDBRANCH  84  85
ENDBRANCH  52  77
ENDBRANCH  26  27
ENDBRANCH  18  21
ENDBRANCH  16  17
ENDBRANCH  15  16
ENDBRANCH  14  15
ENDBRANCH  12  14
ENDBRANCH   5  10
ENDBRANCH   1   5
BRANCH   2  89
ATOM     89  C   UNL     1      -3.111  -6.031   4.902  1.00  0.00     0.168 C 
ATOM     90  C   UNL     1      -2.822  -7.519   5.236  1.00  0.00     0.041 C 
BRANCH  89  91
ATOM     91  N   UNL     1      -1.883  -5.192   4.651  1.00  0.00    -0.343 N 
ATOM     92  C   UNL     1      -1.264  -4.367   3.731  1.00  0.00     0.243 C 
ATOM     93  H   UNL     1      -1.303  -5.257   5.443  1.00  0.00     0.164 HD
ATOM     94  O   UNL     1      -0.274  -3.819   4.265  1.00  0.00    -0.273 OA
BRANCH  92  95
ATOM     95  C   UNL     1      -1.554  -3.853   2.115  1.00  0.00     0.174 C 
BRANCH  95  96
ATOM     96  N   UNL     1      -2.247  -4.671   1.097  1.00  0.00    -0.343 N 
ATOM     97  C   UNL     1      -3.110  -4.509   0.049  1.00  0.00     0.240 C 
ATOM     98  H   UNL     1      -2.017  -5.622   1.207  1.00  0.00     0.164 HD
ATOM     99  O   UNL     1      -2.972  -5.355  -0.852  1.00  0.00    -0.273 OA
BRANCH  97 100
ATOM    100  C   UNL     1      -4.198  -3.425  -0.156  1.00  0.00     0.219 C 
BRANCH 100 101
ATOM    101  N   UNL     1      -5.235  -3.239   0.825  1.00  0.00    -0.312 N 
ATOM    102  C   UNL     1      -5.814  -2.095   1.290  1.00  0.00     0.407 C 
ATOM    103  H   UNL     1      -5.582  -4.070   1.223  1.00  0.00     0.167 HD
ATOM    104  O   UNL     1      -6.912  -2.159   1.808  1.00  0.00    -0.225 OA
BRANCH 102 105
ATOM    105  O   UNL     1      -5.023  -1.002   1.206  1.00  0.00    -0.445 OA
BRANCH 105 106
ATOM    106  C   UNL     1      -5.133   0.152   2.107  1.00  0.00     0.270 C 
BRANCH 106 107
ATOM    107  C   UNL     1      -6.166   0.266   3.221  1.00  0.00    -0.011 A 
ATOM    108  C   UNL     1      -5.774   0.521   4.545  1.00  0.00     0.007 A 
ATOM    109  C   UNL     1      -7.537   0.172   2.974  1.00  0.00     0.007 A 
ATOM    110  C   UNL     1      -6.692   0.471   5.603  1.00  0.00     0.000 A 
ATOM    111  C   UNL     1      -8.460   0.119   4.025  1.00  0.00     0.000 A 
ATOM    112  C   UNL     1      -8.034   0.231   5.344  1.00  0.00     0.000 A 
ENDBRANCH 106 107
ENDBRANCH 105 106
ENDBRANCH 102 105
ENDBRANCH 100 101
ENDBRANCH  97 100
ENDBRANCH  95  96
BRANCH  95 113
ATOM    113  C   UNL     1      -1.668  -2.311   1.759  1.00  0.00     0.015 C 
ATOM    114  C   UNL     1      -0.865  -1.372   2.662  1.00  0.00     0.010 C 
ATOM    115  C   UNL     1      -1.330  -1.946   0.288  1.00  0.00     0.010 C 
ENDBRANCH  95 113
ENDBRANCH  92  95
ENDBRANCH  89  91
ENDBRANCH   2  89
TORSDOF 26
