REMARK SMILES CC(C)[NH2+][C@](C)(C[N@H+]1CCC(C)(C)C1)C(=O)NCCCNC(=O)c1ccc(-c2c3nc(c(-c4c(F)cc(S(=O)(=O)[O-])cc4F)c4ccc([nH]4)c(-c4c(F)cc(S(=O)(=O)[O-])cc4F)c4nc(c(-c5c(F)cc(S(=O)(=O)[O-])cc5F)c5ccc2[nH]5)C=C4)C=C3)cc1
REMARK SMILES IDX 19 1 18 2 17 3 15 4 16 5 5 7 6 8 4 9 2 12 1 13 3 14 7 15
REMARK SMILES IDX 8 16 9 17 14 18 10 20 11 21 12 22 13 23 20 24 21 25 22 26
REMARK SMILES IDX 23 28 24 29 25 30 89 31 26 32 88 33 27 34 28 35 29 36 82 37
REMARK SMILES IDX 30 38 87 39 81 40 83 41 31 42 86 43 80 44 79 45 32 47 66 48
REMARK SMILES IDX 45 49 65 50 46 51 49 52 64 53 84 54 47 55 48 56 63 58 85 59
REMARK SMILES IDX 50 60 33 61 34 62 43 63 35 64 36 65 42 66 44 67 37 68 38 69
REMARK SMILES IDX 39 70 40 71 41 72 67 73 68 74 77 75 69 76 70 77 76 78 78 79
REMARK SMILES IDX 71 80 72 81 73 82 74 83 75 84 51 85 52 86 61 87 53 88 54 89
REMARK SMILES IDX 60 90 62 91 55 92 56 93 57 94 58 95 59 96
REMARK H PARENT 17 6 4 10 4 11 8 19 21 27 83 46 49 57
REMARK Flexibility Score: inf
ROOT
ATOM      1  C   UNL     1      -3.425   5.393   3.699  1.00  0.00     0.042 C 
ENDROOT
BRANCH   1   2
ATOM      2  C   UNL     1      -2.378   5.359   2.608  1.00  0.00     0.118 C 
BRANCH   2   3
ATOM      3  N   UNL     1      -1.303   4.411   2.811  1.00  0.00    -0.350 N 
ATOM      4  C   UNL     1      -0.752   3.483   1.971  1.00  0.00     0.287 C 
ATOM      5  O   UNL     1       0.360   3.064   2.323  1.00  0.00    -0.268 OA
ATOM      6  H   UNL     1      -0.898   4.439   3.708  1.00  0.00     0.163 HD
BRANCH   4   7
ATOM      7  C   UNL     1      -1.467   2.930   0.686  1.00  0.00     0.221 C 
ATOM      8  C   UNL     1      -0.673   1.671   0.208  1.00  0.00     0.097 C 
BRANCH   7   9
ATOM      9  N   UNL     1      -1.259   3.841  -0.492  1.00  0.00    -0.327 N 
ATOM     10  H   UNL     1      -0.250   3.977  -0.566  1.00  0.00     0.347 HD
ATOM     11  H   UNL     1      -1.766   3.342  -1.222  1.00  0.00     0.347 HD
BRANCH   9  12
ATOM     12  C   UNL     1      -1.847   5.169  -0.595  1.00  0.00     0.177 C 
ATOM     13  C   UNL     1      -1.093   5.947  -1.681  1.00  0.00     0.075 C 
ATOM     14  C   UNL     1      -3.332   5.145  -0.961  1.00  0.00     0.075 C 
ENDBRANCH   9  12
ENDBRANCH   7   9
BRANCH   7  15
ATOM     15  C   UNL     1      -2.948   2.483   0.975  1.00  0.00     0.341 C 
BRANCH  15  16
ATOM     16  N   UNL     1      -3.272   1.311   1.790  1.00  0.00    -0.329 N 
ATOM     17  C   UNL     1      -3.782   0.139   1.099  1.00  0.00     0.263 C 
ATOM     18  C   UNL     1      -2.473   0.946   2.950  1.00  0.00     0.269 C 
ATOM     19  H   UNL     1      -4.057   1.792   2.229  1.00  0.00     0.348 HD
ATOM     20  C   UNL     1      -3.114  -1.044   1.776  1.00  0.00     0.073 C 
ATOM     21  C   UNL     1      -2.768  -0.546   3.184  1.00  0.00     0.019 C 
ATOM     22  C   UNL     1      -3.955  -0.734   4.142  1.00  0.00     0.017 C 
ATOM     23  C   UNL     1      -1.545  -1.288   3.735  1.00  0.00     0.017 C 
ENDBRANCH  15  16
ENDBRANCH   7  15
ENDBRANCH   4   7
ENDBRANCH   2   3
ENDBRANCH   1   2
BRANCH   1  24
ATOM     24  C   UNL     1      -2.903   5.883   5.036  1.00  0.00     0.118 C 
BRANCH  24  25
ATOM     25  N   UNL     1      -2.325   7.222   4.968  1.00  0.00    -0.352 N 
ATOM     26  C   UNL     1      -2.812   8.447   5.364  1.00  0.00     0.251 C 
ATOM     27  H   UNL     1      -1.426   7.255   4.568  1.00  0.00     0.163 HD
ATOM     28  O   UNL     1      -2.224   9.466   5.021  1.00  0.00    -0.269 OA
BRANCH  26  29
ATOM     29  C   UNL     1      -4.048   8.540   6.171  1.00  0.00     0.039 A 
ATOM     30  C   UNL     1      -4.946   9.586   5.936  1.00  0.00     0.014 A 
ATOM     31  C   UNL     1      -4.325   7.604   7.165  1.00  0.00     0.014 A 
ATOM     32  C   UNL     1      -6.155   9.631   6.634  1.00  0.00     0.010 A 
ATOM     33  C   UNL     1      -5.580   7.571   7.757  1.00  0.00     0.010 A 
ATOM     34  C   UNL     1      -6.506   8.592   7.512  1.00  0.00    -0.014 A 
BRANCH  34  35
ATOM     35  C   UNL     1      -7.818   8.557   8.209  1.00  0.00     0.031 A 
ATOM     36  C   UNL     1      -7.866   8.517   9.715  1.00  0.00     0.074 A 
ATOM     37  C   UNL     1      -8.955   8.471   7.490  1.00  0.00     0.049 A 
ATOM     38  N   UNL     1      -8.898   8.374  10.505  1.00  0.00    -0.248 NA
ATOM     39  C   UNL     1      -6.579   8.609  10.426  1.00  0.00     0.031 C 
ATOM     40  C   UNL     1      -9.034   8.436   6.027  1.00  0.00     0.029 A 
ATOM     41  N   UNL     1     -10.265   8.385   7.891  1.00  0.00    -0.354 N 
ATOM     42  C   UNL     1      -8.383   8.335  11.796  1.00  0.00     0.074 A 
ATOM     43  C   UNL     1      -6.944   8.399  11.681  1.00  0.00     0.031 C 
ATOM     44  C   UNL     1     -10.322   8.369   5.655  1.00  0.00     0.029 A 
ATOM     45  C   UNL     1     -11.159   8.308   6.849  1.00  0.00     0.049 A 
ATOM     46  H   UNL     1     -10.538   8.379   8.837  1.00  0.00     0.167 HD
ATOM     47  C   UNL     1      -9.050   8.284  12.974  1.00  0.00     0.037 A 
ATOM     48  C   UNL     1     -12.502   8.192   6.855  1.00  0.00     0.037 A 
ATOM     49  C   UNL     1     -10.484   8.261  13.079  1.00  0.00     0.049 A 
ATOM     50  C   UNL     1     -13.222   8.147   8.175  1.00  0.00     0.074 A 
ATOM     51  C   UNL     1     -11.263   8.278  14.222  1.00  0.00     0.029 A 
ATOM     52  N   UNL     1     -11.356   8.218  12.000  1.00  0.00    -0.354 N 
ATOM     53  N   UNL     1     -12.722   8.181   9.388  1.00  0.00    -0.248 NA
ATOM     54  C   UNL     1     -14.687   8.055   8.130  1.00  0.00     0.031 C 
ATOM     55  C   UNL     1     -12.605   8.195  13.836  1.00  0.00     0.029 A 
ATOM     56  C   UNL     1     -12.665   8.185  12.451  1.00  0.00     0.049 A 
ATOM     57  H   UNL     1     -11.084   8.211  11.054  1.00  0.00     0.167 HD
ATOM     58  C   UNL     1     -13.813   8.145  10.250  1.00  0.00     0.074 A 
ATOM     59  C   UNL     1     -14.998   8.099   9.418  1.00  0.00     0.031 C 
ATOM     60  C   UNL     1     -13.833   8.150  11.606  1.00  0.00     0.037 A 
BRANCH  47  61
ATOM     61  C   UNL     1      -8.235   8.263  14.239  1.00  0.00     0.058 A 
ATOM     62  C   UNL     1      -7.488   9.377  14.657  1.00  0.00     0.135 A 
ATOM     63  C   UNL     1      -8.223   7.125  15.062  1.00  0.00     0.135 A 
ATOM     64  F   UNL     1      -7.448  10.486  13.902  1.00  0.00    -0.206 F 
ATOM     65  C   UNL     1      -6.734   9.353  15.825  1.00  0.00     0.059 A 
ATOM     66  C   UNL     1      -7.501   7.090  16.253  1.00  0.00     0.059 A 
ATOM     67  F   UNL     1      -8.916   6.030  14.712  1.00  0.00    -0.206 F 
ATOM     68  C   UNL     1      -6.748   8.204  16.618  1.00  0.00     0.060 A 
BRANCH  68  69
ATOM     69  S   UNL     1      -5.771   8.194  18.135  1.00  0.00     0.124 S 
ATOM     70  O   UNL     1      -4.412   8.120  17.606  1.00  0.00    -0.237 OA
ATOM     71  O   UNL     1      -6.142   9.464  18.752  1.00  0.00    -0.237 OA
ATOM     72  O   UNL     1      -6.238   7.001  18.834  1.00  0.00    -0.744 OA
ENDBRANCH  68  69
ENDBRANCH  47  61
BRANCH  48  73
ATOM     73  C   UNL     1     -13.251   8.137   5.570  1.00  0.00     0.058 A 
ATOM     74  C   UNL     1     -14.068   9.203   5.165  1.00  0.00     0.135 A 
ATOM     75  C   UNL     1     -13.155   7.028   4.714  1.00  0.00     0.135 A 
ATOM     76  F   UNL     1     -14.196  10.284   5.949  1.00  0.00    -0.206 F 
ATOM     77  C   UNL     1     -14.778   9.166   3.970  1.00  0.00     0.059 A 
ATOM     78  C   UNL     1     -13.834   6.979   3.500  1.00  0.00     0.059 A 
ATOM     79  F   UNL     1     -12.373   5.989   5.044  1.00  0.00    -0.206 F 
ATOM     80  C   UNL     1     -14.652   8.050   3.142  1.00  0.00     0.060 A 
BRANCH  80  81
ATOM     81  S   UNL     1     -15.543   8.032   1.571  1.00  0.00     0.124 S 
ATOM     82  O   UNL     1     -16.920   7.849   2.015  1.00  0.00    -0.237 OA
ATOM     83  O   UNL     1     -15.218   9.344   1.020  1.00  0.00    -0.237 OA
ATOM     84  O   UNL     1     -14.952   6.900   0.863  1.00  0.00    -0.744 OA
ENDBRANCH  80  81
ENDBRANCH  48  73
BRANCH  60  85
ATOM     85  C   UNL     1     -15.177   8.145  12.280  1.00  0.00     0.058 A 
ATOM     86  C   UNL     1     -15.996   7.006  12.290  1.00  0.00     0.135 A 
ATOM     87  C   UNL     1     -15.624   9.281  12.975  1.00  0.00     0.135 A 
ATOM     88  F   UNL     1     -15.618   5.896  11.636  1.00  0.00    -0.206 F 
ATOM     89  C   UNL     1     -17.223   7.000  12.944  1.00  0.00     0.059 A 
ATOM     90  C   UNL     1     -16.833   9.287  13.663  1.00  0.00     0.059 A 
ATOM     91  F   UNL     1     -14.874  10.394  13.007  1.00  0.00    -0.206 F 
ATOM     92  C   UNL     1     -17.631   8.145  13.631  1.00  0.00     0.060 A 
BRANCH  92  93
ATOM     93  S   UNL     1     -19.209   8.111  14.507  1.00  0.00     0.124 S 
ATOM     94  O   UNL     1     -20.160   8.158  13.400  1.00  0.00    -0.237 OA
ATOM     95  O   UNL     1     -19.138   6.845  15.229  1.00  0.00    -0.237 OA
ATOM     96  O   UNL     1     -19.160   9.307  15.343  1.00  0.00    -0.744 OA
ENDBRANCH  92  93
ENDBRANCH  60  85
ENDBRANCH  34  35
ENDBRANCH  26  29
ENDBRANCH  24  25
ENDBRANCH   1  24
TORSDOF 17
