REMARK SMILES Cc1c(C(=O)NCCCNC(=O)c2ccc(-c3c4nc(c(-c5c(F)cc(S(=O)(=O)[O-])cc5F)c5ccc([nH]5)c(-c5c(F)cc(S(=O)(=O)[O-])cc5F)c5nc(c(-c6c(F)cc(S(=O)(=O)[O-])cc6F)c6ccc3[nH]6)C=C5)C=C4)cc2)sc2ncnc(NCc3cn4c(n3)SCC4)c12
REMARK SMILES IDX 8 1 7 2 6 3 4 4 5 5 3 7 1 8 2 9 95 10 79 11 80 12 84 13
REMARK SMILES IDX 81 14 83 15 82 16 85 17 86 19 87 20 88 21 91 22 89 23 90 24
REMARK SMILES IDX 94 25 92 26 93 27 9 28 10 29 11 30 12 32 13 33 14 34 78 35
REMARK SMILES IDX 15 36 77 37 16 38 17 39 18 40 71 41 19 42 76 43 70 44 72 45
REMARK SMILES IDX 20 46 75 47 69 48 68 49 21 51 55 52 34 53 54 54 35 55 38 56
REMARK SMILES IDX 53 57 73 58 36 59 37 60 52 62 74 63 39 64 22 65 23 66 32 67
REMARK SMILES IDX 24 68 25 69 31 70 33 71 26 72 27 73 28 74 29 75 30 76 56 77
REMARK SMILES IDX 57 78 66 79 58 80 59 81 65 82 67 83 60 84 61 85 62 86 63 87
REMARK SMILES IDX 64 88 40 89 41 90 50 91 42 92 43 93 49 94 51 95 44 96 45 97
REMARK SMILES IDX 46 98 47 99 48 100
REMARK H PARENT 6 6 85 18 10 31 72 50 38 61
REMARK Flexibility Score: inf
ROOT
ATOM      1  C   UNL     1       0.858   6.316  -0.019  1.00  0.00     0.042 C 
ENDROOT
BRANCH   1   2
ATOM      2  C   UNL     1       1.994   5.358  -0.394  1.00  0.00     0.118 C 
BRANCH   2   3
ATOM      3  N   UNL     1       2.088   4.270   0.559  1.00  0.00    -0.351 N 
ATOM      4  C   UNL     1       1.535   3.014   0.577  1.00  0.00     0.261 C 
ATOM      5  O   UNL     1       1.791   2.353   1.586  1.00  0.00    -0.268 OA
ATOM      6  H   UNL     1       2.654   4.469   1.340  1.00  0.00     0.163 HD
BRANCH   4   7
ATOM      7  C   UNL     1       0.776   2.468  -0.547  1.00  0.00     0.098 A 
ATOM      8  C   UNL     1       1.671   0.133  -0.311  1.00  0.00     0.047 C 
ATOM      9  C   UNL     1       0.760   1.130  -0.958  1.00  0.00    -0.014 A 
ATOM     10  C   UNL     1      -0.177   0.892  -2.066  1.00  0.00     0.057 A 
ATOM     11  S   UNL     1      -0.290   3.406  -1.474  1.00  0.00    -0.110 S 
ATOM     12  C   UNL     1      -0.633   2.128  -2.519  1.00  0.00     0.129 A 
ATOM     13  C   UNL     1      -0.691  -0.214  -2.800  1.00  0.00     0.138 A 
ATOM     14  N   UNL     1      -1.335   2.400  -3.629  1.00  0.00    -0.225 NA
ATOM     15  N   UNL     1      -1.398   0.047  -3.937  1.00  0.00    -0.219 NA
ATOM     16  C   UNL     1      -1.644   1.307  -4.305  1.00  0.00     0.225 A 
BRANCH  13  17
ATOM     17  N   UNL     1      -0.620  -1.566  -2.594  1.00  0.00    -0.364 N 
ATOM     18  H   UNL     1      -0.964  -2.103  -3.343  1.00  0.00     0.162 HD
BRANCH  17  19
ATOM     19  C   UNL     1      -0.134  -2.348  -1.486  1.00  0.00     0.172 C 
BRANCH  19  20
ATOM     20  C   UNL     1      -1.041  -2.595  -0.325  1.00  0.00     0.079 A 
ATOM     21  C   UNL     1      -1.872  -3.687  -0.095  1.00  0.00     0.113 A 
ATOM     22  N   UNL     1      -1.140  -1.671   0.705  1.00  0.00    -0.226 NA
ATOM     23  N   UNL     1      -2.493  -3.381   1.067  1.00  0.00    -0.325 N 
ATOM     24  C   UNL     1      -2.022  -2.187   1.510  1.00  0.00     0.168 A 
ATOM     25  C   UNL     1      -3.668  -3.902   1.732  1.00  0.00     0.135 C 
ATOM     26  S   UNL     1      -2.968  -1.542   2.793  1.00  0.00    -0.086 SA
ATOM     27  C   UNL     1      -4.345  -2.676   2.349  1.00  0.00     0.100 C 
ENDBRANCH  19  20
ENDBRANCH  17  19
ENDBRANCH  13  17
ENDBRANCH   4   7
ENDBRANCH   2   3
ENDBRANCH   1   2
BRANCH   1  28
ATOM     28  C   UNL     1       1.280   7.246   1.105  1.00  0.00     0.118 C 
BRANCH  28  29
ATOM     29  N   UNL     1       2.304   8.197   0.661  1.00  0.00    -0.352 N 
ATOM     30  C   UNL     1       2.913   9.192   1.391  1.00  0.00     0.251 C 
ATOM     31  H   UNL     1       2.593   8.112  -0.276  1.00  0.00     0.163 HD
ATOM     32  O   UNL     1       3.506  10.111   0.826  1.00  0.00    -0.269 OA
BRANCH  30  33
ATOM     33  C   UNL     1       2.846   9.124   2.855  1.00  0.00     0.039 A 
ATOM     34  C   UNL     1       2.577  10.255   3.630  1.00  0.00     0.014 A 
ATOM     35  C   UNL     1       3.010   7.871   3.440  1.00  0.00     0.014 A 
ATOM     36  C   UNL     1       2.405  10.095   5.002  1.00  0.00     0.010 A 
ATOM     37  C   UNL     1       2.663   7.690   4.750  1.00  0.00     0.010 A 
ATOM     38  C   UNL     1       2.434   8.802   5.549  1.00  0.00    -0.014 A 
BRANCH  38  39
ATOM     39  C   UNL     1       2.103   8.559   6.946  1.00  0.00     0.031 A 
ATOM     40  C   UNL     1       0.749   9.044   7.333  1.00  0.00     0.074 A 
ATOM     41  C   UNL     1       2.858   7.747   7.722  1.00  0.00     0.049 A 
ATOM     42  N   UNL     1       0.456  10.017   8.130  1.00  0.00    -0.248 NA
ATOM     43  C   UNL     1      -0.419   8.505   6.610  1.00  0.00     0.031 C 
ATOM     44  C   UNL     1       4.045   6.968   7.342  1.00  0.00     0.029 A 
ATOM     45  N   UNL     1       2.658   7.355   9.008  1.00  0.00    -0.354 N 
ATOM     46  C   UNL     1      -0.934  10.041   8.206  1.00  0.00     0.074 A 
ATOM     47  C   UNL     1      -1.410   9.253   7.100  1.00  0.00     0.031 C 
ATOM     48  C   UNL     1       4.301   6.031   8.282  1.00  0.00     0.029 A 
ATOM     49  C   UNL     1       3.418   6.256   9.409  1.00  0.00     0.049 A 
ATOM     50  H   UNL     1       2.026   7.811   9.609  1.00  0.00     0.167 HD
ATOM     51  C   UNL     1      -1.571  10.485   9.326  1.00  0.00     0.037 A 
ATOM     52  C   UNL     1       3.302   5.577  10.581  1.00  0.00     0.037 A 
ATOM     53  C   UNL     1      -0.661  11.200  10.184  1.00  0.00     0.049 A 
ATOM     54  C   UNL     1       2.595   6.489  11.521  1.00  0.00     0.074 A 
ATOM     55  C   UNL     1       0.097  12.348  10.057  1.00  0.00     0.029 A 
ATOM     56  N   UNL     1      -0.117  10.501  11.235  1.00  0.00    -0.354 N 
ATOM     57  N   UNL     1       3.095   7.619  11.945  1.00  0.00    -0.248 NA
ATOM     58  C   UNL     1       1.147   6.382  11.591  1.00  0.00     0.031 C 
ATOM     59  C   UNL     1       1.325  12.054  10.719  1.00  0.00     0.029 A 
ATOM     60  C   UNL     1       1.225  10.781  11.284  1.00  0.00     0.049 A 
ATOM     61  H   UNL     1      -0.606   9.904  11.847  1.00  0.00     0.167 HD
ATOM     62  C   UNL     1       2.030   8.509  11.930  1.00  0.00     0.074 A 
ATOM     63  C   UNL     1       0.842   7.670  11.771  1.00  0.00     0.031 C 
ATOM     64  C   UNL     1       2.231   9.849  11.752  1.00  0.00     0.037 A 
BRANCH  51  65
ATOM     65  C   UNL     1      -2.894   9.955   9.829  1.00  0.00     0.058 A 
ATOM     66  C   UNL     1      -3.547  10.621  10.887  1.00  0.00     0.135 A 
ATOM     67  C   UNL     1      -3.407   8.679   9.506  1.00  0.00     0.135 A 
ATOM     68  F   UNL     1      -3.134  11.833  11.291  1.00  0.00    -0.206 F 
ATOM     69  C   UNL     1      -4.592  10.038  11.605  1.00  0.00     0.059 A 
ATOM     70  C   UNL     1      -4.482   8.103  10.172  1.00  0.00     0.059 A 
ATOM     71  F   UNL     1      -2.831   7.887   8.594  1.00  0.00    -0.206 F 
ATOM     72  C   UNL     1      -5.047   8.773  11.244  1.00  0.00     0.060 A 
BRANCH  72  73
ATOM     73  S   UNL     1      -6.343   7.989  12.218  1.00  0.00     0.124 S 
ATOM     74  O   UNL     1      -5.668   7.785  13.495  1.00  0.00    -0.237 OA
ATOM     75  O   UNL     1      -7.388   9.008  12.202  1.00  0.00    -0.237 OA
ATOM     76  O   UNL     1      -6.646   6.777  11.463  1.00  0.00    -0.744 OA
ENDBRANCH  72  73
ENDBRANCH  51  65
BRANCH  52  77
ATOM     77  C   UNL     1       3.396   4.107  10.818  1.00  0.00     0.058 A 
ATOM     78  C   UNL     1       3.418   3.582  12.124  1.00  0.00     0.135 A 
ATOM     79  C   UNL     1       3.158   3.176   9.786  1.00  0.00     0.135 A 
ATOM     80  F   UNL     1       3.624   4.394  13.172  1.00  0.00    -0.206 F 
ATOM     81  C   UNL     1       3.154   2.233  12.397  1.00  0.00     0.059 A 
ATOM     82  C   UNL     1       2.898   1.826  10.033  1.00  0.00     0.059 A 
ATOM     83  F   UNL     1       3.077   3.571   8.506  1.00  0.00    -0.206 F 
ATOM     84  C   UNL     1       2.868   1.366  11.344  1.00  0.00     0.060 A 
BRANCH  84  85
ATOM     85  S   UNL     1       2.342  -0.329  11.705  1.00  0.00     0.124 S 
ATOM     86  O   UNL     1       3.552  -0.907  12.278  1.00  0.00    -0.237 OA
ATOM     87  O   UNL     1       1.236  -0.116  12.634  1.00  0.00    -0.237 OA
ATOM     88  O   UNL     1       1.960  -0.854  10.397  1.00  0.00    -0.744 OA
ENDBRANCH  84  85
ENDBRANCH  52  77
BRANCH  64  89
ATOM     89  C   UNL     1       3.642  10.382  11.856  1.00  0.00     0.058 A 
ATOM     90  C   UNL     1       4.682  10.087  10.954  1.00  0.00     0.135 A 
ATOM     91  C   UNL     1       3.897  11.371  12.817  1.00  0.00     0.135 A 
ATOM     92  F   UNL     1       4.498   9.223   9.948  1.00  0.00    -0.206 F 
ATOM     93  C   UNL     1       5.924  10.727  11.024  1.00  0.00     0.059 A 
ATOM     94  C   UNL     1       5.114  12.042  12.886  1.00  0.00     0.059 A 
ATOM     95  F   UNL     1       2.928  11.740  13.671  1.00  0.00    -0.206 F 
ATOM     96  C   UNL     1       6.128  11.709  11.992  1.00  0.00     0.060 A 
BRANCH  96  97
ATOM     97  S   UNL     1       7.704  12.591  12.039  1.00  0.00     0.124 S 
ATOM     98  O   UNL     1       8.632  11.545  12.457  1.00  0.00    -0.237 OA
ATOM     99  O   UNL     1       7.850  13.054  10.662  1.00  0.00    -0.237 OA
ATOM    100  O   UNL     1       7.476  13.649  13.021  1.00  0.00    -0.744 OA
ENDBRANCH  96  97
ENDBRANCH  64  89
ENDBRANCH  38  39
ENDBRANCH  30  33
ENDBRANCH  28  29
ENDBRANCH   1  28
TORSDOF 16
