REMARK SMILES CS(=O)(=O)c1ccc(-n2nnc(C(=O)NCCCNC(=O)c3ccc(-c4c5nc(c(-c6c(F)cc(S(=O)(=O)[O-])cc6F)c6ccc([nH]6)c(-c6c(F)cc(S(=O)(=O)[O-])cc6F)c6nc(c(-c7c(F)cc(S(=O)(=O)[O-])cc7F)c7ccc4[nH]7)C=C6)C=C5)cc3)c2-c2cc(F)cc(F)c2)cc1
REMARK SMILES IDX 17 1 16 2 15 3 13 4 14 5 12 7 9 8 10 9 88 10 11 11 8 12 5 13
REMARK SMILES IDX 6 14 98 15 7 16 97 17 2 18 1 19 3 20 4 21 89 22 90 23 96 24
REMARK SMILES IDX 91 25 94 26 92 27 93 28 95 29 18 30 19 31 20 32 21 34 22 35
REMARK SMILES IDX 23 36 87 37 24 38 86 39 25 40 26 41 27 42 80 43 28 44 85 45
REMARK SMILES IDX 79 46 81 47 29 48 84 49 78 50 77 51 30 53 64 54 43 55 63 56
REMARK SMILES IDX 44 57 47 58 62 59 82 60 45 61 46 62 61 64 83 65 48 66 31 67
REMARK SMILES IDX 32 68 41 69 33 70 34 71 40 72 42 73 35 74 36 75 37 76 38 77
REMARK SMILES IDX 39 78 65 79 66 80 75 81 67 82 68 83 74 84 76 85 69 86 70 87
REMARK SMILES IDX 71 88 72 89 73 90 49 91 50 92 59 93 51 94 52 95 58 96 60 97
REMARK SMILES IDX 53 98 54 99 55 100 56 101 57 102
REMARK H PARENT 15 6 19 33 81 52 47 63
REMARK Flexibility Score: inf
ROOT
ATOM      1  C   UNL     1       7.421   0.192  -6.755  1.00  0.00     0.042 C 
ENDROOT
BRANCH   1   2
ATOM      2  C   UNL     1       6.293   0.965  -7.416  1.00  0.00     0.118 C 
BRANCH   2   3
ATOM      3  N   UNL     1       5.734   0.446  -8.629  1.00  0.00    -0.351 N 
ATOM      4  C   UNL     1       4.448   0.067  -8.940  1.00  0.00     0.274 C 
ATOM      5  O   UNL     1       4.193   0.020 -10.146  1.00  0.00    -0.267 OA
ATOM      6  H   UNL     1       6.380   0.341  -9.364  1.00  0.00     0.163 HD
BRANCH   4   7
ATOM      7  C   UNL     1       3.435  -0.353  -7.957  1.00  0.00     0.178 A 
ATOM      8  N   UNL     1       2.058  -0.915  -6.344  1.00  0.00    -0.212 N 
ATOM      9  N   UNL     1       1.842  -1.763  -7.357  1.00  0.00    -0.061 NA
ATOM     10  C   UNL     1       3.099  -0.031  -6.636  1.00  0.00     0.108 A 
ATOM     11  N   UNL     1       2.582  -1.367  -8.373  1.00  0.00    -0.124 NA
BRANCH   8  12
ATOM     12  C   UNL     1       1.412  -1.075  -5.097  1.00  0.00     0.067 A 
ATOM     13  C   UNL     1       0.588  -1.343  -2.467  1.00  0.00     0.067 A 
ATOM     14  C   UNL     1       0.930  -2.484  -3.206  1.00  0.00     0.022 A 
ATOM     15  C   UNL     1       0.599  -0.076  -3.053  1.00  0.00     0.022 A 
ATOM     16  C   UNL     1       1.320  -2.354  -4.539  1.00  0.00     0.030 A 
ATOM     17  C   UNL     1       1.020   0.059  -4.371  1.00  0.00     0.030 A 
BRANCH  13  18
ATOM     18  S   UNL     1       0.166  -1.509  -0.750  1.00  0.00     0.175 S 
ATOM     19  C   UNL     1       0.988  -0.165   0.070  1.00  0.00     0.163 C 
ATOM     20  O   UNL     1       0.777  -2.735  -0.271  1.00  0.00    -0.224 OA
ATOM     21  O   UNL     1      -1.264  -1.294  -0.655  1.00  0.00    -0.224 OA
ENDBRANCH  13  18
ENDBRANCH   8  12
BRANCH  10  22
ATOM     22  C   UNL     1       3.708   0.784  -5.577  1.00  0.00     0.009 A 
ATOM     23  C   UNL     1       3.740   2.184  -5.628  1.00  0.00     0.049 A 
ATOM     24  C   UNL     1       4.389   0.125  -4.531  1.00  0.00     0.049 A 
ATOM     25  C   UNL     1       4.481   2.887  -4.674  1.00  0.00     0.126 A 
ATOM     26  C   UNL     1       5.107   0.852  -3.589  1.00  0.00     0.126 A 
ATOM     27  F   UNL     1       4.596   4.216  -4.788  1.00  0.00    -0.207 F 
ATOM     28  C   UNL     1       5.164   2.235  -3.652  1.00  0.00     0.078 A 
ATOM     29  F   UNL     1       5.805   0.197  -2.653  1.00  0.00    -0.207 F 
ENDBRANCH  10  22
ENDBRANCH   4   7
ENDBRANCH   2   3
ENDBRANCH   1   2
BRANCH   1  30
ATOM     30  C   UNL     1       8.503   1.167  -6.309  1.00  0.00     0.118 C 
BRANCH  30  31
ATOM     31  N   UNL     1       8.086   2.249  -5.392  1.00  0.00    -0.352 N 
ATOM     32  C   UNL     1       8.842   3.321  -4.893  1.00  0.00     0.251 C 
ATOM     33  H   UNL     1       7.150   2.213  -5.091  1.00  0.00     0.163 HD
ATOM     34  O   UNL     1       8.447   4.018  -3.981  1.00  0.00    -0.269 OA
BRANCH  32  35
ATOM     35  C   UNL     1      10.123   3.596  -5.579  1.00  0.00     0.039 A 
ATOM     36  C   UNL     1      11.372   3.518  -4.952  1.00  0.00     0.014 A 
ATOM     37  C   UNL     1      10.010   3.534  -6.945  1.00  0.00     0.014 A 
ATOM     38  C   UNL     1      12.481   3.138  -5.722  1.00  0.00     0.010 A 
ATOM     39  C   UNL     1      10.979   2.798  -7.555  1.00  0.00     0.010 A 
ATOM     40  C   UNL     1      12.257   2.685  -7.025  1.00  0.00    -0.014 A 
BRANCH  40  41
ATOM     41  C   UNL     1      13.238   2.011  -7.879  1.00  0.00     0.031 A 
ATOM     42  C   UNL     1      14.112   0.968  -7.271  1.00  0.00     0.074 A 
ATOM     43  C   UNL     1      13.185   2.113  -9.229  1.00  0.00     0.049 A 
ATOM     44  N   UNL     1      15.377   1.061  -7.025  1.00  0.00    -0.248 NA
ATOM     45  C   UNL     1      13.525  -0.304  -6.830  1.00  0.00     0.031 C 
ATOM     46  C   UNL     1      12.232   2.851 -10.083  1.00  0.00     0.029 A 
ATOM     47  N   UNL     1      13.926   1.445 -10.148  1.00  0.00    -0.354 N 
ATOM     48  C   UNL     1      15.798  -0.192  -6.582  1.00  0.00     0.074 A 
ATOM     49  C   UNL     1      14.590  -0.936  -6.321  1.00  0.00     0.031 C 
ATOM     50  C   UNL     1      12.272   2.372 -11.341  1.00  0.00     0.029 A 
ATOM     51  C   UNL     1      13.422   1.503 -11.438  1.00  0.00     0.049 A 
ATOM     52  H   UNL     1      14.751   0.961  -9.918  1.00  0.00     0.167 HD
ATOM     53  C   UNL     1      17.109  -0.574  -6.646  1.00  0.00     0.037 A 
ATOM     54  C   UNL     1      13.936   0.927 -12.545  1.00  0.00     0.037 A 
ATOM     55  C   UNL     1      17.943   0.527  -7.068  1.00  0.00     0.049 A 
ATOM     56  C   UNL     1      15.383   0.731 -12.271  1.00  0.00     0.074 A 
ATOM     57  C   UNL     1      18.230   1.778  -6.558  1.00  0.00     0.029 A 
ATOM     58  N   UNL     1      18.309   0.575  -8.395  1.00  0.00    -0.354 N 
ATOM     59  N   UNL     1      16.219   1.720 -12.078  1.00  0.00    -0.248 NA
ATOM     60  C   UNL     1      15.811  -0.549 -11.728  1.00  0.00     0.031 C 
ATOM     61  C   UNL     1      18.265   2.637  -7.696  1.00  0.00     0.029 A 
ATOM     62  C   UNL     1      18.074   1.854  -8.838  1.00  0.00     0.049 A 
ATOM     63  H   UNL     1      18.672  -0.170  -8.928  1.00  0.00     0.167 HD
ATOM     64  C   UNL     1      17.045   1.301 -11.042  1.00  0.00     0.074 A 
ATOM     65  C   UNL     1      16.818  -0.141 -10.948  1.00  0.00     0.031 C 
ATOM     66  C   UNL     1      17.621   2.191 -10.175  1.00  0.00     0.037 A 
BRANCH  53  67
ATOM     67  C   UNL     1      17.649  -1.985  -6.627  1.00  0.00     0.058 A 
ATOM     68  C   UNL     1      19.030  -2.196  -6.412  1.00  0.00     0.135 A 
ATOM     69  C   UNL     1      16.923  -3.114  -7.057  1.00  0.00     0.135 A 
ATOM     70  F   UNL     1      19.818  -1.192  -5.994  1.00  0.00    -0.206 F 
ATOM     71  C   UNL     1      19.656  -3.413  -6.682  1.00  0.00     0.059 A 
ATOM     72  C   UNL     1      17.518  -4.355  -7.279  1.00  0.00     0.059 A 
ATOM     73  F   UNL     1      15.626  -3.040  -7.376  1.00  0.00    -0.206 F 
ATOM     74  C   UNL     1      18.892  -4.482  -7.137  1.00  0.00     0.060 A 
BRANCH  74  75
ATOM     75  S   UNL     1      19.716  -6.012  -7.620  1.00  0.00     0.124 S 
ATOM     76  O   UNL     1      20.381  -5.605  -8.853  1.00  0.00    -0.237 OA
ATOM     77  O   UNL     1      20.588  -6.266  -6.478  1.00  0.00    -0.237 OA
ATOM     78  O   UNL     1      18.611  -6.952  -7.779  1.00  0.00    -0.744 OA
ENDBRANCH  74  75
ENDBRANCH  53  67
BRANCH  54  79
ATOM     79  C   UNL     1      13.165   0.311 -13.651  1.00  0.00     0.058 A 
ATOM     80  C   UNL     1      13.788  -0.059 -14.851  1.00  0.00     0.135 A 
ATOM     81  C   UNL     1      11.844  -0.156 -13.462  1.00  0.00     0.135 A 
ATOM     82  F   UNL     1      15.045   0.334 -15.105  1.00  0.00    -0.206 F 
ATOM     83  C   UNL     1      13.165  -0.894 -15.782  1.00  0.00     0.059 A 
ATOM     84  C   UNL     1      11.197  -0.976 -14.383  1.00  0.00     0.059 A 
ATOM     85  F   UNL     1      11.170   0.097 -12.329  1.00  0.00    -0.206 F 
ATOM     86  C   UNL     1      11.877  -1.368 -15.527  1.00  0.00     0.060 A 
BRANCH  86  87
ATOM     87  S   UNL     1      11.156  -2.614 -16.621  1.00  0.00     0.124 S 
ATOM     88  O   UNL     1      10.868  -1.832 -17.818  1.00  0.00    -0.237 OA
ATOM     89  O   UNL     1      12.240  -3.583 -16.735  1.00  0.00    -0.237 OA
ATOM     90  O   UNL     1       9.987  -3.078 -15.878  1.00  0.00    -0.744 OA
ENDBRANCH  86  87
ENDBRANCH  54  79
BRANCH  66  91
ATOM     91  C   UNL     1      17.562   3.667 -10.505  1.00  0.00     0.058 A 
ATOM     92  C   UNL     1      16.372   4.413 -10.570  1.00  0.00     0.135 A 
ATOM     93  C   UNL     1      18.760   4.395 -10.571  1.00  0.00     0.135 A 
ATOM     94  F   UNL     1      15.183   3.828 -10.411  1.00  0.00    -0.206 F 
ATOM     95  C   UNL     1      16.364   5.800 -10.727  1.00  0.00     0.059 A 
ATOM     96  C   UNL     1      18.780   5.785 -10.698  1.00  0.00     0.059 A 
ATOM     97  F   UNL     1      19.937   3.760 -10.448  1.00  0.00    -0.206 F 
ATOM     98  C   UNL     1      17.576   6.480 -10.787  1.00  0.00     0.060 A 
BRANCH  98  99
ATOM     99  S   UNL     1      17.558   8.282 -10.899  1.00  0.00     0.124 S 
ATOM    100  O   UNL     1      17.163   8.499 -12.286  1.00  0.00    -0.237 OA
ATOM    101  O   UNL     1      16.567   8.656  -9.893  1.00  0.00    -0.237 OA
ATOM    102  O   UNL     1      18.932   8.656 -10.574  1.00  0.00    -0.744 OA
ENDBRANCH  98  99
ENDBRANCH  66  91
ENDBRANCH  40  41
ENDBRANCH  32  35
ENDBRANCH  30  31
ENDBRANCH   1  30
TORSDOF 16
