REMARK SMILES CCC[C@H](Oc1ccccc1C)C(=O)NCCCNC(=O)c1ccc(-c2c3nc(c(-c4c(F)cc(S(=O)(=O)[O-])cc4F)c4ccc([nH]4)c(-c4c(F)cc(S(=O)(=O)[O-])cc4F)c4nc(c(-c5c(F)cc(S(=O)(=O)[O-])cc5F)c5ccc2[nH]5)C=C4)C=C3)cc1
REMARK SMILES IDX 17 1 16 2 15 3 13 4 14 5 4 7 3 8 2 9 1 10 5 11 6 12 7 13
REMARK SMILES IDX 11 14 8 15 10 16 12 17 9 18 18 19 19 20 20 21 21 23 22 24
REMARK SMILES IDX 23 25 87 26 24 27 86 28 25 29 26 30 27 31 80 32 28 33 85 34
REMARK SMILES IDX 79 35 81 36 29 37 84 38 78 39 77 40 30 42 64 43 43 44 63 45
REMARK SMILES IDX 44 46 47 47 62 48 82 49 45 50 46 51 61 53 83 54 48 55 31 56
REMARK SMILES IDX 32 57 41 58 33 59 34 60 40 61 42 62 35 63 36 64 37 65 38 66
REMARK SMILES IDX 39 67 65 68 66 69 75 70 67 71 68 72 74 73 76 74 69 75 70 76
REMARK SMILES IDX 71 77 72 78 73 79 49 80 50 81 59 82 51 83 52 84 58 85 60 86
REMARK SMILES IDX 53 87 54 88 55 89 56 90 57 91
REMARK H PARENT 15 6 19 22 81 41 47 52
REMARK Flexibility Score: inf
ROOT
ATOM      1  C   UNL     1       0.038   2.625   4.952  1.00  0.00     0.042 C 
ENDROOT
BRANCH   1   2
ATOM      2  C   UNL     1      -0.693   3.423   3.887  1.00  0.00     0.118 C 
BRANCH   2   3
ATOM      3  N   UNL     1       0.225   4.106   2.981  1.00  0.00    -0.353 N 
ATOM      4  C   UNL     1       0.674   3.742   1.741  1.00  0.00     0.261 C 
ATOM      5  O   UNL     1       1.496   4.475   1.182  1.00  0.00    -0.271 OA
ATOM      6  H   UNL     1       0.576   4.963   3.314  1.00  0.00     0.163 HD
BRANCH   4   7
ATOM      7  C   UNL     1       0.131   2.493   1.017  1.00  0.00     0.261 C 
BRANCH   7   8
ATOM      8  C   UNL     1      -1.352   2.697   0.636  1.00  0.00     0.055 C 
BRANCH   8   9
ATOM      9  C   UNL     1      -1.611   3.842  -0.347  1.00  0.00     0.001 C 
ATOM     10  C   UNL     1      -1.036   3.594  -1.731  1.00  0.00     0.004 C 
ENDBRANCH   8   9
ENDBRANCH   7   8
BRANCH   7  11
ATOM     11  O   UNL     1       0.360   1.375   1.885  1.00  0.00    -0.480 OA
BRANCH  11  12
ATOM     12  C   UNL     1       0.353   0.097   1.395  1.00  0.00     0.123 A 
ATOM     13  C   UNL     1      -0.067  -0.271   0.115  1.00  0.00     0.047 A 
ATOM     14  C   UNL     1       0.751  -0.909   2.298  1.00  0.00    -0.009 A 
ATOM     15  C   UNL     1      -0.209  -1.619  -0.227  1.00  0.00     0.004 A 
ATOM     16  C   UNL     1       0.596  -2.259   1.947  1.00  0.00     0.007 A 
ATOM     17  C   UNL     1       1.341  -0.568   3.638  1.00  0.00     0.048 C 
ATOM     18  C   UNL     1       0.098  -2.612   0.696  1.00  0.00     0.001 A 
ENDBRANCH  11  12
ENDBRANCH   7  11
ENDBRANCH   4   7
ENDBRANCH   2   3
ENDBRANCH   1   2
BRANCH   1  19
ATOM     19  C   UNL     1       0.505   3.479   6.116  1.00  0.00     0.118 C 
BRANCH  19  20
ATOM     20  N   UNL     1      -0.453   3.562   7.206  1.00  0.00    -0.352 N 
ATOM     21  C   UNL     1      -0.150   3.891   8.520  1.00  0.00     0.251 C 
ATOM     22  H   UNL     1      -1.395   3.369   6.994  1.00  0.00     0.163 HD
ATOM     23  O   UNL     1      -0.745   3.426   9.474  1.00  0.00    -0.269 OA
BRANCH  21  24
ATOM     24  C   UNL     1       0.824   4.992   8.691  1.00  0.00     0.039 A 
ATOM     25  C   UNL     1       0.336   6.238   9.104  1.00  0.00     0.014 A 
ATOM     26  C   UNL     1       2.111   4.860   8.185  1.00  0.00     0.014 A 
ATOM     27  C   UNL     1       1.095   7.385   8.867  1.00  0.00     0.010 A 
ATOM     28  C   UNL     1       2.804   6.003   7.847  1.00  0.00     0.010 A 
ATOM     29  C   UNL     1       2.295   7.271   8.167  1.00  0.00    -0.014 A 
BRANCH  29  30
ATOM     30  C   UNL     1       3.058   8.395   7.633  1.00  0.00     0.031 A 
ATOM     31  C   UNL     1       4.438   8.675   8.114  1.00  0.00     0.074 A 
ATOM     32  C   UNL     1       2.585   9.096   6.577  1.00  0.00     0.049 A 
ATOM     33  N   UNL     1       5.051   9.796   7.925  1.00  0.00    -0.248 NA
ATOM     34  C   UNL     1       5.237   7.714   8.875  1.00  0.00     0.031 C 
ATOM     35  C   UNL     1       3.370   9.915   5.657  1.00  0.00     0.029 A 
ATOM     36  N   UNL     1       1.265   9.342   6.209  1.00  0.00    -0.354 N 
ATOM     37  C   UNL     1       6.370   9.613   8.263  1.00  0.00     0.074 A 
ATOM     38  C   UNL     1       6.429   8.318   8.897  1.00  0.00     0.031 C 
ATOM     39  C   UNL     1       2.549  10.738   4.989  1.00  0.00     0.029 A 
ATOM     40  C   UNL     1       1.225  10.590   5.560  1.00  0.00     0.049 A 
ATOM     41  H   UNL     1       0.497   8.749   6.373  1.00  0.00     0.167 HD
ATOM     42  C   UNL     1       7.311  10.512   7.865  1.00  0.00     0.037 A 
ATOM     43  C   UNL     1       0.474  11.626   6.041  1.00  0.00     0.037 A 
ATOM     44  C   UNL     1       6.733  11.618   7.118  1.00  0.00     0.049 A 
ATOM     45  C   UNL     1       1.273  12.846   6.441  1.00  0.00     0.074 A 
ATOM     46  C   UNL     1       6.591  11.865   5.762  1.00  0.00     0.029 A 
ATOM     47  N   UNL     1       5.915  12.531   7.771  1.00  0.00    -0.354 N 
ATOM     48  N   UNL     1       2.570  12.855   6.573  1.00  0.00    -0.248 NA
ATOM     49  C   UNL     1       0.684  14.149   6.743  1.00  0.00     0.031 C 
ATOM     50  C   UNL     1       5.647  12.907   5.599  1.00  0.00     0.029 A 
ATOM     51  C   UNL     1       5.226  13.302   6.856  1.00  0.00     0.049 A 
ATOM     52  H   UNL     1       5.837  12.616   8.749  1.00  0.00     0.167 HD
ATOM     53  C   UNL     1       2.989  14.086   7.011  1.00  0.00     0.074 A 
ATOM     54  C   UNL     1       1.772  14.873   7.066  1.00  0.00     0.031 C 
ATOM     55  C   UNL     1       4.302  14.335   7.300  1.00  0.00     0.037 A 
BRANCH  42  56
ATOM     56  C   UNL     1       8.784  10.215   7.946  1.00  0.00     0.058 A 
ATOM     57  C   UNL     1       9.648  10.502   6.870  1.00  0.00     0.135 A 
ATOM     58  C   UNL     1       9.388   9.606   9.063  1.00  0.00     0.135 A 
ATOM     59  F   UNL     1       9.207  11.105   5.758  1.00  0.00    -0.206 F 
ATOM     60  C   UNL     1      10.997  10.150   6.872  1.00  0.00     0.059 A 
ATOM     61  C   UNL     1      10.726   9.201   9.070  1.00  0.00     0.059 A 
ATOM     62  F   UNL     1       8.685   9.384  10.186  1.00  0.00    -0.206 F 
ATOM     63  C   UNL     1      11.524   9.476   7.966  1.00  0.00     0.060 A 
BRANCH  63  64
ATOM     64  S   UNL     1      13.243   8.936   7.898  1.00  0.00     0.124 S 
ATOM     65  O   UNL     1      13.319   8.302   6.584  1.00  0.00    -0.237 OA
ATOM     66  O   UNL     1      13.963  10.197   8.036  1.00  0.00    -0.237 OA
ATOM     67  O   UNL     1      13.355   8.020   9.030  1.00  0.00    -0.744 OA
ENDBRANCH  63  64
ENDBRANCH  42  56
BRANCH  43  68
ATOM     68  C   UNL     1      -0.808  11.174   6.646  1.00  0.00     0.058 A 
ATOM     69  C   UNL     1      -1.777  10.661   5.763  1.00  0.00     0.135 A 
ATOM     70  C   UNL     1      -0.863  10.759   7.985  1.00  0.00     0.135 A 
ATOM     71  F   UNL     1      -1.788  11.056   4.479  1.00  0.00    -0.206 F 
ATOM     72  C   UNL     1      -2.621   9.621   6.133  1.00  0.00     0.059 A 
ATOM     73  C   UNL     1      -1.710   9.723   8.381  1.00  0.00     0.059 A 
ATOM     74  F   UNL     1       0.024  11.229   8.874  1.00  0.00    -0.206 F 
ATOM     75  C   UNL     1      -2.513   9.102   7.421  1.00  0.00     0.060 A 
BRANCH  75  76
ATOM     76  S   UNL     1      -3.280   7.496   7.754  1.00  0.00     0.124 S 
ATOM     77  O   UNL     1      -4.641   7.696   7.270  1.00  0.00    -0.237 OA
ATOM     78  O   UNL     1      -2.451   6.598   6.950  1.00  0.00    -0.237 OA
ATOM     79  O   UNL     1      -3.139   7.353   9.198  1.00  0.00    -0.744 OA
ENDBRANCH  75  76
ENDBRANCH  43  68
BRANCH  55  80
ATOM     80  C   UNL     1       4.877  15.577   7.948  1.00  0.00     0.058 A 
ATOM     81  C   UNL     1       4.178  16.400   8.846  1.00  0.00     0.135 A 
ATOM     82  C   UNL     1       6.250  15.894   7.779  1.00  0.00     0.135 A 
ATOM     83  F   UNL     1       2.903  16.150   9.173  1.00  0.00    -0.206 F 
ATOM     84  C   UNL     1       4.778  17.488   9.488  1.00  0.00     0.059 A 
ATOM     85  C   UNL     1       6.881  16.938   8.451  1.00  0.00     0.059 A 
ATOM     86  F   UNL     1       7.039  15.184   6.957  1.00  0.00    -0.206 F 
ATOM     87  C   UNL     1       6.131  17.747   9.288  1.00  0.00     0.060 A 
BRANCH  87  88
ATOM     88  S   UNL     1       6.938  19.098  10.168  1.00  0.00     0.124 S 
ATOM     89  O   UNL     1       6.866  20.172   9.183  1.00  0.00    -0.237 OA
ATOM     90  O   UNL     1       6.097  19.270  11.349  1.00  0.00    -0.237 OA
ATOM     91  O   UNL     1       8.272  18.567  10.432  1.00  0.00    -0.744 OA
ENDBRANCH  87  88
ENDBRANCH  55  80
ENDBRANCH  29  30
ENDBRANCH  21  24
ENDBRANCH  19  20
ENDBRANCH   1  19
TORSDOF 17
