REMARK SMILES COc1ccc(/C=C/c2cc(OC)cc(OC)c2/C=C/C(=O)NCCCNC(=O)c2ccc(-c3c4nc(c(-c5c(F)cc(S(=O)(=O)[O-])cc5F)c5ccc([nH]5)c(-c5c(F)cc(S(=O)(=O)[O-])cc5F)c5nc(c(-c6c(F)cc(S(=O)(=O)[O-])cc6F)c6ccc3[nH]6)C=C5)C=C4)cc2)cc1
REMARK SMILES IDX 24 1 23 2 21 3 22 4 20 6 19 7 18 8 9 9 10 10 11 11 15 12
REMARK SMILES IDX 14 13 8 14 7 15 6 16 3 17 4 18 97 19 5 20 96 21 2 22 1 23
REMARK SMILES IDX 12 24 13 25 16 26 17 27 25 28 26 29 27 30 28 31 29 33 30 34
REMARK SMILES IDX 31 35 95 36 32 37 94 38 33 39 34 40 35 41 88 42 36 43 93 44
REMARK SMILES IDX 87 45 89 46 37 47 92 48 86 49 85 50 38 52 72 53 51 54 71 55
REMARK SMILES IDX 52 56 55 57 70 58 90 59 53 60 54 61 69 63 91 64 56 65 39 66
REMARK SMILES IDX 40 67 49 68 41 69 42 70 48 71 50 72 43 73 44 74 45 75 46 76
REMARK SMILES IDX 47 77 73 78 74 79 83 80 75 81 76 82 82 83 84 84 77 85 78 86
REMARK SMILES IDX 79 87 80 88 81 89 57 90 58 91 67 92 59 93 60 94 66 95 68 96
REMARK SMILES IDX 61 97 62 98 63 99 64 100 65 101
REMARK H PARENT 23 5 27 32 89 51 55 62
REMARK Flexibility Score: inf
ROOT
ATOM      1  C   UNL     1       4.287   2.324  -5.124  1.00  0.00     0.118 C 
ENDROOT
BRANCH   1   2
ATOM      2  N   UNL     1       5.351   2.468  -6.096  1.00  0.00    -0.352 N 
ATOM      3  C   UNL     1       5.791   3.619  -6.670  1.00  0.00     0.244 C 
ATOM      4  O   UNL     1       6.785   3.639  -7.389  1.00  0.00    -0.270 OA
ATOM      5  H   UNL     1       5.806   1.640  -6.372  1.00  0.00     0.163 HD
BRANCH   3   6
ATOM      6  C   UNL     1       5.067   4.869  -6.373  1.00  0.00     0.072 C 
ATOM      7  C   UNL     1       3.872   5.085  -6.942  1.00  0.00     0.018 C 
BRANCH   7   8
ATOM      8  C   UNL     1       3.166   6.371  -6.839  1.00  0.00     0.024 A 
ATOM      9  C   UNL     1       1.996   6.434  -6.026  1.00  0.00    -0.011 A 
ATOM     10  C   UNL     1       1.256   7.625  -5.944  1.00  0.00     0.055 A 
ATOM     11  C   UNL     1       1.637   8.753  -6.662  1.00  0.00     0.123 A 
ATOM     12  C   UNL     1       3.561   7.528  -7.546  1.00  0.00     0.130 A 
ATOM     13  C   UNL     1       2.792   8.701  -7.434  1.00  0.00     0.093 A 
BRANCH   9  14
ATOM     14  C   UNL     1       1.454   5.280  -5.277  1.00  0.00     0.009 C 
ATOM     15  C   UNL     1       1.896   4.921  -4.060  1.00  0.00     0.009 C 
BRANCH  15  16
ATOM     16  C   UNL     1       1.425   3.742  -3.303  1.00  0.00    -0.025 A 
ATOM     17  C   UNL     1       0.666   1.417  -1.875  1.00  0.00     0.118 A 
ATOM     18  C   UNL     1      -0.207   2.011  -2.786  1.00  0.00     0.047 A 
ATOM     19  C   UNL     1       1.923   1.982  -1.677  1.00  0.00     0.047 A 
ATOM     20  C   UNL     1       0.161   3.168  -3.486  1.00  0.00     0.012 A 
ATOM     21  C   UNL     1       2.291   3.144  -2.373  1.00  0.00     0.012 A 
BRANCH  17  22
ATOM     22  O   UNL     1       0.191   0.289  -1.266  1.00  0.00    -0.497 OA
ATOM     23  C   UNL     1       0.840  -0.097  -0.060  1.00  0.00     0.278 C 
ENDBRANCH  17  22
ENDBRANCH  15  16
ENDBRANCH   9  14
BRANCH  11  24
ATOM     24  O   UNL     1       0.817   9.841  -6.539  1.00  0.00    -0.497 OA
ATOM     25  C   UNL     1       0.953  10.840  -7.546  1.00  0.00     0.278 C 
ENDBRANCH  11  24
BRANCH  12  26
ATOM     26  O   UNL     1       4.609   7.747  -8.399  1.00  0.00    -0.496 OA
ATOM     27  C   UNL     1       5.489   6.720  -8.815  1.00  0.00     0.278 C 
ENDBRANCH  12  26
ENDBRANCH   7   8
ENDBRANCH   3   6
ENDBRANCH   1   2
BRANCH   1  28
ATOM     28  C   UNL     1       3.152   1.456  -5.641  1.00  0.00     0.042 C 
BRANCH  28  29
ATOM     29  C   UNL     1       3.477  -0.028  -5.590  1.00  0.00     0.118 C 
BRANCH  29  30
ATOM     30  N   UNL     1       3.686  -0.504  -4.226  1.00  0.00    -0.352 N 
ATOM     31  C   UNL     1       3.028  -1.493  -3.535  1.00  0.00     0.251 C 
ATOM     32  H   UNL     1       4.403  -0.049  -3.728  1.00  0.00     0.163 HD
ATOM     33  O   UNL     1       3.213  -1.632  -2.333  1.00  0.00    -0.269 OA
BRANCH  31  34
ATOM     34  C   UNL     1       2.110  -2.388  -4.268  1.00  0.00     0.039 A 
ATOM     35  C   UNL     1       0.855  -2.682  -3.731  1.00  0.00     0.014 A 
ATOM     36  C   UNL     1       2.501  -2.927  -5.496  1.00  0.00     0.014 A 
ATOM     37  C   UNL     1      -0.033  -3.480  -4.457  1.00  0.00     0.010 A 
ATOM     38  C   UNL     1       1.587  -3.641  -6.255  1.00  0.00     0.010 A 
ATOM     39  C   UNL     1       0.318  -3.942  -5.736  1.00  0.00    -0.014 A 
BRANCH  39  40
ATOM     40  C   UNL     1      -0.586  -4.787  -6.554  1.00  0.00     0.031 A 
ATOM     41  C   UNL     1      -0.138  -6.172  -6.936  1.00  0.00     0.074 A 
ATOM     42  C   UNL     1      -1.734  -4.279  -7.042  1.00  0.00     0.049 A 
ATOM     43  N   UNL     1      -0.655  -7.001  -7.803  1.00  0.00    -0.248 NA
ATOM     44  C   UNL     1       1.088  -6.670  -6.287  1.00  0.00     0.031 C 
ATOM     45  C   UNL     1      -2.252  -2.936  -6.771  1.00  0.00     0.029 A 
ATOM     46  N   UNL     1      -2.660  -4.825  -7.894  1.00  0.00    -0.354 N 
ATOM     47  C   UNL     1       0.201  -8.096  -7.834  1.00  0.00     0.074 A 
ATOM     48  C   UNL     1       1.295  -7.807  -6.934  1.00  0.00     0.031 C 
ATOM     49  C   UNL     1      -3.406  -2.767  -7.437  1.00  0.00     0.029 A 
ATOM     50  C   UNL     1      -3.687  -3.970  -8.216  1.00  0.00     0.049 A 
ATOM     51  H   UNL     1      -2.596  -5.744  -8.242  1.00  0.00     0.167 HD
ATOM     52  C   UNL     1       0.075  -9.247  -8.535  1.00  0.00     0.037 A 
ATOM     53  C   UNL     1      -4.726  -4.132  -9.059  1.00  0.00     0.037 A 
ATOM     54  C   UNL     1      -1.047  -9.543  -9.384  1.00  0.00     0.049 A 
ATOM     55  C   UNL     1      -4.865  -5.433  -9.803  1.00  0.00     0.074 A 
ATOM     56  C   UNL     1      -1.309 -10.703 -10.091  1.00  0.00     0.029 A 
ATOM     57  N   UNL     1      -2.101  -8.675  -9.630  1.00  0.00    -0.354 N 
ATOM     58  N   UNL     1      -4.068  -6.476  -9.792  1.00  0.00    -0.248 NA
ATOM     59  C   UNL     1      -6.042  -5.585 -10.670  1.00  0.00     0.031 C 
ATOM     60  C   UNL     1      -2.508 -10.525 -10.787  1.00  0.00     0.029 A 
ATOM     61  C   UNL     1      -3.014  -9.271 -10.481  1.00  0.00     0.049 A 
ATOM     62  H   UNL     1      -2.186  -7.769  -9.254  1.00  0.00     0.167 HD
ATOM     63  C   UNL     1      -4.666  -7.420 -10.619  1.00  0.00     0.074 A 
ATOM     64  C   UNL     1      -5.889  -6.825 -11.117  1.00  0.00     0.031 C 
ATOM     65  C   UNL     1      -4.242  -8.668 -10.935  1.00  0.00     0.037 A 
BRANCH  52  66
ATOM     66  C   UNL     1       1.170 -10.269  -8.403  1.00  0.00     0.058 A 
ATOM     67  C   UNL     1       1.367 -10.989  -7.214  1.00  0.00     0.135 A 
ATOM     68  C   UNL     1       2.021 -10.547  -9.485  1.00  0.00     0.135 A 
ATOM     69  F   UNL     1       0.594 -10.751  -6.142  1.00  0.00    -0.206 F 
ATOM     70  C   UNL     1       2.390 -11.923  -7.090  1.00  0.00     0.059 A 
ATOM     71  C   UNL     1       3.032 -11.499  -9.393  1.00  0.00     0.059 A 
ATOM     72  F   UNL     1       1.877  -9.888 -10.645  1.00  0.00    -0.206 F 
ATOM     73  C   UNL     1       3.220 -12.169  -8.185  1.00  0.00     0.060 A 
BRANCH  73  74
ATOM     74  S   UNL     1       4.543 -13.384  -8.008  1.00  0.00     0.124 S 
ATOM     75  O   UNL     1       5.508 -12.645  -7.199  1.00  0.00    -0.237 OA
ATOM     76  O   UNL     1       3.868 -14.488  -7.335  1.00  0.00    -0.237 OA
ATOM     77  O   UNL     1       4.949 -13.647  -9.385  1.00  0.00    -0.744 OA
ENDBRANCH  73  74
ENDBRANCH  52  66
BRANCH  53  78
ATOM     78  C   UNL     1      -5.727  -3.045  -9.222  1.00  0.00     0.058 A 
ATOM     79  C   UNL     1      -7.018  -3.172  -8.689  1.00  0.00     0.135 A 
ATOM     80  C   UNL     1      -5.412  -1.852  -9.891  1.00  0.00     0.135 A 
ATOM     81  F   UNL     1      -7.369  -4.296  -8.045  1.00  0.00    -0.206 F 
ATOM     82  C   UNL     1      -7.967  -2.164  -8.824  1.00  0.00     0.059 A 
ATOM     83  C   UNL     1      -6.336  -0.819 -10.020  1.00  0.00     0.059 A 
ATOM     84  F   UNL     1      -4.184  -1.672 -10.404  1.00  0.00    -0.206 F 
ATOM     85  C   UNL     1      -7.615  -0.989  -9.490  1.00  0.00     0.060 A 
BRANCH  85  86
ATOM     86  S   UNL     1      -8.839   0.334  -9.617  1.00  0.00     0.124 S 
ATOM     87  O   UNL     1      -9.745  -0.201 -10.626  1.00  0.00    -0.237 OA
ATOM     88  O   UNL     1      -9.364   0.398  -8.256  1.00  0.00    -0.237 OA
ATOM     89  O   UNL     1      -8.043   1.487 -10.028  1.00  0.00    -0.744 OA
ENDBRANCH  85  86
ENDBRANCH  53  78
BRANCH  65  90
ATOM     90  C   UNL     1      -5.127  -9.507 -11.812  1.00  0.00     0.058 A 
ATOM     91  C   UNL     1      -5.202  -9.299 -13.197  1.00  0.00     0.135 A 
ATOM     92  C   UNL     1      -5.824 -10.598 -11.268  1.00  0.00     0.135 A 
ATOM     93  F   UNL     1      -4.560  -8.265 -13.762  1.00  0.00    -0.206 F 
ATOM     94  C   UNL     1      -5.940 -10.148 -14.015  1.00  0.00     0.059 A 
ATOM     95  C   UNL     1      -6.548 -11.472 -12.070  1.00  0.00     0.059 A 
ATOM     96  F   UNL     1      -5.774 -10.842  -9.949  1.00  0.00    -0.206 F 
ATOM     97  C   UNL     1      -6.602 -11.238 -13.444  1.00  0.00     0.060 A 
BRANCH  97  98
ATOM     98  S   UNL     1      -7.490 -12.377 -14.527  1.00  0.00     0.124 S 
ATOM     99  O   UNL     1      -8.678 -11.599 -14.862  1.00  0.00    -0.237 OA
ATOM    100  O   UNL     1      -6.537 -12.581 -15.614  1.00  0.00    -0.237 OA
ATOM    101  O   UNL     1      -7.720 -13.542 -13.678  1.00  0.00    -0.744 OA
ENDBRANCH  97  98
ENDBRANCH  65  90
ENDBRANCH  39  40
ENDBRANCH  31  34
ENDBRANCH  29  30
ENDBRANCH  28  29
ENDBRANCH   1  28
TORSDOF 19
