REMARK SMILES NC(=O)c1ccc(Oc2cccc(C(=O)NCCCNC(=O)c3ccc(-c4c5nc(c(-c6c(F)cc(S(=O)(=O)[O-])cc6F)c6ccc([nH]6)c(-c6c(F)cc(S(=O)(=O)[O-])cc6F)c6nc(c(-c7c(F)cc(S(=O)(=O)[O-])cc7F)c7ccc4[nH]7)C=C6)C=C5)cc3)c2)nc1
REMARK SMILES IDX 18 1 17 2 16 3 14 4 15 5 13 7 9 8 10 9 89 10 11 11 12 12
REMARK SMILES IDX 8 13 7 14 4 15 5 16 91 17 6 18 90 19 2 20 1 21 3 24 19 25
REMARK SMILES IDX 20 26 21 27 22 29 23 30 24 31 88 32 25 33 87 34 26 35 27 36
REMARK SMILES IDX 28 37 81 38 29 39 86 40 80 41 82 42 30 43 85 44 79 45 78 46
REMARK SMILES IDX 31 48 65 49 44 50 64 51 45 52 48 53 63 54 83 55 46 56 47 57
REMARK SMILES IDX 62 59 84 60 49 61 32 62 33 63 42 64 34 65 35 66 41 67 43 68
REMARK SMILES IDX 36 69 37 70 38 71 39 72 40 73 66 74 67 75 76 76 68 77 69 78
REMARK SMILES IDX 75 79 77 80 70 81 71 82 72 83 73 84 74 85 50 86 51 87 60 88
REMARK SMILES IDX 52 89 53 90 59 91 61 92 54 93 55 94 56 95 57 96 58 97
REMARK H PARENT 16 6 1 22 1 23 20 28 82 47 48 58
REMARK Flexibility Score: inf
ROOT
ATOM      1  C   UNL     1       0.814   0.249   7.532  1.00  0.00     0.042 C 
ENDROOT
BRANCH   1   2
ATOM      2  C   UNL     1       2.160   0.659   6.938  1.00  0.00     0.118 C 
BRANCH   2   3
ATOM      3  N   UNL     1       3.205   0.622   7.944  1.00  0.00    -0.352 N 
ATOM      4  C   UNL     1       4.145  -0.314   8.289  1.00  0.00     0.251 C 
ATOM      5  O   UNL     1       4.916  -0.021   9.204  1.00  0.00    -0.269 OA
ATOM      6  H   UNL     1       3.248   1.439   8.493  1.00  0.00     0.163 HD
BRANCH   4   7
ATOM      7  C   UNL     1       4.334  -1.609   7.572  1.00  0.00     0.043 A 
ATOM      8  C   UNL     1       3.712  -3.333   5.991  1.00  0.00     0.130 A 
ATOM      9  C   UNL     1       4.959  -3.939   6.123  1.00  0.00     0.047 A 
ATOM     10  C   UNL     1       3.368  -2.235   6.785  1.00  0.00     0.061 A 
ATOM     11  C   UNL     1       5.897  -3.393   6.994  1.00  0.00     0.005 A 
ATOM     12  C   UNL     1       5.594  -2.220   7.691  1.00  0.00     0.014 A 
BRANCH   8  13
ATOM     13  O   UNL     1       2.834  -3.874   5.082  1.00  0.00    -0.439 OA
BRANCH  13  14
ATOM     14  C   UNL     1       2.260  -3.037   4.143  1.00  0.00     0.219 A 
ATOM     15  C   UNL     1       0.977  -1.557   2.195  1.00  0.00     0.058 A 
ATOM     16  C   UNL     1       2.189  -1.101   2.710  1.00  0.00     0.021 A 
ATOM     17  C   UNL     1       0.464  -2.741   2.706  1.00  0.00     0.129 A 
ATOM     18  C   UNL     1       2.849  -1.860   3.681  1.00  0.00     0.070 A 
ATOM     19  N   UNL     1       1.085  -3.489   3.656  1.00  0.00    -0.221 NA
BRANCH  15  20
ATOM     20  C   UNL     1       0.217  -0.849   1.142  1.00  0.00     0.250 C 
ATOM     21  N   UNL     1       0.916  -0.025   0.302  1.00  0.00    -0.366 N 
ATOM     22  H   UNL     1       0.447   0.464  -0.412  1.00  0.00     0.159 HD
ATOM     23  H   UNL     1       1.889   0.078   0.411  1.00  0.00     0.159 HD
ATOM     24  O   UNL     1      -0.983  -1.015   0.998  1.00  0.00    -0.269 OA
ENDBRANCH  15  20
ENDBRANCH  13  14
ENDBRANCH   8  13
ENDBRANCH   4   7
ENDBRANCH   2   3
ENDBRANCH   1   2
BRANCH   1  25
ATOM     25  C   UNL     1       0.176   1.360   8.363  1.00  0.00     0.118 C 
BRANCH  25  26
ATOM     26  N   UNL     1      -0.198   2.500   7.535  1.00  0.00    -0.352 N 
ATOM     27  C   UNL     1      -1.431   3.050   7.295  1.00  0.00     0.251 C 
ATOM     28  H   UNL     1       0.551   2.945   7.077  1.00  0.00     0.163 HD
ATOM     29  O   UNL     1      -1.564   3.833   6.358  1.00  0.00    -0.269 OA
BRANCH  27  30
ATOM     30  C   UNL     1      -2.584   2.713   8.156  1.00  0.00     0.039 A 
ATOM     31  C   UNL     1      -3.846   2.575   7.574  1.00  0.00     0.014 A 
ATOM     32  C   UNL     1      -2.432   2.585   9.539  1.00  0.00     0.014 A 
ATOM     33  C   UNL     1      -4.947   2.266   8.376  1.00  0.00     0.010 A 
ATOM     34  C   UNL     1      -3.511   2.193  10.323  1.00  0.00     0.010 A 
ATOM     35  C   UNL     1      -4.784   2.046   9.753  1.00  0.00    -0.014 A 
BRANCH  35  36
ATOM     36  C   UNL     1      -5.934   1.673  10.615  1.00  0.00     0.031 A 
ATOM     37  C   UNL     1      -6.359   2.576  11.741  1.00  0.00     0.074 A 
ATOM     38  C   UNL     1      -6.551   0.492  10.422  1.00  0.00     0.049 A 
ATOM     39  N   UNL     1      -7.292   2.394  12.640  1.00  0.00    -0.248 NA
ATOM     40  C   UNL     1      -5.616   3.837  11.897  1.00  0.00     0.031 C 
ATOM     41  C   UNL     1      -6.188  -0.493   9.401  1.00  0.00     0.029 A 
ATOM     42  N   UNL     1      -7.603  -0.088  11.084  1.00  0.00    -0.354 N 
ATOM     43  C   UNL     1      -7.242   3.509  13.470  1.00  0.00     0.074 A 
ATOM     44  C   UNL     1      -6.141   4.326  13.010  1.00  0.00     0.031 C 
ATOM     45  C   UNL     1      -7.013  -1.548   9.495  1.00  0.00     0.029 A 
ATOM     46  C   UNL     1      -7.935  -1.333  10.605  1.00  0.00     0.049 A 
ATOM     47  H   UNL     1      -8.075   0.345  11.831  1.00  0.00     0.167 HD
ATOM     48  C   UNL     1      -8.058   3.836  14.501  1.00  0.00     0.037 A 
ATOM     49  C   UNL     1      -8.869  -2.211  11.021  1.00  0.00     0.037 A 
ATOM     50  C   UNL     1      -9.155   3.015  14.945  1.00  0.00     0.049 A 
ATOM     51  C   UNL     1      -9.764  -1.832  12.168  1.00  0.00     0.074 A 
ATOM     52  C   UNL     1     -10.070   3.270  15.951  1.00  0.00     0.029 A 
ATOM     53  N   UNL     1      -9.482   1.774  14.414  1.00  0.00    -0.354 N 
ATOM     54  N   UNL     1      -9.748  -0.744  12.902  1.00  0.00    -0.248 NA
ATOM     55  C   UNL     1     -10.813  -2.791  12.538  1.00  0.00     0.031 C 
ATOM     56  C   UNL     1     -10.918   2.162  16.061  1.00  0.00     0.029 A 
ATOM     57  C   UNL     1     -10.572   1.242  15.084  1.00  0.00     0.049 A 
ATOM     58  H   UNL     1      -9.008   1.337  13.669  1.00  0.00     0.167 HD
ATOM     59  C   UNL     1     -10.796  -0.876  13.805  1.00  0.00     0.074 A 
ATOM     60  C   UNL     1     -11.435  -2.144  13.514  1.00  0.00     0.031 C 
ATOM     61  C   UNL     1     -11.195  -0.025  14.784  1.00  0.00     0.037 A 
BRANCH  48  62
ATOM     62  C   UNL     1      -7.786   5.136  15.213  1.00  0.00     0.058 A 
ATOM     63  C   UNL     1      -7.962   6.377  14.577  1.00  0.00     0.135 A 
ATOM     64  C   UNL     1      -7.342   5.147  16.545  1.00  0.00     0.135 A 
ATOM     65  F   UNL     1      -8.373   6.431  13.299  1.00  0.00    -0.206 F 
ATOM     66  C   UNL     1      -7.660   7.575  15.216  1.00  0.00     0.059 A 
ATOM     67  C   UNL     1      -7.068   6.336  17.217  1.00  0.00     0.059 A 
ATOM     68  F   UNL     1      -7.160   3.994  17.207  1.00  0.00    -0.206 F 
ATOM     69  C   UNL     1      -7.208   7.544  16.536  1.00  0.00     0.060 A 
BRANCH  69  70
ATOM     70  S   UNL     1      -6.795   9.106  17.341  1.00  0.00     0.124 S 
ATOM     71  O   UNL     1      -5.554   9.464  16.660  1.00  0.00    -0.237 OA
ATOM     72  O   UNL     1      -7.952   9.936  17.025  1.00  0.00    -0.237 OA
ATOM     73  O   UNL     1      -6.655   8.738  18.746  1.00  0.00    -0.744 OA
ENDBRANCH  69  70
ENDBRANCH  48  62
BRANCH  49  74
ATOM     74  C   UNL     1      -9.003  -3.520  10.329  1.00  0.00     0.058 A 
ATOM     75  C   UNL     1     -10.103  -3.799   9.507  1.00  0.00     0.135 A 
ATOM     76  C   UNL     1      -8.003  -4.501  10.437  1.00  0.00     0.135 A 
ATOM     77  F   UNL     1     -11.088  -2.897   9.375  1.00  0.00    -0.206 F 
ATOM     78  C   UNL     1     -10.213  -5.004   8.820  1.00  0.00     0.059 A 
ATOM     79  C   UNL     1      -8.076  -5.702   9.738  1.00  0.00     0.059 A 
ATOM     80  F   UNL     1      -6.920  -4.276  11.197  1.00  0.00    -0.206 F 
ATOM     81  C   UNL     1      -9.189  -5.946   8.936  1.00  0.00     0.060 A 
BRANCH  81  82
ATOM     82  S   UNL     1      -9.309  -7.476   7.983  1.00  0.00     0.124 S 
ATOM     83  O   UNL     1     -10.377  -8.178   8.687  1.00  0.00    -0.237 OA
ATOM     84  O   UNL     1      -9.639  -6.981   6.651  1.00  0.00    -0.237 OA
ATOM     85  O   UNL     1      -7.977  -8.059   8.115  1.00  0.00    -0.744 OA
ENDBRANCH  81  82
ENDBRANCH  49  74
BRANCH  61  86
ATOM     86  C   UNL     1     -12.398  -0.421  15.597  1.00  0.00     0.058 A 
ATOM     87  C   UNL     1     -12.350  -1.467  16.531  1.00  0.00     0.135 A 
ATOM     88  C   UNL     1     -13.602   0.291  15.473  1.00  0.00     0.135 A 
ATOM     89  F   UNL     1     -11.225  -2.185  16.686  1.00  0.00    -0.206 F 
ATOM     90  C   UNL     1     -13.461  -1.811  17.294  1.00  0.00     0.059 A 
ATOM     91  C   UNL     1     -14.716  -0.015  16.248  1.00  0.00     0.059 A 
ATOM     92  F   UNL     1     -13.700   1.308  14.602  1.00  0.00    -0.206 F 
ATOM     93  C   UNL     1     -14.639  -1.077  17.148  1.00  0.00     0.060 A 
BRANCH  93  94
ATOM     94  S   UNL     1     -16.064  -1.515  18.166  1.00  0.00     0.124 S 
ATOM     95  O   UNL     1     -16.489  -2.769  17.553  1.00  0.00    -0.237 OA
ATOM     96  O   UNL     1     -15.473  -1.627  19.496  1.00  0.00    -0.237 OA
ATOM     97  O   UNL     1     -16.973  -0.387  17.983  1.00  0.00    -0.744 OA
ENDBRANCH  93  94
ENDBRANCH  61  86
ENDBRANCH  35  36
ENDBRANCH  27  30
ENDBRANCH  25  26
ENDBRANCH   1  25
TORSDOF 16
