REMARK SMILES CC(=O)Nc1ccc(/C(=C\c2ccc(S(C)(=O)=O)cc2)C(=O)NCCCNC(=O)c2ccc(-c3c4nc(c(-c5c(F)cc(S(=O)(=O)[O-])cc5F)c5ccc([nH]5)c(-c5c(F)cc(S(=O)(=O)[O-])cc5F)c5nc(c(-c6c(F)cc(S(=O)(=O)[O-])cc6F)c6ccc3[nH]6)C=C5)C=C4)cc2)cc1
REMARK SMILES IDX 25 1 24 2 23 3 21 4 22 5 9 7 10 8 8 9 5 10 6 11 97 12 7 13
REMARK SMILES IDX 96 14 4 15 1 16 2 17 3 18 11 20 12 21 20 22 13 23 19 24
REMARK SMILES IDX 14 25 15 26 16 27 17 28 18 29 26 30 27 31 28 32 29 34 30 35
REMARK SMILES IDX 31 36 95 37 32 38 94 39 33 40 34 41 35 42 88 43 36 44 93 45
REMARK SMILES IDX 87 46 89 47 37 48 92 49 86 50 85 51 38 53 72 54 51 55 71 56
REMARK SMILES IDX 52 57 55 58 70 59 90 60 53 61 54 62 69 64 91 65 56 66 39 67
REMARK SMILES IDX 40 68 49 69 41 70 42 71 48 72 50 73 43 74 44 75 45 76 46 77
REMARK SMILES IDX 47 78 73 79 74 80 83 81 75 82 76 83 82 84 84 85 77 86 78 87
REMARK SMILES IDX 79 88 80 89 81 90 57 91 58 92 67 93 59 94 60 95 66 96 68 97
REMARK SMILES IDX 61 98 62 99 63 100 64 101 65 102
REMARK H PARENT 23 6 4 19 27 33 89 52 55 63
REMARK Flexibility Score: inf
ROOT
ATOM      1  C   UNL     1       6.074  -5.846   6.540  1.00  0.00     0.042 C 
ENDROOT
BRANCH   1   2
ATOM      2  C   UNL     1       6.454  -4.364   6.499  1.00  0.00     0.118 C 
BRANCH   2   3
ATOM      3  N   UNL     1       6.360  -3.842   5.149  1.00  0.00    -0.352 N 
ATOM      4  C   UNL     1       5.465  -3.099   4.449  1.00  0.00     0.251 C 
ATOM      5  O   UNL     1       5.828  -2.870   3.292  1.00  0.00    -0.269 OA
ATOM      6  H   UNL     1       7.141  -4.089   4.603  1.00  0.00     0.163 HD
BRANCH   4   7
ATOM      7  C   UNL     1       4.163  -2.525   5.011  1.00  0.00     0.047 C 
ATOM      8  C   UNL     1       3.580  -3.180   6.044  1.00  0.00     0.022 C 
BRANCH   7   9
ATOM      9  C   UNL     1       3.470  -1.387   4.292  1.00  0.00    -0.013 A 
ATOM     10  C   UNL     1       1.816   0.411   2.794  1.00  0.00     0.041 A 
ATOM     11  C   UNL     1       1.804   0.416   4.189  1.00  0.00     0.027 A 
ATOM     12  C   UNL     1       2.764  -0.374   2.163  1.00  0.00     0.027 A 
ATOM     13  C   UNL     1       2.644  -0.444   4.924  1.00  0.00     0.011 A 
ATOM     14  C   UNL     1       3.546  -1.276   2.895  1.00  0.00     0.011 A 
BRANCH  10  15
ATOM     15  N   UNL     1       0.876   1.210   2.121  1.00  0.00    -0.326 N 
ATOM     16  C   UNL     1       0.814   0.119  -0.136  1.00  0.00     0.114 C 
ATOM     17  C   UNL     1       0.429   1.208   0.829  1.00  0.00     0.221 C 
ATOM     18  O   UNL     1      -0.342   2.105   0.473  1.00  0.00    -0.275 OA
ATOM     19  H   UNL     1       0.461   1.900   2.687  1.00  0.00     0.169 HD
ENDBRANCH  10  15
ENDBRANCH   7   9
BRANCH   8  20
ATOM     20  C   UNL     1       2.424  -2.813   6.873  1.00  0.00    -0.025 A 
ATOM     21  C   UNL     1       2.676  -2.339   8.173  1.00  0.00     0.009 A 
ATOM     22  C   UNL     1       1.109  -2.880   6.405  1.00  0.00     0.009 A 
ATOM     23  C   UNL     1       1.631  -1.886   8.978  1.00  0.00     0.021 A 
ATOM     24  C   UNL     1       0.058  -2.421   7.205  1.00  0.00     0.021 A 
ATOM     25  C   UNL     1       0.326  -1.923   8.485  1.00  0.00     0.067 A 
BRANCH  25  26
ATOM     26  S   UNL     1      -0.984  -1.232   9.468  1.00  0.00     0.175 S 
ATOM     27  C   UNL     1      -1.314  -2.485  10.677  1.00  0.00     0.163 C 
ATOM     28  O   UNL     1      -0.439  -0.073  10.148  1.00  0.00    -0.224 OA
ATOM     29  O   UNL     1      -2.153  -1.104   8.617  1.00  0.00    -0.224 OA
ENDBRANCH  25  26
ENDBRANCH   8  20
ENDBRANCH   4   7
ENDBRANCH   2   3
ENDBRANCH   1   2
BRANCH   1  30
ATOM     30  C   UNL     1       7.100  -6.759   5.866  1.00  0.00     0.118 C 
BRANCH  30  31
ATOM     31  N   UNL     1       8.377  -6.747   6.565  1.00  0.00    -0.352 N 
ATOM     32  C   UNL     1       9.017  -7.747   7.253  1.00  0.00     0.251 C 
ATOM     33  H   UNL     1       8.856  -5.887   6.540  1.00  0.00     0.163 HD
ATOM     34  O   UNL     1       9.939  -7.458   8.009  1.00  0.00    -0.269 OA
BRANCH  32  35
ATOM     35  C   UNL     1       8.607  -9.158   7.087  1.00  0.00     0.039 A 
ATOM     36  C   UNL     1       8.608 -10.000   8.203  1.00  0.00     0.014 A 
ATOM     37  C   UNL     1       8.278  -9.669   5.828  1.00  0.00     0.014 A 
ATOM     38  C   UNL     1       8.235 -11.339   8.064  1.00  0.00     0.010 A 
ATOM     39  C   UNL     1       7.833 -10.982   5.705  1.00  0.00     0.010 A 
ATOM     40  C   UNL     1       7.817 -11.835   6.818  1.00  0.00    -0.014 A 
BRANCH  40  41
ATOM     41  C   UNL     1       7.372 -13.243   6.655  1.00  0.00     0.031 A 
ATOM     42  C   UNL     1       8.136 -14.176   5.753  1.00  0.00     0.074 A 
ATOM     43  C   UNL     1       6.245 -13.660   7.265  1.00  0.00     0.049 A 
ATOM     44  N   UNL     1       7.857 -15.407   5.411  1.00  0.00    -0.248 NA
ATOM     45  C   UNL     1       9.360 -13.645   5.131  1.00  0.00     0.031 C 
ATOM     46  C   UNL     1       5.398 -12.836   8.131  1.00  0.00     0.029 A 
ATOM     47  N   UNL     1       5.609 -14.876   7.241  1.00  0.00    -0.354 N 
ATOM     48  C   UNL     1       8.858 -15.792   4.526  1.00  0.00     0.074 A 
ATOM     49  C   UNL     1       9.720 -14.645   4.341  1.00  0.00     0.031 C 
ATOM     50  C   UNL     1       4.366 -13.575   8.570  1.00  0.00     0.029 A 
ATOM     51  C   UNL     1       4.451 -14.908   7.983  1.00  0.00     0.049 A 
ATOM     52  H   UNL     1       5.949 -15.652   6.740  1.00  0.00     0.167 HD
ATOM     53  C   UNL     1       9.054 -16.997   3.940  1.00  0.00     0.037 A 
ATOM     54  C   UNL     1       3.551 -15.896   8.159  1.00  0.00     0.037 A 
ATOM     55  C   UNL     1       8.201 -18.139   4.149  1.00  0.00     0.049 A 
ATOM     56  C   UNL     1       3.784 -17.223   7.488  1.00  0.00     0.074 A 
ATOM     57  C   UNL     1       8.340 -19.420   3.644  1.00  0.00     0.029 A 
ATOM     58  N   UNL     1       7.049 -18.138   4.924  1.00  0.00    -0.354 N 
ATOM     59  N   UNL     1       4.768 -17.587   6.700  1.00  0.00    -0.248 NA
ATOM     60  C   UNL     1       2.789 -18.276   7.733  1.00  0.00     0.031 C 
ATOM     61  C   UNL     1       7.245 -20.179   4.071  1.00  0.00     0.029 A 
ATOM     62  C   UNL     1       6.456 -19.389   4.893  1.00  0.00     0.049 A 
ATOM     63  H   UNL     1       6.705 -17.362   5.422  1.00  0.00     0.167 HD
ATOM     64  C   UNL     1       4.528 -18.920   6.383  1.00  0.00     0.074 A 
ATOM     65  C   UNL     1       3.312 -19.299   7.072  1.00  0.00     0.031 C 
ATOM     66  C   UNL     1       5.251 -19.754   5.596  1.00  0.00     0.037 A 
BRANCH  53  67
ATOM     67  C   UNL     1      10.235 -17.147   3.018  1.00  0.00     0.058 A 
ATOM     68  C   UNL     1      11.555 -17.130   3.499  1.00  0.00     0.135 A 
ATOM     69  C   UNL     1      10.046 -17.351   1.641  1.00  0.00     0.135 A 
ATOM     70  F   UNL     1      11.797 -16.924   4.804  1.00  0.00    -0.206 F 
ATOM     71  C   UNL     1      12.643 -17.279   2.646  1.00  0.00     0.059 A 
ATOM     72  C   UNL     1      11.119 -17.535   0.774  1.00  0.00     0.059 A 
ATOM     73  F   UNL     1       8.807 -17.376   1.126  1.00  0.00    -0.206 F 
ATOM     74  C   UNL     1      12.415 -17.483   1.284  1.00  0.00     0.060 A 
BRANCH  74  75
ATOM     75  S   UNL     1      13.840 -17.684   0.194  1.00  0.00     0.124 S 
ATOM     76  O   UNL     1      14.382 -16.329   0.171  1.00  0.00    -0.237 OA
ATOM     77  O   UNL     1      14.640 -18.674   0.908  1.00  0.00    -0.237 OA
ATOM     78  O   UNL     1      13.248 -18.145  -1.058  1.00  0.00    -0.744 OA
ENDBRANCH  74  75
ENDBRANCH  53  67
BRANCH  54  79
ATOM     79  C   UNL     1       2.359 -15.672   9.021  1.00  0.00     0.058 A 
ATOM     80  C   UNL     1       2.223 -16.330  10.253  1.00  0.00     0.135 A 
ATOM     81  C   UNL     1       1.335 -14.791   8.636  1.00  0.00     0.135 A 
ATOM     82  F   UNL     1       3.172 -17.186  10.664  1.00  0.00    -0.206 F 
ATOM     83  C   UNL     1       1.109 -16.139  11.064  1.00  0.00     0.059 A 
ATOM     84  C   UNL     1       0.226 -14.562   9.443  1.00  0.00     0.059 A 
ATOM     85  F   UNL     1       1.424 -14.122   7.476  1.00  0.00    -0.206 F 
ATOM     86  C   UNL     1       0.116 -15.249  10.651  1.00  0.00     0.060 A 
BRANCH  86  87
ATOM     87  S   UNL     1      -1.304 -14.973  11.732  1.00  0.00     0.124 S 
ATOM     88  O   UNL     1      -2.030 -16.230  11.591  1.00  0.00    -0.237 OA
ATOM     89  O   UNL     1      -0.664 -14.746  13.024  1.00  0.00    -0.237 OA
ATOM     90  O   UNL     1      -1.948 -13.801  11.147  1.00  0.00    -0.744 OA
ENDBRANCH  86  87
ENDBRANCH  54  79
BRANCH  66  91
ATOM     91  C   UNL     1       4.777 -21.177   5.471  1.00  0.00     0.058 A 
ATOM     92  C   UNL     1       3.626 -21.514   4.742  1.00  0.00     0.135 A 
ATOM     93  C   UNL     1       5.521 -22.222   6.042  1.00  0.00     0.135 A 
ATOM     94  F   UNL     1       2.874 -20.553   4.182  1.00  0.00    -0.206 F 
ATOM     95  C   UNL     1       3.216 -22.837   4.604  1.00  0.00     0.059 A 
ATOM     96  C   UNL     1       5.148 -23.553   5.889  1.00  0.00     0.059 A 
ATOM     97  F   UNL     1       6.636 -21.956   6.740  1.00  0.00    -0.206 F 
ATOM     98  C   UNL     1       3.987 -23.850   5.178  1.00  0.00     0.060 A 
BRANCH  98  99
ATOM     99  S   UNL     1       3.464 -25.563   4.957  1.00  0.00     0.124 S 
ATOM    100  O   UNL     1       2.299 -25.631   5.832  1.00  0.00    -0.237 OA
ATOM    101  O   UNL     1       3.186 -25.622   3.525  1.00  0.00    -0.237 OA
ATOM    102  O   UNL     1       4.625 -26.332   5.396  1.00  0.00    -0.744 OA
ENDBRANCH  98  99
ENDBRANCH  66  91
ENDBRANCH  40  41
ENDBRANCH  32  35
ENDBRANCH  30  31
ENDBRANCH   1  30
TORSDOF 17
