REMARK SMILES Cc1ccnc(C(=O)c2[nH]c3ccc(OC(F)(F)F)cc3c2CC(=O)NCCCNC(=O)c2ccc(-c3c4nc(c(-c5c(F)cc(S(=O)(=O)[O-])cc5F)c5ccc([nH]5)c(-c5c(F)cc(S(=O)(=O)[O-])cc5F)c5nc(c(-c6c(F)cc(S(=O)(=O)[O-])cc6F)c6ccc3[nH]6)C=C5)C=C4)cc2)c1
REMARK SMILES IDX 28 1 27 2 26 3 24 4 25 5 23 7 22 8 9 9 10 10 11 11 21 13
REMARK SMILES IDX 12 14 20 15 13 16 14 17 7 18 8 19 6 20 1 21 2 22 3 23 99 24
REMARK SMILES IDX 4 25 5 26 15 27 16 28 17 29 18 30 19 31 29 32 30 33 31 34
REMARK SMILES IDX 32 36 33 37 34 38 98 39 35 40 97 41 36 42 37 43 38 44 91 45
REMARK SMILES IDX 39 46 96 47 90 48 92 49 40 50 95 51 89 52 88 53 41 55 75 56
REMARK SMILES IDX 54 57 74 58 55 59 58 60 73 61 93 62 56 63 57 64 72 66 94 67
REMARK SMILES IDX 59 68 42 69 43 70 52 71 44 72 45 73 51 74 53 75 46 76 47 77
REMARK SMILES IDX 48 78 49 79 50 80 76 81 77 82 86 83 78 84 79 85 85 86 87 87
REMARK SMILES IDX 80 88 81 89 82 90 83 91 84 92 60 93 61 94 70 95 62 96 63 97
REMARK SMILES IDX 69 98 71 99 64 100 65 101 66 102 67 103 68 104
REMARK H PARENT 26 6 10 12 30 35 92 54 58 65
REMARK Flexibility Score: inf
ROOT
ATOM      1  C   UNL     1       3.285  -7.115  -0.542  1.00  0.00     0.042 C 
ENDROOT
BRANCH   1   2
ATOM      2  C   UNL     1       3.551  -7.002   0.957  1.00  0.00     0.117 C 
BRANCH   2   3
ATOM      3  N   UNL     1       4.031  -5.698   1.371  1.00  0.00    -0.356 N 
ATOM      4  C   UNL     1       3.358  -4.670   1.966  1.00  0.00     0.224 C 
ATOM      5  O   UNL     1       4.015  -3.723   2.408  1.00  0.00    -0.275 OA
ATOM      6  H   UNL     1       4.986  -5.529   1.198  1.00  0.00     0.163 HD
BRANCH   4   7
ATOM      7  C   UNL     1       1.858  -4.743   2.191  1.00  0.00     0.138 C 
BRANCH   7   8
ATOM      8  C   UNL     1       1.022  -4.793   0.945  1.00  0.00    -0.002 A 
ATOM      9  C   UNL     1       0.981  -3.864  -0.091  1.00  0.00     0.093 A 
ATOM     10  N   UNL     1       0.118  -4.348  -1.048  1.00  0.00    -0.352 N 
ATOM     11  C   UNL     1      -0.479  -5.507  -0.619  1.00  0.00     0.046 A 
ATOM     12  H   UNL     1      -0.048  -3.922  -1.920  1.00  0.00     0.167 HD
ATOM     13  C   UNL     1       0.054  -5.806   0.630  1.00  0.00     0.008 A 
ATOM     14  C   UNL     1      -1.431  -6.315  -1.249  1.00  0.00     0.030 A 
ATOM     15  C   UNL     1      -0.403  -6.969   1.286  1.00  0.00     0.057 A 
ATOM     16  C   UNL     1      -1.862  -7.466  -0.577  1.00  0.00     0.049 A 
ATOM     17  C   UNL     1      -1.359  -7.797   0.680  1.00  0.00     0.130 A 
BRANCH   9  18
ATOM     18  C   UNL     1       1.734  -2.632  -0.261  1.00  0.00     0.227 C 
ATOM     19  O   UNL     1       2.950  -2.653  -0.427  1.00  0.00    -0.285 OA
BRANCH  18  20
ATOM     20  C   UNL     1       0.976  -1.325  -0.263  1.00  0.00     0.113 A 
ATOM     21  C   UNL     1      -2.470   0.116   0.417  1.00  0.00     0.044 C 
ATOM     22  C   UNL     1      -1.023  -0.014   0.045  1.00  0.00    -0.047 A 
ATOM     23  C   UNL     1      -0.292   1.110  -0.338  1.00  0.00     0.023 A 
ATOM     24  C   UNL     1      -0.370  -1.250   0.101  1.00  0.00     0.036 A 
ATOM     25  C   UNL     1       1.043   0.953  -0.669  1.00  0.00     0.112 A 
ATOM     26  N   UNL     1       1.686  -0.232  -0.646  1.00  0.00    -0.253 NA
ENDBRANCH  18  20
ENDBRANCH   9  18
BRANCH  17  27
ATOM     27  O   UNL     1      -1.700  -8.888   1.430  1.00  0.00    -0.406 OA
BRANCH  27  28
ATOM     28  C   UNL     1      -2.653  -9.789   0.893  1.00  0.00     0.573 C 
ATOM     29  F   UNL     1      -3.839  -9.178   0.690  1.00  0.00    -0.132 F 
ATOM     30  F   UNL     1      -2.213 -10.336  -0.258  1.00  0.00    -0.132 F 
ATOM     31  F   UNL     1      -2.846 -10.787   1.786  1.00  0.00    -0.132 F 
ENDBRANCH  27  28
ENDBRANCH  17  27
ENDBRANCH   7   8
ENDBRANCH   4   7
ENDBRANCH   2   3
ENDBRANCH   1   2
BRANCH   1  32
ATOM     32  C   UNL     1       4.510  -6.920  -1.433  1.00  0.00     0.118 C 
BRANCH  32  33
ATOM     33  N   UNL     1       5.493  -7.981  -1.272  1.00  0.00    -0.352 N 
ATOM     34  C   UNL     1       5.994  -8.879  -2.182  1.00  0.00     0.251 C 
ATOM     35  H   UNL     1       5.859  -8.069  -0.362  1.00  0.00     0.163 HD
ATOM     36  O   UNL     1       6.686  -9.811  -1.778  1.00  0.00    -0.269 OA
BRANCH  34  37
ATOM     37  C   UNL     1       5.706  -8.759  -3.631  1.00  0.00     0.039 A 
ATOM     38  C   UNL     1       5.426  -9.926  -4.353  1.00  0.00     0.014 A 
ATOM     39  C   UNL     1       5.786  -7.534  -4.301  1.00  0.00     0.014 A 
ATOM     40  C   UNL     1       5.173  -9.861  -5.726  1.00  0.00     0.010 A 
ATOM     41  C   UNL     1       5.503  -7.464  -5.668  1.00  0.00     0.010 A 
ATOM     42  C   UNL     1       5.191  -8.626  -6.390  1.00  0.00    -0.014 A 
BRANCH  42  43
ATOM     43  C   UNL     1       4.890  -8.533  -7.840  1.00  0.00     0.031 A 
ATOM     44  C   UNL     1       5.985  -8.254  -8.828  1.00  0.00     0.074 A 
ATOM     45  C   UNL     1       3.620  -8.652  -8.268  1.00  0.00     0.049 A 
ATOM     46  N   UNL     1       5.894  -7.995 -10.107  1.00  0.00    -0.248 NA
ATOM     47  C   UNL     1       7.360  -8.255  -8.305  1.00  0.00     0.031 C 
ATOM     48  C   UNL     1       2.459  -8.914  -7.416  1.00  0.00     0.029 A 
ATOM     49  N   UNL     1       3.094  -8.557  -9.532  1.00  0.00    -0.354 N 
ATOM     50  C   UNL     1       7.192  -7.757 -10.537  1.00  0.00     0.074 A 
ATOM     51  C   UNL     1       8.056  -7.926  -9.385  1.00  0.00     0.031 C 
ATOM     52  C   UNL     1       1.357  -8.965  -8.182  1.00  0.00     0.029 A 
ATOM     53  C   UNL     1       1.731  -8.715  -9.572  1.00  0.00     0.049 A 
ATOM     54  H   UNL     1       3.642  -8.392 -10.333  1.00  0.00     0.167 HD
ATOM     55  C   UNL     1       7.626  -7.416 -11.774  1.00  0.00     0.037 A 
ATOM     56  C   UNL     1       0.875  -8.649 -10.609  1.00  0.00     0.037 A 
ATOM     57  C   UNL     1       6.785  -7.283 -12.933  1.00  0.00     0.049 A 
ATOM     58  C   UNL     1       1.384  -8.342 -11.985  1.00  0.00     0.074 A 
ATOM     59  C   UNL     1       7.139  -6.934 -14.225  1.00  0.00     0.029 A 
ATOM     60  N   UNL     1       5.418  -7.513 -12.943  1.00  0.00    -0.354 N 
ATOM     61  N   UNL     1       2.610  -8.078 -12.365  1.00  0.00    -0.248 NA
ATOM     62  C   UNL     1       0.393  -8.316 -13.069  1.00  0.00     0.031 C 
ATOM     63  C   UNL     1       5.984  -6.960 -15.019  1.00  0.00     0.029 A 
ATOM     64  C   UNL     1       4.913  -7.326 -14.219  1.00  0.00     0.049 A 
ATOM     65  H   UNL     1       4.883  -7.771 -12.157  1.00  0.00     0.167 HD
ATOM     66  C   UNL     1       2.538  -7.839 -13.731  1.00  0.00     0.074 A 
ATOM     67  C   UNL     1       1.150  -8.006 -14.115  1.00  0.00     0.031 C 
ATOM     68  C   UNL     1       3.532  -7.499 -14.586  1.00  0.00     0.037 A 
BRANCH  55  69
ATOM     69  C   UNL     1       9.091  -7.139 -11.915  1.00  0.00     0.058 A 
ATOM     70  C   UNL     1      10.005  -8.169 -12.179  1.00  0.00     0.135 A 
ATOM     71  C   UNL     1       9.586  -5.836 -11.754  1.00  0.00     0.135 A 
ATOM     72  F   UNL     1       9.576  -9.432 -12.323  1.00  0.00    -0.206 F 
ATOM     73  C   UNL     1      11.372  -7.920 -12.256  1.00  0.00     0.059 A 
ATOM     74  C   UNL     1      10.947  -5.564 -11.831  1.00  0.00     0.059 A 
ATOM     75  F   UNL     1       8.747  -4.822 -11.489  1.00  0.00    -0.206 F 
ATOM     76  C   UNL     1      11.834  -6.616 -12.065  1.00  0.00     0.060 A 
BRANCH  76  77
ATOM     77  S   UNL     1      13.607  -6.277 -12.120  1.00  0.00     0.124 S 
ATOM     78  O   UNL     1      13.961  -6.369 -10.707  1.00  0.00    -0.237 OA
ATOM     79  O   UNL     1      14.122  -7.346 -12.970  1.00  0.00    -0.237 OA
ATOM     80  O   UNL     1      13.664  -4.940 -12.701  1.00  0.00    -0.744 OA
ENDBRANCH  76  77
ENDBRANCH  55  69
BRANCH  56  81
ATOM     81  C   UNL     1      -0.569  -8.865 -10.364  1.00  0.00     0.058 A 
ATOM     82  C   UNL     1      -1.133 -10.142 -10.484  1.00  0.00     0.135 A 
ATOM     83  C   UNL     1      -1.391  -7.812  -9.940  1.00  0.00     0.135 A 
ATOM     84  F   UNL     1      -0.377 -11.174 -10.886  1.00  0.00    -0.206 F 
ATOM     85  C   UNL     1      -2.469 -10.375 -10.177  1.00  0.00     0.059 A 
ATOM     86  C   UNL     1      -2.728  -8.021  -9.624  1.00  0.00     0.059 A 
ATOM     87  F   UNL     1      -0.885  -6.577  -9.804  1.00  0.00    -0.206 F 
ATOM     88  C   UNL     1      -3.257  -9.308  -9.742  1.00  0.00     0.060 A 
BRANCH  88  89
ATOM     89  S   UNL     1      -4.966  -9.599  -9.233  1.00  0.00     0.124 S 
ATOM     90  O   UNL     1      -5.699  -9.219 -10.434  1.00  0.00    -0.237 OA
ATOM     91  O   UNL     1      -4.973 -11.021  -8.906  1.00  0.00    -0.237 OA
ATOM     92  O   UNL     1      -5.110  -8.704  -8.088  1.00  0.00    -0.744 OA
ENDBRANCH  88  89
ENDBRANCH  56  81
BRANCH  68  93
ATOM     93  C   UNL     1       3.149  -7.280 -16.017  1.00  0.00     0.058 A 
ATOM     94  C   UNL     1       2.740  -6.015 -16.466  1.00  0.00     0.135 A 
ATOM     95  C   UNL     1       3.204  -8.328 -16.947  1.00  0.00     0.135 A 
ATOM     96  F   UNL     1       2.668  -4.985 -15.609  1.00  0.00    -0.206 F 
ATOM     97  C   UNL     1       2.389  -5.797 -17.794  1.00  0.00     0.059 A 
ATOM     98  C   UNL     1       2.858  -8.132 -18.280  1.00  0.00     0.059 A 
ATOM     99  F   UNL     1       3.585  -9.555 -16.560  1.00  0.00    -0.206 F 
ATOM    100  C   UNL     1       2.442  -6.864 -18.693  1.00  0.00     0.060 A 
BRANCH 100 101
ATOM    101  S   UNL     1       2.002  -6.593 -20.423  1.00  0.00     0.124 S 
ATOM    102  O   UNL     1       0.575  -6.896 -20.413  1.00  0.00    -0.237 OA
ATOM    103  O   UNL     1       2.348  -5.190 -20.634  1.00  0.00    -0.237 OA
ATOM    104  O   UNL     1       2.847  -7.550 -21.130  1.00  0.00    -0.744 OA
ENDBRANCH 100 101
ENDBRANCH  68  93
ENDBRANCH  42  43
ENDBRANCH  34  37
ENDBRANCH  32  33
ENDBRANCH   1  32
TORSDOF 18
