REMARK SMILES CC(C)[NH2+][C@]1(C(=O)NCCCNC(=O)c2ccc(-c3c4nc(c(-c5c(F)cc(S(=O)(=O)[O-])cc5F)c5ccc([nH]5)c(-c5c(F)cc(S(=O)(=O)[O-])cc5F)c5nc(c(-c6c(F)cc(S(=O)(=O)[O-])cc6F)c6ccc3[nH]6)C=C5)C=C4)cc2)CC[C@H]([NH+]2CCC(C)(C)CC2)C1
REMARK SMILES IDX 10 1 9 2 8 3 6 4 7 5 5 7 81 8 92 9 82 10 83 11 4 12 2 15
REMARK SMILES IDX 1 16 3 17 84 18 85 19 91 20 86 22 90 23 87 24 88 25 89 26
REMARK SMILES IDX 11 27 12 28 13 29 14 31 15 32 16 33 80 34 17 35 79 36 18 37
REMARK SMILES IDX 19 38 20 39 73 40 21 41 78 42 72 43 74 44 22 45 77 46 71 47
REMARK SMILES IDX 70 48 23 50 57 51 36 52 56 53 37 54 40 55 55 56 75 57 38 58
REMARK SMILES IDX 39 59 54 61 76 62 41 63 24 64 25 65 34 66 26 67 27 68 33 69
REMARK SMILES IDX 35 70 28 71 29 72 30 73 31 74 32 75 58 76 59 77 68 78 60 79
REMARK SMILES IDX 61 80 67 81 69 82 62 83 63 84 64 85 65 86 66 87 42 88 43 89
REMARK SMILES IDX 52 90 44 91 45 92 51 93 53 94 46 95 47 96 48 97 49 98 50 99
REMARK H PARENT 8 6 4 13 4 14 84 21 12 30 74 49 40 60
REMARK Flexibility Score: inf
ROOT
ATOM      1  C   UNL     1       2.476   0.845  -2.192  1.00  0.00     0.042 C 
ENDROOT
BRANCH   1   2
ATOM      2  C   UNL     1       1.579  -0.387  -2.291  1.00  0.00     0.118 C 
BRANCH   2   3
ATOM      3  N   UNL     1       0.517  -0.336  -1.307  1.00  0.00    -0.351 N 
ATOM      4  C   UNL     1      -0.794   0.005  -1.379  1.00  0.00     0.281 C 
ATOM      5  O   UNL     1      -1.335   0.170  -0.276  1.00  0.00    -0.268 OA
ATOM      6  H   UNL     1       0.805  -0.604  -0.405  1.00  0.00     0.163 HD
BRANCH   4   7
ATOM      7  C   UNL     1      -1.605   0.155  -2.734  1.00  0.00     0.181 C 
ATOM      8  C   UNL     1      -0.967   1.172  -3.686  1.00  0.00     0.085 C 
ATOM      9  C   UNL     1      -1.544  -1.198  -3.497  1.00  0.00     0.144 C 
ATOM     10  C   UNL     1      -1.001   0.584  -5.099  1.00  0.00     0.072 C 
ATOM     11  C   UNL     1      -1.288  -0.927  -5.010  1.00  0.00     0.191 C 
BRANCH   7  12
ATOM     12  N   UNL     1      -2.958   0.589  -2.285  1.00  0.00    -0.331 N 
ATOM     13  H   UNL     1      -3.198  -0.018  -1.501  1.00  0.00     0.347 HD
ATOM     14  H   UNL     1      -2.807   1.587  -2.141  1.00  0.00     0.347 HD
BRANCH  12  15
ATOM     15  C   UNL     1      -4.119   0.603  -3.141  1.00  0.00     0.176 C 
ATOM     16  C   UNL     1      -5.413   0.508  -2.330  1.00  0.00     0.075 C 
ATOM     17  C   UNL     1      -4.219   1.806  -4.075  1.00  0.00     0.075 C 
ENDBRANCH  12  15
ENDBRANCH   7  12
BRANCH  11  18
ATOM     18  N   UNL     1      -2.203  -1.549  -6.027  1.00  0.00    -0.332 N 
ATOM     19  C   UNL     1      -2.060  -0.998  -7.392  1.00  0.00     0.263 C 
ATOM     20  C   UNL     1      -3.597  -1.564  -5.607  1.00  0.00     0.263 C 
ATOM     21  H   UNL     1      -1.887  -2.518  -6.080  1.00  0.00     0.348 HD
ATOM     22  C   UNL     1      -3.113  -1.503  -8.414  1.00  0.00     0.068 C 
ATOM     23  C   UNL     1      -4.603  -2.153  -6.577  1.00  0.00     0.068 C 
ATOM     24  C   UNL     1      -4.569  -1.397  -7.905  1.00  0.00    -0.025 C 
ATOM     25  C   UNL     1      -5.565  -2.069  -8.862  1.00  0.00     0.011 C 
ATOM     26  C   UNL     1      -5.013   0.075  -7.735  1.00  0.00     0.011 C 
ENDBRANCH  11  18
ENDBRANCH   4   7
ENDBRANCH   2   3
ENDBRANCH   1   2
BRANCH   1  27
ATOM     27  C   UNL     1       3.156   1.004  -0.837  1.00  0.00     0.118 C 
BRANCH  27  28
ATOM     28  N   UNL     1       4.104  -0.067  -0.562  1.00  0.00    -0.352 N 
ATOM     29  C   UNL     1       5.465   0.004  -0.395  1.00  0.00     0.251 C 
ATOM     30  H   UNL     1       3.715  -0.968  -0.484  1.00  0.00     0.163 HD
ATOM     31  O   UNL     1       6.138  -1.024  -0.387  1.00  0.00    -0.269 OA
BRANCH  29  32
ATOM     32  C   UNL     1       6.113   1.324  -0.247  1.00  0.00     0.039 A 
ATOM     33  C   UNL     1       7.270   1.607  -0.976  1.00  0.00     0.014 A 
ATOM     34  C   UNL     1       5.562   2.286   0.603  1.00  0.00     0.014 A 
ATOM     35  C   UNL     1       7.836   2.882  -0.904  1.00  0.00     0.010 A 
ATOM     36  C   UNL     1       6.072   3.578   0.603  1.00  0.00     0.010 A 
ATOM     37  C   UNL     1       7.220   3.889  -0.143  1.00  0.00    -0.014 A 
BRANCH  37  38
ATOM     38  C   UNL     1       7.760   5.271  -0.076  1.00  0.00     0.031 A 
ATOM     39  C   UNL     1       8.197   5.829   1.252  1.00  0.00     0.074 A 
ATOM     40  C   UNL     1       7.767   6.048  -1.177  1.00  0.00     0.049 A 
ATOM     41  N   UNL     1       8.542   7.051   1.563  1.00  0.00    -0.248 NA
ATOM     42  C   UNL     1       8.211   4.894   2.390  1.00  0.00     0.031 C 
ATOM     43  C   UNL     1       7.335   5.632  -2.513  1.00  0.00     0.029 A 
ATOM     44  N   UNL     1       8.130   7.362  -1.341  1.00  0.00    -0.354 N 
ATOM     45  C   UNL     1       8.786   7.037   2.932  1.00  0.00     0.074 A 
ATOM     46  C   UNL     1       8.497   5.700   3.400  1.00  0.00     0.031 C 
ATOM     47  C   UNL     1       7.470   6.665  -3.361  1.00  0.00     0.029 A 
ATOM     48  C   UNL     1       7.951   7.829  -2.623  1.00  0.00     0.049 A 
ATOM     49  H   UNL     1       8.486   7.918  -0.611  1.00  0.00     0.167 HD
ATOM     50  C   UNL     1       9.231   8.043   3.722  1.00  0.00     0.037 A 
ATOM     51  C   UNL     1       8.136   9.060  -3.139  1.00  0.00     0.037 A 
ATOM     52  C   UNL     1       9.548   9.361   3.239  1.00  0.00     0.049 A 
ATOM     53  C   UNL     1       8.629  10.163  -2.241  1.00  0.00     0.074 A 
ATOM     54  C   UNL     1      10.056  10.436   3.945  1.00  0.00     0.029 A 
ATOM     55  N   UNL     1       9.390   9.782   1.927  1.00  0.00    -0.354 N 
ATOM     56  N   UNL     1       8.898  10.123  -0.957  1.00  0.00    -0.248 NA
ATOM     57  C   UNL     1       8.850  11.478  -2.860  1.00  0.00     0.031 C 
ATOM     58  C   UNL     1      10.164  11.521   3.070  1.00  0.00     0.029 A 
ATOM     59  C   UNL     1       9.778  11.105   1.805  1.00  0.00     0.049 A 
ATOM     60  H   UNL     1       9.052   9.222   1.190  1.00  0.00     0.167 HD
ATOM     61  C   UNL     1       9.356  11.393  -0.624  1.00  0.00     0.074 A 
ATOM     62  C   UNL     1       9.329  12.178  -1.841  1.00  0.00     0.031 C 
ATOM     63  C   UNL     1       9.766  11.865   0.579  1.00  0.00     0.037 A 
BRANCH  50  64
ATOM     64  C   UNL     1       9.403   7.754   5.189  1.00  0.00     0.058 A 
ATOM     65  C   UNL     1      10.406   6.890   5.660  1.00  0.00     0.135 A 
ATOM     66  C   UNL     1       8.573   8.370   6.140  1.00  0.00     0.135 A 
ATOM     67  F   UNL     1      11.217   6.261   4.795  1.00  0.00    -0.206 F 
ATOM     68  C   UNL     1      10.558   6.622   7.016  1.00  0.00     0.059 A 
ATOM     69  C   UNL     1       8.728   8.141   7.504  1.00  0.00     0.059 A 
ATOM     70  F   UNL     1       7.598   9.204   5.747  1.00  0.00    -0.206 F 
ATOM     71  C   UNL     1       9.714   7.252   7.931  1.00  0.00     0.060 A 
BRANCH  71  72
ATOM     72  S   UNL     1       9.928   6.896   9.687  1.00  0.00     0.124 S 
ATOM     73  O   UNL     1       9.405   5.536   9.774  1.00  0.00    -0.237 OA
ATOM     74  O   UNL     1      11.371   7.031   9.858  1.00  0.00    -0.237 OA
ATOM     75  O   UNL     1       9.123   7.921  10.344  1.00  0.00    -0.744 OA
ENDBRANCH  71  72
ENDBRANCH  50  64
BRANCH  51  76
ATOM     76  C   UNL     1       7.870   9.310  -4.582  1.00  0.00     0.058 A 
ATOM     77  C   UNL     1       8.923   9.561  -5.475  1.00  0.00     0.135 A 
ATOM     78  C   UNL     1       6.566   9.293  -5.101  1.00  0.00     0.135 A 
ATOM     79  F   UNL     1      10.188   9.595  -5.027  1.00  0.00    -0.206 F 
ATOM     80  C   UNL     1       8.693   9.804  -6.825  1.00  0.00     0.059 A 
ATOM     81  C   UNL     1       6.312   9.505  -6.452  1.00  0.00     0.059 A 
ATOM     82  F   UNL     1       5.524   9.040  -4.293  1.00  0.00    -0.206 F 
ATOM     83  C   UNL     1       7.383   9.771  -7.305  1.00  0.00     0.060 A 
BRANCH  83  84
ATOM     84  S   UNL     1       7.100  10.040  -9.069  1.00  0.00     0.124 S 
ATOM     85  O   UNL     1       7.361  11.470  -9.193  1.00  0.00    -0.237 OA
ATOM     86  O   UNL     1       8.089   9.155  -9.676  1.00  0.00    -0.237 OA
ATOM     87  O   UNL     1       5.710   9.633  -9.252  1.00  0.00    -0.744 OA
ENDBRANCH  83  84
ENDBRANCH  51  76
BRANCH  63  88
ATOM     88  C   UNL     1      10.280  13.277   0.638  1.00  0.00     0.058 A 
ATOM     89  C   UNL     1       9.423  14.384   0.549  1.00  0.00     0.135 A 
ATOM     90  C   UNL     1      11.646  13.519   0.862  1.00  0.00     0.135 A 
ATOM     91  F   UNL     1       8.111  14.208   0.329  1.00  0.00    -0.206 F 
ATOM     92  C   UNL     1       9.905  15.684   0.666  1.00  0.00     0.059 A 
ATOM     93  C   UNL     1      12.144  14.809   1.010  1.00  0.00     0.059 A 
ATOM     94  F   UNL     1      12.507  12.494   0.964  1.00  0.00    -0.206 F 
ATOM     95  C   UNL     1      11.266  15.886   0.902  1.00  0.00     0.060 A 
BRANCH  95  96
ATOM     96  S   UNL     1      11.869  17.576   1.103  1.00  0.00     0.124 S 
ATOM     97  O   UNL     1      11.807  18.075  -0.267  1.00  0.00    -0.237 OA
ATOM     98  O   UNL     1      10.896  18.146   2.030  1.00  0.00    -0.237 OA
ATOM     99  O   UNL     1      13.212  17.396   1.646  1.00  0.00    -0.744 OA
ENDBRANCH  95  96
ENDBRANCH  63  88
ENDBRANCH  37  38
ENDBRANCH  29  32
ENDBRANCH  27  28
ENDBRANCH   1  27
TORSDOF 16
