REMARK SMILES Cc1ccc([C@@H](C[NH+](C)C)N2C[C@@H](C(=O)NCCCNC(=O)c3ccc(-c4c5nc(c(-c6c(F)cc(S(=O)(=O)[O-])cc6F)c6ccc([nH]6)c(-c6c(F)cc(S(=O)(=O)[O-])cc6F)c6nc(c(-c7c(F)cc(S(=O)(=O)[O-])cc7F)c7ccc4[nH]7)C=C6)C=C5)cc3)CC2=O)cc1C
REMARK SMILES IDX 18 1 17 2 16 3 14 4 15 5 13 7 11 8 12 9 90 10 89 11 91 12
REMARK SMILES IDX 6 13 5 14 1 15 2 16 3 17 93 18 4 19 92 20 94 21 7 22 8 23
REMARK SMILES IDX 9 24 10 25 19 27 20 28 21 29 22 31 23 32 24 33 88 34 25 35
REMARK SMILES IDX 87 36 26 37 27 38 28 39 81 40 29 41 86 42 80 43 82 44 30 45
REMARK SMILES IDX 85 46 79 47 78 48 31 50 65 51 44 52 64 53 45 54 48 55 63 56
REMARK SMILES IDX 83 57 46 58 47 59 62 61 84 62 49 63 32 64 33 65 42 66 34 67
REMARK SMILES IDX 35 68 41 69 43 70 36 71 37 72 38 73 39 74 40 75 66 76 67 77
REMARK SMILES IDX 76 78 68 79 69 80 75 81 77 82 70 83 71 84 72 85 73 86 74 87
REMARK SMILES IDX 50 88 51 89 60 90 52 91 53 92 59 93 61 94 54 95 55 96 56 97
REMARK SMILES IDX 57 98 58 99
REMARK H PARENT 16 6 8 26 20 30 82 49 48 60
REMARK Flexibility Score: inf
ROOT
ATOM      1  C   UNL     1       0.252  -4.589   3.392  1.00  0.00     0.042 C 
ENDROOT
BRANCH   1   2
ATOM      2  C   UNL     1      -0.736  -4.848   2.267  1.00  0.00     0.117 C 
BRANCH   2   3
ATOM      3  N   UNL     1      -1.781  -5.786   2.639  1.00  0.00    -0.356 N 
ATOM      4  C   UNL     1      -3.130  -5.639   2.689  1.00  0.00     0.225 C 
ATOM      5  O   UNL     1      -3.799  -6.626   3.008  1.00  0.00    -0.275 OA
ATOM      6  H   UNL     1      -1.457  -6.678   2.899  1.00  0.00     0.163 HD
BRANCH   4   7
ATOM      7  C   UNL     1      -3.824  -4.333   2.362  1.00  0.00     0.107 C 
ATOM      8  N   UNL     1      -3.222  -2.430   1.105  1.00  0.00    -0.329 N 
ATOM      9  C   UNL     1      -3.520  -3.835   0.958  1.00  0.00     0.134 C 
ATOM     10  C   UNL     1      -3.382  -1.989   2.411  1.00  0.00     0.224 C 
ATOM     11  C   UNL     1      -3.495  -3.190   3.312  1.00  0.00     0.115 C 
ATOM     12  O   UNL     1      -3.409  -0.836   2.797  1.00  0.00    -0.275 OA
BRANCH   8  13
ATOM     13  C   UNL     1      -2.978  -1.512  -0.022  1.00  0.00     0.170 C 
BRANCH  13  14
ATOM     14  C   UNL     1      -1.722  -0.669   0.181  1.00  0.00    -0.020 A 
ATOM     15  C   UNL     1       1.903   1.694   0.070  1.00  0.00     0.044 C 
ATOM     16  C   UNL     1       0.660   0.856   0.187  1.00  0.00    -0.048 A 
ATOM     17  C   UNL     1      -0.592   1.470   0.017  1.00  0.00     0.004 A 
ATOM     18  C   UNL     1       0.716  -0.530   0.415  1.00  0.00    -0.048 A 
ATOM     19  C   UNL     1      -1.767   0.717   0.005  1.00  0.00     0.006 A 
ATOM     20  C   UNL     1      -0.481  -1.265   0.446  1.00  0.00     0.009 A 
ATOM     21  C   UNL     1       2.005  -1.301   0.504  1.00  0.00     0.044 C 
ENDBRANCH  13  14
BRANCH  13  22
ATOM     22  C   UNL     1      -3.006  -2.163  -1.465  1.00  0.00     0.292 C 
BRANCH  22  23
ATOM     23  N   UNL     1      -1.978  -3.194  -1.768  1.00  0.00    -0.338 N 
ATOM     24  C   UNL     1      -2.502  -4.234  -2.656  1.00  0.00     0.332 C 
ATOM     25  C   UNL     1      -0.774  -2.625  -2.391  1.00  0.00     0.332 C 
ATOM     26  H   UNL     1      -1.727  -3.599  -0.866  1.00  0.00     0.347 HD
ENDBRANCH  22  23
ENDBRANCH  13  22
ENDBRANCH   8  13
ENDBRANCH   4   7
ENDBRANCH   2   3
ENDBRANCH   1   2
BRANCH   1  27
ATOM     27  C   UNL     1       1.044  -5.815   3.817  1.00  0.00     0.118 C 
BRANCH  27  28
ATOM     28  N   UNL     1       1.904  -6.327   2.759  1.00  0.00    -0.352 N 
ATOM     29  C   UNL     1       3.269  -6.486   2.731  1.00  0.00     0.251 C 
ATOM     30  H   UNL     1       1.436  -6.603   1.938  1.00  0.00     0.163 HD
ATOM     31  O   UNL     1       3.820  -6.769   1.670  1.00  0.00    -0.269 OA
BRANCH  29  32
ATOM     32  C   UNL     1       4.073  -6.293   3.958  1.00  0.00     0.039 A 
ATOM     33  C   UNL     1       5.300  -5.631   3.866  1.00  0.00     0.014 A 
ATOM     34  C   UNL     1       3.630  -6.768   5.196  1.00  0.00     0.014 A 
ATOM     35  C   UNL     1       6.046  -5.388   5.022  1.00  0.00     0.010 A 
ATOM     36  C   UNL     1       4.324  -6.439   6.356  1.00  0.00     0.010 A 
ATOM     37  C   UNL     1       5.546  -5.755   6.283  1.00  0.00    -0.014 A 
BRANCH  37  38
ATOM     38  C   UNL     1       6.291  -5.444   7.531  1.00  0.00     0.031 A 
ATOM     39  C   UNL     1       6.768  -6.558   8.425  1.00  0.00     0.074 A 
ATOM     40  C   UNL     1       6.485  -4.159   7.889  1.00  0.00     0.049 A 
ATOM     41  N   UNL     1       7.387  -6.487   9.576  1.00  0.00    -0.248 NA
ATOM     42  C   UNL     1       6.488  -7.934   7.983  1.00  0.00     0.031 C 
ATOM     43  C   UNL     1       6.025  -2.991   7.134  1.00  0.00     0.029 A 
ATOM     44  N   UNL     1       7.114  -3.618   8.982  1.00  0.00    -0.354 N 
ATOM     45  C   UNL     1       7.554  -7.800  10.000  1.00  0.00     0.074 A 
ATOM     46  C   UNL     1       6.920  -8.646   9.013  1.00  0.00     0.031 C 
ATOM     47  C   UNL     1       6.417  -1.874   7.768  1.00  0.00     0.029 A 
ATOM     48  C   UNL     1       7.116  -2.242   8.995  1.00  0.00     0.049 A 
ATOM     49  H   UNL     1       7.526  -4.163   9.691  1.00  0.00     0.167 HD
ATOM     50  C   UNL     1       8.199  -8.262  11.098  1.00  0.00     0.037 A 
ATOM     51  C   UNL     1       7.619  -1.375   9.896  1.00  0.00     0.037 A 
ATOM     52  C   UNL     1       8.850  -7.414  12.063  1.00  0.00     0.049 A 
ATOM     53  C   UNL     1       8.326  -1.912  11.112  1.00  0.00     0.074 A 
ATOM     54  C   UNL     1       9.585  -7.784  13.176  1.00  0.00     0.029 A 
ATOM     55  N   UNL     1       8.839  -6.027  12.036  1.00  0.00    -0.354 N 
ATOM     56  N   UNL     1       8.538  -3.160  11.459  1.00  0.00    -0.248 NA
ATOM     57  C   UNL     1       8.867  -0.925  12.055  1.00  0.00     0.031 C 
ATOM     58  C   UNL     1       9.973  -6.621  13.850  1.00  0.00     0.029 A 
ATOM     59  C   UNL     1       9.532  -5.525  13.125  1.00  0.00     0.049 A 
ATOM     60  H   UNL     1       8.403  -5.479  11.343  1.00  0.00     0.167 HD
ATOM     61  C   UNL     1       9.267  -3.106  12.643  1.00  0.00     0.074 A 
ATOM     62  C   UNL     1       9.467  -1.703  12.944  1.00  0.00     0.031 C 
ATOM     63  C   UNL     1       9.731  -4.125  13.409  1.00  0.00     0.037 A 
BRANCH  50  64
ATOM     64  C   UNL     1       8.232  -9.752  11.315  1.00  0.00     0.058 A 
ATOM     65  C   UNL     1       8.964 -10.607  10.474  1.00  0.00     0.135 A 
ATOM     66  C   UNL     1       7.546 -10.331  12.395  1.00  0.00     0.135 A 
ATOM     67  F   UNL     1       9.628 -10.112   9.417  1.00  0.00    -0.206 F 
ATOM     68  C   UNL     1       8.985 -11.983  10.675  1.00  0.00     0.059 A 
ATOM     69  C   UNL     1       7.580 -11.702  12.634  1.00  0.00     0.059 A 
ATOM     70  F   UNL     1       6.831  -9.563  13.232  1.00  0.00    -0.206 F 
ATOM     71  C   UNL     1       8.289 -12.522  11.758  1.00  0.00     0.060 A 
BRANCH  71  72
ATOM     72  S   UNL     1       8.327 -14.310  12.002  1.00  0.00     0.124 S 
ATOM     73  O   UNL     1       7.482 -14.771  10.904  1.00  0.00    -0.237 OA
ATOM     74  O   UNL     1       9.749 -14.612  11.876  1.00  0.00    -0.237 OA
ATOM     75  O   UNL     1       7.767 -14.484  13.339  1.00  0.00    -0.744 OA
ENDBRANCH  71  72
ENDBRANCH  50  64
BRANCH  51  76
ATOM     76  C   UNL     1       7.500   0.090   9.668  1.00  0.00     0.058 A 
ATOM     77  C   UNL     1       8.631   0.867   9.374  1.00  0.00     0.135 A 
ATOM     78  C   UNL     1       6.259   0.743   9.729  1.00  0.00     0.135 A 
ATOM     79  F   UNL     1       9.842   0.291   9.310  1.00  0.00    -0.206 F 
ATOM     80  C   UNL     1       8.541   2.240   9.169  1.00  0.00     0.059 A 
ATOM     81  C   UNL     1       6.139   2.111   9.499  1.00  0.00     0.059 A 
ATOM     82  F   UNL     1       5.143   0.044   9.989  1.00  0.00    -0.206 F 
ATOM     83  C   UNL     1       7.289   2.853   9.231  1.00  0.00     0.060 A 
BRANCH  83  84
ATOM     84  S   UNL     1       7.180   4.628   8.921  1.00  0.00     0.124 S 
ATOM     85  O   UNL     1       7.785   5.176  10.129  1.00  0.00    -0.237 OA
ATOM     86  O   UNL     1       7.959   4.772   7.694  1.00  0.00    -0.237 OA
ATOM     87  O   UNL     1       5.745   4.856   8.773  1.00  0.00    -0.744 OA
ENDBRANCH  83  84
ENDBRANCH  51  76
BRANCH  63  88
ATOM     88  C   UNL     1      10.539  -3.765  14.626  1.00  0.00     0.058 A 
ATOM     89  C   UNL     1       9.953  -3.184  15.762  1.00  0.00     0.135 A 
ATOM     90  C   UNL     1      11.915  -4.048  14.671  1.00  0.00     0.135 A 
ATOM     91  F   UNL     1       8.644  -2.888  15.770  1.00  0.00    -0.206 F 
ATOM     92  C   UNL     1      10.708  -2.870  16.888  1.00  0.00     0.059 A 
ATOM     93  C   UNL     1      12.681  -3.772  15.798  1.00  0.00     0.059 A 
ATOM     94  F   UNL     1      12.524  -4.614  13.617  1.00  0.00    -0.206 F 
ATOM     95  C   UNL     1      12.072  -3.170  16.897  1.00  0.00     0.060 A 
BRANCH  95  96
ATOM     96  S   UNL     1      13.033  -2.782  18.375  1.00  0.00     0.124 S 
ATOM     97  O   UNL     1      13.123  -1.328  18.294  1.00  0.00    -0.237 OA
ATOM     98  O   UNL     1      12.188  -3.306  19.443  1.00  0.00    -0.237 OA
ATOM     99  O   UNL     1      14.286  -3.501  18.165  1.00  0.00    -0.744 OA
ENDBRANCH  95  96
ENDBRANCH  63  88
ENDBRANCH  37  38
ENDBRANCH  29  32
ENDBRANCH  27  28
ENDBRANCH   1  27
TORSDOF 17
