REMARK SMILES CC(=O)N(c1ccccc1)c1nc(/C=C(/C#N)C(=O)NCCCNC(=O)c2ccc(-c3c4nc(c(-c5c(F)cc(S(=O)(=O)[O-])cc5F)c5ccc([nH]5)c(-c5c(F)cc(S(=O)(=O)[O-])cc5F)c5nc(c(-c6c(F)cc(S(=O)(=O)[O-])cc6F)c6ccc3[nH]6)C=C5)C=C4)cc2)cs1
REMARK SMILES IDX 22 1 21 2 20 3 18 4 19 5 15 7 14 8 13 9 11 10 12 11 94 12
REMARK SMILES IDX 93 13 4 14 2 15 1 16 3 17 5 18 6 19 10 20 7 21 9 22 8 23
REMARK SMILES IDX 16 24 17 25 23 26 24 27 25 28 26 30 27 31 28 32 92 33 29 34
REMARK SMILES IDX 91 35 30 36 31 37 32 38 85 39 33 40 90 41 84 42 86 43 34 44
REMARK SMILES IDX 89 45 83 46 82 47 35 49 69 50 48 51 68 52 49 53 52 54 67 55
REMARK SMILES IDX 87 56 50 57 51 58 66 60 88 61 53 62 36 63 37 64 46 65 38 66
REMARK SMILES IDX 39 67 45 68 47 69 40 70 41 71 42 72 43 73 44 74 70 75 71 76
REMARK SMILES IDX 80 77 72 78 73 79 79 80 81 81 74 82 75 83 76 84 77 85 78 86
REMARK SMILES IDX 54 87 55 88 64 89 56 90 57 91 63 92 65 93 58 94 59 95 60 96
REMARK SMILES IDX 61 97 62 98
REMARK H PARENT 20 6 24 29 86 48 52 59
REMARK Flexibility Score: inf
ROOT
ATOM      1  C   UNL     1      -3.657   6.538  -9.057  1.00  0.00     0.042 C 
ENDROOT
BRANCH   1   2
ATOM      2  C   UNL     1      -2.726   5.321  -9.035  1.00  0.00     0.118 C 
BRANCH   2   3
ATOM      3  N   UNL     1      -1.791   5.421  -7.922  1.00  0.00    -0.351 N 
ATOM      4  C   UNL     1      -1.835   5.003  -6.626  1.00  0.00     0.262 C 
ATOM      5  O   UNL     1      -1.048   5.552  -5.854  1.00  0.00    -0.268 OA
ATOM      6  H   UNL     1      -0.955   5.887  -8.154  1.00  0.00     0.163 HD
BRANCH   4   7
ATOM      7  C   UNL     1      -2.763   3.918  -6.151  1.00  0.00     0.119 C 
ATOM      8  C   UNL     1      -2.395   3.025  -5.206  1.00  0.00     0.054 C 
BRANCH   8   9
ATOM      9  C   UNL     1      -1.104   2.864  -4.584  1.00  0.00     0.078 A 
ATOM     10  C   UNL     1       0.203   2.349  -2.871  1.00  0.00     0.197 A 
ATOM     11  N   UNL     1      -1.044   2.328  -3.307  1.00  0.00    -0.220 NA
ATOM     12  S   UNL     1       1.368   2.937  -3.998  1.00  0.00    -0.104 S 
ATOM     13  C   UNL     1       0.126   3.124  -5.155  1.00  0.00     0.097 A 
BRANCH  10  14
ATOM     14  N   UNL     1       0.702   1.819  -1.678  1.00  0.00    -0.256 N 
BRANCH  14  15
ATOM     15  C   UNL     1       0.293   0.526  -1.370  1.00  0.00     0.230 C 
ATOM     16  C   UNL     1       0.563   0.024   0.032  1.00  0.00     0.115 C 
ATOM     17  O   UNL     1      -0.252  -0.247  -2.164  1.00  0.00    -0.274 OA
ENDBRANCH  14  15
BRANCH  14  18
ATOM     18  C   UNL     1       1.655   2.594  -0.945  1.00  0.00     0.051 A 
ATOM     19  C   UNL     1       1.428   3.961  -0.707  1.00  0.00     0.027 A 
ATOM     20  C   UNL     1       2.840   2.022  -0.456  1.00  0.00     0.027 A 
ATOM     21  C   UNL     1       2.349   4.725   0.018  1.00  0.00     0.002 A 
ATOM     22  C   UNL     1       3.764   2.790   0.261  1.00  0.00     0.002 A 
ATOM     23  C   UNL     1       3.515   4.139   0.502  1.00  0.00     0.000 A 
ENDBRANCH  14  18
ENDBRANCH  10  14
ENDBRANCH   8   9
BRANCH   7  24
ATOM     24  C   UNL     1      -4.151   3.951  -6.769  1.00  0.00     0.105 C 
ATOM     25  N   UNL     1      -5.302   3.978  -7.283  1.00  0.00    -0.192 NA
ENDBRANCH   7  24
ENDBRANCH   4   7
ENDBRANCH   2   3
ENDBRANCH   1   2
BRANCH   1  26
ATOM     26  C   UNL     1      -2.952   7.822  -9.499  1.00  0.00     0.118 C 
BRANCH  26  27
ATOM     27  N   UNL     1      -2.560   7.763 -10.900  1.00  0.00    -0.352 N 
ATOM     28  C   UNL     1      -2.857   8.617 -11.927  1.00  0.00     0.251 C 
ATOM     29  H   UNL     1      -1.997   6.994 -11.145  1.00  0.00     0.163 HD
ATOM     30  O   UNL     1      -2.646   8.253 -13.088  1.00  0.00    -0.269 OA
BRANCH  28  31
ATOM     31  C   UNL     1      -3.418   9.958 -11.665  1.00  0.00     0.039 A 
ATOM     32  C   UNL     1      -4.426  10.442 -12.505  1.00  0.00     0.014 A 
ATOM     33  C   UNL     1      -2.910  10.766 -10.643  1.00  0.00     0.014 A 
ATOM     34  C   UNL     1      -4.949  11.719 -12.298  1.00  0.00     0.010 A 
ATOM     35  C   UNL     1      -3.470  12.020 -10.404  1.00  0.00     0.010 A 
ATOM     36  C   UNL     1      -4.488  12.512 -11.235  1.00  0.00    -0.014 A 
BRANCH  36  37
ATOM     37  C   UNL     1      -5.065  13.856 -10.978  1.00  0.00     0.031 A 
ATOM     38  C   UNL     1      -4.224  15.091 -11.154  1.00  0.00     0.074 A 
ATOM     39  C   UNL     1      -6.332  13.955 -10.532  1.00  0.00     0.049 A 
ATOM     40  N   UNL     1      -4.535  16.340 -10.923  1.00  0.00    -0.248 NA
ATOM     41  C   UNL     1      -2.845  14.893 -11.628  1.00  0.00     0.031 C 
ATOM     42  C   UNL     1      -7.228  12.826 -10.275  1.00  0.00     0.029 A 
ATOM     43  N   UNL     1      -7.082  15.055 -10.203  1.00  0.00    -0.354 N 
ATOM     44  C   UNL     1      -3.389  17.076 -11.204  1.00  0.00     0.074 A 
ATOM     45  C   UNL     1      -2.364  16.128 -11.586  1.00  0.00     0.031 C 
ATOM     46  C   UNL     1      -8.411  13.292  -9.843  1.00  0.00     0.029 A 
ATOM     47  C   UNL     1      -8.348  14.748  -9.765  1.00  0.00     0.049 A 
ATOM     48  H   UNL     1      -6.746  15.978 -10.274  1.00  0.00     0.167 HD
ATOM     49  C   UNL     1      -3.214  18.419 -11.165  1.00  0.00     0.037 A 
ATOM     50  C   UNL     1      -9.345  15.549  -9.343  1.00  0.00     0.037 A 
ATOM     51  C   UNL     1      -4.249  19.357 -10.815  1.00  0.00     0.049 A 
ATOM     52  C   UNL     1      -9.137  17.037  -9.335  1.00  0.00     0.074 A 
ATOM     53  C   UNL     1      -4.192  20.740 -10.809  1.00  0.00     0.029 A 
ATOM     54  N   UNL     1      -5.530  19.009 -10.410  1.00  0.00    -0.354 N 
ATOM     55  N   UNL     1      -8.066  17.720  -9.664  1.00  0.00    -0.248 NA
ATOM     56  C   UNL     1     -10.272  17.866  -8.909  1.00  0.00     0.031 C 
ATOM     57  C   UNL     1      -5.429  21.228 -10.371  1.00  0.00     0.029 A 
ATOM     58  C   UNL     1      -6.268  20.150 -10.139  1.00  0.00     0.049 A 
ATOM     59  H   UNL     1      -5.865  18.087 -10.328  1.00  0.00     0.167 HD
ATOM     60  C   UNL     1      -8.404  19.058  -9.502  1.00  0.00     0.074 A 
ATOM     61  C   UNL     1      -9.783  19.089  -9.060  1.00  0.00     0.031 C 
ATOM     62  C   UNL     1      -7.641  20.161  -9.701  1.00  0.00     0.037 A 
BRANCH  49  63
ATOM     63  C   UNL     1      -1.854  18.955 -11.515  1.00  0.00     0.058 A 
ATOM     64  C   UNL     1      -1.377  18.945 -12.836  1.00  0.00     0.135 A 
ATOM     65  C   UNL     1      -1.029  19.516 -10.526  1.00  0.00     0.135 A 
ATOM     66  F   UNL     1      -2.118  18.408 -13.818  1.00  0.00    -0.206 F 
ATOM     67  C   UNL     1      -0.120  19.445 -13.159  1.00  0.00     0.059 A 
ATOM     68  C   UNL     1       0.222  20.044 -10.831  1.00  0.00     0.059 A 
ATOM     69  F   UNL     1      -1.436  19.552  -9.248  1.00  0.00    -0.206 F 
ATOM     70  C   UNL     1       0.674  19.990 -12.149  1.00  0.00     0.060 A 
BRANCH  70  71
ATOM     71  S   UNL     1       2.304  20.636 -12.583  1.00  0.00     0.124 S 
ATOM     72  O   UNL     1       3.067  19.404 -12.758  1.00  0.00    -0.237 OA
ATOM     73  O   UNL     1       2.029  21.389 -13.804  1.00  0.00    -0.237 OA
ATOM     74  O   UNL     1       2.670  21.442 -11.424  1.00  0.00    -0.744 OA
ENDBRANCH  70  71
ENDBRANCH  49  63
BRANCH  50  75
ATOM     75  C   UNL     1     -10.639  14.955  -8.919  1.00  0.00     0.058 A 
ATOM     76  C   UNL     1     -11.781  15.067  -9.726  1.00  0.00     0.135 A 
ATOM     77  C   UNL     1     -10.755  14.243  -7.715  1.00  0.00     0.135 A 
ATOM     78  F   UNL     1     -11.719  15.742 -10.884  1.00  0.00    -0.206 F 
ATOM     79  C   UNL     1     -12.996  14.506  -9.350  1.00  0.00     0.059 A 
ATOM     80  C   UNL     1     -11.954  13.654  -7.327  1.00  0.00     0.059 A 
ATOM     81  F   UNL     1      -9.686  14.093  -6.917  1.00  0.00    -0.206 F 
ATOM     82  C   UNL     1     -13.072  13.799  -8.148  1.00  0.00     0.060 A 
BRANCH  82  83
ATOM     83  S   UNL     1     -14.640  13.027  -7.693  1.00  0.00     0.124 S 
ATOM     84  O   UNL     1     -15.412  14.178  -7.239  1.00  0.00    -0.237 OA
ATOM     85  O   UNL     1     -15.068  12.429  -8.955  1.00  0.00    -0.237 OA
ATOM     86  O   UNL     1     -14.255  12.074  -6.657  1.00  0.00    -0.744 OA
ENDBRANCH  82  83
ENDBRANCH  50  75
BRANCH  62  87
ATOM     87  C   UNL     1      -8.289  21.495  -9.464  1.00  0.00     0.058 A 
ATOM     88  C   UNL     1      -8.534  21.971  -8.167  1.00  0.00     0.135 A 
ATOM     89  C   UNL     1      -8.631  22.323 -10.544  1.00  0.00     0.135 A 
ATOM     90  F   UNL     1      -8.232  21.213  -7.101  1.00  0.00    -0.206 F 
ATOM     91  C   UNL     1      -9.116  23.215  -7.949  1.00  0.00     0.059 A 
ATOM     92  C   UNL     1      -9.193  23.581 -10.349  1.00  0.00     0.059 A 
ATOM     93  F   UNL     1      -8.408  21.917 -11.805  1.00  0.00    -0.206 F 
ATOM     94  C   UNL     1      -9.443  24.012  -9.047  1.00  0.00     0.060 A 
BRANCH  94  95
ATOM     95  S   UNL     1     -10.171  25.638  -8.753  1.00  0.00     0.124 S 
ATOM     96  O   UNL     1     -11.549  25.288  -8.426  1.00  0.00    -0.237 OA
ATOM     97  O   UNL     1      -9.367  26.149  -7.647  1.00  0.00    -0.237 OA
ATOM     98  O   UNL     1      -9.983  26.328 -10.026  1.00  0.00    -0.744 OA
ENDBRANCH  94  95
ENDBRANCH  62  87
ENDBRANCH  36  37
ENDBRANCH  28  31
ENDBRANCH  26  27
ENDBRANCH   1  26
TORSDOF 18
