REMARK SMILES COc1cccc(C(=O)N2[C@@H](C(=O)NCCCNC(=O)c3ccc(-c4c5nc(c(-c6c(F)cc(S(=O)(=O)[O-])cc6F)c6ccc([nH]6)c(-c6c(F)cc(S(=O)(=O)[O-])cc6F)c6nc(c(-c7c(F)cc(S(=O)(=O)[O-])cc7F)c7ccc4[nH]7)C=C6)C=C5)cc3)CS[C@@H]2c2ccccc2Cl)c1
REMARK SMILES IDX 16 1 15 2 14 3 12 4 13 5 11 7 10 8 89 9 87 10 88 11 8 12
REMARK SMILES IDX 9 13 7 14 3 15 4 16 97 17 5 18 6 19 2 20 1 21 90 22 91 23
REMARK SMILES IDX 95 24 92 25 94 26 96 27 93 28 17 29 18 30 19 31 20 33 21 34
REMARK SMILES IDX 22 35 86 36 23 37 85 38 24 39 25 40 26 41 79 42 27 43 84 44
REMARK SMILES IDX 78 45 80 46 28 47 83 48 77 49 76 50 29 52 63 53 42 54 62 55
REMARK SMILES IDX 43 56 46 57 61 58 81 59 44 60 45 61 60 63 82 64 47 65 30 66
REMARK SMILES IDX 31 67 40 68 32 69 33 70 39 71 41 72 34 73 35 74 36 75 37 76
REMARK SMILES IDX 38 77 64 78 65 79 74 80 66 81 67 82 73 83 75 84 68 85 69 86
REMARK SMILES IDX 70 87 71 88 72 89 48 90 49 91 58 92 50 93 51 94 57 95 59 96
REMARK SMILES IDX 52 97 53 98 54 99 55 100 56 101
REMARK H PARENT 14 6 18 32 80 51 46 62
REMARK Flexibility Score: inf
ROOT
ATOM      1  C   UNL     1       6.781  -5.378   4.610  1.00  0.00     0.042 C 
ENDROOT
BRANCH   1   2
ATOM      2  C   UNL     1       6.624  -4.914   3.167  1.00  0.00     0.117 C 
BRANCH   2   3
ATOM      3  N   UNL     1       5.268  -4.516   2.834  1.00  0.00    -0.354 N 
ATOM      4  C   UNL     1       4.768  -3.258   2.629  1.00  0.00     0.243 C 
ATOM      5  O   UNL     1       3.614  -3.149   2.210  1.00  0.00    -0.273 OA
ATOM      6  H   UNL     1       4.620  -5.251   2.743  1.00  0.00     0.163 HD
BRANCH   4   7
ATOM      7  C   UNL     1       5.707  -2.049   2.831  1.00  0.00     0.186 C 
ATOM      8  N   UNL     1       4.976  -0.816   3.158  1.00  0.00    -0.310 N 
ATOM      9  C   UNL     1       5.368   0.362   2.401  1.00  0.00     0.176 C 
ATOM     10  C   UNL     1       6.451  -1.851   1.503  1.00  0.00     0.107 C 
ATOM     11  S   UNL     1       5.662  -0.407   0.742  1.00  0.00    -0.129 SA
BRANCH   8  12
ATOM     12  C   UNL     1       4.002  -0.889   4.146  1.00  0.00     0.255 C 
ATOM     13  O   UNL     1       4.119  -1.629   5.117  1.00  0.00    -0.269 OA
BRANCH  12  14
ATOM     14  C   UNL     1       2.682  -0.229   3.912  1.00  0.00     0.043 A 
ATOM     15  C   UNL     1       0.867   0.389   2.413  1.00  0.00     0.119 A 
ATOM     16  C   UNL     1       0.073   0.695   3.520  1.00  0.00     0.046 A 
ATOM     17  C   UNL     1       2.162  -0.090   2.614  1.00  0.00     0.060 A 
ATOM     18  C   UNL     1       0.561   0.515   4.815  1.00  0.00     0.005 A 
ATOM     19  C   UNL     1       1.865   0.055   5.012  1.00  0.00     0.014 A 
BRANCH  15  20
ATOM     20  O   UNL     1       0.267   0.585   1.198  1.00  0.00    -0.497 OA
ATOM     21  C   UNL     1       0.939   0.054   0.060  1.00  0.00     0.278 C 
ENDBRANCH  15  20
ENDBRANCH  12  14
ENDBRANCH   8  12
BRANCH   9  22
ATOM     22  C   UNL     1       6.650   1.112   2.820  1.00  0.00     0.003 A 
ATOM     23  C   UNL     1       7.137   2.084   1.902  1.00  0.00     0.008 A 
ATOM     24  C   UNL     1       7.412   0.936   3.989  1.00  0.00     0.047 A 
ATOM     25  C   UNL     1       8.358   2.743   2.074  1.00  0.00     0.001 A 
ATOM     26  C   UNL     1       8.645   1.596   4.155  1.00  0.00     0.021 A 
ATOM     27  Cl  UNL     1       6.950  -0.035   5.334  1.00  0.00    -0.084 Cl
ATOM     28  C   UNL     1       9.127   2.479   3.195  1.00  0.00     0.002 A 
ENDBRANCH   9  22
ENDBRANCH   4   7
ENDBRANCH   2   3
ENDBRANCH   1   2
BRANCH   1  29
ATOM     29  C   UNL     1       5.924  -6.582   4.994  1.00  0.00     0.118 C 
BRANCH  29  30
ATOM     30  N   UNL     1       6.128  -7.731   4.124  1.00  0.00    -0.352 N 
ATOM     31  C   UNL     1       6.359  -9.050   4.416  1.00  0.00     0.251 C 
ATOM     32  H   UNL     1       6.093  -7.526   3.162  1.00  0.00     0.163 HD
ATOM     33  O   UNL     1       6.630  -9.817   3.488  1.00  0.00    -0.269 OA
BRANCH  31  34
ATOM     34  C   UNL     1       6.314  -9.564   5.804  1.00  0.00     0.039 A 
ATOM     35  C   UNL     1       7.216 -10.571   6.167  1.00  0.00     0.014 A 
ATOM     36  C   UNL     1       5.373  -9.116   6.734  1.00  0.00     0.014 A 
ATOM     37  C   UNL     1       7.206 -11.086   7.466  1.00  0.00     0.010 A 
ATOM     38  C   UNL     1       5.415  -9.575   8.052  1.00  0.00     0.010 A 
ATOM     39  C   UNL     1       6.325 -10.572   8.430  1.00  0.00    -0.014 A 
BRANCH  39  40
ATOM     40  C   UNL     1       6.349 -11.077   9.829  1.00  0.00     0.031 A 
ATOM     41  C   UNL     1       5.158 -11.796  10.406  1.00  0.00     0.074 A 
ATOM     42  C   UNL     1       7.436 -10.859  10.595  1.00  0.00     0.049 A 
ATOM     43  N   UNL     1       5.000 -12.306  11.602  1.00  0.00    -0.248 NA
ATOM     44  C   UNL     1       3.983 -11.944   9.533  1.00  0.00     0.031 C 
ATOM     45  C   UNL     1       8.636 -10.135  10.171  1.00  0.00     0.029 A 
ATOM     46  N   UNL     1       7.712 -11.227  11.889  1.00  0.00    -0.354 N 
ATOM     47  C   UNL     1       3.712 -12.826  11.627  1.00  0.00     0.074 A 
ATOM     48  C   UNL     1       3.110 -12.517  10.348  1.00  0.00     0.031 C 
ATOM     49  C   UNL     1       9.532 -10.144  11.170  1.00  0.00     0.029 A 
ATOM     50  C   UNL     1       8.960 -10.841  12.318  1.00  0.00     0.049 A 
ATOM     51  H   UNL     1       7.076 -11.720  12.456  1.00  0.00     0.167 HD
ATOM     52  C   UNL     1       3.094 -13.521  12.614  1.00  0.00     0.037 A 
ATOM     53  C   UNL     1       9.579 -11.032  13.500  1.00  0.00     0.037 A 
ATOM     54  C   UNL     1       3.701 -13.836  13.881  1.00  0.00     0.049 A 
ATOM     55  C   UNL     1       8.873 -11.800  14.584  1.00  0.00     0.074 A 
ATOM     56  C   UNL     1       3.175 -14.572  14.929  1.00  0.00     0.029 A 
ATOM     57  N   UNL     1       4.969 -13.432  14.276  1.00  0.00    -0.354 N 
ATOM     58  N   UNL     1       7.677 -12.339  14.568  1.00  0.00    -0.248 NA
ATOM     59  C   UNL     1       9.604 -11.994  15.843  1.00  0.00     0.031 C 
ATOM     60  C   UNL     1       4.107 -14.576  15.973  1.00  0.00     0.029 A 
ATOM     61  C   UNL     1       5.235 -13.887  15.557  1.00  0.00     0.049 A 
ATOM     62  H   UNL     1       5.588 -12.899  13.726  1.00  0.00     0.167 HD
ATOM     63  C   UNL     1       7.525 -12.964  15.800  1.00  0.00     0.074 A 
ATOM     64  C   UNL     1       8.754 -12.741  16.535  1.00  0.00     0.031 C 
ATOM     65  C   UNL     1       6.466 -13.665  16.277  1.00  0.00     0.037 A 
BRANCH  52  66
ATOM     66  C   UNL     1       1.685 -13.986  12.355  1.00  0.00     0.058 A 
ATOM     67  C   UNL     1       1.402 -14.989  11.412  1.00  0.00     0.135 A 
ATOM     68  C   UNL     1       0.605 -13.435  13.064  1.00  0.00     0.135 A 
ATOM     69  F   UNL     1       2.393 -15.544  10.697  1.00  0.00    -0.206 F 
ATOM     70  C   UNL     1       0.098 -15.396  11.150  1.00  0.00     0.059 A 
ATOM     71  C   UNL     1      -0.705 -13.849  12.840  1.00  0.00     0.059 A 
ATOM     72  F   UNL     1       0.816 -12.478  13.981  1.00  0.00    -0.206 F 
ATOM     73  C   UNL     1      -0.951 -14.815  11.865  1.00  0.00     0.060 A 
BRANCH  73  74
ATOM     74  S   UNL     1      -2.639 -15.337  11.498  1.00  0.00     0.124 S 
ATOM     75  O   UNL     1      -2.870 -14.687  10.211  1.00  0.00    -0.237 OA
ATOM     76  O   UNL     1      -2.516 -16.792  11.458  1.00  0.00    -0.237 OA
ATOM     77  O   UNL     1      -3.411 -14.808  12.616  1.00  0.00    -0.744 OA
ENDBRANCH  73  74
ENDBRANCH  52  66
BRANCH  53  78
ATOM     78  C   UNL     1      10.963 -10.527  13.697  1.00  0.00     0.058 A 
ATOM     79  C   UNL     1      12.049 -11.413  13.759  1.00  0.00     0.135 A 
ATOM     80  C   UNL     1      11.234  -9.153  13.794  1.00  0.00     0.135 A 
ATOM     81  F   UNL     1      11.841 -12.736  13.677  1.00  0.00    -0.206 F 
ATOM     82  C   UNL     1      13.354 -10.957  13.918  1.00  0.00     0.059 A 
ATOM     83  C   UNL     1      12.533  -8.672  13.929  1.00  0.00     0.059 A 
ATOM     84  F   UNL     1      10.231  -8.264  13.724  1.00  0.00    -0.206 F 
ATOM     85  C   UNL     1      13.586  -9.583  13.996  1.00  0.00     0.060 A 
BRANCH  85  86
ATOM     86  S   UNL     1      15.290  -9.000  14.135  1.00  0.00     0.124 S 
ATOM     87  O   UNL     1      15.612  -9.359  15.511  1.00  0.00    -0.237 OA
ATOM     88  O   UNL     1      15.964  -9.775  13.098  1.00  0.00    -0.237 OA
ATOM     89  O   UNL     1      15.178  -7.570  13.864  1.00  0.00    -0.744 OA
ENDBRANCH  85  86
ENDBRANCH  53  78
BRANCH  65  90
ATOM     90  C   UNL     1       6.599 -14.280  17.643  1.00  0.00     0.058 A 
ATOM     91  C   UNL     1       6.575 -13.504  18.812  1.00  0.00     0.135 A 
ATOM     92  C   UNL     1       6.704 -15.674  17.784  1.00  0.00     0.135 A 
ATOM     93  F   UNL     1       6.483 -12.167  18.734  1.00  0.00    -0.206 F 
ATOM     94  C   UNL     1       6.675 -14.086  20.073  1.00  0.00     0.059 A 
ATOM     95  C   UNL     1       6.777 -16.279  19.035  1.00  0.00     0.059 A 
ATOM     96  F   UNL     1       6.722 -16.464  16.699  1.00  0.00    -0.206 F 
ATOM     97  C   UNL     1       6.774 -15.475  20.174  1.00  0.00     0.060 A 
BRANCH  97  98
ATOM     98  S   UNL     1       6.871 -16.220  21.816  1.00  0.00     0.124 S 
ATOM     99  O   UNL     1       8.239 -15.896  22.206  1.00  0.00    -0.237 OA
ATOM    100  O   UNL     1       5.820 -15.514  22.542  1.00  0.00    -0.237 OA
ATOM    101  O   UNL     1       6.607 -17.634  21.564  1.00  0.00    -0.744 OA
ENDBRANCH  97  98
ENDBRANCH  65  90
ENDBRANCH  39  40
ENDBRANCH  31  34
ENDBRANCH  29  30
ENDBRANCH   1  29
TORSDOF 17
