REMARK SMILES O=C(Cn1nc(C2CC2)c2c(C(F)F)cc(-c3ccc(Cl)cc3)nc21)NCCCNC(=O)c1ccc(-c2c3nc(c(-c4c(F)cc(S(=O)(=O)[O-])cc4F)c4ccc([nH]4)c(-c4c(F)cc(S(=O)(=O)[O-])cc4F)c4nc(c(-c5c(F)cc(S(=O)(=O)[O-])cc5F)c5ccc2[nH]5)C=C4)C=C3)cc1
REMARK SMILES IDX 28 1 27 2 26 3 1 4 2 5 3 7 4 8 5 9 25 10 6 11 10 12 24 13
REMARK SMILES IDX 11 14 16 15 15 16 7 17 8 18 9 19 12 20 13 21 14 22 17 23
REMARK SMILES IDX 18 24 23 25 19 26 22 27 20 28 21 29 29 30 30 31 31 32 32 34
REMARK SMILES IDX 33 35 34 36 98 37 35 38 97 39 36 40 37 41 38 42 91 43 39 44
REMARK SMILES IDX 96 45 90 46 92 47 40 48 95 49 89 50 88 51 41 53 75 54 54 55
REMARK SMILES IDX 74 56 55 57 58 58 73 59 93 60 56 61 57 62 72 64 94 65 59 66
REMARK SMILES IDX 42 67 43 68 52 69 44 70 45 71 51 72 53 73 46 74 47 75 48 76
REMARK SMILES IDX 49 77 50 78 76 79 77 80 86 81 78 82 79 83 85 84 87 85 80 86
REMARK SMILES IDX 81 87 82 88 83 89 84 90 60 91 61 92 70 93 62 94 63 95 69 96
REMARK SMILES IDX 71 97 64 98 65 99 66 100 67 101 68 102
REMARK H PARENT 26 6 30 33 92 52 58 63
REMARK Flexibility Score: inf
ROOT
ATOM      1  C   UNL     1       2.058   0.079  -3.411  1.00  0.00     0.042 C 
ENDROOT
BRANCH   1   2
ATOM      2  C   UNL     1       1.931  -0.864  -2.211  1.00  0.00     0.117 C 
BRANCH   2   3
ATOM      3  N   UNL     1       2.736  -0.477  -1.059  1.00  0.00    -0.354 N 
ATOM      4  O   UNL     1       0.996   0.356   0.175  1.00  0.00    -0.273 OA
ATOM      5  C   UNL     1       2.182   0.031   0.104  1.00  0.00     0.241 C 
ATOM      6  H   UNL     1       3.714  -0.582  -1.109  1.00  0.00     0.163 HD
BRANCH   5   7
ATOM      7  C   UNL     1       3.142   0.266   1.263  1.00  0.00     0.246 C 
BRANCH   7   8
ATOM      8  N   UNL     1       3.846  -0.931   1.692  1.00  0.00    -0.237 N 
ATOM      9  N   UNL     1       3.250  -2.126   1.619  1.00  0.00    -0.175 NA
ATOM     10  C   UNL     1       5.108  -0.993   2.220  1.00  0.00     0.159 A 
ATOM     11  C   UNL     1       4.198  -3.005   1.973  1.00  0.00     0.076 A 
ATOM     12  C   UNL     1       5.405  -2.354   2.399  1.00  0.00     0.051 A 
ATOM     13  N   UNL     1       5.879   0.082   2.497  1.00  0.00    -0.228 NA
ATOM     14  C   UNL     1       6.694  -2.640   2.923  1.00  0.00     0.033 A 
ATOM     15  C   UNL     1       7.090  -0.220   2.997  1.00  0.00     0.073 A 
ATOM     16  C   UNL     1       7.519  -1.526   3.210  1.00  0.00     0.039 A 
BRANCH  11  17
ATOM     17  C   UNL     1       3.771  -4.460   1.802  1.00  0.00     0.041 C 
ATOM     18  C   UNL     1       4.641  -5.361   0.955  1.00  0.00     0.011 C 
ATOM     19  C   UNL     1       4.397  -5.686   2.392  1.00  0.00     0.011 C 
ENDBRANCH  11  17
BRANCH  14  20
ATOM     20  C   UNL     1       7.261  -3.986   3.285  1.00  0.00     0.373 C 
ATOM     21  F   UNL     1       6.603  -4.568   4.325  1.00  0.00    -0.205 F 
ATOM     22  F   UNL     1       7.258  -4.874   2.259  1.00  0.00    -0.205 F 
ENDBRANCH  14  20
BRANCH  15  23
ATOM     23  C   UNL     1       7.960   0.897   3.400  1.00  0.00     0.000 A 
ATOM     24  C   UNL     1       7.611   1.722   4.483  1.00  0.00     0.012 A 
ATOM     25  C   UNL     1       9.218   1.087   2.798  1.00  0.00     0.012 A 
ATOM     26  C   UNL     1       8.513   2.669   4.983  1.00  0.00     0.021 A 
ATOM     27  C   UNL     1      10.118   2.036   3.294  1.00  0.00     0.021 A 
ATOM     28  C   UNL     1       9.769   2.809   4.397  1.00  0.00     0.041 A 
ATOM     29  Cl  UNL     1      10.909   3.903   5.071  1.00  0.00    -0.084 Cl
ENDBRANCH  15  23
ENDBRANCH   7   8
ENDBRANCH   5   7
ENDBRANCH   2   3
ENDBRANCH   1   2
BRANCH   1  30
ATOM     30  C   UNL     1       3.470   0.145  -3.968  1.00  0.00     0.118 C 
BRANCH  30  31
ATOM     31  N   UNL     1       3.911  -1.085  -4.627  1.00  0.00    -0.352 N 
ATOM     32  C   UNL     1       5.059  -1.303  -5.361  1.00  0.00     0.251 C 
ATOM     33  H   UNL     1       3.310  -1.859  -4.534  1.00  0.00     0.163 HD
ATOM     34  O   UNL     1       5.126  -2.292  -6.101  1.00  0.00    -0.269 OA
BRANCH  32  35
ATOM     35  C   UNL     1       6.204  -0.375  -5.263  1.00  0.00     0.039 A 
ATOM     36  C   UNL     1       7.080  -0.186  -6.340  1.00  0.00     0.014 A 
ATOM     37  C   UNL     1       6.441   0.282  -4.057  1.00  0.00     0.014 A 
ATOM     38  C   UNL     1       8.156   0.688  -6.195  1.00  0.00     0.010 A 
ATOM     39  C   UNL     1       7.400   1.256  -3.961  1.00  0.00     0.010 A 
ATOM     40  C   UNL     1       8.305   1.404  -4.998  1.00  0.00    -0.014 A 
BRANCH  40  41
ATOM     41  C   UNL     1       9.348   2.403  -4.827  1.00  0.00     0.031 A 
ATOM     42  C   UNL     1       9.217   3.544  -5.763  1.00  0.00     0.074 A 
ATOM     43  C   UNL     1      10.196   2.403  -3.775  1.00  0.00     0.049 A 
ATOM     44  N   UNL     1       9.926   3.770  -6.817  1.00  0.00    -0.248 NA
ATOM     45  C   UNL     1       8.049   4.433  -5.634  1.00  0.00     0.031 C 
ATOM     46  C   UNL     1      10.190   1.504  -2.611  1.00  0.00     0.029 A 
ATOM     47  N   UNL     1      11.198   3.274  -3.469  1.00  0.00    -0.354 N 
ATOM     48  C   UNL     1       9.473   4.987  -7.315  1.00  0.00     0.074 A 
ATOM     49  C   UNL     1       8.188   5.214  -6.710  1.00  0.00     0.031 C 
ATOM     50  C   UNL     1      10.983   2.010  -1.639  1.00  0.00     0.029 A 
ATOM     51  C   UNL     1      11.683   3.167  -2.167  1.00  0.00     0.049 A 
ATOM     52  H   UNL     1      11.550   3.926  -4.116  1.00  0.00     0.167 HD
ATOM     53  C   UNL     1      10.336   5.847  -7.923  1.00  0.00     0.037 A 
ATOM     54  C   UNL     1      12.599   3.977  -1.577  1.00  0.00     0.037 A 
ATOM     55  C   UNL     1      11.603   5.202  -8.160  1.00  0.00     0.049 A 
ATOM     56  C   UNL     1      13.379   4.593  -2.679  1.00  0.00     0.074 A 
ATOM     57  C   UNL     1      12.090   4.235  -9.011  1.00  0.00     0.029 A 
ATOM     58  N   UNL     1      12.470   5.295  -7.101  1.00  0.00    -0.354 N 
ATOM     59  N   UNL     1      14.140   3.911  -3.491  1.00  0.00    -0.248 NA
ATOM     60  C   UNL     1      13.033   5.936  -3.128  1.00  0.00     0.031 C 
ATOM     61  C   UNL     1      13.163   3.604  -8.313  1.00  0.00     0.029 A 
ATOM     62  C   UNL     1      13.337   4.236  -7.082  1.00  0.00     0.049 A 
ATOM     63  H   UNL     1      12.469   6.026  -6.442  1.00  0.00     0.167 HD
ATOM     64  C   UNL     1      14.007   4.553  -4.707  1.00  0.00     0.074 A 
ATOM     65  C   UNL     1      13.468   5.870  -4.388  1.00  0.00     0.031 C 
ATOM     66  C   UNL     1      14.040   3.849  -5.875  1.00  0.00     0.037 A 
BRANCH  53  67
ATOM     67  C   UNL     1      10.246   7.357  -7.869  1.00  0.00     0.058 A 
ATOM     68  C   UNL     1      11.099   8.125  -8.690  1.00  0.00     0.135 A 
ATOM     69  C   UNL     1       9.579   8.074  -6.851  1.00  0.00     0.135 A 
ATOM     70  F   UNL     1      11.805   7.544  -9.673  1.00  0.00    -0.206 F 
ATOM     71  C   UNL     1      11.303   9.492  -8.488  1.00  0.00     0.059 A 
ATOM     72  C   UNL     1       9.726   9.444  -6.666  1.00  0.00     0.059 A 
ATOM     73  F   UNL     1       8.831   7.466  -5.922  1.00  0.00    -0.206 F 
ATOM     74  C   UNL     1      10.613  10.141  -7.469  1.00  0.00     0.060 A 
BRANCH  74  75
ATOM     75  S   UNL     1      10.914  11.893  -7.172  1.00  0.00     0.124 S 
ATOM     76  O   UNL     1      12.296  11.879  -6.705  1.00  0.00    -0.237 OA
ATOM     77  O   UNL     1      10.691  12.463  -8.496  1.00  0.00    -0.237 OA
ATOM     78  O   UNL     1       9.911  12.240  -6.170  1.00  0.00    -0.744 OA
ENDBRANCH  74  75
ENDBRANCH  53  67
BRANCH  54  79
ATOM     79  C   UNL     1      12.616   4.535  -0.194  1.00  0.00     0.058 A 
ATOM     80  C   UNL     1      13.709   5.311   0.243  1.00  0.00     0.135 A 
ATOM     81  C   UNL     1      11.445   4.623   0.582  1.00  0.00     0.135 A 
ATOM     82  F   UNL     1      14.873   5.273  -0.424  1.00  0.00    -0.206 F 
ATOM     83  C   UNL     1      13.608   6.213   1.306  1.00  0.00     0.059 A 
ATOM     84  C   UNL     1      11.323   5.512   1.651  1.00  0.00     0.059 A 
ATOM     85  F   UNL     1      10.351   3.915   0.265  1.00  0.00    -0.206 F 
ATOM     86  C   UNL     1      12.394   6.337   1.978  1.00  0.00     0.060 A 
BRANCH  86  87
ATOM     87  S   UNL     1      12.180   7.686   3.167  1.00  0.00     0.124 S 
ATOM     88  O   UNL     1      13.060   7.275   4.255  1.00  0.00    -0.237 OA
ATOM     89  O   UNL     1      12.622   8.843   2.395  1.00  0.00    -0.237 OA
ATOM     90  O   UNL     1      10.751   7.650   3.465  1.00  0.00    -0.744 OA
ENDBRANCH  86  87
ENDBRANCH  54  79
BRANCH  66  91
ATOM     91  C   UNL     1      14.745   2.524  -5.873  1.00  0.00     0.058 A 
ATOM     92  C   UNL     1      14.302   1.365  -5.216  1.00  0.00     0.135 A 
ATOM     93  C   UNL     1      15.890   2.412  -6.677  1.00  0.00     0.135 A 
ATOM     94  F   UNL     1      13.178   1.370  -4.486  1.00  0.00    -0.206 F 
ATOM     95  C   UNL     1      14.985   0.151  -5.338  1.00  0.00     0.059 A 
ATOM     96  C   UNL     1      16.567   1.210  -6.837  1.00  0.00     0.059 A 
ATOM     97  F   UNL     1      16.337   3.479  -7.361  1.00  0.00    -0.206 F 
ATOM     98  C   UNL     1      16.114   0.084  -6.156  1.00  0.00     0.060 A 
BRANCH  98  99
ATOM     99  S   UNL     1      16.959  -1.498  -6.367  1.00  0.00     0.124 S 
ATOM    100  O   UNL     1      17.518  -1.728  -5.039  1.00  0.00    -0.237 OA
ATOM    101  O   UNL     1      15.869  -2.386  -6.760  1.00  0.00    -0.237 OA
ATOM    102  O   UNL     1      17.939  -1.225  -7.416  1.00  0.00    -0.744 OA
ENDBRANCH  98  99
ENDBRANCH  66  91
ENDBRANCH  40  41
ENDBRANCH  32  35
ENDBRANCH  30  31
ENDBRANCH   1  30
TORSDOF 17
