REMARK SMILES COc1ccc2c(c1)OC[C@@]1(C(=O)NCCCNC(=O)c3ccc(-c4c5nc(c(-c6c(F)cc(S(=O)(=O)[O-])cc6F)c6ccc([nH]6)c(-c6c(F)cc(S(=O)(=O)[O-])cc6F)c6nc(c(-c7c(F)cc(S(=O)(=O)[O-])cc7F)c7ccc4[nH]7)C=C6)C=C5)cc3)C[N@@H+](Cc3cc(C(C)(C)C)n[nH]3)C[C@H]21
REMARK SMILES IDX 16 1 15 2 14 3 12 4 13 5 11 7 3 8 4 9 8 10 5 11 7 12 6 13
REMARK SMILES IDX 9 14 100 15 10 16 99 17 87 18 88 19 2 21 1 22 89 23 90 24
REMARK SMILES IDX 91 25 98 26 92 27 97 28 93 30 94 31 95 32 96 33 17 34 18 35
REMARK SMILES IDX 19 36 20 38 21 39 22 40 86 41 23 42 85 43 24 44 25 45 26 46
REMARK SMILES IDX 79 47 27 48 84 49 78 50 80 51 28 52 83 53 77 54 76 55 29 57
REMARK SMILES IDX 63 58 42 59 62 60 43 61 46 62 61 63 81 64 44 65 45 66 60 68
REMARK SMILES IDX 82 69 47 70 30 71 31 72 40 73 32 74 33 75 39 76 41 77 34 78
REMARK SMILES IDX 35 79 36 80 37 81 38 82 64 83 65 84 74 85 66 86 67 87 73 88
REMARK SMILES IDX 75 89 68 90 69 91 70 92 71 93 72 94 48 95 49 96 58 97 50 98
REMARK SMILES IDX 51 99 57 100 59 101 52 102 53 103 54 104 55 105 56 106
REMARK H PARENT 14 6 88 20 98 29 18 37 80 56 46 67
REMARK Flexibility Score: inf
ROOT
ATOM      1  C   UNL     1       5.336  -8.291   1.784  1.00  0.00     0.042 C 
ENDROOT
BRANCH   1   2
ATOM      2  C   UNL     1       4.732  -7.876   3.108  1.00  0.00     0.117 C 
BRANCH   2   3
ATOM      3  N   UNL     1       5.395  -6.743   3.743  1.00  0.00    -0.355 N 
ATOM      4  C   UNL     1       4.779  -5.678   4.363  1.00  0.00     0.236 C 
ATOM      5  O   UNL     1       5.373  -5.141   5.303  1.00  0.00    -0.274 OA
ATOM      6  H   UNL     1       6.380  -6.738   3.728  1.00  0.00     0.163 HD
BRANCH   4   7
ATOM      7  C   UNL     1       3.382  -5.239   3.817  1.00  0.00     0.144 C 
ATOM      8  C   UNL     1       0.801  -1.092   1.737  1.00  0.00     0.122 A 
ATOM      9  C   UNL     1      -0.095  -1.643   2.652  1.00  0.00     0.047 A 
ATOM     10  C   UNL     1       2.065  -1.664   1.581  1.00  0.00     0.093 A 
ATOM     11  C   UNL     1       0.252  -2.780   3.382  1.00  0.00     0.012 A 
ATOM     12  C   UNL     1       2.413  -2.780   2.345  1.00  0.00     0.126 A 
ATOM     13  C   UNL     1       1.513  -3.368   3.217  1.00  0.00     0.005 A 
ATOM     14  O   UNL     1       3.675  -3.280   2.248  1.00  0.00    -0.492 OA
ATOM     15  C   UNL     1       1.958  -4.544   4.053  1.00  0.00     0.103 C 
ATOM     16  C   UNL     1       4.108  -3.843   3.513  1.00  0.00     0.253 C 
ATOM     17  C   UNL     1       0.961  -5.700   3.891  1.00  0.00     0.272 C 
ATOM     18  C   UNL     1       2.906  -6.233   5.021  1.00  0.00     0.284 C 
ATOM     19  N   UNL     1       1.672  -6.818   4.473  1.00  0.00    -0.328 N 
ATOM     20  H   UNL     1       1.887  -7.520   3.765  1.00  0.00     0.348 HD
BRANCH   8  21
ATOM     21  O   UNL     1       0.354   0.036   1.104  1.00  0.00    -0.497 OA
ATOM     22  C   UNL     1       0.893   0.257  -0.194  1.00  0.00     0.278 C 
ENDBRANCH   8  21
BRANCH  19  23
ATOM     23  C   UNL     1       0.906  -7.683   5.365  1.00  0.00     0.319 C 
BRANCH  23  24
ATOM     24  C   UNL     1       0.701  -7.074   6.699  1.00  0.00     0.090 A 
ATOM     25  C   UNL     1      -0.056  -6.002   7.108  1.00  0.00     0.055 A 
ATOM     26  N   UNL     1       1.421  -7.455   7.795  1.00  0.00    -0.277 N 
ATOM     27  C   UNL     1       0.456  -5.664   8.381  1.00  0.00     0.068 A 
ATOM     28  N   UNL     1       1.303  -6.604   8.826  1.00  0.00    -0.180 NA
ATOM     29  H   UNL     1       1.972  -8.270   7.826  1.00  0.00     0.190 HD
BRANCH  27  30
ATOM     30  C   UNL     1       0.200  -4.406   9.186  1.00  0.00     0.006 C 
ATOM     31  C   UNL     1      -0.665  -4.740  10.411  1.00  0.00     0.017 C 
ATOM     32  C   UNL     1       1.538  -3.790   9.648  1.00  0.00     0.017 C 
ATOM     33  C   UNL     1      -0.528  -3.336   8.341  1.00  0.00     0.017 C 
ENDBRANCH  27  30
ENDBRANCH  23  24
ENDBRANCH  19  23
ENDBRANCH   4   7
ENDBRANCH   2   3
ENDBRANCH   1   2
BRANCH   1  34
ATOM     34  C   UNL     1       6.853  -8.354   1.785  1.00  0.00     0.118 C 
BRANCH  34  35
ATOM     35  N   UNL     1       7.404  -9.375   2.672  1.00  0.00    -0.352 N 
ATOM     36  C   UNL     1       7.848 -10.653   2.423  1.00  0.00     0.251 C 
ATOM     37  H   UNL     1       7.470  -9.100   3.615  1.00  0.00     0.163 HD
ATOM     38  O   UNL     1       8.167 -11.377   3.364  1.00  0.00    -0.269 OA
BRANCH  36  39
ATOM     39  C   UNL     1       7.885 -11.177   1.041  1.00  0.00     0.039 A 
ATOM     40  C   UNL     1       8.329 -10.379  -0.009  1.00  0.00     0.014 A 
ATOM     41  C   UNL     1       7.431 -12.473   0.783  1.00  0.00     0.014 A 
ATOM     42  C   UNL     1       8.066 -10.760  -1.317  1.00  0.00     0.010 A 
ATOM     43  C   UNL     1       7.303 -12.914  -0.539  1.00  0.00     0.010 A 
ATOM     44  C   UNL     1       7.550 -12.033  -1.603  1.00  0.00    -0.014 A 
BRANCH  44  45
ATOM     45  C   UNL     1       7.265 -12.403  -3.016  1.00  0.00     0.031 A 
ATOM     46  C   UNL     1       5.870 -12.776  -3.449  1.00  0.00     0.074 A 
ATOM     47  C   UNL     1       8.254 -12.323  -3.930  1.00  0.00     0.049 A 
ATOM     48  N   UNL     1       5.448 -13.162  -4.627  1.00  0.00    -0.248 NA
ATOM     49  C   UNL     1       4.809 -12.718  -2.430  1.00  0.00     0.031 C 
ATOM     50  C   UNL     1       9.641 -11.944  -3.642  1.00  0.00     0.029 A 
ATOM     51  N   UNL     1       8.243 -12.515  -5.287  1.00  0.00    -0.354 N 
ATOM     52  C   UNL     1       4.090 -13.425  -4.483  1.00  0.00     0.074 A 
ATOM     53  C   UNL     1       3.758 -13.172  -3.099  1.00  0.00     0.031 C 
ATOM     54  C   UNL     1      10.322 -11.853  -4.792  1.00  0.00     0.029 A 
ATOM     55  C   UNL     1       9.452 -12.258  -5.889  1.00  0.00     0.049 A 
ATOM     56  H   UNL     1       7.445 -12.808  -5.784  1.00  0.00     0.167 HD
ATOM     57  C   UNL     1       3.202 -13.832  -5.422  1.00  0.00     0.037 A 
ATOM     58  C   UNL     1       9.832 -12.361  -7.176  1.00  0.00     0.037 A 
ATOM     59  C   UNL     1       3.532 -14.043  -6.808  1.00  0.00     0.049 A 
ATOM     60  C   UNL     1       8.837 -12.843  -8.189  1.00  0.00     0.074 A 
ATOM     61  C   UNL     1       2.706 -14.461  -7.837  1.00  0.00     0.029 A 
ATOM     62  N   UNL     1       4.787 -13.835  -7.364  1.00  0.00    -0.354 N 
ATOM     63  N   UNL     1       7.573 -13.149  -8.019  1.00  0.00    -0.248 NA
ATOM     64  C   UNL     1       9.325 -13.019  -9.562  1.00  0.00     0.031 C 
ATOM     65  C   UNL     1       3.468 -14.534  -9.009  1.00  0.00     0.029 A 
ATOM     66  C   UNL     1       4.759 -14.124  -8.719  1.00  0.00     0.049 A 
ATOM     67  H   UNL     1       5.580 -13.528  -6.869  1.00  0.00     0.167 HD
ATOM     68  C   UNL     1       7.114 -13.558  -9.263  1.00  0.00     0.074 A 
ATOM     69  C   UNL     1       8.228 -13.432 -10.182  1.00  0.00     0.031 C 
ATOM     70  C   UNL     1       5.883 -14.006  -9.613  1.00  0.00     0.037 A 
BRANCH  57  71
ATOM     71  C   UNL     1       1.787 -14.094  -4.983  1.00  0.00     0.058 A 
ATOM     72  C   UNL     1       0.899 -13.048  -4.685  1.00  0.00     0.135 A 
ATOM     73  C   UNL     1       1.298 -15.409  -4.905  1.00  0.00     0.135 A 
ATOM     74  F   UNL     1       1.319 -11.774  -4.724  1.00  0.00    -0.206 F 
ATOM     75  C   UNL     1      -0.418 -13.297  -4.310  1.00  0.00     0.059 A 
ATOM     76  C   UNL     1      -0.021 -15.680  -4.554  1.00  0.00     0.059 A 
ATOM     77  F   UNL     1       2.105 -16.446  -5.177  1.00  0.00    -0.206 F 
ATOM     78  C   UNL     1      -0.869 -14.617  -4.248  1.00  0.00     0.060 A 
BRANCH  78  79
ATOM     79  S   UNL     1      -2.584 -14.921  -3.768  1.00  0.00     0.124 S 
ATOM     80  O   UNL     1      -2.547 -14.605  -2.343  1.00  0.00    -0.237 OA
ATOM     81  O   UNL     1      -3.315 -13.976  -4.607  1.00  0.00    -0.237 OA
ATOM     82  O   UNL     1      -2.784 -16.329  -4.093  1.00  0.00    -0.744 OA
ENDBRANCH  78  79
ENDBRANCH  57  71
BRANCH  58  83
ATOM     83  C   UNL     1      11.226 -12.021  -7.560  1.00  0.00     0.058 A 
ATOM     84  C   UNL     1      11.507 -10.869  -8.308  1.00  0.00     0.135 A 
ATOM     85  C   UNL     1      12.308 -12.813  -7.145  1.00  0.00     0.135 A 
ATOM     86  F   UNL     1      10.505 -10.085  -8.735  1.00  0.00    -0.206 F 
ATOM     87  C   UNL     1      12.812 -10.512  -8.629  1.00  0.00     0.059 A 
ATOM     88  C   UNL     1      13.622 -12.463  -7.430  1.00  0.00     0.059 A 
ATOM     89  F   UNL     1      12.091 -13.918  -6.413  1.00  0.00    -0.206 F 
ATOM     90  C   UNL     1      13.864 -11.312  -8.178  1.00  0.00     0.060 A 
BRANCH  90  91
ATOM     91  S   UNL     1      15.559 -10.797  -8.531  1.00  0.00     0.124 S 
ATOM     92  O   UNL     1      15.675 -11.124  -9.947  1.00  0.00    -0.237 OA
ATOM     93  O   UNL     1      15.522  -9.375  -8.203  1.00  0.00    -0.237 OA
ATOM     94  O   UNL     1      16.354 -11.620  -7.624  1.00  0.00    -0.744 OA
ENDBRANCH  90  91
ENDBRANCH  58  83
BRANCH  70  95
ATOM     95  C   UNL     1       5.684 -14.389 -11.050  1.00  0.00     0.058 A 
ATOM     96  C   UNL     1       6.211 -15.583 -11.566  1.00  0.00     0.135 A 
ATOM     97  C   UNL     1       4.941 -13.568 -11.912  1.00  0.00     0.135 A 
ATOM     98  F   UNL     1       6.936 -16.396 -10.782  1.00  0.00    -0.206 F 
ATOM     99  C   UNL     1       6.031 -15.937 -12.899  1.00  0.00     0.059 A 
ATOM    100  C   UNL     1       4.729 -13.914 -13.242  1.00  0.00     0.059 A 
ATOM    101  F   UNL     1       4.409 -12.421 -11.461  1.00  0.00    -0.206 F 
ATOM    102  C   UNL     1       5.291 -15.093 -13.730  1.00  0.00     0.060 A 
BRANCH 102 103
ATOM    103  S   UNL     1       5.055 -15.569 -15.455  1.00  0.00     0.124 S 
ATOM    104  O   UNL     1       6.369 -15.281 -16.020  1.00  0.00    -0.237 OA
ATOM    105  O   UNL     1       4.708 -16.983 -15.345  1.00  0.00    -0.237 OA
ATOM    106  O   UNL     1       3.973 -14.698 -15.902  1.00  0.00    -0.744 OA
ENDBRANCH 102 103
ENDBRANCH  70  95
ENDBRANCH  44  45
ENDBRANCH  36  39
ENDBRANCH  34  35
ENDBRANCH   1  34
TORSDOF 17
