REMARK SMILES Cc1ccc(Cl)c(Nc2ccccc2C(=O)NCC(=O)NCCCNC(=O)c2ccc(-c3c4nc(c(-c5c(F)cc(S(=O)(=O)[O-])cc5F)c5ccc([nH]5)c(-c5c(F)cc(S(=O)(=O)[O-])cc5F)c5nc(c(-c6c(F)cc(S(=O)(=O)[O-])cc6F)c6ccc3[nH]6)C=C5)C=C4)cc2)c1Cl
REMARK SMILES IDX 22 1 21 2 19 3 20 4 18 6 17 7 15 8 16 9 14 11 9 12 10 13
REMARK SMILES IDX 11 14 13 15 12 16 8 17 7 19 1 20 2 21 3 22 94 23 4 24 95 25
REMARK SMILES IDX 5 26 6 27 23 28 24 29 25 30 26 31 27 33 28 34 29 35 93 36
REMARK SMILES IDX 30 37 92 38 31 39 32 40 33 41 86 42 34 43 91 44 85 45 87 46
REMARK SMILES IDX 35 47 90 48 84 49 83 50 36 52 70 53 49 54 69 55 50 56 53 57
REMARK SMILES IDX 68 58 88 59 51 60 52 61 67 63 89 64 54 65 37 66 38 67 47 68
REMARK SMILES IDX 39 69 40 70 46 71 48 72 41 73 42 74 43 75 44 76 45 77 71 78
REMARK SMILES IDX 72 79 81 80 73 81 74 82 80 83 82 84 75 85 76 86 77 87 78 88
REMARK SMILES IDX 79 89 55 90 56 91 65 92 57 93 58 94 64 95 66 96 59 97 60 98
REMARK SMILES IDX 61 99 62 100 63 101
REMARK H PARENT 21 5 17 10 8 18 25 32 87 51 53 62
REMARK Flexibility Score: inf
ROOT
ATOM      1  C   UNL     1      -1.739  -3.599   2.303  1.00  0.00     0.117 C 
ENDROOT
BRANCH   1   2
ATOM      2  N   UNL     1      -2.604  -2.443   2.321  1.00  0.00    -0.355 N 
ATOM      3  C   UNL     1      -2.222  -1.135   2.327  1.00  0.00     0.239 C 
ATOM      4  O   UNL     1      -3.091  -0.272   2.467  1.00  0.00    -0.273 OA
ATOM      5  H   UNL     1      -3.572  -2.618   2.330  1.00  0.00     0.163 HD
BRANCH   3   6
ATOM      6  C   UNL     1      -0.811  -0.775   1.873  1.00  0.00     0.216 C 
BRANCH   6   7
ATOM      7  N   UNL     1       0.407  -1.309   2.439  1.00  0.00    -0.343 N 
ATOM      8  C   UNL     1       1.510  -1.873   1.834  1.00  0.00     0.253 C 
ATOM      9  O   UNL     1       2.585  -1.660   2.405  1.00  0.00    -0.269 OA
ATOM     10  H   UNL     1       0.459  -1.262   3.421  1.00  0.00     0.164 HD
BRANCH   8  11
ATOM     11  C   UNL     1       1.495  -2.890   0.720  1.00  0.00     0.063 A 
ATOM     12  C   UNL     1       0.792  -2.933  -0.508  1.00  0.00     0.051 A 
ATOM     13  C   UNL     1       0.914  -4.102  -1.307  1.00  0.00     0.027 A 
ATOM     14  C   UNL     1       1.753  -5.163  -0.969  1.00  0.00     0.002 A 
ATOM     15  C   UNL     1       2.350  -3.984   1.029  1.00  0.00     0.016 A 
ATOM     16  C   UNL     1       2.493  -5.094   0.195  1.00  0.00     0.001 A 
BRANCH  12  17
ATOM     17  N   UNL     1       0.066  -1.903  -1.146  1.00  0.00    -0.352 N 
ATOM     18  H   UNL     1      -0.695  -2.233  -1.677  1.00  0.00     0.167 HD
BRANCH  17  19
ATOM     19  C   UNL     1       0.205  -0.493  -1.181  1.00  0.00     0.077 A 
ATOM     20  C   UNL     1       2.680   2.225  -0.125  1.00  0.00     0.046 C 
ATOM     21  C   UNL     1       1.416   1.540  -0.566  1.00  0.00    -0.030 A 
ATOM     22  C   UNL     1       0.207   2.253  -0.553  1.00  0.00     0.006 A 
ATOM     23  C   UNL     1       1.414   0.179  -0.928  1.00  0.00     0.069 A 
ATOM     24  C   UNL     1      -0.981   1.639  -0.939  1.00  0.00     0.023 A 
ATOM     25  Cl  UNL     1       2.937  -0.628  -1.161  1.00  0.00    -0.082 Cl
ATOM     26  C   UNL     1      -0.979   0.285  -1.263  1.00  0.00     0.066 A 
ATOM     27  Cl  UNL     1      -2.504  -0.462  -1.626  1.00  0.00    -0.082 Cl
ENDBRANCH  17  19
ENDBRANCH  12  17
ENDBRANCH   8  11
ENDBRANCH   6   7
ENDBRANCH   3   6
ENDBRANCH   1   2
BRANCH   1  28
ATOM     28  C   UNL     1      -1.244  -3.913   3.704  1.00  0.00     0.042 C 
BRANCH  28  29
ATOM     29  C   UNL     1      -2.394  -4.231   4.646  1.00  0.00     0.118 C 
BRANCH  29  30
ATOM     30  N   UNL     1      -3.103  -5.437   4.244  1.00  0.00    -0.352 N 
ATOM     31  C   UNL     1      -3.402  -6.542   4.998  1.00  0.00     0.251 C 
ATOM     32  H   UNL     1      -3.408  -5.462   3.308  1.00  0.00     0.163 HD
ATOM     33  O   UNL     1      -3.797  -7.567   4.460  1.00  0.00    -0.269 OA
BRANCH  31  34
ATOM     34  C   UNL     1      -3.220  -6.470   6.460  1.00  0.00     0.039 A 
ATOM     35  C   UNL     1      -2.589  -7.527   7.115  1.00  0.00     0.014 A 
ATOM     36  C   UNL     1      -3.647  -5.343   7.170  1.00  0.00     0.014 A 
ATOM     37  C   UNL     1      -2.349  -7.433   8.485  1.00  0.00     0.010 A 
ATOM     38  C   UNL     1      -3.321  -5.211   8.512  1.00  0.00     0.010 A 
ATOM     39  C   UNL     1      -2.687  -6.263   9.187  1.00  0.00    -0.014 A 
BRANCH  39  40
ATOM     40  C   UNL     1      -2.408  -6.133  10.637  1.00  0.00     0.031 A 
ATOM     41  C   UNL     1      -3.548  -5.968  11.605  1.00  0.00     0.074 A 
ATOM     42  C   UNL     1      -1.133  -6.115  11.069  1.00  0.00     0.049 A 
ATOM     43  N   UNL     1      -3.510  -5.797  12.901  1.00  0.00    -0.248 NA
ATOM     44  C   UNL     1      -4.908  -5.963  11.041  1.00  0.00     0.031 C 
ATOM     45  C   UNL     1       0.053  -6.210  10.212  1.00  0.00     0.029 A 
ATOM     46  N   UNL     1      -0.618  -6.004  12.335  1.00  0.00    -0.354 N 
ATOM     47  C   UNL     1      -4.833  -5.653  13.302  1.00  0.00     0.074 A 
ATOM     48  C   UNL     1      -5.645  -5.690  12.107  1.00  0.00     0.031 C 
ATOM     49  C   UNL     1       1.153  -6.186  10.980  1.00  0.00     0.029 A 
ATOM     50  C   UNL     1       0.756  -6.032  12.376  1.00  0.00     0.049 A 
ATOM     51  H   UNL     1      -1.179  -5.913  13.138  1.00  0.00     0.167 HD
ATOM     52  C   UNL     1      -5.328  -5.530  14.556  1.00  0.00     0.037 A 
ATOM     53  C   UNL     1       1.599  -5.940  13.422  1.00  0.00     0.037 A 
ATOM     54  C   UNL     1      -4.509  -5.519  15.739  1.00  0.00     0.049 A 
ATOM     55  C   UNL     1       1.026  -5.804  14.807  1.00  0.00     0.074 A 
ATOM     56  C   UNL     1      -4.911  -5.458  17.062  1.00  0.00     0.029 A 
ATOM     57  N   UNL     1      -3.122  -5.568  15.744  1.00  0.00    -0.354 N 
ATOM     58  N   UNL     1      -0.233  -5.741  15.176  1.00  0.00    -0.248 NA
ATOM     59  C   UNL     1       1.983  -5.736  15.918  1.00  0.00     0.031 C 
ATOM     60  C   UNL     1      -3.765  -5.419  17.863  1.00  0.00     0.029 A 
ATOM     61  C   UNL     1      -2.651  -5.515  17.044  1.00  0.00     0.049 A 
ATOM     62  H   UNL     1      -2.557  -5.631  14.940  1.00  0.00     0.167 HD
ATOM     63  C   UNL     1      -0.218  -5.654  16.564  1.00  0.00     0.074 A 
ATOM     64  C   UNL     1       1.173  -5.688  16.967  1.00  0.00     0.031 C 
ATOM     65  C   UNL     1      -1.260  -5.557  17.426  1.00  0.00     0.037 A 
BRANCH  52  66
ATOM     66  C   UNL     1      -6.819  -5.403  14.710  1.00  0.00     0.058 A 
ATOM     67  C   UNL     1      -7.685  -6.473  14.430  1.00  0.00     0.135 A 
ATOM     68  C   UNL     1      -7.390  -4.206  15.173  1.00  0.00     0.135 A 
ATOM     69  F   UNL     1      -7.197  -7.636  13.968  1.00  0.00    -0.206 F 
ATOM     70  C   UNL     1      -9.063  -6.353  14.575  1.00  0.00     0.059 A 
ATOM     71  C   UNL     1      -8.764  -4.074  15.355  1.00  0.00     0.059 A 
ATOM     72  F   UNL     1      -6.612  -3.149  15.453  1.00  0.00    -0.206 F 
ATOM     73  C   UNL     1      -9.593  -5.149  15.040  1.00  0.00     0.060 A 
BRANCH  73  74
ATOM     74  S   UNL     1     -11.383  -5.014  15.232  1.00  0.00     0.124 S 
ATOM     75  O   UNL     1     -11.822  -4.966  13.841  1.00  0.00    -0.237 OA
ATOM     76  O   UNL     1     -11.711  -6.237  15.958  1.00  0.00    -0.237 OA
ATOM     77  O   UNL     1     -11.553  -3.776  15.986  1.00  0.00    -0.744 OA
ENDBRANCH  73  74
ENDBRANCH  52  66
BRANCH  53  78
ATOM     78  C   UNL     1       3.069  -5.999  13.201  1.00  0.00     0.058 A 
ATOM     79  C   UNL     1       3.820  -7.105  13.627  1.00  0.00     0.135 A 
ATOM     80  C   UNL     1       3.751  -4.960  12.548  1.00  0.00     0.135 A 
ATOM     81  F   UNL     1       3.216  -8.122  14.260  1.00  0.00    -0.206 F 
ATOM     82  C   UNL     1       5.196  -7.171  13.433  1.00  0.00     0.059 A 
ATOM     83  C   UNL     1       5.121  -5.016  12.316  1.00  0.00     0.059 A 
ATOM     84  F   UNL     1       3.076  -3.889  12.103  1.00  0.00    -0.206 F 
ATOM     85  C   UNL     1       5.838  -6.121  12.774  1.00  0.00     0.060 A 
BRANCH  85  86
ATOM     86  S   UNL     1       7.617  -6.237  12.491  1.00  0.00     0.124 S 
ATOM     87  O   UNL     1       8.142  -6.039  13.836  1.00  0.00    -0.237 OA
ATOM     88  O   UNL     1       7.752  -7.584  11.944  1.00  0.00    -0.237 OA
ATOM     89  O   UNL     1       7.878  -5.156  11.545  1.00  0.00    -0.744 OA
ENDBRANCH  85  86
ENDBRANCH  53  78
BRANCH  65  90
ATOM     90  C   UNL     1      -0.941  -5.518  18.895  1.00  0.00     0.058 A 
ATOM     91  C   UNL     1      -0.353  -4.393  19.495  1.00  0.00     0.135 A 
ATOM     92  C   UNL     1      -1.277  -6.602  19.722  1.00  0.00     0.135 A 
ATOM     93  F   UNL     1      -0.007  -3.332  18.750  1.00  0.00    -0.206 F 
ATOM     94  C   UNL     1      -0.084  -4.356  20.860  1.00  0.00     0.059 A 
ATOM     95  C   UNL     1      -1.047  -6.574  21.093  1.00  0.00     0.059 A 
ATOM     96  F   UNL     1      -1.853  -7.697  19.201  1.00  0.00    -0.206 F 
ATOM     97  C   UNL     1      -0.438  -5.451  21.651  1.00  0.00     0.060 A 
BRANCH  97  98
ATOM     98  S   UNL     1      -0.113  -5.376  23.425  1.00  0.00     0.124 S 
ATOM     99  O   UNL     1       1.338  -5.528  23.464  1.00  0.00    -0.237 OA
ATOM    100  O   UNL     1      -0.623  -4.055  23.780  1.00  0.00    -0.237 OA
ATOM    101  O   UNL     1      -0.876  -6.500  23.959  1.00  0.00    -0.744 OA
ENDBRANCH  97  98
ENDBRANCH  65  90
ENDBRANCH  39  40
ENDBRANCH  31  34
ENDBRANCH  29  30
ENDBRANCH  28  29
ENDBRANCH   1  28
TORSDOF 17
