REMARK SMILES CC1(C)C(CNC(=O)[C@H]2C[C@H]2C(=O)NCCCNC(=O)c2ccc(-c3c4nc(c(-c5c(F)cc(S(=O)(=O)[O-])cc5F)c5ccc([nH]5)c(-c5c(F)cc(S(=O)(=O)[O-])cc5F)c5nc(c(-c6c(F)cc(S(=O)(=O)[O-])cc6F)c6ccc3[nH]6)C=C5)C=C4)cc2)C1(C)C
REMARK SMILES IDX 16 1 15 2 14 3 12 4 13 5 11 7 9 8 10 9 7 10 6 11 8 13 5 14
REMARK SMILES IDX 4 15 1 16 2 17 3 18 87 19 88 20 89 21 17 22 18 23 19 24
REMARK SMILES IDX 20 26 21 27 22 28 86 29 23 30 85 31 24 32 25 33 26 34 79 35
REMARK SMILES IDX 27 36 84 37 78 38 80 39 28 40 83 41 77 42 76 43 29 45 63 46
REMARK SMILES IDX 42 47 62 48 43 49 46 50 61 51 81 52 44 53 45 54 60 56 82 57
REMARK SMILES IDX 47 58 30 59 31 60 40 61 32 62 33 63 39 64 41 65 34 66 35 67
REMARK SMILES IDX 36 68 37 69 38 70 64 71 65 72 74 73 66 74 67 75 73 76 75 77
REMARK SMILES IDX 68 78 69 79 70 80 71 81 72 82 48 83 49 84 58 85 50 86 51 87
REMARK SMILES IDX 57 88 59 89 52 90 53 91 54 92 55 93 56 94
REMARK H PARENT 14 6 6 12 18 25 80 44 46 55
REMARK Flexibility Score: inf
ROOT
ATOM      1  C   UNL     1       3.475  -7.673  -0.647  1.00  0.00     0.042 C 
ENDROOT
BRANCH   1   2
ATOM      2  C   UNL     1       3.636  -7.923  -2.143  1.00  0.00     0.117 C 
BRANCH   2   3
ATOM      3  N   UNL     1       2.370  -8.181  -2.802  1.00  0.00    -0.356 N 
ATOM      4  C   UNL     1       1.614  -7.525  -3.732  1.00  0.00     0.223 C 
ATOM      5  O   UNL     1       0.538  -8.046  -4.030  1.00  0.00    -0.275 OA
ATOM      6  H   UNL     1       1.959  -9.027  -2.511  1.00  0.00     0.163 HD
BRANCH   4   7
ATOM      7  C   UNL     1       2.003  -6.303  -4.485  1.00  0.00     0.091 C 
ATOM      8  C   UNL     1       2.526  -5.007  -3.893  1.00  0.00     0.091 C 
ATOM      9  C   UNL     1       3.407  -5.869  -4.766  1.00  0.00     0.028 C 
BRANCH   8  10
ATOM     10  C   UNL     1       2.540  -4.826  -2.427  1.00  0.00     0.223 C 
ATOM     11  N   UNL     1       3.685  -4.460  -1.779  1.00  0.00    -0.356 N 
ATOM     12  H   UNL     1       3.567  -4.179  -0.843  1.00  0.00     0.163 HD
ATOM     13  O   UNL     1       1.486  -4.913  -1.805  1.00  0.00    -0.275 OA
BRANCH  11  14
ATOM     14  C   UNL     1       5.041  -4.423  -2.264  1.00  0.00     0.120 C 
BRANCH  14  15
ATOM     15  C   UNL     1       5.609  -3.050  -2.166  1.00  0.00     0.021 C 
ATOM     16  C   UNL     1       6.165  -0.968  -0.695  1.00  0.00     0.012 C 
ATOM     17  C   UNL     1       6.334  -2.451  -0.964  1.00  0.00    -0.025 C 
ATOM     18  C   UNL     1       6.455  -3.241   0.320  1.00  0.00     0.012 C 
ATOM     19  C   UNL     1       7.120  -2.864  -2.229  1.00  0.00    -0.025 C 
ATOM     20  C   UNL     1       7.614  -1.820  -3.209  1.00  0.00     0.012 C 
ATOM     21  C   UNL     1       8.048  -4.061  -2.179  1.00  0.00     0.012 C 
ENDBRANCH  14  15
ENDBRANCH  11  14
ENDBRANCH   8  10
ENDBRANCH   4   7
ENDBRANCH   2   3
ENDBRANCH   1   2
BRANCH   1  22
ATOM     22  C   UNL     1       3.089  -8.909   0.155  1.00  0.00     0.118 C 
BRANCH  22  23
ATOM     23  N   UNL     1       4.162  -9.891   0.209  1.00  0.00    -0.352 N 
ATOM     24  C   UNL     1       4.888 -10.363   1.276  1.00  0.00     0.251 C 
ATOM     25  H   UNL     1       4.407 -10.282  -0.660  1.00  0.00     0.163 HD
ATOM     26  O   UNL     1       5.891 -11.039   1.055  1.00  0.00    -0.269 OA
BRANCH  24  27
ATOM     27  C   UNL     1       4.496 -10.059   2.673  1.00  0.00     0.039 A 
ATOM     28  C   UNL     1       5.503  -9.836   3.618  1.00  0.00     0.014 A 
ATOM     29  C   UNL     1       3.158 -10.045   3.077  1.00  0.00     0.014 A 
ATOM     30  C   UNL     1       5.169  -9.547   4.944  1.00  0.00     0.010 A 
ATOM     31  C   UNL     1       2.823  -9.680   4.380  1.00  0.00     0.010 A 
ATOM     32  C   UNL     1       3.824  -9.438   5.331  1.00  0.00    -0.014 A 
BRANCH  32  33
ATOM     33  C   UNL     1       3.450  -9.088   6.727  1.00  0.00     0.031 A 
ATOM     34  C   UNL     1       2.698 -10.074   7.582  1.00  0.00     0.074 A 
ATOM     35  C   UNL     1       3.739  -7.863   7.208  1.00  0.00     0.049 A 
ATOM     36  N   UNL     1       2.236  -9.928   8.798  1.00  0.00    -0.248 NA
ATOM     37  C   UNL     1       2.404 -11.385   6.982  1.00  0.00     0.031 C 
ATOM     38  C   UNL     1       4.414  -6.798   6.463  1.00  0.00     0.029 A 
ATOM     39  N   UNL     1       3.493  -7.302   8.436  1.00  0.00    -0.354 N 
ATOM     40  C   UNL     1       1.579 -11.116   9.100  1.00  0.00     0.074 A 
ATOM     41  C   UNL     1       1.666 -11.956   7.924  1.00  0.00     0.031 C 
ATOM     42  C   UNL     1       4.549  -5.723   7.256  1.00  0.00     0.029 A 
ATOM     43  C   UNL     1       3.945  -6.009   8.554  1.00  0.00     0.049 A 
ATOM     44  H   UNL     1       3.035  -7.781   9.165  1.00  0.00     0.167 HD
ATOM     45  C   UNL     1       0.977 -11.484  10.256  1.00  0.00     0.037 A 
ATOM     46  C   UNL     1       3.881  -5.151   9.590  1.00  0.00     0.037 A 
ATOM     47  C   UNL     1       0.925 -10.663  11.438  1.00  0.00     0.049 A 
ATOM     48  C   UNL     1       3.245  -5.596  10.877  1.00  0.00     0.074 A 
ATOM     49  C   UNL     1       0.390 -10.970  12.678  1.00  0.00     0.029 A 
ATOM     50  N   UNL     1       1.433  -9.376  11.530  1.00  0.00    -0.354 N 
ATOM     51  N   UNL     1       2.676  -6.743  11.161  1.00  0.00    -0.248 NA
ATOM     52  C   UNL     1       3.252  -4.635  11.988  1.00  0.00     0.031 C 
ATOM     53  C   UNL     1       0.554  -9.858  13.513  1.00  0.00     0.029 A 
ATOM     54  C   UNL     1       1.219  -8.872  12.803  1.00  0.00     0.049 A 
ATOM     55  H   UNL     1       1.879  -8.892  10.799  1.00  0.00     0.167 HD
ATOM     56  C   UNL     1       2.275  -6.650  12.489  1.00  0.00     0.074 A 
ATOM     57  C   UNL     1       2.678  -5.338  12.955  1.00  0.00     0.031 C 
ATOM     58  C   UNL     1       1.632  -7.567  13.252  1.00  0.00     0.037 A 
BRANCH  45  59
ATOM     59  C   UNL     1       0.335 -12.842  10.300  1.00  0.00     0.058 A 
ATOM     60  C   UNL     1       1.103 -14.016  10.344  1.00  0.00     0.135 A 
ATOM     61  C   UNL     1      -1.063 -12.973  10.321  1.00  0.00     0.135 A 
ATOM     62  F   UNL     1       2.444 -13.948  10.310  1.00  0.00    -0.206 F 
ATOM     63  C   UNL     1       0.510 -15.274  10.374  1.00  0.00     0.059 A 
ATOM     64  C   UNL     1      -1.679 -14.220  10.376  1.00  0.00     0.059 A 
ATOM     65  F   UNL     1      -1.845 -11.883  10.282  1.00  0.00    -0.206 F 
ATOM     66  C   UNL     1      -0.883 -15.366  10.385  1.00  0.00     0.060 A 
BRANCH  66  67
ATOM     67  S   UNL     1      -1.642 -17.004  10.420  1.00  0.00     0.124 S 
ATOM     68  O   UNL     1      -1.480 -17.428   9.033  1.00  0.00    -0.237 OA
ATOM     69  O   UNL     1      -0.821 -17.711  11.398  1.00  0.00    -0.237 OA
ATOM     70  O   UNL     1      -3.014 -16.733  10.838  1.00  0.00    -0.744 OA
ENDBRANCH  66  67
ENDBRANCH  45  59
BRANCH  46  71
ATOM     71  C   UNL     1       4.472  -3.794   9.462  1.00  0.00     0.058 A 
ATOM     72  C   UNL     1       5.677  -3.473  10.103  1.00  0.00     0.135 A 
ATOM     73  C   UNL     1       3.859  -2.803   8.682  1.00  0.00     0.135 A 
ATOM     74  F   UNL     1       6.296  -4.388  10.864  1.00  0.00    -0.206 F 
ATOM     75  C   UNL     1       6.251  -2.212   9.985  1.00  0.00     0.059 A 
ATOM     76  C   UNL     1       4.424  -1.540   8.532  1.00  0.00     0.059 A 
ATOM     77  F   UNL     1       2.714  -3.068   8.035  1.00  0.00    -0.206 F 
ATOM     78  C   UNL     1       5.617  -1.251   9.195  1.00  0.00     0.060 A 
BRANCH  78  79
ATOM     79  S   UNL     1       6.400   0.364   8.994  1.00  0.00     0.124 S 
ATOM     80  O   UNL     1       6.066   1.011  10.257  1.00  0.00    -0.237 OA
ATOM     81  O   UNL     1       7.804   0.007   8.810  1.00  0.00    -0.237 OA
ATOM     82  O   UNL     1       5.742   0.908   7.810  1.00  0.00    -0.744 OA
ENDBRANCH  78  79
ENDBRANCH  46  71
BRANCH  58  83
ATOM     83  C   UNL     1       1.351  -7.194  14.679  1.00  0.00     0.058 A 
ATOM     84  C   UNL     1       0.329  -6.293  15.015  1.00  0.00     0.135 A 
ATOM     85  C   UNL     1       2.093  -7.768  15.724  1.00  0.00     0.135 A 
ATOM     86  F   UNL     1      -0.404  -5.713  14.052  1.00  0.00    -0.206 F 
ATOM     87  C   UNL     1       0.068  -5.953  16.339  1.00  0.00     0.059 A 
ATOM     88  C   UNL     1       1.835  -7.459  17.055  1.00  0.00     0.059 A 
ATOM     89  F   UNL     1       3.075  -8.643  15.454  1.00  0.00    -0.206 F 
ATOM     90  C   UNL     1       0.830  -6.539  17.352  1.00  0.00     0.060 A 
BRANCH  90  91
ATOM     91  S   UNL     1       0.475  -6.107  19.069  1.00  0.00     0.124 S 
ATOM     92  O   UNL     1       1.130  -4.808  19.185  1.00  0.00    -0.237 OA
ATOM     93  O   UNL     1      -0.985  -6.085  19.095  1.00  0.00    -0.237 OA
ATOM     94  O   UNL     1       1.091  -7.193  19.825  1.00  0.00    -0.744 OA
ENDBRANCH  90  91
ENDBRANCH  58  83
ENDBRANCH  32  33
ENDBRANCH  24  27
ENDBRANCH  22  23
ENDBRANCH   1  22
TORSDOF 16
