REMARK SMILES CCC[C@H](Nc1cc(C)c(N)c(C(=O)NCCCNC(=O)c2ccc(-c3c4nc(c(-c5c(F)cc(S(=O)(=O)[O-])cc5F)c5ccc([nH]5)c(-c5c(F)cc(S(=O)(=O)[O-])cc5F)c5nc(c(-c6c(F)cc(S(=O)(=O)[O-])cc6F)c6ccc3[nH]6)C=C5)C=C4)cc2)c1)c1cccs1
REMARK SMILES IDX 16 1 15 2 13 3 14 4 12 6 6 7 7 8 88 9 8 10 9 11 10 12 5 13
REMARK SMILES IDX 4 15 3 16 2 17 1 18 89 19 90 20 93 21 91 22 92 23 11 24
REMARK SMILES IDX 17 27 18 28 19 29 20 30 21 32 22 33 23 34 87 35 24 36 86 37
REMARK SMILES IDX 25 38 26 39 27 40 80 41 28 42 85 43 79 44 81 45 29 46 84 47
REMARK SMILES IDX 78 48 77 49 30 51 64 52 43 53 63 54 44 55 47 56 62 57 82 58
REMARK SMILES IDX 45 59 46 60 61 62 83 63 48 64 31 65 32 66 41 67 33 68 34 69
REMARK SMILES IDX 40 70 42 71 35 72 36 73 37 74 38 75 39 76 65 77 66 78 75 79
REMARK SMILES IDX 67 80 68 81 74 82 76 83 69 84 70 85 71 86 72 87 73 88 49 89
REMARK SMILES IDX 50 90 59 91 51 92 52 93 58 94 60 95 53 96 54 97 55 98 56 99
REMARK SMILES IDX 57 100
REMARK H PARENT 15 5 5 14 11 25 11 26 19 31 81 50 47 61
REMARK Flexibility Score: inf
ROOT
ATOM      1  C   UNL     1       2.885  -2.614   5.217  1.00  0.00     0.118 C 
ENDROOT
BRANCH   1   2
ATOM      2  N   UNL     1       1.713  -3.179   5.859  1.00  0.00    -0.352 N 
ATOM      3  C   UNL     1       0.362  -3.048   5.658  1.00  0.00     0.253 C 
ATOM      4  O   UNL     1      -0.358  -3.687   6.433  1.00  0.00    -0.269 OA
ATOM      5  H   UNL     1       1.936  -3.789   6.599  1.00  0.00     0.163 HD
BRANCH   3   6
ATOM      6  C   UNL     1      -0.263  -2.241   4.557  1.00  0.00     0.065 A 
ATOM      7  C   UNL     1      -0.158  -0.409   2.921  1.00  0.00     0.036 A 
ATOM      8  C   UNL     1      -1.397  -0.816   2.437  1.00  0.00     0.031 A 
ATOM      9  C   UNL     1       0.372  -1.116   4.006  1.00  0.00     0.041 A 
ATOM     10  C   UNL     1      -2.123  -1.865   3.029  1.00  0.00    -0.025 A 
ATOM     11  C   UNL     1      -3.489  -2.192   2.488  1.00  0.00     0.046 C 
ATOM     12  C   UNL     1      -1.563  -2.585   4.104  1.00  0.00     0.047 A 
BRANCH   7  13
ATOM     13  N   UNL     1       0.559   0.632   2.357  1.00  0.00    -0.377 N 
ATOM     14  H   UNL     1       1.388   0.381   1.889  1.00  0.00     0.161 HD
BRANCH  13  15
ATOM     15  C   UNL     1       0.235   2.073   2.370  1.00  0.00     0.119 C 
BRANCH  15  16
ATOM     16  C   UNL     1      -1.251   2.442   2.154  1.00  0.00     0.030 C 
BRANCH  16  17
ATOM     17  C   UNL     1      -1.547   3.033   0.766  1.00  0.00    -0.001 C 
ATOM     18  C   UNL     1      -1.214   2.116  -0.401  1.00  0.00     0.004 C 
ENDBRANCH  16  17
ENDBRANCH  15  16
BRANCH  15  19
ATOM     19  C   UNL     1       0.837   2.905   3.500  1.00  0.00     0.027 A 
ATOM     20  C   UNL     1       0.976   4.285   3.521  1.00  0.00     0.017 A 
ATOM     21  S   UNL     1       1.470   2.214   4.934  1.00  0.00    -0.147 S 
ATOM     22  C   UNL     1       1.588   4.763   4.713  1.00  0.00     0.012 A 
ATOM     23  C   UNL     1       1.918   3.735   5.565  1.00  0.00     0.065 A 
ENDBRANCH  15  19
ENDBRANCH  13  15
ENDBRANCH   7  13
BRANCH  12  24
ATOM     24  N   UNL     1      -2.229  -3.720   4.587  1.00  0.00    -0.398 N 
ATOM     25  H   UNL     1      -3.131  -3.939   4.257  1.00  0.00     0.156 HD
ATOM     26  H   UNL     1      -1.796  -4.298   5.255  1.00  0.00     0.156 HD
ENDBRANCH  12  24
ENDBRANCH   3   6
ENDBRANCH   1   2
BRANCH   1  27
ATOM     27  C   UNL     1       3.451  -1.453   6.040  1.00  0.00     0.042 C 
BRANCH  27  28
ATOM     28  C   UNL     1       4.157  -1.898   7.323  1.00  0.00     0.118 C 
BRANCH  28  29
ATOM     29  N   UNL     1       5.373  -2.643   7.039  1.00  0.00    -0.352 N 
ATOM     30  C   UNL     1       6.659  -2.454   7.473  1.00  0.00     0.251 C 
ATOM     31  H   UNL     1       5.253  -3.411   6.435  1.00  0.00     0.163 HD
ATOM     32  O   UNL     1       7.563  -3.071   6.910  1.00  0.00    -0.269 OA
BRANCH  30  33
ATOM     33  C   UNL     1       6.980  -1.537   8.590  1.00  0.00     0.039 A 
ATOM     34  C   UNL     1       8.183  -0.825   8.532  1.00  0.00     0.014 A 
ATOM     35  C   UNL     1       6.171  -1.435   9.726  1.00  0.00     0.014 A 
ATOM     36  C   UNL     1       8.560   0.001   9.592  1.00  0.00     0.010 A 
ATOM     37  C   UNL     1       6.520  -0.562  10.761  1.00  0.00     0.010 A 
ATOM     38  C   UNL     1       7.724   0.154  10.710  1.00  0.00    -0.014 A 
BRANCH  38  39
ATOM     39  C   UNL     1       8.117   1.067  11.815  1.00  0.00     0.031 A 
ATOM     40  C   UNL     1       8.459   0.529  13.178  1.00  0.00     0.074 A 
ATOM     41  C   UNL     1       8.156   2.394  11.585  1.00  0.00     0.049 A 
ATOM     42  N   UNL     1       8.873   1.175  14.239  1.00  0.00    -0.248 NA
ATOM     43  C   UNL     1       8.297  -0.918  13.385  1.00  0.00     0.031 C 
ATOM     44  C   UNL     1       7.786   3.042  10.324  1.00  0.00     0.029 A 
ATOM     45  N   UNL     1       8.532   3.436  12.394  1.00  0.00    -0.354 N 
ATOM     46  C   UNL     1       9.014   0.219  15.239  1.00  0.00     0.074 A 
ATOM     47  C   UNL     1       8.595  -1.045  14.671  1.00  0.00     0.031 C 
ATOM     48  C   UNL     1       7.987   4.365  10.434  1.00  0.00     0.029 A 
ATOM     49  C   UNL     1       8.479   4.662  11.775  1.00  0.00     0.049 A 
ATOM     50  H   UNL     1       8.813   3.316  13.330  1.00  0.00     0.167 HD
ATOM     51  C   UNL     1       9.472   0.375  16.505  1.00  0.00     0.037 A 
ATOM     52  C   UNL     1       8.804   5.886  12.231  1.00  0.00     0.037 A 
ATOM     53  C   UNL     1       9.909   1.633  17.058  1.00  0.00     0.049 A 
ATOM     54  C   UNL     1       9.352   6.028  13.623  1.00  0.00     0.074 A 
ATOM     55  C   UNL     1      10.442   1.887  18.311  1.00  0.00     0.029 A 
ATOM     56  N   UNL     1       9.863   2.849  16.392  1.00  0.00    -0.354 N 
ATOM     57  N   UNL     1       9.545   5.101  14.531  1.00  0.00    -0.248 NA
ATOM     58  C   UNL     1       9.743   7.378  14.047  1.00  0.00     0.031 C 
ATOM     59  C   UNL     1      10.688   3.261  18.413  1.00  0.00     0.029 A 
ATOM     60  C   UNL     1      10.346   3.858  17.210  1.00  0.00     0.049 A 
ATOM     61  H   UNL     1       9.536   2.977  15.473  1.00  0.00     0.167 HD
ATOM     62  C   UNL     1      10.095   5.753  15.628  1.00  0.00     0.074 A 
ATOM     63  C   UNL     1      10.225   7.149  15.260  1.00  0.00     0.031 C 
ATOM     64  C   UNL     1      10.458   5.244  16.832  1.00  0.00     0.037 A 
BRANCH  51  65
ATOM     65  C   UNL     1       9.533  -0.849  17.379  1.00  0.00     0.058 A 
ATOM     66  C   UNL     1      10.480  -1.863  17.159  1.00  0.00     0.135 A 
ATOM     67  C   UNL     1       8.657  -0.998  18.467  1.00  0.00     0.135 A 
ATOM     68  F   UNL     1      11.333  -1.778  16.126  1.00  0.00    -0.206 F 
ATOM     69  C   UNL     1      10.537  -2.994  17.967  1.00  0.00     0.059 A 
ATOM     70  C   UNL     1       8.713  -2.111  19.303  1.00  0.00     0.059 A 
ATOM     71  F   UNL     1       7.734  -0.059  18.725  1.00  0.00    -0.206 F 
ATOM     72  C   UNL     1       9.646  -3.111  19.035  1.00  0.00     0.060 A 
BRANCH  72  73
ATOM     73  S   UNL     1       9.730  -4.584  20.076  1.00  0.00     0.124 S 
ATOM     74  O   UNL     1       9.113  -5.586  19.210  1.00  0.00    -0.237 OA
ATOM     75  O   UNL     1      11.168  -4.735  20.290  1.00  0.00    -0.237 OA
ATOM     76  O   UNL     1       8.960  -4.213  21.255  1.00  0.00    -0.744 OA
ENDBRANCH  72  73
ENDBRANCH  51  65
BRANCH  52  77
ATOM     77  C   UNL     1       8.662   7.067  11.340  1.00  0.00     0.058 A 
ATOM     78  C   UNL     1       9.789   7.701  10.797  1.00  0.00     0.135 A 
ATOM     79  C   UNL     1       7.397   7.568  10.994  1.00  0.00     0.135 A 
ATOM     80  F   UNL     1      11.018   7.259  11.102  1.00  0.00    -0.206 F 
ATOM     81  C   UNL     1       9.670   8.798   9.951  1.00  0.00     0.059 A 
ATOM     82  C   UNL     1       7.252   8.650  10.132  1.00  0.00     0.059 A 
ATOM     83  F   UNL     1       6.288   6.983  11.472  1.00  0.00    -0.206 F 
ATOM     84  C   UNL     1       8.396   9.264   9.622  1.00  0.00     0.060 A 
BRANCH  84  85
ATOM     85  S   UNL     1       8.246  10.650   8.474  1.00  0.00     0.124 S 
ATOM     86  O   UNL     1       8.592  11.779   9.329  1.00  0.00    -0.237 OA
ATOM     87  O   UNL     1       9.222  10.306   7.444  1.00  0.00    -0.237 OA
ATOM     88  O   UNL     1       6.851  10.582   8.049  1.00  0.00    -0.744 OA
ENDBRANCH  84  85
ENDBRANCH  52  77
BRANCH  64  89
ATOM     89  C   UNL     1      11.043   6.208  17.827  1.00  0.00     0.058 A 
ATOM     90  C   UNL     1      10.247   7.161  18.482  1.00  0.00     0.135 A 
ATOM     91  C   UNL     1      12.414   6.178  18.128  1.00  0.00     0.135 A 
ATOM     92  F   UNL     1       8.931   7.233  18.225  1.00  0.00    -0.206 F 
ATOM     93  C   UNL     1      10.797   8.081  19.368  1.00  0.00     0.059 A 
ATOM     94  C   UNL     1      12.981   7.072  19.030  1.00  0.00     0.059 A 
ATOM     95  F   UNL     1      13.217   5.278  17.539  1.00  0.00    -0.206 F 
ATOM     96  C   UNL     1      12.168   8.034  19.629  1.00  0.00     0.060 A 
BRANCH  96  97
ATOM     97  S   UNL     1      12.877   9.240  20.770  1.00  0.00     0.124 S 
ATOM     98  O   UNL     1      12.960  10.427  19.926  1.00  0.00    -0.237 OA
ATOM     99  O   UNL     1      11.883   9.289  21.837  1.00  0.00    -0.237 OA
ATOM    100  O   UNL     1      14.156   8.641  21.142  1.00  0.00    -0.744 OA
ENDBRANCH  96  97
ENDBRANCH  64  89
ENDBRANCH  38  39
ENDBRANCH  30  33
ENDBRANCH  28  29
ENDBRANCH  27  28
ENDBRANCH   1  27
TORSDOF 19
