REMARK SMILES CS(=O)(=O)c1ccc(/C=C(/C(=O)NCCCNC(=O)c2ccc(-c3c4nc(c(-c5c(F)cc(S(=O)(=O)[O-])cc5F)c5ccc([nH]5)c(-c5c(F)cc(S(=O)(=O)[O-])cc5F)c5nc(c(-c6c(F)cc(S(=O)(=O)[O-])cc6F)c6ccc3[nH]6)C=C5)C=C4)cc2)c2ccc(F)cc2)cc1
REMARK SMILES IDX 15 1 14 2 13 3 11 4 12 5 10 7 9 8 8 9 5 10 6 11 94 12 7 13
REMARK SMILES IDX 93 14 2 15 1 16 3 17 4 18 86 19 87 20 92 21 88 22 91 23
REMARK SMILES IDX 89 24 90 25 16 26 17 27 18 28 19 30 20 31 21 32 85 33 22 34
REMARK SMILES IDX 84 35 23 36 24 37 25 38 78 39 26 40 83 41 77 42 79 43 27 44
REMARK SMILES IDX 82 45 76 46 75 47 28 49 62 50 41 51 61 52 42 53 45 54 60 55
REMARK SMILES IDX 80 56 43 57 44 58 59 60 81 61 46 62 29 63 30 64 39 65 31 66
REMARK SMILES IDX 32 67 38 68 40 69 33 70 34 71 35 72 36 73 37 74 63 75 64 76
REMARK SMILES IDX 73 77 65 78 66 79 72 80 74 81 67 82 68 83 69 84 70 85 71 86
REMARK SMILES IDX 47 87 48 88 57 89 49 90 50 91 56 92 58 93 51 94 52 95 53 96
REMARK SMILES IDX 54 97 55 98
REMARK H PARENT 13 6 17 29 79 48 45 59
REMARK Flexibility Score: inf
ROOT
ATOM      1  C   UNL     1       0.906  10.131   0.138  1.00  0.00     0.042 C 
ENDROOT
BRANCH   1   2
ATOM      2  C   UNL     1       2.301   9.506   0.171  1.00  0.00     0.118 C 
BRANCH   2   3
ATOM      3  N   UNL     1       2.785   9.394   1.535  1.00  0.00    -0.352 N 
ATOM      4  C   UNL     1       2.909   8.368   2.417  1.00  0.00     0.251 C 
ATOM      5  O   UNL     1       3.369   8.662   3.524  1.00  0.00    -0.269 OA
ATOM      6  H   UNL     1       3.092  10.253   1.904  1.00  0.00     0.163 HD
BRANCH   4   7
ATOM      7  C   UNL     1       2.608   6.926   2.076  1.00  0.00     0.047 C 
ATOM      8  C   UNL     1       1.591   6.587   1.250  1.00  0.00     0.022 C 
BRANCH   8   9
ATOM      9  C   UNL     1       1.203   5.259   0.724  1.00  0.00    -0.025 A 
ATOM     10  C   UNL     1       0.563   2.781  -0.446  1.00  0.00     0.067 A 
ATOM     11  C   UNL     1       0.851   2.853   0.916  1.00  0.00     0.021 A 
ATOM     12  C   UNL     1       0.549   3.942  -1.222  1.00  0.00     0.021 A 
ATOM     13  C   UNL     1       1.144   4.093   1.497  1.00  0.00     0.009 A 
ATOM     14  C   UNL     1       0.865   5.172  -0.636  1.00  0.00     0.009 A 
BRANCH  10  15
ATOM     15  S   UNL     1       0.239   1.238  -1.263  1.00  0.00     0.175 S 
ATOM     16  C   UNL     1       0.845  -0.050  -0.211  1.00  0.00     0.163 C 
ATOM     17  O   UNL     1       1.062   1.221  -2.457  1.00  0.00    -0.224 OA
ATOM     18  O   UNL     1      -1.203   1.102  -1.341  1.00  0.00    -0.224 OA
ENDBRANCH  10  15
ENDBRANCH   8   9
BRANCH   7  19
ATOM     19  C   UNL     1       3.367   5.892   2.826  1.00  0.00    -0.013 A 
ATOM     20  C   UNL     1       3.166   5.784   4.216  1.00  0.00     0.012 A 
ATOM     21  C   UNL     1       4.221   4.980   2.191  1.00  0.00     0.012 A 
ATOM     22  C   UNL     1       3.783   4.774   4.952  1.00  0.00     0.040 A 
ATOM     23  C   UNL     1       4.828   3.958   2.929  1.00  0.00     0.040 A 
ATOM     24  C   UNL     1       4.600   3.862   4.298  1.00  0.00     0.123 A 
ATOM     25  F   UNL     1       5.167   2.869   4.995  1.00  0.00    -0.207 F 
ENDBRANCH   7  19
ENDBRANCH   4   7
ENDBRANCH   2   3
ENDBRANCH   1   2
BRANCH   1  26
ATOM     26  C   UNL     1       0.877  11.598   0.572  1.00  0.00     0.118 C 
BRANCH  26  27
ATOM     27  N   UNL     1       1.588  12.461  -0.360  1.00  0.00    -0.352 N 
ATOM     28  C   UNL     1       1.138  13.530  -1.094  1.00  0.00     0.251 C 
ATOM     29  H   UNL     1       2.541  12.244  -0.483  1.00  0.00     0.163 HD
ATOM     30  O   UNL     1       1.844  13.976  -1.995  1.00  0.00    -0.269 OA
BRANCH  28  31
ATOM     31  C   UNL     1      -0.181  14.141  -0.816  1.00  0.00     0.039 A 
ATOM     32  C   UNL     1      -0.977  14.541  -1.893  1.00  0.00     0.014 A 
ATOM     33  C   UNL     1      -0.613  14.369   0.493  1.00  0.00     0.014 A 
ATOM     34  C   UNL     1      -2.226  15.122  -1.658  1.00  0.00     0.010 A 
ATOM     35  C   UNL     1      -1.886  14.887   0.726  1.00  0.00     0.010 A 
ATOM     36  C   UNL     1      -2.704  15.274  -0.347  1.00  0.00    -0.014 A 
BRANCH  36  37
ATOM     37  C   UNL     1      -4.058  15.825  -0.081  1.00  0.00     0.031 A 
ATOM     38  C   UNL     1      -4.223  17.122   0.663  1.00  0.00     0.074 A 
ATOM     39  C   UNL     1      -5.144  15.114  -0.443  1.00  0.00     0.049 A 
ATOM     40  N   UNL     1      -5.321  17.722   1.045  1.00  0.00    -0.248 NA
ATOM     41  C   UNL     1      -2.990  17.821   1.058  1.00  0.00     0.031 C 
ATOM     42  C   UNL     1      -5.114  13.811  -1.111  1.00  0.00     0.029 A 
ATOM     43  N   UNL     1      -6.482  15.373  -0.282  1.00  0.00    -0.354 N 
ATOM     44  C   UNL     1      -4.915  18.853   1.744  1.00  0.00     0.074 A 
ATOM     45  C   UNL     1      -3.467  18.831   1.770  1.00  0.00     0.031 C 
ATOM     46  C   UNL     1      -6.372  13.388  -1.308  1.00  0.00     0.029 A 
ATOM     47  C   UNL     1      -7.298  14.371  -0.752  1.00  0.00     0.049 A 
ATOM     48  H   UNL     1      -6.825  16.198   0.131  1.00  0.00     0.167 HD
ATOM     49  C   UNL     1      -5.676  19.827   2.298  1.00  0.00     0.037 A 
ATOM     50  C   UNL     1      -8.639  14.249  -0.729  1.00  0.00     0.037 A 
ATOM     51  C   UNL     1      -7.116  19.854   2.242  1.00  0.00     0.049 A 
ATOM     52  C   UNL     1      -9.467  15.358  -0.144  1.00  0.00     0.074 A 
ATOM     53  C   UNL     1      -7.976  20.840   2.692  1.00  0.00     0.029 A 
ATOM     54  N   UNL     1      -7.907  18.844   1.713  1.00  0.00    -0.354 N 
ATOM     55  N   UNL     1      -9.067  16.467   0.432  1.00  0.00    -0.248 NA
ATOM     56  C   UNL     1     -10.926  15.208  -0.215  1.00  0.00     0.031 C 
ATOM     57  C   UNL     1      -9.290  20.405   2.477  1.00  0.00     0.029 A 
ATOM     58  C   UNL     1      -9.247  19.171   1.849  1.00  0.00     0.049 A 
ATOM     59  H   UNL     1      -7.567  18.017   1.302  1.00  0.00     0.167 HD
ATOM     60  C   UNL     1     -10.224  17.155   0.778  1.00  0.00     0.074 A 
ATOM     61  C   UNL     1     -11.339  16.344   0.332  1.00  0.00     0.031 C 
ATOM     62  C   UNL     1     -10.349  18.350   1.407  1.00  0.00     0.037 A 
BRANCH  49  63
ATOM     63  C   UNL     1      -4.965  20.938   3.023  1.00  0.00     0.058 A 
ATOM     64  C   UNL     1      -4.188  21.890   2.343  1.00  0.00     0.135 A 
ATOM     65  C   UNL     1      -5.069  21.059   4.419  1.00  0.00     0.135 A 
ATOM     66  F   UNL     1      -4.044  21.818   1.010  1.00  0.00    -0.206 F 
ATOM     67  C   UNL     1      -3.503  22.892   3.023  1.00  0.00     0.059 A 
ATOM     68  C   UNL     1      -4.417  22.073   5.117  1.00  0.00     0.059 A 
ATOM     69  F   UNL     1      -5.803  20.181   5.121  1.00  0.00    -0.206 F 
ATOM     70  C   UNL     1      -3.618  22.971   4.411  1.00  0.00     0.060 A 
BRANCH  70  71
ATOM     71  S   UNL     1      -2.704  24.261   5.283  1.00  0.00     0.124 S 
ATOM     72  O   UNL     1      -1.341  23.739   5.224  1.00  0.00    -0.237 OA
ATOM     73  O   UNL     1      -2.966  25.440   4.463  1.00  0.00    -0.237 OA
ATOM     74  O   UNL     1      -3.314  24.274   6.608  1.00  0.00    -0.744 OA
ENDBRANCH  70  71
ENDBRANCH  49  63
BRANCH  50  75
ATOM     75  C   UNL     1      -9.269  13.029  -1.298  1.00  0.00     0.058 A 
ATOM     76  C   UNL     1      -9.943  13.069  -2.527  1.00  0.00     0.135 A 
ATOM     77  C   UNL     1      -9.153  11.787  -0.654  1.00  0.00     0.135 A 
ATOM     78  F   UNL     1     -10.085  14.234  -3.177  1.00  0.00    -0.206 F 
ATOM     79  C   UNL     1     -10.480  11.920  -3.100  1.00  0.00     0.059 A 
ATOM     80  C   UNL     1      -9.661  10.621  -1.218  1.00  0.00     0.059 A 
ATOM     81  F   UNL     1      -8.500  11.694   0.515  1.00  0.00    -0.206 F 
ATOM     82  C   UNL     1     -10.325  10.699  -2.441  1.00  0.00     0.060 A 
BRANCH  82  83
ATOM     83  S   UNL     1     -10.945   9.201  -3.238  1.00  0.00     0.124 S 
ATOM     84  O   UNL     1     -12.384   9.345  -3.055  1.00  0.00    -0.237 OA
ATOM     85  O   UNL     1     -10.456   9.356  -4.604  1.00  0.00    -0.237 OA
ATOM     86  O   UNL     1     -10.314   8.129  -2.473  1.00  0.00    -0.744 OA
ENDBRANCH  82  83
ENDBRANCH  50  75
BRANCH  62  87
ATOM     87  C   UNL     1     -11.743  18.866   1.639  1.00  0.00     0.058 A 
ATOM     88  C   UNL     1     -12.584  18.303   2.611  1.00  0.00     0.135 A 
ATOM     89  C   UNL     1     -12.222  19.970   0.916  1.00  0.00     0.135 A 
ATOM     90  F   UNL     1     -12.177  17.241   3.325  1.00  0.00    -0.206 F 
ATOM     91  C   UNL     1     -13.862  18.803   2.843  1.00  0.00     0.059 A 
ATOM     92  C   UNL     1     -13.486  20.503   1.150  1.00  0.00     0.059 A 
ATOM     93  F   UNL     1     -11.454  20.552  -0.018  1.00  0.00    -0.206 F 
ATOM     94  C   UNL     1     -14.303  19.905   2.108  1.00  0.00     0.060 A 
BRANCH  94  95
ATOM     95  S   UNL     1     -15.950  20.565   2.441  1.00  0.00     0.124 S 
ATOM     96  O   UNL     1     -16.802  19.564   1.808  1.00  0.00    -0.237 OA
ATOM     97  O   UNL     1     -15.986  20.598   3.900  1.00  0.00    -0.237 OA
ATOM     98  O   UNL     1     -15.929  21.873   1.792  1.00  0.00    -0.744 OA
ENDBRANCH  94  95
ENDBRANCH  62  87
ENDBRANCH  36  37
ENDBRANCH  28  31
ENDBRANCH  26  27
ENDBRANCH   1  26
TORSDOF 16
