REMARK SMILES O=C(NCCCNC(=O)[C@H]1Cc2[nH]cnc2CN1C(=O)NCc1nc[nH]n1)c1ccc(-c2c3nc(c(-c4c(F)cc(S(=O)(=O)[O-])cc4F)c4ccc([nH]4)c(-c4c(F)cc(S(=O)(=O)[O-])cc4F)c4nc(c(-c5c(F)cc(S(=O)(=O)[O-])cc5F)c5ccc2[nH]5)C=C4)C=C3)cc1
REMARK SMILES IDX 5 1 4 2 3 3 1 4 2 5 28 7 29 8 93 9 30 10 92 11 31 12 32 13
REMARK SMILES IDX 33 14 86 15 34 16 91 17 85 18 87 19 35 20 90 21 84 22 83 23
REMARK SMILES IDX 36 25 70 26 49 27 69 28 50 29 53 30 68 31 88 32 51 33 52 34
REMARK SMILES IDX 67 36 89 37 54 38 37 39 38 40 47 41 39 42 40 43 46 44 48 45
REMARK SMILES IDX 41 46 42 47 43 48 44 49 45 50 71 51 72 52 81 53 73 54 74 55
REMARK SMILES IDX 80 56 82 57 75 58 76 59 77 60 78 61 79 62 55 63 56 64 65 65
REMARK SMILES IDX 57 66 58 67 64 68 66 69 59 70 60 71 61 72 62 73 63 74 6 75
REMARK SMILES IDX 7 76 8 77 9 79 10 80 11 81 18 82 12 83 17 84 13 85 16 86
REMARK SMILES IDX 14 87 15 89 19 90 20 91 21 92 22 94 23 95 24 96 27 97 25 98
REMARK SMILES IDX 26 99
REMARK H PARENT 3 6 87 24 53 35 7 78 13 88 21 93 26 100
REMARK Flexibility Score: inf
ROOT
ATOM      1  C   UNL     1       3.967   1.100   2.827  1.00  0.00     0.042 C 
ENDROOT
BRANCH   1   2
ATOM      2  C   UNL     1       4.265   0.360   1.532  1.00  0.00     0.118 C 
BRANCH   2   3
ATOM      3  N   UNL     1       3.137  -0.268   0.868  1.00  0.00    -0.352 N 
ATOM      4  O   UNL     1       1.354  -0.590  -0.444  1.00  0.00    -0.269 OA
ATOM      5  C   UNL     1       2.194   0.199  -0.009  1.00  0.00     0.251 C 
ATOM      6  H   UNL     1       3.027  -1.220   1.094  1.00  0.00     0.163 HD
BRANCH   5   7
ATOM      7  C   UNL     1       2.118   1.628  -0.389  1.00  0.00     0.039 A 
ATOM      8  C   UNL     1       3.246   2.400  -0.658  1.00  0.00     0.014 A 
ATOM      9  C   UNL     1       0.843   2.198  -0.524  1.00  0.00     0.014 A 
ATOM     10  C   UNL     1       3.112   3.759  -0.907  1.00  0.00     0.010 A 
ATOM     11  C   UNL     1       0.702   3.550  -0.833  1.00  0.00     0.010 A 
ATOM     12  C   UNL     1       1.841   4.340  -0.988  1.00  0.00    -0.014 A 
BRANCH  12  13
ATOM     13  C   UNL     1       1.783   5.733  -1.433  1.00  0.00     0.031 A 
ATOM     14  C   UNL     1       2.390   5.979  -2.774  1.00  0.00     0.074 A 
ATOM     15  C   UNL     1       1.153   6.738  -0.797  1.00  0.00     0.049 A 
ATOM     16  N   UNL     1       3.439   6.677  -3.062  1.00  0.00    -0.248 NA
ATOM     17  C   UNL     1       1.816   5.260  -3.921  1.00  0.00     0.031 C 
ATOM     18  C   UNL     1       0.249   6.660   0.350  1.00  0.00     0.029 A 
ATOM     19  N   UNL     1       1.127   8.063  -1.125  1.00  0.00    -0.354 N 
ATOM     20  C   UNL     1       3.557   6.644  -4.451  1.00  0.00     0.074 A 
ATOM     21  C   UNL     1       2.621   5.650  -4.911  1.00  0.00     0.031 C 
ATOM     22  C   UNL     1      -0.397   7.841   0.485  1.00  0.00     0.029 A 
ATOM     23  C   UNL     1       0.140   8.793  -0.476  1.00  0.00     0.049 A 
ATOM     24  H   UNL     1       1.755   8.467  -1.766  1.00  0.00     0.167 HD
ATOM     25  C   UNL     1       4.282   7.568  -5.140  1.00  0.00     0.037 A 
ATOM     26  C   UNL     1      -0.248  10.062  -0.758  1.00  0.00     0.037 A 
ATOM     27  C   UNL     1       5.175   8.296  -4.279  1.00  0.00     0.049 A 
ATOM     28  C   UNL     1       0.860  10.721  -1.496  1.00  0.00     0.074 A 
ATOM     29  C   UNL     1       6.226   7.955  -3.450  1.00  0.00     0.029 A 
ATOM     30  N   UNL     1       4.831   9.580  -3.935  1.00  0.00    -0.354 N 
ATOM     31  N   UNL     1       2.010  11.038  -0.970  1.00  0.00    -0.248 NA
ATOM     32  C   UNL     1       0.832  10.690  -2.951  1.00  0.00     0.031 C 
ATOM     33  C   UNL     1       6.135   8.853  -2.347  1.00  0.00     0.029 A 
ATOM     34  C   UNL     1       5.060   9.709  -2.590  1.00  0.00     0.049 A 
ATOM     35  H   UNL     1       4.485  10.275  -4.540  1.00  0.00     0.167 HD
ATOM     36  C   UNL     1       2.934  10.828  -1.981  1.00  0.00     0.074 A 
ATOM     37  C   UNL     1       2.142  10.725  -3.202  1.00  0.00     0.031 C 
ATOM     38  C   UNL     1       4.226  10.486  -1.701  1.00  0.00     0.037 A 
BRANCH  25  39
ATOM     39  C   UNL     1       3.953   8.050  -6.534  1.00  0.00     0.058 A 
ATOM     40  C   UNL     1       4.877   8.861  -7.227  1.00  0.00     0.135 A 
ATOM     41  C   UNL     1       2.657   7.990  -7.091  1.00  0.00     0.135 A 
ATOM     42  F   UNL     1       6.136   8.998  -6.782  1.00  0.00    -0.206 F 
ATOM     43  C   UNL     1       4.517   9.618  -8.343  1.00  0.00     0.059 A 
ATOM     44  C   UNL     1       2.293   8.692  -8.235  1.00  0.00     0.059 A 
ATOM     45  F   UNL     1       1.656   7.330  -6.495  1.00  0.00    -0.206 F 
ATOM     46  C   UNL     1       3.215   9.539  -8.827  1.00  0.00     0.060 A 
BRANCH  46  47
ATOM     47  S   UNL     1       2.713  10.602 -10.192  1.00  0.00     0.124 S 
ATOM     48  O   UNL     1       2.687  11.909  -9.546  1.00  0.00    -0.237 OA
ATOM     49  O   UNL     1       3.785  10.386 -11.158  1.00  0.00    -0.237 OA
ATOM     50  O   UNL     1       1.413  10.060 -10.577  1.00  0.00    -0.744 OA
ENDBRANCH  46  47
ENDBRANCH  25  39
BRANCH  26  51
ATOM     51  C   UNL     1      -1.612  10.651  -0.691  1.00  0.00     0.058 A 
ATOM     52  C   UNL     1      -1.810  12.040  -0.798  1.00  0.00     0.135 A 
ATOM     53  C   UNL     1      -2.764   9.849  -0.812  1.00  0.00     0.135 A 
ATOM     54  F   UNL     1      -0.768  12.881  -0.716  1.00  0.00    -0.206 F 
ATOM     55  C   UNL     1      -3.066  12.596  -1.068  1.00  0.00     0.059 A 
ATOM     56  C   UNL     1      -4.027  10.382  -1.066  1.00  0.00     0.059 A 
ATOM     57  F   UNL     1      -2.684   8.511  -0.785  1.00  0.00    -0.206 F 
ATOM     58  C   UNL     1      -4.166  11.755  -1.223  1.00  0.00     0.060 A 
BRANCH  58  59
ATOM     59  S   UNL     1      -5.747  12.446  -1.761  1.00  0.00     0.124 S 
ATOM     60  O   UNL     1      -6.174  13.182  -0.576  1.00  0.00    -0.237 OA
ATOM     61  O   UNL     1      -5.355  13.257  -2.909  1.00  0.00    -0.237 OA
ATOM     62  O   UNL     1      -6.542  11.264  -2.082  1.00  0.00    -0.744 OA
ENDBRANCH  58  59
ENDBRANCH  26  51
BRANCH  38  63
ATOM     63  C   UNL     1       4.740  10.701  -0.304  1.00  0.00     0.058 A 
ATOM     64  C   UNL     1       4.228  10.070   0.844  1.00  0.00     0.135 A 
ATOM     65  C   UNL     1       5.900  11.477  -0.147  1.00  0.00     0.135 A 
ATOM     66  F   UNL     1       3.189   9.226   0.764  1.00  0.00    -0.206 F 
ATOM     67  C   UNL     1       4.817  10.245   2.097  1.00  0.00     0.059 A 
ATOM     68  C   UNL     1       6.523  11.635   1.087  1.00  0.00     0.059 A 
ATOM     69  F   UNL     1       6.473  12.056  -1.216  1.00  0.00    -0.206 F 
ATOM     70  C   UNL     1       5.965  11.028   2.209  1.00  0.00     0.060 A 
BRANCH  70  71
ATOM     71  S   UNL     1       6.773  11.194   3.816  1.00  0.00     0.124 S 
ATOM     72  O   UNL     1       5.849  12.076   4.531  1.00  0.00    -0.237 OA
ATOM     73  O   UNL     1       6.814   9.810   4.293  1.00  0.00    -0.237 OA
ATOM     74  O   UNL     1       8.065  11.772   3.495  1.00  0.00    -0.744 OA
ENDBRANCH  70  71
ENDBRANCH  38  63
ENDBRANCH  12  13
ENDBRANCH   5   7
ENDBRANCH   2   3
ENDBRANCH   1   2
BRANCH   1  75
ATOM     75  C   UNL     1       3.457   0.320   4.049  1.00  0.00     0.117 C 
BRANCH  75  76
ATOM     76  N   UNL     1       3.987  -1.008   4.335  1.00  0.00    -0.354 N 
ATOM     77  C   UNL     1       4.886  -1.460   5.266  1.00  0.00     0.243 C 
ATOM     78  H   UNL     1       3.631  -1.714   3.748  1.00  0.00     0.163 HD
ATOM     79  O   UNL     1       4.826  -2.640   5.626  1.00  0.00    -0.273 OA
BRANCH  77  80
ATOM     80  C   UNL     1       5.862  -0.496   5.929  1.00  0.00     0.182 C 
ATOM     81  C   UNL     1       7.004  -1.065   6.831  1.00  0.00     0.091 C 
ATOM     82  N   UNL     1       6.437   0.535   5.048  1.00  0.00    -0.306 N 
ATOM     83  C   UNL     1       7.660   0.132   7.457  1.00  0.00     0.042 A 
ATOM     84  C   UNL     1       6.704   1.804   5.783  1.00  0.00     0.180 C 
ATOM     85  N   UNL     1       8.498   0.213   8.528  1.00  0.00    -0.348 N 
ATOM     86  C   UNL     1       7.517   1.431   6.998  1.00  0.00     0.081 A 
ATOM     87  C   UNL     1       8.732   1.548   8.744  1.00  0.00     0.197 A 
ATOM     88  H   UNL     1       8.865  -0.539   9.047  1.00  0.00     0.167 HD
ATOM     89  N   UNL     1       8.149   2.304   7.839  1.00  0.00    -0.240 NA
BRANCH  82  90
ATOM     90  C   UNL     1       7.019   0.368   3.825  1.00  0.00     0.318 C 
ATOM     91  O   UNL     1       7.509   1.326   3.219  1.00  0.00    -0.249 OA
ATOM     92  N   UNL     1       7.004  -0.780   3.118  1.00  0.00    -0.331 N 
ATOM     93  H   UNL     1       6.910  -0.604   2.154  1.00  0.00     0.165 HD
BRANCH  92  94
ATOM     94  C   UNL     1       7.091  -2.216   3.389  1.00  0.00     0.197 C 
BRANCH  94  95
ATOM     95  C   UNL     1       6.016  -3.094   2.780  1.00  0.00     0.169 A 
ATOM     96  N   UNL     1       6.106  -4.469   2.869  1.00  0.00    -0.218 NA
ATOM     97  N   UNL     1       4.876  -2.678   2.200  1.00  0.00    -0.157 NA
ATOM     98  C   UNL     1       4.959  -4.889   2.389  1.00  0.00     0.216 A 
ATOM     99  N   UNL     1       4.218  -3.828   1.991  1.00  0.00    -0.266 N 
ATOM    100  H   UNL     1       3.317  -3.892   1.601  1.00  0.00     0.191 HD
ENDBRANCH  94  95
ENDBRANCH  92  94
ENDBRANCH  82  90
ENDBRANCH  77  80
ENDBRANCH  75  76
ENDBRANCH   1  75
TORSDOF 16
