REMARK SMILES Cc1cc(F)ccc1-n1ccc(C)c(C(=O)NCCCNC(=O)c2ccc(-c3c4nc(c(-c5c(F)cc(S(=O)(=O)[O-])cc5F)c5ccc([nH]5)c(-c5c(F)cc(S(=O)(=O)[O-])cc5F)c5nc(c(-c6c(F)cc(S(=O)(=O)[O-])cc6F)c6ccc3[nH]6)C=C5)C=C4)cc2)c1=O
REMARK SMILES IDX 20 1 19 2 18 3 17 4 15 5 16 6 14 8 9 9 10 10 90 11 11 12
REMARK SMILES IDX 91 13 12 14 13 15 8 16 1 17 2 18 3 19 4 20 7 21 5 22 6 23
REMARK SMILES IDX 21 24 22 25 23 27 24 28 25 29 89 30 26 31 88 32 27 33 28 34
REMARK SMILES IDX 29 35 82 36 30 37 87 38 81 39 83 40 31 41 86 42 80 43 79 44
REMARK SMILES IDX 32 46 66 47 45 48 65 49 46 50 49 51 64 52 84 53 47 54 48 55
REMARK SMILES IDX 63 57 85 58 50 59 33 60 34 61 43 62 35 63 36 64 42 65 44 66
REMARK SMILES IDX 37 67 38 68 39 69 40 70 41 71 67 72 68 73 77 74 69 75 70 76
REMARK SMILES IDX 76 77 78 78 71 79 72 80 73 81 74 82 75 83 51 84 52 85 61 86
REMARK SMILES IDX 53 87 54 88 60 89 62 90 55 91 56 92 57 93 58 94 59 95
REMARK H PARENT 17 7 21 26 83 45 49 56
REMARK Flexibility Score: inf
ROOT
ATOM      1  C   UNL     1       4.281  -1.570   5.763  1.00  0.00     0.118 C 
ENDROOT
BRANCH   1   2
ATOM      2  C   UNL     1       3.442  -1.817   4.521  1.00  0.00     0.042 C 
BRANCH   2   3
ATOM      3  C   UNL     1       3.970  -1.202   3.237  1.00  0.00     0.118 C 
BRANCH   3   4
ATOM      4  N   UNL     1       5.326  -1.597   2.869  1.00  0.00    -0.352 N 
ATOM      5  C   UNL     1       5.889  -1.755   1.627  1.00  0.00     0.257 C 
ATOM      6  O   UNL     1       7.112  -1.881   1.556  1.00  0.00    -0.269 OA
ATOM      7  H   UNL     1       5.929  -1.777   3.626  1.00  0.00     0.163 HD
BRANCH   5   8
ATOM      8  C   UNL     1       5.025  -1.857   0.413  1.00  0.00     0.108 A 
ATOM      9  N   UNL     1       2.869  -1.295  -0.648  1.00  0.00    -0.283 N 
ATOM     10  C   UNL     1       3.089  -2.335  -1.541  1.00  0.00     0.095 A 
ATOM     11  C   UNL     1       3.913  -0.869   0.195  1.00  0.00     0.268 A 
ATOM     12  C   UNL     1       4.237  -3.018  -1.559  1.00  0.00     0.023 A 
ATOM     13  O   UNL     1       3.941   0.191   0.820  1.00  0.00    -0.268 OA
ATOM     14  C   UNL     1       5.223  -2.828  -0.508  1.00  0.00    -0.031 A 
ATOM     15  C   UNL     1       6.335  -3.845  -0.533  1.00  0.00     0.045 C 
BRANCH   9  16
ATOM     16  C   UNL     1       1.554  -0.728  -0.509  1.00  0.00     0.052 A 
ATOM     17  C   UNL     1       2.285   1.739  -0.701  1.00  0.00     0.047 C 
ATOM     18  C   UNL     1       1.274   0.654  -0.454  1.00  0.00    -0.024 A 
ATOM     19  C   UNL     1      -0.045   1.074  -0.188  1.00  0.00     0.044 A 
ATOM     20  C   UNL     1      -1.071   0.152  -0.029  1.00  0.00     0.123 A 
ATOM     21  C   UNL     1       0.481  -1.641  -0.363  1.00  0.00     0.030 A 
ATOM     22  F   UNL     1      -2.316   0.583   0.206  1.00  0.00    -0.207 F 
ATOM     23  C   UNL     1      -0.822  -1.205  -0.123  1.00  0.00     0.041 A 
ENDBRANCH   9  16
ENDBRANCH   5   8
ENDBRANCH   3   4
ENDBRANCH   2   3
ENDBRANCH   1   2
BRANCH   1  24
ATOM     24  N   UNL     1       4.303  -0.185   6.219  1.00  0.00    -0.352 N 
ATOM     25  C   UNL     1       3.821   0.401   7.374  1.00  0.00     0.251 C 
ATOM     26  H   UNL     1       4.736   0.441   5.595  1.00  0.00     0.163 HD
ATOM     27  O   UNL     1       3.917   1.613   7.521  1.00  0.00    -0.269 OA
BRANCH  25  28
ATOM     28  C   UNL     1       3.133  -0.414   8.405  1.00  0.00     0.039 A 
ATOM     29  C   UNL     1       3.599  -1.675   8.760  1.00  0.00     0.014 A 
ATOM     30  C   UNL     1       1.963   0.077   8.996  1.00  0.00     0.014 A 
ATOM     31  C   UNL     1       2.767  -2.541   9.459  1.00  0.00     0.010 A 
ATOM     32  C   UNL     1       1.194  -0.754   9.822  1.00  0.00     0.010 A 
ATOM     33  C   UNL     1       1.543  -2.102   9.989  1.00  0.00    -0.014 A 
BRANCH  33  34
ATOM     34  C   UNL     1       0.645  -3.087  10.660  1.00  0.00     0.031 A 
ATOM     35  C   UNL     1      -0.749  -3.351  10.138  1.00  0.00     0.074 A 
ATOM     36  C   UNL     1       1.121  -3.826  11.684  1.00  0.00     0.049 A 
ATOM     37  N   UNL     1      -1.641  -4.209  10.568  1.00  0.00    -0.248 NA
ATOM     38  C   UNL     1      -1.207  -2.547   8.993  1.00  0.00     0.031 C 
ATOM     39  C   UNL     1       2.450  -3.679  12.283  1.00  0.00     0.029 A 
ATOM     40  N   UNL     1       0.567  -4.878  12.371  1.00  0.00    -0.354 N 
ATOM     41  C   UNL     1      -2.768  -4.025   9.774  1.00  0.00     0.074 A 
ATOM     42  C   UNL     1      -2.460  -2.956   8.850  1.00  0.00     0.031 C 
ATOM     43  C   UNL     1       2.644  -4.660  13.175  1.00  0.00     0.029 A 
ATOM     44  C   UNL     1       1.426  -5.457  13.276  1.00  0.00     0.049 A 
ATOM     45  H   UNL     1      -0.356  -5.189  12.229  1.00  0.00     0.167 HD
ATOM     46  C   UNL     1      -3.946  -4.695   9.797  1.00  0.00     0.037 A 
ATOM     47  C   UNL     1       1.258  -6.505  14.105  1.00  0.00     0.037 A 
ATOM     48  C   UNL     1      -4.236  -5.794  10.681  1.00  0.00     0.049 A 
ATOM     49  C   UNL     1      -0.063  -7.216  14.129  1.00  0.00     0.074 A 
ATOM     50  C   UNL     1      -5.389  -6.557  10.754  1.00  0.00     0.029 A 
ATOM     51  N   UNL     1      -3.366  -6.293  11.639  1.00  0.00    -0.354 N 
ATOM     52  N   UNL     1      -1.117  -7.016  13.376  1.00  0.00    -0.248 NA
ATOM     53  C   UNL     1      -0.228  -8.276  15.133  1.00  0.00     0.031 C 
ATOM     54  C   UNL     1      -5.230  -7.495  11.780  1.00  0.00     0.029 A 
ATOM     55  C   UNL     1      -3.965  -7.338  12.323  1.00  0.00     0.049 A 
ATOM     56  H   UNL     1      -2.458  -5.954  11.807  1.00  0.00     0.167 HD
ATOM     57  C   UNL     1      -2.077  -7.916  13.823  1.00  0.00     0.074 A 
ATOM     58  C   UNL     1      -1.467  -8.684  14.890  1.00  0.00     0.031 C 
ATOM     59  C   UNL     1      -3.352  -8.081  13.395  1.00  0.00     0.037 A 
BRANCH  46  60
ATOM     60  C   UNL     1      -5.021  -4.258   8.840  1.00  0.00     0.058 A 
ATOM     61  C   UNL     1      -4.949  -4.545   7.468  1.00  0.00     0.135 A 
ATOM     62  C   UNL     1      -6.161  -3.583   9.309  1.00  0.00     0.135 A 
ATOM     63  F   UNL     1      -3.876  -5.174   6.964  1.00  0.00    -0.206 F 
ATOM     64  C   UNL     1      -5.959  -4.159   6.591  1.00  0.00     0.059 A 
ATOM     65  C   UNL     1      -7.193  -3.208   8.453  1.00  0.00     0.059 A 
ATOM     66  F   UNL     1      -6.281  -3.285  10.612  1.00  0.00    -0.206 F 
ATOM     67  C   UNL     1      -7.077  -3.490   7.093  1.00  0.00     0.060 A 
BRANCH  67  68
ATOM     68  S   UNL     1      -8.378  -3.002   5.940  1.00  0.00     0.124 S 
ATOM     69  O   UNL     1      -7.740  -1.896   5.233  1.00  0.00    -0.237 OA
ATOM     70  O   UNL     1      -8.578  -4.219   5.161  1.00  0.00    -0.237 OA
ATOM     71  O   UNL     1      -9.486  -2.631   6.814  1.00  0.00    -0.744 OA
ENDBRANCH  67  68
ENDBRANCH  46  60
BRANCH  47  72
ATOM     72  C   UNL     1       2.376  -6.928  14.988  1.00  0.00     0.058 A 
ATOM     73  C   UNL     1       3.071  -8.122  14.748  1.00  0.00     0.135 A 
ATOM     74  C   UNL     1       2.805  -6.122  16.054  1.00  0.00     0.135 A 
ATOM     75  F   UNL     1       2.692  -8.930  13.746  1.00  0.00    -0.206 F 
ATOM     76  C   UNL     1       4.159  -8.499  15.528  1.00  0.00     0.059 A 
ATOM     77  C   UNL     1       3.905  -6.465  16.833  1.00  0.00     0.059 A 
ATOM     78  F   UNL     1       2.179  -4.965  16.316  1.00  0.00    -0.206 F 
ATOM     79  C   UNL     1       4.574  -7.658  16.564  1.00  0.00     0.060 A 
BRANCH  79  80
ATOM     80  S   UNL     1       6.039  -8.113  17.517  1.00  0.00     0.124 S 
ATOM     81  O   UNL     1       5.525  -9.200  18.342  1.00  0.00    -0.237 OA
ATOM     82  O   UNL     1       6.979  -8.497  16.468  1.00  0.00    -0.237 OA
ATOM     83  O   UNL     1       6.373  -6.882  18.226  1.00  0.00    -0.744 OA
ENDBRANCH  79  80
ENDBRANCH  47  72
BRANCH  59  84
ATOM     84  C   UNL     1      -4.186  -9.115  14.093  1.00  0.00     0.058 A 
ATOM     85  C   UNL     1      -4.727  -8.869  15.365  1.00  0.00     0.135 A 
ATOM     86  C   UNL     1      -4.507 -10.327  13.463  1.00  0.00     0.135 A 
ATOM     87  F   UNL     1      -4.440  -7.728  16.012  1.00  0.00    -0.206 F 
ATOM     88  C   UNL     1      -5.554  -9.794  15.991  1.00  0.00     0.059 A 
ATOM     89  C   UNL     1      -5.349 -11.258  14.063  1.00  0.00     0.059 A 
ATOM     90  F   UNL     1      -4.019 -10.605  12.244  1.00  0.00    -0.206 F 
ATOM     91  C   UNL     1      -5.864 -10.984  15.330  1.00  0.00     0.060 A 
BRANCH  91  92
ATOM     92  S   UNL     1      -6.984 -12.150  16.134  1.00  0.00     0.124 S 
ATOM     93  O   UNL     1      -6.133 -12.698  17.184  1.00  0.00    -0.237 OA
ATOM     94  O   UNL     1      -8.068 -11.283  16.584  1.00  0.00    -0.237 OA
ATOM     95  O   UNL     1      -7.335 -13.078  15.062  1.00  0.00    -0.744 OA
ENDBRANCH  91  92
ENDBRANCH  59  84
ENDBRANCH  33  34
ENDBRANCH  25  28
ENDBRANCH   1  24
TORSDOF 14
