REMARK SMILES O=C(NCCCNC(=O)[C@@H]1Cc2[nH]cnc2CN1C(=O)NCC(F)(F)F)c1ccc(-c2c3nc(c(-c4c(F)cc(S(=O)(=O)[O-])cc4F)c4ccc([nH]4)c(-c4c(F)cc(S(=O)(=O)[O-])cc4F)c4nc(c(-c5c(F)cc(S(=O)(=O)[O-])cc5F)c5ccc2[nH]5)C=C4)C=C3)cc1
REMARK SMILES IDX 5 1 4 2 3 3 1 4 2 5 27 7 28 8 92 9 29 10 91 11 30 12 31 13
REMARK SMILES IDX 32 14 85 15 33 16 90 17 84 18 86 19 34 20 89 21 83 22 82 23
REMARK SMILES IDX 35 25 69 26 48 27 68 28 49 29 52 30 67 31 87 32 50 33 51 34
REMARK SMILES IDX 66 36 88 37 53 38 36 39 37 40 46 41 38 42 39 43 45 44 47 45
REMARK SMILES IDX 40 46 41 47 42 48 43 49 44 50 70 51 71 52 80 53 72 54 73 55
REMARK SMILES IDX 79 56 81 57 74 58 75 59 76 60 77 61 78 62 54 63 55 64 64 65
REMARK SMILES IDX 56 66 57 67 63 68 65 69 58 70 59 71 60 72 61 73 62 74 6 75
REMARK SMILES IDX 7 76 8 77 9 79 10 80 11 81 18 82 12 83 17 84 13 85 16 86
REMARK SMILES IDX 14 87 15 89 19 90 20 91 21 92 22 94 23 95 24 96 25 97 26 98
REMARK H PARENT 3 6 86 24 52 35 7 78 13 88 21 93
REMARK Flexibility Score: inf
ROOT
ATOM      1  C   UNL     1       8.116   7.841  -3.887  1.00  0.00     0.042 C 
ENDROOT
BRANCH   1   2
ATOM      2  C   UNL     1       9.452   8.435  -4.331  1.00  0.00     0.118 C 
BRANCH   2   3
ATOM      3  N   UNL     1      10.163   7.583  -5.265  1.00  0.00    -0.352 N 
ATOM      4  O   UNL     1      10.858   6.453  -7.013  1.00  0.00    -0.269 OA
ATOM      5  C   UNL     1      10.075   7.316  -6.604  1.00  0.00     0.251 C 
ATOM      6  H   UNL     1      10.884   7.073  -4.830  1.00  0.00     0.163 HD
BRANCH   5   7
ATOM      7  C   UNL     1       9.142   7.960  -7.578  1.00  0.00     0.039 A 
ATOM      8  C   UNL     1       8.208   8.959  -7.301  1.00  0.00     0.014 A 
ATOM      9  C   UNL     1       9.251   7.513  -8.912  1.00  0.00     0.014 A 
ATOM     10  C   UNL     1       7.413   9.497  -8.324  1.00  0.00     0.010 A 
ATOM     11  C   UNL     1       8.467   8.052  -9.934  1.00  0.00     0.010 A 
ATOM     12  C   UNL     1       7.537   9.047  -9.644  1.00  0.00    -0.014 A 
BRANCH  12  13
ATOM     13  C   UNL     1       6.758   9.713 -10.697  1.00  0.00     0.031 A 
ATOM     14  C   UNL     1       7.070  11.155 -10.962  1.00  0.00     0.074 A 
ATOM     15  C   UNL     1       5.946   9.084 -11.572  1.00  0.00     0.049 A 
ATOM     16  N   UNL     1       6.277  12.179 -10.933  1.00  0.00    -0.248 NA
ATOM     17  C   UNL     1       8.462  11.491 -11.299  1.00  0.00     0.031 C 
ATOM     18  C   UNL     1       5.770   7.643 -11.768  1.00  0.00     0.029 A 
ATOM     19  N   UNL     1       5.173   9.629 -12.561  1.00  0.00    -0.354 N 
ATOM     20  C   UNL     1       7.019  13.265 -11.403  1.00  0.00     0.074 A 
ATOM     21  C   UNL     1       8.378  12.802 -11.530  1.00  0.00     0.031 C 
ATOM     22  C   UNL     1       5.113   7.431 -12.931  1.00  0.00     0.029 A 
ATOM     23  C   UNL     1       4.701   8.710 -13.486  1.00  0.00     0.049 A 
ATOM     24  H   UNL     1       4.969  10.591 -12.611  1.00  0.00     0.167 HD
ATOM     25  C   UNL     1       6.453  14.442 -11.798  1.00  0.00     0.037 A 
ATOM     26  C   UNL     1       4.065   8.978 -14.652  1.00  0.00     0.037 A 
ATOM     27  C   UNL     1       5.101  14.581 -11.335  1.00  0.00     0.049 A 
ATOM     28  C   UNL     1       3.513  10.353 -14.574  1.00  0.00     0.074 A 
ATOM     29  C   UNL     1       4.490  14.614 -10.097  1.00  0.00     0.029 A 
ATOM     30  N   UNL     1       4.082  14.440 -12.243  1.00  0.00    -0.354 N 
ATOM     31  N   UNL     1       2.537  10.722 -13.790  1.00  0.00    -0.248 NA
ATOM     32  C   UNL     1       4.273  11.438 -15.174  1.00  0.00     0.031 C 
ATOM     33  C   UNL     1       3.213  14.012 -10.293  1.00  0.00     0.029 A 
ATOM     34  C   UNL     1       3.126  13.661 -11.641  1.00  0.00     0.049 A 
ATOM     35  H   UNL     1       4.044  14.822 -13.149  1.00  0.00     0.167 HD
ATOM     36  C   UNL     1       2.803  12.047 -13.489  1.00  0.00     0.074 A 
ATOM     37  C   UNL     1       3.800  12.465 -14.467  1.00  0.00     0.031 C 
ATOM     38  C   UNL     1       2.398  12.606 -12.312  1.00  0.00     0.037 A 
BRANCH  25  39
ATOM     39  C   UNL     1       7.039  15.376 -12.831  1.00  0.00     0.058 A 
ATOM     40  C   UNL     1       6.565  16.701 -12.941  1.00  0.00     0.135 A 
ATOM     41  C   UNL     1       7.862  14.932 -13.888  1.00  0.00     0.135 A 
ATOM     42  F   UNL     1       5.756  17.217 -12.002  1.00  0.00    -0.206 F 
ATOM     43  C   UNL     1       6.848  17.508 -14.045  1.00  0.00     0.059 A 
ATOM     44  C   UNL     1       8.198  15.737 -14.974  1.00  0.00     0.059 A 
ATOM     45  F   UNL     1       8.298  13.667 -13.954  1.00  0.00    -0.206 F 
ATOM     46  C   UNL     1       7.652  17.009 -15.065  1.00  0.00     0.060 A 
BRANCH  46  47
ATOM     47  S   UNL     1       7.927  18.007 -16.543  1.00  0.00     0.124 S 
ATOM     48  O   UNL     1       6.638  17.892 -17.213  1.00  0.00    -0.237 OA
ATOM     49  O   UNL     1       8.240  19.316 -15.979  1.00  0.00    -0.237 OA
ATOM     50  O   UNL     1       9.045  17.331 -17.198  1.00  0.00    -0.744 OA
ENDBRANCH  46  47
ENDBRANCH  25  39
BRANCH  26  51
ATOM     51  C   UNL     1       4.123   8.225 -15.930  1.00  0.00     0.058 A 
ATOM     52  C   UNL     1       3.173   8.433 -16.946  1.00  0.00     0.135 A 
ATOM     53  C   UNL     1       5.270   7.489 -16.291  1.00  0.00     0.135 A 
ATOM     54  F   UNL     1       2.064   9.146 -16.697  1.00  0.00    -0.206 F 
ATOM     55  C   UNL     1       3.368   7.978 -18.253  1.00  0.00     0.059 A 
ATOM     56  C   UNL     1       5.480   7.013 -17.584  1.00  0.00     0.059 A 
ATOM     57  F   UNL     1       6.268   7.291 -15.417  1.00  0.00    -0.206 F 
ATOM     58  C   UNL     1       4.536   7.283 -18.567  1.00  0.00     0.060 A 
BRANCH  58  59
ATOM     59  S   UNL     1       4.873   6.848 -20.289  1.00  0.00     0.124 S 
ATOM     60  O   UNL     1       3.896   5.791 -20.529  1.00  0.00    -0.237 OA
ATOM     61  O   UNL     1       4.631   8.110 -20.980  1.00  0.00    -0.237 OA
ATOM     62  O   UNL     1       6.268   6.413 -20.261  1.00  0.00    -0.744 OA
ENDBRANCH  58  59
ENDBRANCH  26  51
BRANCH  38  63
ATOM     63  C   UNL     1       1.339  11.902 -11.506  1.00  0.00     0.058 A 
ATOM     64  C   UNL     1       1.512  10.639 -10.916  1.00  0.00     0.135 A 
ATOM     65  C   UNL     1       0.174  12.613 -11.174  1.00  0.00     0.135 A 
ATOM     66  F   UNL     1       2.641   9.940 -11.099  1.00  0.00    -0.206 F 
ATOM     67  C   UNL     1       0.556  10.095 -10.057  1.00  0.00     0.059 A 
ATOM     68  C   UNL     1      -0.778  12.102 -10.295  1.00  0.00     0.059 A 
ATOM     69  F   UNL     1      -0.020  13.851 -11.659  1.00  0.00    -0.206 F 
ATOM     70  C   UNL     1      -0.584  10.836  -9.746  1.00  0.00     0.060 A 
BRANCH  70  71
ATOM     71  S   UNL     1      -1.756  10.179  -8.539  1.00  0.00     0.124 S 
ATOM     72  O   UNL     1      -2.477   9.182  -9.322  1.00  0.00    -0.237 OA
ATOM     73  O   UNL     1      -0.881   9.650  -7.496  1.00  0.00    -0.237 OA
ATOM     74  O   UNL     1      -2.536  11.351  -8.149  1.00  0.00    -0.744 OA
ENDBRANCH  70  71
ENDBRANCH  38  63
ENDBRANCH  12  13
ENDBRANCH   5   7
ENDBRANCH   2   3
ENDBRANCH   1   2
BRANCH   1  75
ATOM     75  C   UNL     1       8.246   6.491  -3.174  1.00  0.00     0.117 C 
BRANCH  75  76
ATOM     76  N   UNL     1       8.483   6.614  -1.744  1.00  0.00    -0.354 N 
ATOM     77  C   UNL     1       7.749   6.396  -0.624  1.00  0.00     0.243 C 
ATOM     78  H   UNL     1       9.393   6.930  -1.540  1.00  0.00     0.163 HD
ATOM     79  O   UNL     1       8.375   6.579   0.433  1.00  0.00    -0.273 OA
BRANCH  77  80
ATOM     80  C   UNL     1       6.229   6.058  -0.535  1.00  0.00     0.182 C 
ATOM     81  C   UNL     1       5.566   5.219  -1.659  1.00  0.00     0.091 C 
ATOM     82  N   UNL     1       5.416   7.274  -0.214  1.00  0.00    -0.306 N 
ATOM     83  C   UNL     1       5.038   6.142  -2.696  1.00  0.00     0.042 A 
ATOM     84  C   UNL     1       5.325   8.257  -1.319  1.00  0.00     0.180 C 
ATOM     85  N   UNL     1       4.600   5.869  -3.959  1.00  0.00    -0.348 N 
ATOM     86  C   UNL     1       4.957   7.511  -2.559  1.00  0.00     0.081 A 
ATOM     87  C   UNL     1       4.360   7.079  -4.559  1.00  0.00     0.197 A 
ATOM     88  H   UNL     1       4.480   4.978  -4.361  1.00  0.00     0.167 HD
ATOM     89  N   UNL     1       4.589   8.085  -3.741  1.00  0.00    -0.240 NA
BRANCH  82  90
ATOM     90  C   UNL     1       4.765   7.621   0.925  1.00  0.00     0.318 C 
ATOM     91  O   UNL     1       4.379   8.777   1.131  1.00  0.00    -0.249 OA
ATOM     92  N   UNL     1       4.416   6.763   1.892  1.00  0.00    -0.329 N 
ATOM     93  H   UNL     1       3.940   7.224   2.620  1.00  0.00     0.165 HD
BRANCH  92  94
ATOM     94  C   UNL     1       4.545   5.336   2.168  1.00  0.00     0.233 C 
BRANCH  94  95
ATOM     95  C   UNL     1       5.616   5.006   3.209  1.00  0.00     0.405 C 
ATOM     96  F   UNL     1       5.226   5.409   4.442  1.00  0.00    -0.169 F 
ATOM     97  F   UNL     1       5.824   3.670   3.270  1.00  0.00    -0.169 F 
ATOM     98  F   UNL     1       6.799   5.590   2.937  1.00  0.00    -0.169 F 
ENDBRANCH  94  95
ENDBRANCH  92  94
ENDBRANCH  82  90
ENDBRANCH  77  80
ENDBRANCH  75  76
ENDBRANCH   1  75
TORSDOF 16
