REMARK SMILES N#C/C(=C/c1cccc(OCC(=O)NCCCNC(=O)c2ccc(-c3c4nc(c(-c5c(F)cc(S(=O)(=O)[O-])cc5F)c5ccc([nH]5)c(-c5c(F)cc(S(=O)(=O)[O-])cc5F)c5nc(c(-c6c(F)cc(S(=O)(=O)[O-])cc6F)c6ccc3[nH]6)C=C5)C=C4)cc2)c1)c1nc2ccccc2[nH]1
REMARK SMILES IDX 15 1 14 2 12 3 13 4 11 6 10 7 9 8 5 9 6 10 87 11 7 12 8 13
REMARK SMILES IDX 4 14 3 15 2 16 1 17 88 18 89 19 96 20 90 21 95 22 91 24
REMARK SMILES IDX 94 25 92 26 93 27 16 28 17 29 18 30 19 31 20 33 21 34 22 35
REMARK SMILES IDX 86 36 23 37 85 38 24 39 25 40 26 41 79 42 27 43 84 44 78 45
REMARK SMILES IDX 80 46 28 47 83 48 77 49 76 50 29 52 63 53 42 54 62 55 43 56
REMARK SMILES IDX 46 57 61 58 81 59 44 60 45 61 60 63 82 64 47 65 30 66 31 67
REMARK SMILES IDX 40 68 32 69 33 70 39 71 41 72 34 73 35 74 36 75 37 76 38 77
REMARK SMILES IDX 64 78 65 79 74 80 66 81 67 82 73 83 75 84 68 85 69 86 70 87
REMARK SMILES IDX 71 88 72 89 48 90 49 91 58 92 50 93 51 94 57 95 59 96 52 97
REMARK SMILES IDX 53 98 54 99 55 100 56 101
REMARK H PARENT 14 5 96 23 18 32 80 51 46 62
REMARK Flexibility Score: inf
ROOT
ATOM      1  C   UNL     1      10.150   2.201  -2.284  1.00  0.00     0.117 C 
ENDROOT
BRANCH   1   2
ATOM      2  N   UNL     1       8.709   2.373  -2.289  1.00  0.00    -0.353 N 
ATOM      3  C   UNL     1       7.926   2.868  -1.280  1.00  0.00     0.257 C 
ATOM      4  O   UNL     1       6.774   3.240  -1.520  1.00  0.00    -0.271 OA
ATOM      5  H   UNL     1       8.240   2.103  -3.112  1.00  0.00     0.163 HD
BRANCH   3   6
ATOM      6  C   UNL     1       8.505   2.999   0.133  1.00  0.00     0.329 C 
BRANCH   6   7
ATOM      7  O   UNL     1       9.026   1.810   0.704  1.00  0.00    -0.484 OA
BRANCH   7   8
ATOM      8  C   UNL     1       8.146   0.807   1.015  1.00  0.00     0.120 A 
ATOM      9  C   UNL     1       5.966  -0.258   1.215  1.00  0.00    -0.021 A 
ATOM     10  C   UNL     1       6.584  -1.434   1.651  1.00  0.00     0.008 A 
ATOM     11  C   UNL     1       6.753   0.868   0.923  1.00  0.00     0.054 A 
ATOM     12  C   UNL     1       7.972  -1.490   1.772  1.00  0.00     0.004 A 
ATOM     13  C   UNL     1       8.747  -0.375   1.451  1.00  0.00     0.046 A 
BRANCH   9  14
ATOM     14  C   UNL     1       4.501  -0.222   1.065  1.00  0.00     0.031 C 
ATOM     15  C   UNL     1       3.831  -0.009  -0.086  1.00  0.00     0.095 C 
BRANCH  15  16
ATOM     16  C   UNL     1       2.311  -0.009  -0.086  1.00  0.00     0.103 C 
ATOM     17  N   UNL     1       1.050  -0.009  -0.086  1.00  0.00    -0.192 NA
ENDBRANCH  15  16
BRANCH  15  18
ATOM     18  C   UNL     1       4.496   0.139  -1.336  1.00  0.00     0.149 A 
ATOM     19  N   UNL     1       5.378  -0.636  -1.937  1.00  0.00    -0.228 NA
ATOM     20  N   UNL     1       4.242   1.258  -2.100  1.00  0.00    -0.337 N 
ATOM     21  C   UNL     1       5.726   0.014  -3.094  1.00  0.00     0.089 A 
ATOM     22  C   UNL     1       5.037   1.211  -3.218  1.00  0.00     0.066 A 
ATOM     23  H   UNL     1       3.599   1.970  -1.881  1.00  0.00     0.168 HD
ATOM     24  C   UNL     1       6.644  -0.350  -4.086  1.00  0.00     0.030 A 
ATOM     25  C   UNL     1       5.227   2.101  -4.278  1.00  0.00     0.028 A 
ATOM     26  C   UNL     1       6.872   0.531  -5.152  1.00  0.00     0.002 A 
ATOM     27  C   UNL     1       6.176   1.738  -5.241  1.00  0.00     0.002 A 
ENDBRANCH  15  18
ENDBRANCH   9  14
ENDBRANCH   7   8
ENDBRANCH   6   7
ENDBRANCH   3   6
ENDBRANCH   1   2
BRANCH   1  28
ATOM     28  C   UNL     1      10.636   0.754  -2.299  1.00  0.00     0.042 C 
BRANCH  28  29
ATOM     29  C   UNL     1      10.368  -0.061  -3.564  1.00  0.00     0.118 C 
BRANCH  29  30
ATOM     30  N   UNL     1      10.711   0.595  -4.817  1.00  0.00    -0.352 N 
ATOM     31  C   UNL     1      11.102   0.039  -6.015  1.00  0.00     0.251 C 
ATOM     32  H   UNL     1      10.655   1.578  -4.807  1.00  0.00     0.163 HD
ATOM     33  O   UNL     1      11.358   0.764  -6.964  1.00  0.00    -0.269 OA
BRANCH  31  34
ATOM     34  C   UNL     1      11.254  -1.430  -6.143  1.00  0.00     0.039 A 
ATOM     35  C   UNL     1      12.451  -1.930  -6.665  1.00  0.00     0.014 A 
ATOM     36  C   UNL     1      10.239  -2.309  -5.757  1.00  0.00     0.014 A 
ATOM     37  C   UNL     1      12.666  -3.310  -6.713  1.00  0.00     0.010 A 
ATOM     38  C   UNL     1      10.470  -3.687  -5.770  1.00  0.00     0.010 A 
ATOM     39  C   UNL     1      11.695  -4.199  -6.223  1.00  0.00    -0.014 A 
BRANCH  39  40
ATOM     40  C   UNL     1      11.993  -5.649  -6.091  1.00  0.00     0.031 A 
ATOM     41  C   UNL     1      11.288  -6.671  -6.939  1.00  0.00     0.074 A 
ATOM     42  C   UNL     1      12.868  -6.049  -5.146  1.00  0.00     0.049 A 
ATOM     43  N   UNL     1      11.412  -7.974  -6.929  1.00  0.00    -0.248 NA
ATOM     44  C   UNL     1      10.306  -6.167  -7.910  1.00  0.00     0.031 C 
ATOM     45  C   UNL     1      13.576  -5.160  -4.222  1.00  0.00     0.029 A 
ATOM     46  N   UNL     1      13.304  -7.303  -4.797  1.00  0.00    -0.354 N 
ATOM     47  C   UNL     1      10.524  -8.449  -7.886  1.00  0.00     0.074 A 
ATOM     48  C   UNL     1       9.840  -7.294  -8.431  1.00  0.00     0.031 C 
ATOM     49  C   UNL     1      14.366  -5.893  -3.422  1.00  0.00     0.029 A 
ATOM     50  C   UNL     1      14.202  -7.305  -3.755  1.00  0.00     0.049 A 
ATOM     51  H   UNL     1      13.002  -8.124  -5.249  1.00  0.00     0.167 HD
ATOM     52  C   UNL     1      10.310  -9.727  -8.282  1.00  0.00     0.037 A 
ATOM     53  C   UNL     1      14.822  -8.326  -3.133  1.00  0.00     0.037 A 
ATOM     54  C   UNL     1      11.000 -10.873  -7.745  1.00  0.00     0.049 A 
ATOM     55  C   UNL     1      14.575  -9.734  -3.598  1.00  0.00     0.074 A 
ATOM     56  C   UNL     1      10.890 -12.200  -8.126  1.00  0.00     0.029 A 
ATOM     57  N   UNL     1      11.923 -10.832  -6.711  1.00  0.00    -0.354 N 
ATOM     58  N   UNL     1      13.787 -10.156  -4.557  1.00  0.00    -0.248 NA
ATOM     59  C   UNL     1      15.307 -10.803  -2.905  1.00  0.00     0.031 C 
ATOM     60  C   UNL     1      11.721 -12.965  -7.299  1.00  0.00     0.029 A 
ATOM     61  C   UNL     1      12.377 -12.111  -6.429  1.00  0.00     0.049 A 
ATOM     62  H   UNL     1      12.213 -10.015  -6.245  1.00  0.00     0.167 HD
ATOM     63  C   UNL     1      13.946 -11.536  -4.598  1.00  0.00     0.074 A 
ATOM     64  C   UNL     1      14.913 -11.877  -3.575  1.00  0.00     0.031 C 
ATOM     65  C   UNL     1      13.346 -12.438  -5.413  1.00  0.00     0.037 A 
BRANCH  52  66
ATOM     66  C   UNL     1       9.288  -9.961  -9.360  1.00  0.00     0.058 A 
ATOM     67  C   UNL     1       9.544  -9.619 -10.697  1.00  0.00     0.135 A 
ATOM     68  C   UNL     1       8.062 -10.579  -9.064  1.00  0.00     0.135 A 
ATOM     69  F   UNL     1      10.696  -9.017 -11.033  1.00  0.00    -0.206 F 
ATOM     70  C   UNL     1       8.611  -9.859 -11.700  1.00  0.00     0.059 A 
ATOM     71  C   UNL     1       7.123 -10.849 -10.056  1.00  0.00     0.059 A 
ATOM     72  F   UNL     1       7.769 -10.929  -7.802  1.00  0.00    -0.206 F 
ATOM     73  C   UNL     1       7.401 -10.473 -11.369  1.00  0.00     0.060 A 
BRANCH  73  74
ATOM     74  S   UNL     1       6.202 -10.783 -12.683  1.00  0.00     0.124 S 
ATOM     75  O   UNL     1       5.671  -9.444 -12.914  1.00  0.00    -0.237 OA
ATOM     76  O   UNL     1       7.038 -11.324 -13.750  1.00  0.00    -0.237 OA
ATOM     77  O   UNL     1       5.273 -11.732 -12.078  1.00  0.00    -0.744 OA
ENDBRANCH  73  74
ENDBRANCH  52  66
BRANCH  53  78
ATOM     78  C   UNL     1      15.759  -8.049  -2.013  1.00  0.00     0.058 A 
ATOM     79  C   UNL     1      17.144  -8.193  -2.181  1.00  0.00     0.135 A 
ATOM     80  C   UNL     1      15.290  -7.622  -0.761  1.00  0.00     0.135 A 
ATOM     81  F   UNL     1      17.637  -8.603  -3.359  1.00  0.00    -0.206 F 
ATOM     82  C   UNL     1      18.033  -7.939  -1.142  1.00  0.00     0.059 A 
ATOM     83  C   UNL     1      16.161  -7.341   0.286  1.00  0.00     0.059 A 
ATOM     84  F   UNL     1      13.975  -7.452  -0.557  1.00  0.00    -0.206 F 
ATOM     85  C   UNL     1      17.531  -7.512   0.089  1.00  0.00     0.060 A 
BRANCH  85  86
ATOM     86  S   UNL     1      18.695  -7.135   1.418  1.00  0.00     0.124 S 
ATOM     87  O   UNL     1      19.064  -8.470   1.872  1.00  0.00    -0.237 OA
ATOM     88  O   UNL     1      19.734  -6.388   0.716  1.00  0.00    -0.237 OA
ATOM     89  O   UNL     1      17.892  -6.349   2.350  1.00  0.00    -0.744 OA
ENDBRANCH  85  86
ENDBRANCH  53  78
BRANCH  65  90
ATOM     90  C   UNL     1      13.736 -13.881  -5.253  1.00  0.00     0.058 A 
ATOM     91  C   UNL     1      13.281 -14.651  -4.172  1.00  0.00     0.135 A 
ATOM     92  C   UNL     1      14.536 -14.512  -6.220  1.00  0.00     0.135 A 
ATOM     93  F   UNL     1      12.522 -14.092  -3.217  1.00  0.00    -0.206 F 
ATOM     94  C   UNL     1      13.619 -15.995  -4.045  1.00  0.00     0.059 A 
ATOM     95  C   UNL     1      14.868 -15.860  -6.124  1.00  0.00     0.059 A 
ATOM     96  F   UNL     1      14.991 -13.821  -7.276  1.00  0.00    -0.206 F 
ATOM     97  C   UNL     1      14.413 -16.591  -5.027  1.00  0.00     0.060 A 
BRANCH  97  98
ATOM     98  S   UNL     1      14.814 -18.345  -4.874  1.00  0.00     0.124 S 
ATOM     99  O   UNL     1      15.853 -18.320  -3.849  1.00  0.00    -0.237 OA
ATOM    100  O   UNL     1      13.538 -18.926  -4.468  1.00  0.00    -0.237 OA
ATOM    101  O   UNL     1      15.262 -18.708  -6.215  1.00  0.00    -0.744 OA
ENDBRANCH  97  98
ENDBRANCH  65  90
ENDBRANCH  39  40
ENDBRANCH  31  34
ENDBRANCH  29  30
ENDBRANCH  28  29
ENDBRANCH   1  28
TORSDOF 18
