REMARK SMILES COc1ccc2[nH]cc([C@H](C(=O)NCCCNC(=O)c3ccc(-c4c5nc(c(-c6c(F)cc(S(=O)(=O)[O-])cc6F)c6ccc([nH]6)c(-c6c(F)cc(S(=O)(=O)[O-])cc6F)c6nc(c(-c7c(F)cc(S(=O)(=O)[O-])cc7F)c7ccc4[nH]7)C=C6)C=C5)cc3)[NH+]3CC[NH+](Cc4cccc5ccccc45)CC3)c2c1
REMARK SMILES IDX 15 1 14 2 13 3 11 4 12 5 10 7 9 8 3 9 4 10 104 11 5 12
REMARK SMILES IDX 103 13 6 14 7 15 8 16 2 18 1 19 86 20 87 21 102 22 88 24
REMARK SMILES IDX 101 25 89 26 90 28 91 29 92 30 100 31 93 32 95 33 99 34
REMARK SMILES IDX 94 35 96 36 98 37 97 38 16 39 17 40 18 41 19 43 20 44 21 45
REMARK SMILES IDX 85 46 22 47 84 48 23 49 24 50 25 51 78 52 26 53 83 54 77 55
REMARK SMILES IDX 79 56 27 57 82 58 76 59 75 60 28 62 62 63 41 64 61 65 42 66
REMARK SMILES IDX 45 67 60 68 80 69 43 70 44 71 59 73 81 74 46 75 29 76 30 77
REMARK SMILES IDX 39 78 31 79 32 80 38 81 40 82 33 83 34 84 35 85 36 86 37 87
REMARK SMILES IDX 63 88 64 89 73 90 65 91 66 92 72 93 74 94 67 95 68 96 69 97
REMARK SMILES IDX 70 98 71 99 47 100 48 101 57 102 49 103 50 104 56 105 58 106
REMARK SMILES IDX 51 107 52 108 53 109 54 110 55 111
REMARK H PARENT 13 6 7 17 86 23 89 27 17 42 79 61 45 72
REMARK Flexibility Score: inf
ROOT
ATOM      1  C   UNL     1      -0.331  -0.763  -2.750  1.00  0.00     0.042 C 
ENDROOT
BRANCH   1   2
ATOM      2  C   UNL     1      -1.047   0.582  -2.876  1.00  0.00     0.118 C 
BRANCH   2   3
ATOM      3  N   UNL     1      -0.331   1.466  -3.776  1.00  0.00    -0.351 N 
ATOM      4  C   UNL     1      -0.485   1.657  -5.117  1.00  0.00     0.283 C 
ATOM      5  O   UNL     1       0.535   2.014  -5.714  1.00  0.00    -0.268 OA
ATOM      6  H   UNL     1       0.372   2.010  -3.354  1.00  0.00     0.163 HD
BRANCH   4   7
ATOM      7  C   UNL     1      -1.851   1.426  -5.791  1.00  0.00     0.308 C 
BRANCH   7   8
ATOM      8  C   UNL     1      -2.625   2.706  -6.109  1.00  0.00     0.045 A 
ATOM      9  C   UNL     1      -0.720   5.933  -6.990  1.00  0.00     0.119 A 
ATOM     10  C   UNL     1      -1.828   6.673  -7.376  1.00  0.00     0.048 A 
ATOM     11  C   UNL     1      -0.862   4.629  -6.513  1.00  0.00     0.057 A 
ATOM     12  C   UNL     1      -3.111   6.122  -7.287  1.00  0.00     0.030 A 
ATOM     13  C   UNL     1      -2.138   4.030  -6.426  1.00  0.00     0.013 A 
ATOM     14  C   UNL     1      -3.233   4.802  -6.824  1.00  0.00     0.046 A 
ATOM     15  N   UNL     1      -4.348   4.006  -6.718  1.00  0.00    -0.361 N 
ATOM     16  C   UNL     1      -4.001   2.755  -6.294  1.00  0.00     0.094 A 
ATOM     17  H   UNL     1      -5.267   4.297  -6.920  1.00  0.00     0.166 HD
BRANCH   9  18
ATOM     18  O   UNL     1       0.560   6.377  -7.190  1.00  0.00    -0.497 OA
ATOM     19  C   UNL     1       0.870   7.505  -6.381  1.00  0.00     0.278 C 
ENDBRANCH   9  18
ENDBRANCH   7   8
BRANCH   7  20
ATOM     20  N   UNL     1      -1.760   0.592  -7.003  1.00  0.00    -0.312 N 
ATOM     21  C   UNL     1      -1.260   1.231  -8.220  1.00  0.00     0.325 C 
ATOM     22  C   UNL     1      -1.256  -0.769  -6.812  1.00  0.00     0.325 C 
ATOM     23  H   UNL     1      -2.755   0.476  -7.195  1.00  0.00     0.349 HD
ATOM     24  C   UNL     1       0.166   0.894  -8.694  1.00  0.00     0.324 C 
ATOM     25  C   UNL     1       0.195  -1.055  -7.289  1.00  0.00     0.324 C 
ATOM     26  N   UNL     1       0.573  -0.506  -8.596  1.00  0.00    -0.322 N 
ATOM     27  H   UNL     1       1.592  -0.538  -8.618  1.00  0.00     0.348 HD
BRANCH  26  28
ATOM     28  C   UNL     1       0.320  -1.334  -9.787  1.00  0.00     0.300 C 
BRANCH  28  29
ATOM     29  C   UNL     1      -1.063  -1.943  -9.936  1.00  0.00     0.014 A 
ATOM     30  C   UNL     1      -1.260  -3.226  -9.388  1.00  0.00     0.010 A 
ATOM     31  C   UNL     1      -2.176  -1.230 -10.464  1.00  0.00    -0.010 A 
ATOM     32  C   UNL     1      -2.539  -3.738  -9.214  1.00  0.00     0.001 A 
ATOM     33  C   UNL     1      -3.476  -1.706 -10.162  1.00  0.00    -0.018 A 
ATOM     34  C   UNL     1      -2.078  -0.047 -11.236  1.00  0.00     0.009 A 
ATOM     35  C   UNL     1      -3.640  -2.954  -9.543  1.00  0.00     0.009 A 
ATOM     36  C   UNL     1      -4.596  -0.913 -10.461  1.00  0.00     0.009 A 
ATOM     37  C   UNL     1      -3.207   0.707 -11.570  1.00  0.00     0.001 A 
ATOM     38  C   UNL     1      -4.462   0.296 -11.143  1.00  0.00     0.001 A 
ENDBRANCH  28  29
ENDBRANCH  26  28
ENDBRANCH   7  20
ENDBRANCH   4   7
ENDBRANCH   2   3
ENDBRANCH   1   2
BRANCH   1  39
ATOM     39  C   UNL     1       1.166  -0.650  -2.461  1.00  0.00     0.118 C 
BRANCH  39  40
ATOM     40  N   UNL     1       1.448   0.191  -1.306  1.00  0.00    -0.352 N 
ATOM     41  C   UNL     1       1.997  -0.129  -0.090  1.00  0.00     0.251 C 
ATOM     42  H   UNL     1       1.207   1.139  -1.415  1.00  0.00     0.163 HD
ATOM     43  O   UNL     1       1.946   0.679   0.830  1.00  0.00    -0.269 OA
BRANCH  41  44
ATOM     44  C   UNL     1       2.623  -1.450   0.110  1.00  0.00     0.039 A 
ATOM     45  C   UNL     1       2.356  -2.151   1.288  1.00  0.00     0.014 A 
ATOM     46  C   UNL     1       3.479  -1.991  -0.853  1.00  0.00     0.014 A 
ATOM     47  C   UNL     1       2.896  -3.425   1.469  1.00  0.00     0.010 A 
ATOM     48  C   UNL     1       3.947  -3.292  -0.709  1.00  0.00     0.010 A 
ATOM     49  C   UNL     1       3.664  -4.022   0.455  1.00  0.00    -0.014 A 
BRANCH  49  50
ATOM     50  C   UNL     1       4.184  -5.405   0.598  1.00  0.00     0.031 A 
ATOM     51  C   UNL     1       5.668  -5.655   0.616  1.00  0.00     0.074 A 
ATOM     52  C   UNL     1       3.320  -6.438   0.657  1.00  0.00     0.049 A 
ATOM     53  N   UNL     1       6.314  -6.792   0.664  1.00  0.00    -0.248 NA
ATOM     54  C   UNL     1       6.543  -4.472   0.548  1.00  0.00     0.031 C 
ATOM     55  C   UNL     1       1.859  -6.324   0.610  1.00  0.00     0.029 A 
ATOM     56  N   UNL     1       3.541  -7.788   0.764  1.00  0.00    -0.354 N 
ATOM     57  C   UNL     1       7.664  -6.463   0.629  1.00  0.00     0.074 A 
ATOM     58  C   UNL     1       7.745  -5.026   0.489  1.00  0.00     0.031 C 
ATOM     59  C   UNL     1       1.318  -7.548   0.717  1.00  0.00     0.029 A 
ATOM     60  C   UNL     1       2.388  -8.537   0.794  1.00  0.00     0.049 A 
ATOM     61  H   UNL     1       4.441  -8.183   0.815  1.00  0.00     0.167 HD
ATOM     62  C   UNL     1       8.738  -7.281   0.735  1.00  0.00     0.037 A 
ATOM     63  C   UNL     1       2.214  -9.871   0.867  1.00  0.00     0.037 A 
ATOM     64  C   UNL     1       8.648  -8.710   0.887  1.00  0.00     0.049 A 
ATOM     65  C   UNL     1       3.426 -10.761   0.945  1.00  0.00     0.074 A 
ATOM     66  C   UNL     1       9.675  -9.626   1.033  1.00  0.00     0.029 A 
ATOM     67  N   UNL     1       7.463  -9.431   0.915  1.00  0.00    -0.354 N 
ATOM     68  N   UNL     1       4.695 -10.428   0.962  1.00  0.00    -0.248 NA
ATOM     69  C   UNL     1       3.183 -12.209   1.018  1.00  0.00     0.031 C 
ATOM     70  C   UNL     1       9.113 -10.905   1.103  1.00  0.00     0.029 A 
ATOM     71  C   UNL     1       7.733 -10.782   1.058  1.00  0.00     0.049 A 
ATOM     72  H   UNL     1       6.562  -9.040   0.844  1.00  0.00     0.167 HD
ATOM     73  C   UNL     1       5.399 -11.622   1.084  1.00  0.00     0.074 A 
ATOM     74  C   UNL     1       4.414 -12.682   1.149  1.00  0.00     0.031 C 
ATOM     75  C   UNL     1       6.739 -11.823   1.138  1.00  0.00     0.037 A 
BRANCH  62  76
ATOM     76  C   UNL     1      10.104  -6.649   0.704  1.00  0.00     0.058 A 
ATOM     77  C   UNL     1      10.566  -5.849   1.762  1.00  0.00     0.135 A 
ATOM     78  C   UNL     1      10.978  -6.879  -0.371  1.00  0.00     0.135 A 
ATOM     79  F   UNL     1       9.767  -5.581   2.807  1.00  0.00    -0.206 F 
ATOM     80  C   UNL     1      11.834  -5.279   1.744  1.00  0.00     0.059 A 
ATOM     81  C   UNL     1      12.263  -6.344  -0.395  1.00  0.00     0.059 A 
ATOM     82  F   UNL     1      10.589  -7.635  -1.409  1.00  0.00    -0.206 F 
ATOM     83  C   UNL     1      12.678  -5.535   0.662  1.00  0.00     0.060 A 
BRANCH  83  84
ATOM     84  S   UNL     1      14.326  -4.801   0.666  1.00  0.00     0.124 S 
ATOM     85  O   UNL     1      14.019  -3.392   0.440  1.00  0.00    -0.237 OA
ATOM     86  O   UNL     1      14.813  -5.136   2.000  1.00  0.00    -0.237 OA
ATOM     87  O   UNL     1      15.004  -5.478  -0.434  1.00  0.00    -0.744 OA
ENDBRANCH  83  84
ENDBRANCH  62  76
BRANCH  63  88
ATOM     88  C   UNL     1       0.843 -10.452   0.886  1.00  0.00     0.058 A 
ATOM     89  C   UNL     1       0.349 -11.095   2.031  1.00  0.00     0.135 A 
ATOM     90  C   UNL     1       0.007 -10.393  -0.240  1.00  0.00     0.135 A 
ATOM     91  F   UNL     1       1.111 -11.181   3.133  1.00  0.00    -0.206 F 
ATOM     92  C   UNL     1      -0.909 -11.688   2.051  1.00  0.00     0.059 A 
ATOM     93  C   UNL     1      -1.268 -10.951  -0.235  1.00  0.00     0.059 A 
ATOM     94  F   UNL     1       0.421  -9.773  -1.355  1.00  0.00    -0.206 F 
ATOM     95  C   UNL     1      -1.710 -11.612   0.910  1.00  0.00     0.060 A 
BRANCH  95  96
ATOM     96  S   UNL     1      -3.349 -12.370   0.951  1.00  0.00     0.124 S 
ATOM     97  O   UNL     1      -3.017 -13.789   0.916  1.00  0.00    -0.237 OA
ATOM     98  O   UNL     1      -3.886 -11.869   2.213  1.00  0.00    -0.237 OA
ATOM     99  O   UNL     1      -3.992 -11.841  -0.248  1.00  0.00    -0.744 OA
ENDBRANCH  95  96
ENDBRANCH  63  88
BRANCH  75 100
ATOM    100  C   UNL     1       7.221 -13.236   1.324  1.00  0.00     0.058 A 
ATOM    101  C   UNL     1       7.130 -14.191   0.300  1.00  0.00     0.135 A 
ATOM    102  C   UNL     1       7.830 -13.624   2.530  1.00  0.00     0.135 A 
ATOM    103  F   UNL     1       6.551 -13.876  -0.869  1.00  0.00    -0.206 F 
ATOM    104  C   UNL     1       7.600 -15.489   0.474  1.00  0.00     0.059 A 
ATOM    105  C   UNL     1       8.336 -14.906   2.714  1.00  0.00     0.059 A 
ATOM    106  F   UNL     1       7.952 -12.746   3.538  1.00  0.00    -0.206 F 
ATOM    107  C   UNL     1       8.206 -15.836   1.684  1.00  0.00     0.060 A 
BRANCH 107 108
ATOM    108  S   UNL     1       8.844 -17.512   1.881  1.00  0.00     0.124 S 
ATOM    109  O   UNL     1       7.611 -18.283   2.008  1.00  0.00    -0.237 OA
ATOM    110  O   UNL     1       9.590 -17.709   0.642  1.00  0.00    -0.237 OA
ATOM    111  O   UNL     1       9.658 -17.427   3.090  1.00  0.00    -0.744 OA
ENDBRANCH 107 108
ENDBRANCH  75 100
ENDBRANCH  49  50
ENDBRANCH  41  44
ENDBRANCH  39  40
ENDBRANCH   1  39
TORSDOF 18
