REMARK SMILES C=C(c1ccccc1)[C@@H](C(=O)NCCCNC(=O)c1ccc(-c2c3nc(c(-c4c(F)cc(S(=O)(=O)[O-])cc4F)c4ccc([nH]4)c(-c4c(F)cc(S(=O)(=O)[O-])cc4F)c4nc(c(-c5c(F)cc(S(=O)(=O)[O-])cc5F)c5ccc2[nH]5)C=C4)C=C3)cc1)S(C)(=O)=O
REMARK SMILES IDX 14 1 13 2 12 3 10 4 11 5 9 7 2 8 1 9 3 10 4 11 8 12 5 13
REMARK SMILES IDX 7 14 6 15 85 16 86 17 87 18 88 19 15 20 16 21 17 22 18 24
REMARK SMILES IDX 19 25 20 26 84 27 21 28 83 29 22 30 23 31 24 32 77 33 25 34
REMARK SMILES IDX 82 35 76 36 78 37 26 38 81 39 75 40 74 41 27 43 61 44 40 45
REMARK SMILES IDX 60 46 41 47 44 48 59 49 79 50 42 51 43 52 58 54 80 55 45 56
REMARK SMILES IDX 28 57 29 58 38 59 30 60 31 61 37 62 39 63 32 64 33 65 34 66
REMARK SMILES IDX 35 67 36 68 62 69 63 70 72 71 64 72 65 73 71 74 73 75 66 76
REMARK SMILES IDX 67 77 68 78 69 79 70 80 46 81 47 82 56 83 48 84 49 85 55 86
REMARK SMILES IDX 57 87 50 88 51 89 52 90 53 91 54 92
REMARK H PARENT 12 6 16 23 78 42 44 53
REMARK Flexibility Score: inf
ROOT
ATOM      1  C   UNL     1      -0.519   0.865   3.621  1.00  0.00     0.042 C 
ENDROOT
BRANCH   1   2
ATOM      2  C   UNL     1      -0.129   2.274   3.185  1.00  0.00     0.117 C 
BRANCH   2   3
ATOM      3  N   UNL     1       1.275   2.348   2.827  1.00  0.00    -0.355 N 
ATOM      4  C   UNL     1       1.875   2.298   1.595  1.00  0.00     0.242 C 
ATOM      5  O   UNL     1       3.100   2.188   1.596  1.00  0.00    -0.273 OA
ATOM      6  H   UNL     1       1.893   2.451   3.587  1.00  0.00     0.163 HD
BRANCH   4   7
ATOM      7  C   UNL     1       1.020   2.401   0.332  1.00  0.00     0.227 C 
BRANCH   7   8
ATOM      8  C   UNL     1       0.273   1.110   0.005  1.00  0.00    -0.020 C 
ATOM      9  C   UNL     1       0.904  -0.057  -0.231  1.00  0.00     0.015 C 
BRANCH   8  10
ATOM     10  C   UNL     1      -1.221   1.146   0.018  1.00  0.00    -0.021 A 
ATOM     11  C   UNL     1      -1.944   2.253  -0.454  1.00  0.00     0.008 A 
ATOM     12  C   UNL     1      -1.955   0.101   0.608  1.00  0.00     0.008 A 
ATOM     13  C   UNL     1      -3.336   2.323  -0.323  1.00  0.00     0.001 A 
ATOM     14  C   UNL     1      -3.344   0.175   0.753  1.00  0.00     0.001 A 
ATOM     15  C   UNL     1      -4.034   1.289   0.291  1.00  0.00     0.000 A 
ENDBRANCH   8  10
ENDBRANCH   7   8
BRANCH   7  16
ATOM     16  S   UNL     1       2.075   2.930  -1.044  1.00  0.00     0.163 S 
ATOM     17  C   UNL     1       0.983   3.032  -2.439  1.00  0.00     0.159 C 
ATOM     18  O   UNL     1       2.489   4.304  -0.796  1.00  0.00    -0.228 OA
ATOM     19  O   UNL     1       3.055   1.918  -1.390  1.00  0.00    -0.228 OA
ENDBRANCH   7  16
ENDBRANCH   4   7
ENDBRANCH   2   3
ENDBRANCH   1   2
BRANCH   1  20
ATOM     20  C   UNL     1       0.101   0.421   4.942  1.00  0.00     0.118 C 
BRANCH  20  21
ATOM     21  N   UNL     1      -0.360   1.217   6.067  1.00  0.00    -0.352 N 
ATOM     22  C   UNL     1      -1.031   0.845   7.205  1.00  0.00     0.251 C 
ATOM     23  H   UNL     1      -0.159   2.178   6.003  1.00  0.00     0.163 HD
ATOM     24  O   UNL     1      -1.505   1.720   7.926  1.00  0.00    -0.269 OA
BRANCH  22  25
ATOM     25  C   UNL     1      -1.201  -0.582   7.565  1.00  0.00     0.039 A 
ATOM     26  C   UNL     1      -2.403  -0.983   8.158  1.00  0.00     0.014 A 
ATOM     27  C   UNL     1      -0.179  -1.516   7.376  1.00  0.00     0.014 A 
ATOM     28  C   UNL     1      -2.593  -2.320   8.516  1.00  0.00     0.010 A 
ATOM     29  C   UNL     1      -0.403  -2.865   7.653  1.00  0.00     0.010 A 
ATOM     30  C   UNL     1      -1.606  -3.280   8.240  1.00  0.00    -0.014 A 
BRANCH  30  31
ATOM     31  C   UNL     1      -1.816  -4.714   8.577  1.00  0.00     0.031 A 
ATOM     32  C   UNL     1      -0.921  -5.401   9.575  1.00  0.00     0.074 A 
ATOM     33  C   UNL     1      -2.788  -5.410   7.954  1.00  0.00     0.049 A 
ATOM     34  N   UNL     1      -0.928  -6.648   9.971  1.00  0.00    -0.248 NA
ATOM     35  C   UNL     1       0.139  -4.586  10.192  1.00  0.00     0.031 C 
ATOM     36  C   UNL     1      -3.692  -4.873   6.934  1.00  0.00     0.029 A 
ATOM     37  N   UNL     1      -3.178  -6.720   8.083  1.00  0.00    -0.354 N 
ATOM     38  C   UNL     1       0.125  -6.769  10.871  1.00  0.00     0.074 A 
ATOM     39  C   UNL     1       0.788  -5.485  10.917  1.00  0.00     0.031 C 
ATOM     40  C   UNL     1      -4.546  -5.835   6.551  1.00  0.00     0.029 A 
ATOM     41  C   UNL     1      -4.229  -7.067   7.266  1.00  0.00     0.049 A 
ATOM     42  H   UNL     1      -2.746  -7.352   8.702  1.00  0.00     0.167 HD
ATOM     43  C   UNL     1       0.492  -7.844  11.610  1.00  0.00     0.037 A 
ATOM     44  C   UNL     1      -4.861  -8.246   7.104  1.00  0.00     0.037 A 
ATOM     45  C   UNL     1      -0.184  -9.116  11.574  1.00  0.00     0.049 A 
ATOM     46  C   UNL     1      -4.431  -9.427   7.932  1.00  0.00     0.074 A 
ATOM     47  C   UNL     1       0.077 -10.250  12.323  1.00  0.00     0.029 A 
ATOM     48  N   UNL     1      -1.250  -9.425  10.741  1.00  0.00    -0.354 N 
ATOM     49  N   UNL     1      -3.474  -9.504   8.826  1.00  0.00    -0.248 NA
ATOM     50  C   UNL     1      -5.175 -10.679   7.737  1.00  0.00     0.031 C 
ATOM     51  C   UNL     1      -0.796 -11.261  11.906  1.00  0.00     0.029 A 
ATOM     52  C   UNL     1      -1.643 -10.739  10.941  1.00  0.00     0.049 A 
ATOM     53  H   UNL     1      -1.667  -8.802  10.103  1.00  0.00     0.167 HD
ATOM     54  C   UNL     1      -3.520 -10.804   9.321  1.00  0.00     0.074 A 
ATOM     55  C   UNL     1      -4.610 -11.470   8.638  1.00  0.00     0.031 C 
ATOM     56  C   UNL     1      -2.731 -11.392  10.256  1.00  0.00     0.037 A 
BRANCH  43  57
ATOM     57  C   UNL     1       1.679  -7.692  12.525  1.00  0.00     0.058 A 
ATOM     58  C   UNL     1       1.634  -6.873  13.666  1.00  0.00     0.135 A 
ATOM     59  C   UNL     1       2.867  -8.401  12.279  1.00  0.00     0.135 A 
ATOM     60  F   UNL     1       0.531  -6.160  13.944  1.00  0.00    -0.206 F 
ATOM     61  C   UNL     1       2.731  -6.739  14.511  1.00  0.00     0.059 A 
ATOM     62  C   UNL     1       3.966  -8.306  13.129  1.00  0.00     0.059 A 
ATOM     63  F   UNL     1       2.968  -9.199  11.205  1.00  0.00    -0.206 F 
ATOM     64  C   UNL     1       3.893  -7.460  14.234  1.00  0.00     0.060 A 
BRANCH  64  65
ATOM     65  S   UNL     1       5.304  -7.278  15.345  1.00  0.00     0.124 S 
ATOM     66  O   UNL     1       5.752  -5.926  15.027  1.00  0.00    -0.237 OA
ATOM     67  O   UNL     1       4.690  -7.449  16.658  1.00  0.00    -0.237 OA
ATOM     68  O   UNL     1       6.204  -8.350  14.932  1.00  0.00    -0.744 OA
ENDBRANCH  64  65
ENDBRANCH  43  57
BRANCH  44  69
ATOM     69  C   UNL     1      -5.984  -8.362   6.133  1.00  0.00     0.058 A 
ATOM     70  C   UNL     1      -7.303  -8.553   6.571  1.00  0.00     0.135 A 
ATOM     71  C   UNL     1      -5.761  -8.276   4.750  1.00  0.00     0.135 A 
ATOM     72  F   UNL     1      -7.567  -8.647   7.883  1.00  0.00    -0.206 F 
ATOM     73  C   UNL     1      -8.359  -8.675   5.673  1.00  0.00     0.059 A 
ATOM     74  C   UNL     1      -6.804  -8.366   3.834  1.00  0.00     0.059 A 
ATOM     75  F   UNL     1      -4.521  -8.076   4.279  1.00  0.00    -0.206 F 
ATOM     76  C   UNL     1      -8.099  -8.576   4.305  1.00  0.00     0.060 A 
BRANCH  76  77
ATOM     77  S   UNL     1      -9.484  -8.686   3.151  1.00  0.00     0.124 S 
ATOM     78  O   UNL     1      -9.824 -10.101   3.233  1.00  0.00    -0.237 OA
ATOM     79  O   UNL     1     -10.447  -7.761   3.741  1.00  0.00    -0.237 OA
ATOM     80  O   UNL     1      -8.901  -8.248   1.886  1.00  0.00    -0.744 OA
ENDBRANCH  76  77
ENDBRANCH  44  69
BRANCH  56  81
ATOM     81  C   UNL     1      -3.043 -12.818  10.624  1.00  0.00     0.058 A 
ATOM     82  C   UNL     1      -2.810 -13.882   9.738  1.00  0.00     0.135 A 
ATOM     83  C   UNL     1      -3.554 -13.127  11.896  1.00  0.00     0.135 A 
ATOM     84  F   UNL     1      -2.327 -13.644   8.508  1.00  0.00    -0.206 F 
ATOM     85  C   UNL     1      -3.110 -15.195  10.084  1.00  0.00     0.059 A 
ATOM     86  C   UNL     1      -3.829 -14.436  12.276  1.00  0.00     0.059 A 
ATOM     87  F   UNL     1      -3.783 -12.150  12.789  1.00  0.00    -0.206 F 
ATOM     88  C   UNL     1      -3.620 -15.463  11.356  1.00  0.00     0.060 A 
BRANCH  88  89
ATOM     89  S   UNL     1      -3.996 -17.172  11.796  1.00  0.00     0.124 S 
ATOM     90  O   UNL     1      -5.201 -17.420  11.011  1.00  0.00    -0.237 OA
ATOM     91  O   UNL     1      -2.796 -17.878  11.356  1.00  0.00    -0.237 OA
ATOM     92  O   UNL     1      -4.188 -17.117  13.242  1.00  0.00    -0.744 OA
ENDBRANCH  88  89
ENDBRANCH  56  81
ENDBRANCH  30  31
ENDBRANCH  22  25
ENDBRANCH  20  21
ENDBRANCH   1  20
TORSDOF 16
