REMARK SMILES O=C(COc1ccc2c(c1)O/C(=C\c1cccs1)C2=O)NCCCNC(=O)c1ccc(-c2c3nc(c(-c4c(F)cc(S(=O)(=O)[O-])cc4F)c4ccc([nH]4)c(-c4c(F)cc(S(=O)(=O)[O-])cc4F)c4nc(c(-c5c(F)cc(S(=O)(=O)[O-])cc5F)c5ccc2[nH]5)C=C4)C=C3)cc1
REMARK SMILES IDX 23 1 22 2 21 3 1 4 2 5 3 7 4 8 5 9 6 10 10 11 7 12 9 13 8 14
REMARK SMILES IDX 11 15 19 16 12 17 20 18 13 19 14 20 15 21 18 22 16 23 17 24
REMARK SMILES IDX 24 25 25 26 26 27 27 29 28 30 29 31 93 32 30 33 92 34 31 35
REMARK SMILES IDX 32 36 33 37 86 38 34 39 91 40 85 41 87 42 35 43 90 44 84 45
REMARK SMILES IDX 83 46 36 48 70 49 49 50 69 51 50 52 53 53 68 54 88 55 51 56
REMARK SMILES IDX 52 57 67 59 89 60 54 61 37 62 38 63 47 64 39 65 40 66 46 67
REMARK SMILES IDX 48 68 41 69 42 70 43 71 44 72 45 73 71 74 72 75 81 76 73 77
REMARK SMILES IDX 74 78 80 79 82 80 75 81 76 82 77 83 78 84 79 85 55 86 56 87
REMARK SMILES IDX 65 88 57 89 58 90 64 91 66 92 59 93 60 94 61 95 62 96 63 97
REMARK H PARENT 21 6 25 28 87 47 53 58
REMARK Flexibility Score: inf
ROOT
ATOM      1  C   UNL     1       2.389   3.446  -0.511  1.00  0.00     0.042 C 
ENDROOT
BRANCH   1   2
ATOM      2  C   UNL     1       2.062   2.132  -1.197  1.00  0.00     0.117 C 
BRANCH   2   3
ATOM      3  N   UNL     1       2.723   0.992  -0.597  1.00  0.00    -0.353 N 
ATOM      4  O   UNL     1       0.905   0.237   0.596  1.00  0.00    -0.271 OA
ATOM      5  C   UNL     1       2.043   0.068   0.171  1.00  0.00     0.257 C 
ATOM      6  H   UNL     1       3.689   0.872  -0.742  1.00  0.00     0.163 HD
BRANCH   5   7
ATOM      7  C   UNL     1       2.822  -1.227   0.410  1.00  0.00     0.329 C 
BRANCH   7   8
ATOM      8  O   UNL     1       3.712  -1.617  -0.636  1.00  0.00    -0.484 OA
BRANCH   8   9
ATOM      9  C   UNL     1       3.119  -2.228  -1.713  1.00  0.00     0.123 A 
ATOM     10  C   UNL     1       2.098  -1.622  -2.476  1.00  0.00     0.047 A 
ATOM     11  C   UNL     1       3.687  -3.440  -2.122  1.00  0.00     0.094 A 
ATOM     12  C   UNL     1       1.636  -2.200  -3.661  1.00  0.00     0.020 A 
ATOM     13  C   UNL     1       3.208  -4.009  -3.285  1.00  0.00     0.142 A 
ATOM     14  C   UNL     1       2.219  -3.386  -4.041  1.00  0.00     0.069 A 
ATOM     15  O   UNL     1       3.647  -5.186  -3.844  1.00  0.00    -0.452 OA
ATOM     16  C   UNL     1       2.005  -4.191  -5.234  1.00  0.00     0.232 C 
ATOM     17  C   UNL     1       2.949  -5.318  -5.042  1.00  0.00     0.176 C 
ATOM     18  O   UNL     1       1.239  -3.980  -6.149  1.00  0.00    -0.285 OA
ATOM     19  C   UNL     1       3.105  -6.297  -5.942  1.00  0.00     0.070 C 
BRANCH  19  20
ATOM     20  C   UNL     1       3.987  -7.381  -5.699  1.00  0.00     0.031 A 
ATOM     21  C   UNL     1       4.037  -8.240  -4.614  1.00  0.00     0.020 A 
ATOM     22  S   UNL     1       5.193  -7.787  -6.853  1.00  0.00    -0.144 S 
ATOM     23  C   UNL     1       5.086  -9.197  -4.712  1.00  0.00     0.012 A 
ATOM     24  C   UNL     1       5.808  -9.046  -5.873  1.00  0.00     0.065 A 
ENDBRANCH  19  20
ENDBRANCH   8   9
ENDBRANCH   7   8
ENDBRANCH   5   7
ENDBRANCH   2   3
ENDBRANCH   1   2
BRANCH   1  25
ATOM     25  C   UNL     1       3.867   3.814  -0.543  1.00  0.00     0.118 C 
BRANCH  25  26
ATOM     26  N   UNL     1       4.380   4.010  -1.892  1.00  0.00    -0.352 N 
ATOM     27  C   UNL     1       5.037   5.079  -2.449  1.00  0.00     0.251 C 
ATOM     28  H   UNL     1       4.233   3.252  -2.503  1.00  0.00     0.163 HD
ATOM     29  O   UNL     1       5.248   5.079  -3.660  1.00  0.00    -0.269 OA
BRANCH  27  30
ATOM     30  C   UNL     1       5.474   6.229  -1.623  1.00  0.00     0.039 A 
ATOM     31  C   UNL     1       5.400   7.512  -2.173  1.00  0.00     0.014 A 
ATOM     32  C   UNL     1       5.996   6.059  -0.338  1.00  0.00     0.014 A 
ATOM     33  C   UNL     1       5.812   8.618  -1.424  1.00  0.00     0.010 A 
ATOM     34  C   UNL     1       6.315   7.169   0.442  1.00  0.00     0.010 A 
ATOM     35  C   UNL     1       6.253   8.460  -0.100  1.00  0.00    -0.014 A 
BRANCH  35  36
ATOM     36  C   UNL     1       6.690   9.634   0.704  1.00  0.00     0.031 A 
ATOM     37  C   UNL     1       8.114   9.733   1.190  1.00  0.00     0.074 A 
ATOM     38  C   UNL     1       5.804  10.602   1.013  1.00  0.00     0.049 A 
ATOM     39  N   UNL     1       8.683  10.680   1.893  1.00  0.00    -0.248 NA
ATOM     40  C   UNL     1       9.011   8.612   0.868  1.00  0.00     0.031 C 
ATOM     41  C   UNL     1       4.386  10.599   0.648  1.00  0.00     0.029 A 
ATOM     42  N   UNL     1       5.965  11.779   1.702  1.00  0.00    -0.354 N 
ATOM     43  C   UNL     1       9.994  10.265   2.100  1.00  0.00     0.074 A 
ATOM     44  C   UNL     1      10.118   8.952   1.510  1.00  0.00     0.031 C 
ATOM     45  C   UNL     1       3.816  11.734   1.084  1.00  0.00     0.029 A 
ATOM     46  C   UNL     1       4.815  12.530   1.790  1.00  0.00     0.049 A 
ATOM     47  H   UNL     1       6.822  12.059   2.096  1.00  0.00     0.167 HD
ATOM     48  C   UNL     1      11.012  10.929   2.701  1.00  0.00     0.037 A 
ATOM     49  C   UNL     1       4.592  13.725   2.371  1.00  0.00     0.037 A 
ATOM     50  C   UNL     1      10.888  12.246   3.271  1.00  0.00     0.049 A 
ATOM     51  C   UNL     1       5.739  14.445   3.029  1.00  0.00     0.074 A 
ATOM     52  C   UNL     1      11.869  13.024   3.861  1.00  0.00     0.029 A 
ATOM     53  N   UNL     1       9.711  12.979   3.326  1.00  0.00    -0.354 N 
ATOM     54  N   UNL     1       6.988  14.065   3.159  1.00  0.00    -0.248 NA
ATOM     55  C   UNL     1       5.450  15.766   3.603  1.00  0.00     0.031 C 
ATOM     56  C   UNL     1      11.275  14.204   4.320  1.00  0.00     0.029 A 
ATOM     57  C   UNL     1       9.938  14.193   3.955  1.00  0.00     0.049 A 
ATOM     58  H   UNL     1       8.843  12.681   2.970  1.00  0.00     0.167 HD
ATOM     59  C   UNL     1       7.642  15.117   3.793  1.00  0.00     0.074 A 
ATOM     60  C   UNL     1       6.652  16.151   4.010  1.00  0.00     0.031 C 
ATOM     61  C   UNL     1       8.946  15.220   4.156  1.00  0.00     0.037 A 
BRANCH  48  62
ATOM     62  C   UNL     1      12.351  10.242   2.769  1.00  0.00     0.058 A 
ATOM     63  C   UNL     1      13.121  10.003   1.619  1.00  0.00     0.135 A 
ATOM     64  C   UNL     1      12.888   9.846   4.005  1.00  0.00     0.135 A 
ATOM     65  F   UNL     1      12.653  10.345   0.407  1.00  0.00    -0.206 F 
ATOM     66  C   UNL     1      14.357   9.369   1.687  1.00  0.00     0.059 A 
ATOM     67  C   UNL     1      14.138   9.240   4.100  1.00  0.00     0.059 A 
ATOM     68  F   UNL     1      12.198  10.047   5.139  1.00  0.00    -0.206 F 
ATOM     69  C   UNL     1      14.858   8.991   2.933  1.00  0.00     0.060 A 
BRANCH  69  70
ATOM     70  S   UNL     1      16.466   8.173   3.003  1.00  0.00     0.124 S 
ATOM     71  O   UNL     1      16.152   6.866   2.434  1.00  0.00    -0.237 OA
ATOM     72  O   UNL     1      17.294   9.043   2.174  1.00  0.00    -0.237 OA
ATOM     73  O   UNL     1      16.788   8.176   4.427  1.00  0.00    -0.744 OA
ENDBRANCH  69  70
ENDBRANCH  48  62
BRANCH  49  74
ATOM     74  C   UNL     1       3.233  14.333   2.327  1.00  0.00     0.058 A 
ATOM     75  C   UNL     1       2.978  15.485   1.568  1.00  0.00     0.135 A 
ATOM     76  C   UNL     1       2.163  13.772   3.040  1.00  0.00     0.135 A 
ATOM     77  F   UNL     1       3.969  16.063   0.872  1.00  0.00    -0.206 F 
ATOM     78  C   UNL     1       1.718  16.075   1.536  1.00  0.00     0.059 A 
ATOM     79  C   UNL     1       0.886  14.325   3.000  1.00  0.00     0.059 A 
ATOM     80  F   UNL     1       2.348  12.659   3.768  1.00  0.00    -0.206 F 
ATOM     81  C   UNL     1       0.677  15.484   2.255  1.00  0.00     0.060 A 
BRANCH  81  82
ATOM     82  S   UNL     1      -0.964  16.234   2.175  1.00  0.00     0.124 S 
ATOM     83  O   UNL     1      -0.771  17.448   2.959  1.00  0.00    -0.237 OA
ATOM     84  O   UNL     1      -1.144  16.422   0.739  1.00  0.00    -0.237 OA
ATOM     85  O   UNL     1      -1.825  15.222   2.780  1.00  0.00    -0.744 OA
ENDBRANCH  81  82
ENDBRANCH  49  74
BRANCH  61  86
ATOM     86  C   UNL     1       9.393  16.520   4.770  1.00  0.00     0.058 A 
ATOM     87  C   UNL     1       8.982  16.925   6.050  1.00  0.00     0.135 A 
ATOM     88  C   UNL     1      10.270  17.365   4.069  1.00  0.00     0.135 A 
ATOM     89  F   UNL     1       8.144  16.158   6.765  1.00  0.00    -0.206 F 
ATOM     90  C   UNL     1       9.386  18.142   6.592  1.00  0.00     0.059 A 
ATOM     91  C   UNL     1      10.715  18.568   4.606  1.00  0.00     0.059 A 
ATOM     92  F   UNL     1      10.710  17.021   2.848  1.00  0.00    -0.206 F 
ATOM     93  C   UNL     1      10.250  18.958   5.861  1.00  0.00     0.060 A 
BRANCH  93  94
ATOM     94  S   UNL     1      10.765  20.534   6.574  1.00  0.00     0.124 S 
ATOM     95  O   UNL     1       9.546  21.326   6.446  1.00  0.00    -0.237 OA
ATOM     96  O   UNL     1      11.136  20.155   7.934  1.00  0.00    -0.237 OA
ATOM     97  O   UNL     1      11.875  20.948   5.720  1.00  0.00    -0.744 OA
ENDBRANCH  93  94
ENDBRANCH  61  86
ENDBRANCH  35  36
ENDBRANCH  27  30
ENDBRANCH  25  26
ENDBRANCH   1  25
TORSDOF 16
