REMARK SMILES O=C(NCCCNC(=O)[C@@H]1CCc2[nH]ncc2C1)c1ccc(-c2c3nc(c(-c4c(F)cc(S(=O)(=O)[O-])cc4F)c4ccc([nH]4)c(-c4c(F)cc(S(=O)(=O)[O-])cc4F)c4nc(c(-c5c(F)cc(S(=O)(=O)[O-])cc5F)c5ccc2[nH]5)C=C4)C=C3)cc1
REMARK SMILES IDX 1 1 2 2 3 3 19 5 20 6 84 7 21 8 83 9 22 10 23 11 24 12 77 13
REMARK SMILES IDX 25 14 82 15 76 16 78 17 26 18 81 19 75 20 74 21 27 23 61 24
REMARK SMILES IDX 40 25 60 26 41 27 44 28 59 29 79 30 42 31 43 32 58 34 80 35
REMARK SMILES IDX 45 36 28 37 29 38 38 39 30 40 31 41 37 42 39 43 32 44 33 45
REMARK SMILES IDX 34 46 35 47 36 48 62 49 63 50 72 51 64 52 65 53 71 54 73 55
REMARK SMILES IDX 66 56 67 57 68 58 69 59 70 60 46 61 47 62 56 63 48 64 49 65
REMARK SMILES IDX 55 66 57 67 50 68 51 69 52 70 53 71 54 72 4 73 5 74 6 75
REMARK SMILES IDX 7 76 8 77 9 79 10 80 11 81 18 82 12 83 17 84 13 85 16 86
REMARK SMILES IDX 14 87 15 88
REMARK H PARENT 3 4 78 22 44 33 7 78 14 89
REMARK Flexibility Score: inf
ROOT
ATOM      1  O   UNL     1       1.083   0.251  -0.104  1.00  0.00    -0.269 OA
ATOM      2  C   UNL     1       2.310   0.230  -0.035  1.00  0.00     0.251 C 
ATOM      3  N   UNL     1       3.007  -0.728  -0.732  1.00  0.00    -0.352 N 
ATOM      4  H   UNL     1       2.471  -1.246  -1.375  1.00  0.00     0.163 HD
ENDROOT
BRANCH   2   5
ATOM      5  C   UNL     1       3.024   1.210   0.815  1.00  0.00     0.039 A 
ATOM      6  C   UNL     1       4.213   1.801   0.385  1.00  0.00     0.014 A 
ATOM      7  C   UNL     1       2.486   1.555   2.059  1.00  0.00     0.014 A 
ATOM      8  C   UNL     1       4.950   2.589   1.262  1.00  0.00     0.010 A 
ATOM      9  C   UNL     1       3.182   2.429   2.901  1.00  0.00     0.010 A 
ATOM     10  C   UNL     1       4.443   2.918   2.529  1.00  0.00    -0.014 A 
BRANCH  10  11
ATOM     11  C   UNL     1       5.246   3.790   3.426  1.00  0.00     0.031 A 
ATOM     12  C   UNL     1       5.772   3.280   4.742  1.00  0.00     0.074 A 
ATOM     13  C   UNL     1       5.545   5.041   3.020  1.00  0.00     0.049 A 
ATOM     14  N   UNL     1       6.536   3.888   5.614  1.00  0.00    -0.248 NA
ATOM     15  C   UNL     1       5.386   1.916   5.136  1.00  0.00     0.031 C 
ATOM     16  C   UNL     1       5.078   5.656   1.774  1.00  0.00     0.029 A 
ATOM     17  N   UNL     1       6.331   6.008   3.591  1.00  0.00    -0.354 N 
ATOM     18  C   UNL     1       6.697   2.998   6.670  1.00  0.00     0.074 A 
ATOM     19  C   UNL     1       5.935   1.813   6.339  1.00  0.00     0.031 C 
ATOM     20  C   UNL     1       5.635   6.869   1.646  1.00  0.00     0.029 A 
ATOM     21  C   UNL     1       6.454   7.141   2.822  1.00  0.00     0.049 A 
ATOM     22  H   UNL     1       6.767   5.901   4.468  1.00  0.00     0.167 HD
ATOM     23  C   UNL     1       7.420   3.151   7.806  1.00  0.00     0.037 A 
ATOM     24  C   UNL     1       7.147   8.274   3.036  1.00  0.00     0.037 A 
ATOM     25  C   UNL     1       8.204   4.320   8.116  1.00  0.00     0.049 A 
ATOM     26  C   UNL     1       7.959   8.409   4.291  1.00  0.00     0.074 A 
ATOM     27  C   UNL     1       9.002   4.553   9.224  1.00  0.00     0.029 A 
ATOM     28  N   UNL     1       8.293   5.450   7.316  1.00  0.00    -0.354 N 
ATOM     29  N   UNL     1       8.120   7.544   5.263  1.00  0.00    -0.248 NA
ATOM     30  C   UNL     1       8.683   9.672   4.479  1.00  0.00     0.031 C 
ATOM     31  C   UNL     1       9.548   5.837   9.108  1.00  0.00     0.029 A 
ATOM     32  C   UNL     1       9.123   6.388   7.910  1.00  0.00     0.049 A 
ATOM     33  H   UNL     1       7.835   5.568   6.453  1.00  0.00     0.167 HD
ATOM     34  C   UNL     1       8.981   8.150   6.170  1.00  0.00     0.074 A 
ATOM     35  C   UNL     1       9.316   9.450   5.623  1.00  0.00     0.031 C 
ATOM     36  C   UNL     1       9.451   7.673   7.349  1.00  0.00     0.037 A 
BRANCH  23  37
ATOM     37  C   UNL     1       7.385   2.033   8.811  1.00  0.00     0.058 A 
ATOM     38  C   UNL     1       8.059   0.821   8.595  1.00  0.00     0.135 A 
ATOM     39  C   UNL     1       6.691   2.188  10.023  1.00  0.00     0.135 A 
ATOM     40  F   UNL     1       8.726   0.613   7.448  1.00  0.00    -0.206 F 
ATOM     41  C   UNL     1       8.024  -0.208   9.531  1.00  0.00     0.059 A 
ATOM     42  C   UNL     1       6.660   1.180  10.983  1.00  0.00     0.059 A 
ATOM     43  F   UNL     1       6.029   3.327  10.281  1.00  0.00    -0.206 F 
ATOM     44  C   UNL     1       7.316  -0.021  10.720  1.00  0.00     0.060 A 
BRANCH  44  45
ATOM     45  S   UNL     1       7.267  -1.369  11.921  1.00  0.00     0.124 S 
ATOM     46  O   UNL     1       6.312  -2.279  11.294  1.00  0.00    -0.237 OA
ATOM     47  O   UNL     1       8.654  -1.824  11.940  1.00  0.00    -0.237 OA
ATOM     48  O   UNL     1       6.807  -0.719  13.143  1.00  0.00    -0.744 OA
ENDBRANCH  44  45
ENDBRANCH  23  37
BRANCH  24  49
ATOM     49  C   UNL     1       7.117   9.359   2.021  1.00  0.00     0.058 A 
ATOM     50  C   UNL     1       8.239   9.635   1.228  1.00  0.00     0.135 A 
ATOM     51  C   UNL     1       5.956  10.116   1.803  1.00  0.00     0.135 A 
ATOM     52  F   UNL     1       9.372   8.938   1.402  1.00  0.00    -0.206 F 
ATOM     53  C   UNL     1       8.217  10.633   0.259  1.00  0.00     0.059 A 
ATOM     54  C   UNL     1       5.901  11.102   0.824  1.00  0.00     0.059 A 
ATOM     55  F   UNL     1       4.850   9.875   2.525  1.00  0.00    -0.206 F 
ATOM     56  C   UNL     1       7.041  11.359   0.063  1.00  0.00     0.060 A 
BRANCH  56  57
ATOM     57  S   UNL     1       6.999  12.612  -1.237  1.00  0.00     0.124 S 
ATOM     58  O   UNL     1       7.725  13.709  -0.608  1.00  0.00    -0.237 OA
ATOM     59  O   UNL     1       7.683  11.940  -2.337  1.00  0.00    -0.237 OA
ATOM     60  O   UNL     1       5.570  12.833  -1.440  1.00  0.00    -0.744 OA
ENDBRANCH  56  57
ENDBRANCH  24  49
BRANCH  36  61
ATOM     61  C   UNL     1      10.408   8.550   8.106  1.00  0.00     0.058 A 
ATOM     62  C   UNL     1       9.972   9.690   8.798  1.00  0.00     0.135 A 
ATOM     63  C   UNL     1      11.774   8.231   8.154  1.00  0.00     0.135 A 
ATOM     64  F   UNL     1       8.677  10.041   8.776  1.00  0.00    -0.206 F 
ATOM     65  C   UNL     1      10.865  10.503   9.489  1.00  0.00     0.059 A 
ATOM     66  C   UNL     1      12.680   9.017   8.858  1.00  0.00     0.059 A 
ATOM     67  F   UNL     1      12.238   7.145   7.516  1.00  0.00    -0.206 F 
ATOM     68  C   UNL     1      12.218  10.160   9.509  1.00  0.00     0.060 A 
BRANCH  68  69
ATOM     69  S   UNL     1      13.369  11.212  10.419  1.00  0.00     0.124 S 
ATOM     70  O   UNL     1      13.550  12.321   9.488  1.00  0.00    -0.237 OA
ATOM     71  O   UNL     1      12.623  11.520  11.635  1.00  0.00    -0.237 OA
ATOM     72  O   UNL     1      14.534  10.352  10.608  1.00  0.00    -0.744 OA
ENDBRANCH  68  69
ENDBRANCH  36  61
ENDBRANCH  10  11
ENDBRANCH   2   5
BRANCH   3  73
ATOM     73  C   UNL     1       4.416  -1.095  -0.669  1.00  0.00     0.118 C 
BRANCH  73  74
ATOM     74  C   UNL     1       4.627  -2.521  -0.181  1.00  0.00     0.042 C 
BRANCH  74  75
ATOM     75  C   UNL     1       4.161  -3.580  -1.170  1.00  0.00     0.117 C 
BRANCH  75  76
ATOM     76  N   UNL     1       4.980  -3.611  -2.374  1.00  0.00    -0.356 N 
ATOM     77  C   UNL     1       5.843  -4.577  -2.812  1.00  0.00     0.223 C 
ATOM     78  H   UNL     1       4.902  -2.821  -2.956  1.00  0.00     0.163 HD
ATOM     79  O   UNL     1       6.410  -4.419  -3.892  1.00  0.00    -0.275 OA
BRANCH  77  80
ATOM     80  C   UNL     1       6.056  -5.802  -1.948  1.00  0.00     0.083 C 
ATOM     81  C   UNL     1       7.007  -5.504  -0.762  1.00  0.00     0.020 C 
ATOM     82  C   UNL     1       6.596  -6.999  -2.768  1.00  0.00     0.052 C 
ATOM     83  C   UNL     1       7.032  -6.669   0.251  1.00  0.00     0.057 C 
ATOM     84  C   UNL     1       6.808  -8.139  -1.834  1.00  0.00    -0.006 A 
ATOM     85  C   UNL     1       7.012  -7.960  -0.483  1.00  0.00     0.038 A 
ATOM     86  C   UNL     1       6.809  -9.530  -2.009  1.00  0.00     0.138 A 
ATOM     87  N   UNL     1       7.108  -9.203   0.062  1.00  0.00    -0.282 N 
ATOM     88  N   UNL     1       6.988 -10.184  -0.855  1.00  0.00    -0.184 NA
ATOM     89  H   UNL     1       7.249  -9.368   1.023  1.00  0.00     0.190 HD
ENDBRANCH  77  80
ENDBRANCH  75  76
ENDBRANCH  74  75
ENDBRANCH  73  74
ENDBRANCH   3  73
TORSDOF 13
