REMARK SMILES Cc1ccc(F)c(NC(=O)NC(=O)CCCCC(=O)NCCCNC(=O)c2ccc(-c3c4nc(c(-c5c(F)cc(S(=O)(=O)[O-])cc5F)c5ccc([nH]5)c(-c5c(F)cc(S(=O)(=O)[O-])cc5F)c5nc(c(-c6c(F)cc(S(=O)(=O)[O-])cc6F)c6ccc3[nH]6)C=C5)C=C4)cc2)c1
REMARK SMILES IDX 21 1 20 2 18 3 19 4 17 6 16 7 15 8 14 9 12 10 8 11 9 12
REMARK SMILES IDX 10 14 11 15 13 17 7 18 1 19 2 20 3 21 93 22 4 23 5 24 6 25
REMARK SMILES IDX 22 26 23 27 24 28 25 29 26 31 27 32 28 33 92 34 29 35 91 36
REMARK SMILES IDX 30 37 31 38 32 39 85 40 33 41 90 42 84 43 86 44 34 45 89 46
REMARK SMILES IDX 83 47 82 48 35 50 69 51 48 52 68 53 49 54 52 55 67 56 87 57
REMARK SMILES IDX 50 58 51 59 66 61 88 62 53 63 36 64 37 65 46 66 38 67 39 68
REMARK SMILES IDX 45 69 47 70 40 71 41 72 42 73 43 74 44 75 70 76 71 77 80 78
REMARK SMILES IDX 72 79 73 80 79 81 81 82 74 83 75 84 76 85 77 86 78 87 54 88
REMARK SMILES IDX 55 89 64 90 56 91 57 92 63 93 65 94 58 95 59 96 60 97 61 98
REMARK SMILES IDX 62 99
REMARK H PARENT 20 5 8 13 11 16 24 30 86 49 52 60
REMARK Flexibility Score: inf
ROOT
ATOM      1  C   UNL     1       1.373  -0.751   1.195  1.00  0.00     0.117 C 
ENDROOT
BRANCH   1   2
ATOM      2  N   UNL     1       1.527  -1.960   1.970  1.00  0.00    -0.356 N 
ATOM      3  C   UNL     1       0.688  -3.027   2.068  1.00  0.00     0.219 C 
ATOM      4  O   UNL     1       1.077  -4.028   2.670  1.00  0.00    -0.275 OA
ATOM      5  H   UNL     1       2.353  -2.020   2.501  1.00  0.00     0.163 HD
BRANCH   3   6
ATOM      6  C   UNL     1      -0.683  -2.988   1.421  1.00  0.00     0.100 C 
BRANCH   6   7
ATOM      7  C   UNL     1      -1.799  -2.456   2.319  1.00  0.00     0.010 C 
BRANCH   7   8
ATOM      8  C   UNL     1      -2.002  -0.937   2.373  1.00  0.00     0.010 C 
BRANCH   8   9
ATOM      9  C   UNL     1      -2.264  -0.233   1.043  1.00  0.00     0.100 C 
BRANCH   9  10
ATOM     10  C   UNL     1      -3.586  -0.566   0.395  1.00  0.00     0.227 C 
ATOM     11  N   UNL     1      -1.633  -2.007  -1.799  1.00  0.00    -0.305 N 
ATOM     12  C   UNL     1      -2.911  -2.111  -1.370  1.00  0.00     0.325 C 
ATOM     13  H   UNL     1      -1.218  -2.886  -1.959  1.00  0.00     0.171 HD
ATOM     14  O   UNL     1      -3.449  -3.219  -1.438  1.00  0.00    -0.248 OA
ATOM     15  N   UNL     1      -3.615  -1.059  -0.890  1.00  0.00    -0.278 N 
ATOM     16  H   UNL     1      -4.211  -0.600  -1.526  1.00  0.00     0.174 HD
ATOM     17  O   UNL     1      -4.651  -0.390   0.989  1.00  0.00    -0.275 OA
BRANCH  11  18
ATOM     18  C   UNL     1      -0.753  -0.941  -2.071  1.00  0.00     0.079 A 
ATOM     19  C   UNL     1       3.056  -0.684  -2.394  1.00  0.00     0.044 C 
ATOM     20  C   UNL     1       1.600  -0.308  -2.369  1.00  0.00    -0.049 A 
ATOM     21  C   UNL     1       1.222   1.036  -2.428  1.00  0.00     0.006 A 
ATOM     22  C   UNL     1       0.606  -1.287  -2.204  1.00  0.00     0.032 A 
ATOM     23  C   UNL     1      -0.125   1.388  -2.345  1.00  0.00     0.042 A 
ATOM     24  C   UNL     1      -1.102   0.406  -2.179  1.00  0.00     0.146 A 
ATOM     25  F   UNL     1      -2.379   0.805  -2.129  1.00  0.00    -0.205 F 
ENDBRANCH  11  18
ENDBRANCH   9  10
ENDBRANCH   8   9
ENDBRANCH   7   8
ENDBRANCH   6   7
ENDBRANCH   3   6
ENDBRANCH   1   2
BRANCH   1  26
ATOM     26  C   UNL     1       1.320   0.506   2.049  1.00  0.00     0.042 C 
BRANCH  26  27
ATOM     27  C   UNL     1       2.643   1.243   2.033  1.00  0.00     0.118 C 
BRANCH  27  28
ATOM     28  N   UNL     1       2.965   1.808   0.725  1.00  0.00    -0.352 N 
ATOM     29  C   UNL     1       3.752   2.900   0.442  1.00  0.00     0.251 C 
ATOM     30  H   UNL     1       2.568   1.350  -0.051  1.00  0.00     0.163 HD
ATOM     31  O   UNL     1       3.864   3.300  -0.713  1.00  0.00    -0.269 OA
BRANCH  29  32
ATOM     32  C   UNL     1       4.391   3.612   1.568  1.00  0.00     0.039 A 
ATOM     33  C   UNL     1       4.233   4.994   1.677  1.00  0.00     0.014 A 
ATOM     34  C   UNL     1       5.020   2.887   2.581  1.00  0.00     0.014 A 
ATOM     35  C   UNL     1       4.626   5.634   2.853  1.00  0.00     0.010 A 
ATOM     36  C   UNL     1       5.290   3.502   3.793  1.00  0.00     0.010 A 
ATOM     37  C   UNL     1       5.108   4.884   3.939  1.00  0.00    -0.014 A 
BRANCH  37  38
ATOM     38  C   UNL     1       5.452   5.523   5.233  1.00  0.00     0.031 A 
ATOM     39  C   UNL     1       6.857   5.410   5.764  1.00  0.00     0.074 A 
ATOM     40  C   UNL     1       4.489   6.128   5.958  1.00  0.00     0.049 A 
ATOM     41  N   UNL     1       7.347   5.827   6.901  1.00  0.00    -0.248 NA
ATOM     42  C   UNL     1       7.828   4.685   4.926  1.00  0.00     0.031 C 
ATOM     43  C   UNL     1       3.073   6.216   5.587  1.00  0.00     0.029 A 
ATOM     44  N   UNL     1       4.554   6.783   7.160  1.00  0.00    -0.354 N 
ATOM     45  C   UNL     1       8.666   5.388   6.925  1.00  0.00     0.074 A 
ATOM     46  C   UNL     1       8.878   4.608   5.728  1.00  0.00     0.031 C 
ATOM     47  C   UNL     1       2.415   6.924   6.520  1.00  0.00     0.029 A 
ATOM     48  C   UNL     1       3.353   7.318   7.565  1.00  0.00     0.049 A 
ATOM     49  H   UNL     1       5.383   6.864   7.685  1.00  0.00     0.167 HD
ATOM     50  C   UNL     1       9.629   5.648   7.841  1.00  0.00     0.037 A 
ATOM     51  C   UNL     1       3.053   8.057   8.650  1.00  0.00     0.037 A 
ATOM     52  C   UNL     1       9.420   6.478   8.996  1.00  0.00     0.049 A 
ATOM     53  C   UNL     1       4.159   8.410   9.607  1.00  0.00     0.074 A 
ATOM     54  C   UNL     1      10.333   6.863   9.961  1.00  0.00     0.029 A 
ATOM     55  N   UNL     1       8.209   7.070   9.328  1.00  0.00    -0.354 N 
ATOM     56  N   UNL     1       5.418   8.038   9.584  1.00  0.00    -0.248 NA
ATOM     57  C   UNL     1       3.812   9.299  10.723  1.00  0.00     0.031 C 
ATOM     58  C   UNL     1       9.668   7.676  10.887  1.00  0.00     0.029 A 
ATOM     59  C   UNL     1       8.352   7.824  10.478  1.00  0.00     0.049 A 
ATOM     60  H   UNL     1       7.372   6.967   8.820  1.00  0.00     0.167 HD
ATOM     61  C   UNL     1       6.021   8.672  10.664  1.00  0.00     0.074 A 
ATOM     62  C   UNL     1       4.990   9.461  11.310  1.00  0.00     0.031 C 
ATOM     63  C   UNL     1       7.308   8.610  11.087  1.00  0.00     0.037 A 
BRANCH  50  64
ATOM     64  C   UNL     1      10.988   5.047   7.604  1.00  0.00     0.058 A 
ATOM     65  C   UNL     1      11.805   5.472   6.543  1.00  0.00     0.135 A 
ATOM     66  C   UNL     1      11.478   4.028   8.436  1.00  0.00     0.135 A 
ATOM     67  F   UNL     1      11.378   6.428   5.702  1.00  0.00    -0.206 F 
ATOM     68  C   UNL     1      13.036   4.880   6.287  1.00  0.00     0.059 A 
ATOM     69  C   UNL     1      12.722   3.442   8.218  1.00  0.00     0.059 A 
ATOM     70  F   UNL     1      10.740   3.580   9.464  1.00  0.00    -0.206 F 
ATOM     71  C   UNL     1      13.484   3.861   7.128  1.00  0.00     0.060 A 
BRANCH  71  72
ATOM     72  S   UNL     1      15.079   3.091   6.776  1.00  0.00     0.124 S 
ATOM     73  O   UNL     1      14.747   2.246   5.633  1.00  0.00    -0.237 OA
ATOM     74  O   UNL     1      15.926   4.244   6.486  1.00  0.00    -0.237 OA
ATOM     75  O   UNL     1      15.393   2.382   8.012  1.00  0.00    -0.744 OA
ENDBRANCH  71  72
ENDBRANCH  50  64
BRANCH  51  76
ATOM     76  C   UNL     1       1.670   8.569   8.848  1.00  0.00     0.058 A 
ATOM     77  C   UNL     1       1.376   9.930   8.667  1.00  0.00     0.135 A 
ATOM     78  C   UNL     1       0.614   7.716   9.202  1.00  0.00     0.135 A 
ATOM     79  F   UNL     1       2.352  10.786   8.328  1.00  0.00    -0.206 F 
ATOM     80  C   UNL     1       0.092  10.431   8.852  1.00  0.00     0.059 A 
ATOM     81  C   UNL     1      -0.684   8.190   9.370  1.00  0.00     0.059 A 
ATOM     82  F   UNL     1       0.837   6.403   9.364  1.00  0.00    -0.206 F 
ATOM     83  C   UNL     1      -0.933   9.552   9.204  1.00  0.00     0.060 A 
BRANCH  83  84
ATOM     84  S   UNL     1      -2.607  10.205   9.395  1.00  0.00     0.124 S 
ATOM     85  O   UNL     1      -2.509  10.891  10.678  1.00  0.00    -0.237 OA
ATOM     86  O   UNL     1      -2.739  11.062   8.221  1.00  0.00    -0.237 OA
ATOM     87  O   UNL     1      -3.437   9.005   9.381  1.00  0.00    -0.744 OA
ENDBRANCH  83  84
ENDBRANCH  51  76
BRANCH  63  88
ATOM     88  C   UNL     1       7.676   9.452  12.274  1.00  0.00     0.058 A 
ATOM     89  C   UNL     1       7.267   9.115  13.573  1.00  0.00     0.135 A 
ATOM     90  C   UNL     1       8.469  10.598  12.107  1.00  0.00     0.135 A 
ATOM     91  F   UNL     1       6.506   8.029  13.781  1.00  0.00    -0.206 F 
ATOM     92  C   UNL     1       7.601   9.908  14.665  1.00  0.00     0.059 A 
ATOM     93  C   UNL     1       8.837  11.391  13.188  1.00  0.00     0.059 A 
ATOM     94  F   UNL     1       8.896  10.954  10.885  1.00  0.00    -0.206 F 
ATOM     95  C   UNL     1       8.382  11.047  14.461  1.00  0.00     0.060 A 
BRANCH  95  96
ATOM     96  S   UNL     1       8.815  12.069  15.884  1.00  0.00     0.124 S 
ATOM     97  O   UNL     1       7.573  12.804  16.103  1.00  0.00    -0.237 OA
ATOM     98  O   UNL     1       9.150  11.073  16.897  1.00  0.00    -0.237 OA
ATOM     99  O   UNL     1       9.939  12.864  15.399  1.00  0.00    -0.744 OA
ENDBRANCH  95  96
ENDBRANCH  63  88
ENDBRANCH  37  38
ENDBRANCH  29  32
ENDBRANCH  27  28
ENDBRANCH  26  27
ENDBRANCH   1  26
TORSDOF 18
