REMARK SMILES C[C@H]1[C@H](C(=O)NCCCNC(=O)c2ccc(-c3c4nc(c(-c5c(F)cc(S(=O)(=O)[O-])cc5F)c5ccc([nH]5)c(-c5c(F)cc(S(=O)(=O)[O-])cc5F)c5nc(c(-c6c(F)cc(S(=O)(=O)[O-])cc6F)c6ccc3[nH]6)C=C5)C=C4)cc2)CCN1c1ccc(C(N)=O)c(Cl)c1
REMARK SMILES IDX 8 1 7 2 6 3 4 4 5 5 3 7 1 8 2 9 81 10 79 11 80 12 82 13
REMARK SMILES IDX 83 14 91 15 84 16 89 17 85 18 90 19 86 20 87 21 88 22 9 25
REMARK SMILES IDX 10 26 11 27 12 29 13 30 14 31 78 32 15 33 77 34 16 35 17 36
REMARK SMILES IDX 18 37 71 38 19 39 76 40 70 41 72 42 20 43 75 44 69 45 68 46
REMARK SMILES IDX 21 48 55 49 34 50 54 51 35 52 38 53 53 54 73 55 36 56 37 57
REMARK SMILES IDX 52 59 74 60 39 61 22 62 23 63 32 64 24 65 25 66 31 67 33 68
REMARK SMILES IDX 26 69 27 70 28 71 29 72 30 73 56 74 57 75 66 76 58 77 59 78
REMARK SMILES IDX 65 79 67 80 60 81 61 82 62 83 63 84 64 85 40 86 41 87 50 88
REMARK SMILES IDX 42 89 43 90 49 91 51 92 44 93 45 94 46 95 47 96 48 97
REMARK H PARENT 6 6 87 23 87 24 10 28 72 47 38 58
REMARK Flexibility Score: inf
ROOT
ATOM      1  C   UNL     1      -0.225   0.071   3.994  1.00  0.00     0.042 C 
ENDROOT
BRANCH   1   2
ATOM      2  C   UNL     1      -1.126   0.655   2.915  1.00  0.00     0.117 C 
BRANCH   2   3
ATOM      3  N   UNL     1      -0.598   1.895   2.366  1.00  0.00    -0.356 N 
ATOM      4  C   UNL     1      -0.102   2.192   1.135  1.00  0.00     0.225 C 
ATOM      5  O   UNL     1       0.299   3.345   0.949  1.00  0.00    -0.275 OA
ATOM      6  H   UNL     1      -0.599   2.651   2.996  1.00  0.00     0.163 HD
BRANCH   4   7
ATOM      7  C   UNL     1      -0.044   1.180   0.004  1.00  0.00     0.102 C 
ATOM      8  C   UNL     1       2.094  -0.059  -0.527  1.00  0.00     0.032 C 
ATOM      9  C   UNL     1       0.835  -0.034   0.342  1.00  0.00     0.091 C 
ATOM     10  N   UNL     1      -0.006  -1.193   0.032  1.00  0.00    -0.368 N 
ATOM     11  C   UNL     1      -1.415   0.645  -0.410  1.00  0.00     0.037 C 
ATOM     12  C   UNL     1      -1.203  -0.833  -0.712  1.00  0.00     0.118 C 
BRANCH  10  13
ATOM     13  C   UNL     1       0.225  -2.478   0.456  1.00  0.00     0.038 A 
ATOM     14  C   UNL     1      -0.055  -3.576  -0.361  1.00  0.00     0.027 A 
ATOM     15  C   UNL     1       0.708  -2.759   1.736  1.00  0.00     0.047 A 
ATOM     16  C   UNL     1       0.113  -4.894   0.090  1.00  0.00     0.017 A 
ATOM     17  C   UNL     1       0.847  -4.071   2.223  1.00  0.00     0.055 A 
ATOM     18  C   UNL     1       0.550  -5.162   1.397  1.00  0.00     0.058 A 
ATOM     19  Cl  UNL     1       1.383  -4.197   3.864  1.00  0.00    -0.083 Cl
BRANCH  18  20
ATOM     20  C   UNL     1       0.630  -6.573   1.881  1.00  0.00     0.250 C 
ATOM     21  N   UNL     1       0.704  -7.579   0.955  1.00  0.00    -0.366 N 
ATOM     22  O   UNL     1       0.603  -6.874   3.068  1.00  0.00    -0.269 OA
ATOM     23  H   UNL     1       0.726  -7.363  -0.005  1.00  0.00     0.159 HD
ATOM     24  H   UNL     1       0.734  -8.518   1.249  1.00  0.00     0.159 HD
ENDBRANCH  18  20
ENDBRANCH  10  13
ENDBRANCH   4   7
ENDBRANCH   2   3
ENDBRANCH   1   2
BRANCH   1  25
ATOM     25  C   UNL     1      -0.157   0.898   5.268  1.00  0.00     0.118 C 
BRANCH  25  26
ATOM     26  N   UNL     1      -1.435   0.961   5.959  1.00  0.00    -0.352 N 
ATOM     27  C   UNL     1      -1.809   0.457   7.180  1.00  0.00     0.251 C 
ATOM     28  H   UNL     1      -2.144   1.442   5.474  1.00  0.00     0.163 HD
ATOM     29  O   UNL     1      -3.002   0.435   7.474  1.00  0.00    -0.269 OA
BRANCH  27  30
ATOM     30  C   UNL     1      -0.800  -0.066   8.129  1.00  0.00     0.039 A 
ATOM     31  C   UNL     1      -1.114  -1.193   8.893  1.00  0.00     0.014 A 
ATOM     32  C   UNL     1       0.438   0.561   8.297  1.00  0.00     0.014 A 
ATOM     33  C   UNL     1      -0.169  -1.719   9.777  1.00  0.00     0.010 A 
ATOM     34  C   UNL     1       1.414  -0.023   9.100  1.00  0.00     0.010 A 
ATOM     35  C   UNL     1       1.118  -1.162   9.861  1.00  0.00    -0.014 A 
BRANCH  35  36
ATOM     36  C   UNL     1       2.158  -1.759  10.741  1.00  0.00     0.031 A 
ATOM     37  C   UNL     1       2.754  -0.959  11.869  1.00  0.00     0.074 A 
ATOM     38  C   UNL     1       2.598  -3.008  10.492  1.00  0.00     0.049 A 
ATOM     39  N   UNL     1       3.690  -1.299  12.719  1.00  0.00    -0.248 NA
ATOM     40  C   UNL     1       2.255   0.414  12.051  1.00  0.00     0.031 C 
ATOM     41  C   UNL     1       2.144  -3.860   9.390  1.00  0.00     0.029 A 
ATOM     42  N   UNL     1       3.528  -3.779  11.143  1.00  0.00    -0.354 N 
ATOM     43  C   UNL     1       3.893  -0.186  13.528  1.00  0.00     0.074 A 
ATOM     44  C   UNL     1       3.033   0.862  13.025  1.00  0.00     0.031 C 
ATOM     45  C   UNL     1       2.773  -5.044   9.460  1.00  0.00     0.029 A 
ATOM     46  C   UNL     1       3.704  -5.023  10.583  1.00  0.00     0.049 A 
ATOM     47  H   UNL     1       4.023  -3.471  11.937  1.00  0.00     0.167 HD
ATOM     48  C   UNL     1       4.700  -0.058  14.609  1.00  0.00     0.037 A 
ATOM     49  C   UNL     1       4.528  -6.031  10.928  1.00  0.00     0.037 A 
ATOM     50  C   UNL     1       5.545  -1.112  15.110  1.00  0.00     0.049 A 
ATOM     51  C   UNL     1       5.417  -5.866  12.131  1.00  0.00     0.074 A 
ATOM     52  C   UNL     1       6.365  -1.101  16.225  1.00  0.00     0.029 A 
ATOM     53  N   UNL     1       5.683  -2.364  14.527  1.00  0.00    -0.354 N 
ATOM     54  N   UNL     1       5.546  -4.830  12.927  1.00  0.00    -0.248 NA
ATOM     55  C   UNL     1       6.265  -7.010  12.492  1.00  0.00     0.031 C 
ATOM     56  C   UNL     1       7.037  -2.327  16.286  1.00  0.00     0.029 A 
ATOM     57  C   UNL     1       6.592  -3.125  15.245  1.00  0.00     0.049 A 
ATOM     58  H   UNL     1       5.205  -2.667  13.721  1.00  0.00     0.167 HD
ATOM     59  C   UNL     1       6.473  -5.204  13.894  1.00  0.00     0.074 A 
ATOM     60  C   UNL     1       6.854  -6.570  13.595  1.00  0.00     0.031 C 
ATOM     61  C   UNL     1       6.965  -4.484  14.933  1.00  0.00     0.037 A 
BRANCH  48  62
ATOM     62  C   UNL     1       4.702   1.268  15.325  1.00  0.00     0.058 A 
ATOM     63  C   UNL     1       3.582   1.721  16.043  1.00  0.00     0.135 A 
ATOM     64  C   UNL     1       5.846   2.083  15.322  1.00  0.00     0.135 A 
ATOM     65  F   UNL     1       2.455   0.991  16.070  1.00  0.00    -0.206 F 
ATOM     66  C   UNL     1       3.583   2.947  16.700  1.00  0.00     0.059 A 
ATOM     67  C   UNL     1       5.880   3.299  16.000  1.00  0.00     0.059 A 
ATOM     68  F   UNL     1       6.946   1.702  14.655  1.00  0.00    -0.206 F 
ATOM     69  C   UNL     1       4.738   3.730  16.673  1.00  0.00     0.060 A 
BRANCH  69  70
ATOM     70  S   UNL     1       4.722   5.317  17.532  1.00  0.00     0.124 S 
ATOM     71  O   UNL     1       3.845   6.106  16.672  1.00  0.00    -0.237 OA
ATOM     72  O   UNL     1       4.173   4.960  18.837  1.00  0.00    -0.237 OA
ATOM     73  O   UNL     1       6.125   5.719  17.534  1.00  0.00    -0.744 OA
ENDBRANCH  69  70
ENDBRANCH  48  62
BRANCH  49  74
ATOM     74  C   UNL     1       4.534  -7.290  10.133  1.00  0.00     0.058 A 
ATOM     75  C   UNL     1       4.035  -8.488  10.666  1.00  0.00     0.135 A 
ATOM     76  C   UNL     1       5.019  -7.315   8.816  1.00  0.00     0.135 A 
ATOM     77  F   UNL     1       3.566  -8.519  11.922  1.00  0.00    -0.206 F 
ATOM     78  C   UNL     1       4.037  -9.670   9.931  1.00  0.00     0.059 A 
ATOM     79  C   UNL     1       5.002  -8.477   8.050  1.00  0.00     0.059 A 
ATOM     80  F   UNL     1       5.495  -6.193   8.253  1.00  0.00    -0.206 F 
ATOM     81  C   UNL     1       4.521  -9.653   8.621  1.00  0.00     0.060 A 
BRANCH  81  82
ATOM     82  S   UNL     1       4.489 -11.188   7.669  1.00  0.00     0.124 S 
ATOM     83  O   UNL     1       5.528 -11.967   8.333  1.00  0.00    -0.237 OA
ATOM     84  O   UNL     1       3.119 -11.649   7.875  1.00  0.00    -0.237 OA
ATOM     85  O   UNL     1       4.801 -10.752   6.312  1.00  0.00    -0.744 OA
ENDBRANCH  81  82
ENDBRANCH  49  74
BRANCH  61  86
ATOM     86  C   UNL     1       7.951  -5.170  15.841  1.00  0.00     0.058 A 
ATOM     87  C   UNL     1       9.253  -5.485  15.419  1.00  0.00     0.135 A 
ATOM     88  C   UNL     1       7.598  -5.489  17.163  1.00  0.00     0.135 A 
ATOM     89  F   UNL     1       9.644  -5.205  14.166  1.00  0.00    -0.206 F 
ATOM     90  C   UNL     1      10.155  -6.126  16.262  1.00  0.00     0.059 A 
ATOM     91  C   UNL     1       8.495  -6.100  18.033  1.00  0.00     0.059 A 
ATOM     92  F   UNL     1       6.371  -5.198  17.625  1.00  0.00    -0.206 F 
ATOM     93  C   UNL     1       9.767  -6.431  17.567  1.00  0.00     0.060 A 
BRANCH  93  94
ATOM     94  S   UNL     1      10.951  -7.253  18.653  1.00  0.00     0.124 S 
ATOM     95  O   UNL     1      10.973  -8.602  18.097  1.00  0.00    -0.237 OA
ATOM     96  O   UNL     1      12.162  -6.464  18.449  1.00  0.00    -0.237 OA
ATOM     97  O   UNL     1      10.345  -7.129  19.975  1.00  0.00    -0.744 OA
ENDBRANCH  93  94
ENDBRANCH  61  86
ENDBRANCH  35  36
ENDBRANCH  27  30
ENDBRANCH  25  26
ENDBRANCH   1  25
TORSDOF 15
