REMARK SMILES CCCCCCC(=O)N1CCCC[C@H]1C(=O)NCCCNC(=O)c1ccc(-c2c3nc(c(-c4c(F)cc(S(=O)(=O)[O-])cc4F)c4ccc([nH]4)c(-c4c(F)cc(S(=O)(=O)[O-])cc4F)c4nc(c(-c5c(F)cc(S(=O)(=O)[O-])cc5F)c5ccc2[nH]5)C=C4)C=C3)cc1
REMARK SMILES IDX 15 1 16 2 17 3 14 5 9 6 10 7 11 8 13 9 12 10 7 11 8 12 6 13
REMARK SMILES IDX 5 14 4 15 3 16 2 17 1 18 18 19 19 20 20 21 21 22 22 23 23 25
REMARK SMILES IDX 24 26 25 27 89 28 26 29 88 30 27 31 28 32 29 33 82 34 30 35
REMARK SMILES IDX 87 36 81 37 83 38 31 39 86 40 80 41 79 42 32 44 66 45 45 46
REMARK SMILES IDX 65 47 46 48 49 49 64 50 84 51 47 52 48 53 63 55 85 56 50 57
REMARK SMILES IDX 33 58 34 59 43 60 35 61 36 62 42 63 44 64 37 65 38 66 39 67
REMARK SMILES IDX 40 68 41 69 67 70 68 71 77 72 69 73 70 74 76 75 78 76 71 77
REMARK SMILES IDX 72 78 73 79 74 80 75 81 51 82 52 83 61 84 53 85 54 86 60 87
REMARK SMILES IDX 62 88 55 89 56 90 57 91 58 92 59 93
REMARK H PARENT 17 4 21 24 83 43 49 54
REMARK Flexibility Score: inf
ROOT
ATOM      1  C   UNL     1       3.139  -1.704  -4.264  1.00  0.00     0.242 C 
ATOM      2  O   UNL     1       4.202  -2.240  -4.596  1.00  0.00    -0.273 OA
ATOM      3  N   UNL     1       3.192  -0.351  -4.126  1.00  0.00    -0.354 N 
ATOM      4  H   UNL     1       4.043   0.051  -4.412  1.00  0.00     0.163 HD
ENDROOT
BRANCH   1   5
ATOM      5  C   UNL     1       1.837  -2.528  -3.999  1.00  0.00     0.174 C 
ATOM      6  N   UNL     1       0.743  -2.369  -4.981  1.00  0.00    -0.331 N 
ATOM      7  C   UNL     1       1.126  -2.752  -6.336  1.00  0.00     0.120 C 
ATOM      8  C   UNL     1       1.518  -4.227  -6.412  1.00  0.00     0.022 C 
ATOM      9  C   UNL     1       2.182  -4.041  -3.951  1.00  0.00     0.035 C 
ATOM     10  C   UNL     1       2.531  -4.615  -5.336  1.00  0.00     0.004 C 
BRANCH   6  11
ATOM     11  C   UNL     1      -0.579  -2.659  -4.613  1.00  0.00     0.223 C 
ATOM     12  O   UNL     1      -1.239  -3.539  -5.169  1.00  0.00    -0.275 OA
BRANCH  11  13
ATOM     13  C   UNL     1      -1.251  -1.729  -3.619  1.00  0.00     0.100 C 
BRANCH  13  14
ATOM     14  C   UNL     1      -1.720  -2.370  -2.311  1.00  0.00     0.010 C 
BRANCH  14  15
ATOM     15  C   UNL     1      -0.652  -2.556  -1.230  1.00  0.00     0.001 C 
BRANCH  15  16
ATOM     16  C   UNL     1       0.160  -1.306  -0.893  1.00  0.00    -0.000 C 
BRANCH  16  17
ATOM     17  C   UNL     1      -0.584  -0.212  -0.130  1.00  0.00    -0.003 C 
ATOM     18  C   UNL     1       0.072   0.049   1.218  1.00  0.00     0.004 C 
ENDBRANCH  16  17
ENDBRANCH  15  16
ENDBRANCH  14  15
ENDBRANCH  13  14
ENDBRANCH  11  13
ENDBRANCH   6  11
ENDBRANCH   1   5
BRANCH   3  19
ATOM     19  C   UNL     1       2.221   0.601  -3.634  1.00  0.00     0.117 C 
BRANCH  19  20
ATOM     20  C   UNL     1       2.443   0.943  -2.160  1.00  0.00     0.042 C 
BRANCH  20  21
ATOM     21  C   UNL     1       3.727   1.702  -1.833  1.00  0.00     0.118 C 
BRANCH  21  22
ATOM     22  N   UNL     1       3.704   3.078  -2.291  1.00  0.00    -0.352 N 
ATOM     23  C   UNL     1       3.738   4.276  -1.620  1.00  0.00     0.251 C 
ATOM     24  H   UNL     1       3.655   3.171  -3.270  1.00  0.00     0.163 HD
ATOM     25  O   UNL     1       3.531   5.295  -2.279  1.00  0.00    -0.269 OA
BRANCH  23  26
ATOM     26  C   UNL     1       3.998   4.398  -0.158  1.00  0.00     0.039 A 
ATOM     27  C   UNL     1       3.445   5.501   0.509  1.00  0.00     0.014 A 
ATOM     28  C   UNL     1       4.841   3.542   0.556  1.00  0.00     0.014 A 
ATOM     29  C   UNL     1       3.716   5.729   1.864  1.00  0.00     0.010 A 
ATOM     30  C   UNL     1       5.042   3.721   1.933  1.00  0.00     0.010 A 
ATOM     31  C   UNL     1       4.505   4.832   2.600  1.00  0.00    -0.014 A 
BRANCH  31  32
ATOM     32  C   UNL     1       4.790   5.079   4.044  1.00  0.00     0.031 A 
ATOM     33  C   UNL     1       6.199   5.331   4.525  1.00  0.00     0.074 A 
ATOM     34  C   UNL     1       3.780   5.076   4.938  1.00  0.00     0.049 A 
ATOM     35  N   UNL     1       6.625   5.604   5.734  1.00  0.00    -0.248 NA
ATOM     36  C   UNL     1       7.271   5.242   3.523  1.00  0.00     0.031 C 
ATOM     37  C   UNL     1       2.377   4.798   4.623  1.00  0.00     0.029 A 
ATOM     38  N   UNL     1       3.773   5.324   6.289  1.00  0.00    -0.354 N 
ATOM     39  C   UNL     1       8.010   5.702   5.640  1.00  0.00     0.074 A 
ATOM     40  C   UNL     1       8.355   5.406   4.266  1.00  0.00     0.031 C 
ATOM     41  C   UNL     1       1.641   4.936   5.737  1.00  0.00     0.029 A 
ATOM     42  C   UNL     1       2.519   5.285   6.852  1.00  0.00     0.049 A 
ATOM     43  H   UNL     1       4.590   5.512   6.806  1.00  0.00     0.167 HD
ATOM     44  C   UNL     1       8.912   6.032   6.598  1.00  0.00     0.037 A 
ATOM     45  C   UNL     1       2.114   5.517   8.116  1.00  0.00     0.037 A 
ATOM     46  C   UNL     1       8.569   6.355   7.960  1.00  0.00     0.049 A 
ATOM     47  C   UNL     1       3.123   5.914   9.157  1.00  0.00     0.074 A 
ATOM     48  C   UNL     1       9.404   6.755   8.989  1.00  0.00     0.029 A 
ATOM     49  N   UNL     1       7.285   6.316   8.484  1.00  0.00    -0.354 N 
ATOM     50  N   UNL     1       4.421   6.060   9.033  1.00  0.00    -0.248 NA
ATOM     51  C   UNL     1       2.612   6.189  10.507  1.00  0.00     0.031 C 
ATOM     52  C   UNL     1       8.630   6.924  10.144  1.00  0.00     0.029 A 
ATOM     53  C   UNL     1       7.306   6.671   9.823  1.00  0.00     0.049 A 
ATOM     54  H   UNL     1       6.476   6.072   7.978  1.00  0.00     0.167 HD
ATOM     55  C   UNL     1       4.878   6.471  10.281  1.00  0.00     0.074 A 
ATOM     56  C   UNL     1       3.716   6.557  11.143  1.00  0.00     0.031 C 
ATOM     57  C   UNL     1       6.144   6.754  10.674  1.00  0.00     0.037 A 
BRANCH  44  58
ATOM     58  C   UNL     1      10.365   6.057   6.199  1.00  0.00     0.058 A 
ATOM     59  C   UNL     1      10.876   7.039   5.333  1.00  0.00     0.135 A 
ATOM     60  C   UNL     1      11.258   5.089   6.686  1.00  0.00     0.135 A 
ATOM     61  F   UNL     1      10.066   7.984   4.830  1.00  0.00    -0.206 F 
ATOM     62  C   UNL     1      12.206   7.028   4.923  1.00  0.00     0.059 A 
ATOM     63  C   UNL     1      12.599   5.076   6.311  1.00  0.00     0.059 A 
ATOM     64  F   UNL     1      10.828   4.132   7.523  1.00  0.00    -0.206 F 
ATOM     65  C   UNL     1      13.057   6.035   5.409  1.00  0.00     0.060 A 
BRANCH  65  66
ATOM     66  S   UNL     1      14.770   6.008   4.837  1.00  0.00     0.124 S 
ATOM     67  O   UNL     1      14.617   5.452   3.496  1.00  0.00    -0.237 OA
ATOM     68  O   UNL     1      15.146   7.416   4.900  1.00  0.00    -0.237 OA
ATOM     69  O   UNL     1      15.436   5.141   5.805  1.00  0.00    -0.744 OA
ENDBRANCH  65  66
ENDBRANCH  44  58
BRANCH  45  70
ATOM     70  C   UNL     1       0.665   5.443   8.444  1.00  0.00     0.058 A 
ATOM     71  C   UNL     1      -0.080   6.611   8.666  1.00  0.00     0.135 A 
ATOM     72  C   UNL     1      -0.011   4.215   8.492  1.00  0.00     0.135 A 
ATOM     73  F   UNL     1       0.526   7.808   8.639  1.00  0.00    -0.206 F 
ATOM     74  C   UNL     1      -1.446   6.566   8.920  1.00  0.00     0.059 A 
ATOM     75  C   UNL     1      -1.382   4.146   8.723  1.00  0.00     0.059 A 
ATOM     76  F   UNL     1       0.655   3.071   8.272  1.00  0.00    -0.206 F 
ATOM     77  C   UNL     1      -2.091   5.327   8.938  1.00  0.00     0.060 A 
BRANCH  77  78
ATOM     78  S   UNL     1      -3.881   5.286   9.178  1.00  0.00     0.124 S 
ATOM     79  O   UNL     1      -3.994   5.572  10.603  1.00  0.00    -0.237 OA
ATOM     80  O   UNL     1      -4.335   6.340   8.275  1.00  0.00    -0.237 OA
ATOM     81  O   UNL     1      -4.240   3.930   8.774  1.00  0.00    -0.744 OA
ENDBRANCH  77  78
ENDBRANCH  45  70
BRANCH  57  82
ATOM     82  C   UNL     1       6.339   7.217  12.092  1.00  0.00     0.058 A 
ATOM     83  C   UNL     1       6.234   6.334  13.179  1.00  0.00     0.135 A 
ATOM     84  C   UNL     1       6.661   8.556  12.365  1.00  0.00     0.135 A 
ATOM     85  F   UNL     1       5.923   5.044  12.974  1.00  0.00    -0.206 F 
ATOM     86  C   UNL     1       6.410   6.770  14.489  1.00  0.00     0.059 A 
ATOM     87  C   UNL     1       6.865   9.009  13.665  1.00  0.00     0.059 A 
ATOM     88  F   UNL     1       6.785   9.440  11.361  1.00  0.00    -0.206 F 
ATOM     89  C   UNL     1       6.721   8.111  14.722  1.00  0.00     0.060 A 
BRANCH  89  90
ATOM     90  S   UNL     1       6.959   8.665  16.424  1.00  0.00     0.124 S 
ATOM     91  O   UNL     1       5.582   8.748  16.900  1.00  0.00    -0.237 OA
ATOM     92  O   UNL     1       7.763   7.590  16.996  1.00  0.00    -0.237 OA
ATOM     93  O   UNL     1       7.650   9.942  16.271  1.00  0.00    -0.744 OA
ENDBRANCH  89  90
ENDBRANCH  57  82
ENDBRANCH  31  32
ENDBRANCH  23  26
ENDBRANCH  21  22
ENDBRANCH  20  21
ENDBRANCH  19  20
ENDBRANCH   3  19
TORSDOF 19
