REMARK SMILES C/C(=N\Nc1nc(-c2ccc(Cl)cc2)cs1)c1nnn(-c2ccc(C(=O)NCCCNC(=O)c3ccc(-c4c5nc(c(-c6c(F)cc(S(=O)(=O)[O-])cc6F)c6ccc([nH]6)c(-c6c(F)cc(S(=O)(=O)[O-])cc6F)c6nc(c(-c7c(F)cc(S(=O)(=O)[O-])cc7F)c7ccc4[nH]7)C=C6)C=C5)cc3)cc2)c1C
REMARK SMILES IDX 28 1 27 2 25 3 26 4 24 6 21 7 22 8 101 9 23 10 100 11 20 12
REMARK SMILES IDX 17 13 18 14 102 15 19 16 103 17 2 18 1 19 3 20 4 21 5 23
REMARK SMILES IDX 6 24 16 25 7 26 15 27 8 28 9 29 14 30 10 31 13 32 11 33
REMARK SMILES IDX 12 34 29 35 30 36 31 37 32 38 33 40 34 41 35 42 99 43 36 44
REMARK SMILES IDX 98 45 37 46 38 47 39 48 92 49 40 50 97 51 91 52 93 53 41 54
REMARK SMILES IDX 96 55 90 56 89 57 42 59 76 60 55 61 75 62 56 63 59 64 74 65
REMARK SMILES IDX 94 66 57 67 58 68 73 70 95 71 60 72 43 73 44 74 53 75 45 76
REMARK SMILES IDX 46 77 52 78 54 79 47 80 48 81 49 82 50 83 51 84 77 85 78 86
REMARK SMILES IDX 87 87 79 88 80 89 86 90 88 91 81 92 82 93 83 94 84 95 85 96
REMARK SMILES IDX 61 97 62 98 71 99 63 100 64 101 70 102 72 103 65 104 66 105
REMARK SMILES IDX 67 106 68 107 69 108
REMARK H PARENT 27 5 4 22 31 39 93 58 59 69
REMARK Flexibility Score: inf
ROOT
ATOM      1  C   UNL     1       8.237  -2.817   5.177  1.00  0.00     0.118 C 
ENDROOT
BRANCH   1   2
ATOM      2  N   UNL     1       7.984  -4.251   5.232  1.00  0.00    -0.352 N 
ATOM      3  C   UNL     1       6.846  -4.995   5.016  1.00  0.00     0.251 C 
ATOM      4  O   UNL     1       6.956  -6.218   4.952  1.00  0.00    -0.269 OA
ATOM      5  H   UNL     1       8.775  -4.788   5.467  1.00  0.00     0.163 HD
BRANCH   3   6
ATOM      6  C   UNL     1       5.506  -4.381   4.795  1.00  0.00     0.039 A 
ATOM      7  C   UNL     1       3.075  -3.207   4.093  1.00  0.00     0.067 A 
ATOM      8  C   UNL     1       3.318  -4.530   3.720  1.00  0.00     0.029 A 
ATOM      9  C   UNL     1       3.965  -2.519   4.912  1.00  0.00     0.029 A 
ATOM     10  C   UNL     1       4.551  -5.104   4.056  1.00  0.00     0.016 A 
ATOM     11  C   UNL     1       5.154  -3.127   5.289  1.00  0.00     0.016 A 
BRANCH   7  12
ATOM     12  N   UNL     1       2.018  -2.489   3.513  1.00  0.00    -0.217 N 
ATOM     13  C   UNL     1       0.861  -1.115   2.292  1.00  0.00     0.132 A 
ATOM     14  N   UNL     1       0.016  -2.061   2.803  1.00  0.00    -0.128 NA
ATOM     15  C   UNL     1       2.150  -1.353   2.737  1.00  0.00     0.071 A 
ATOM     16  N   UNL     1       0.749  -2.941   3.477  1.00  0.00    -0.061 NA
ATOM     17  C   UNL     1       3.448  -0.749   2.327  1.00  0.00     0.069 C 
BRANCH  13  18
ATOM     18  C   UNL     1       0.511  -0.188   1.232  1.00  0.00     0.087 C 
ATOM     19  C   UNL     1       1.209  -0.469  -0.078  1.00  0.00     0.071 C 
ATOM     20  N   UNL     1      -0.281   0.799   1.551  1.00  0.00    -0.176 NA
BRANCH  20  21
ATOM     21  N   UNL     1      -0.576   1.835   0.695  1.00  0.00    -0.252 N 
ATOM     22  H   UNL     1      -0.888   2.659   1.134  1.00  0.00     0.193 HD
BRANCH  21  23
ATOM     23  C   UNL     1      -0.503   1.901  -0.658  1.00  0.00     0.203 A 
ATOM     24  N   UNL     1      -0.732   0.911  -1.489  1.00  0.00    -0.219 NA
ATOM     25  S   UNL     1       0.058   3.341  -1.434  1.00  0.00    -0.103 S 
ATOM     26  C   UNL     1      -0.133   1.157  -2.706  1.00  0.00     0.084 A 
ATOM     27  C   UNL     1       0.361   2.435  -2.865  1.00  0.00     0.097 A 
BRANCH  26  28
ATOM     28  C   UNL     1       0.027   0.070  -3.653  1.00  0.00     0.001 A 
ATOM     29  C   UNL     1      -1.076  -0.735  -3.964  1.00  0.00     0.012 A 
ATOM     30  C   UNL     1       1.291  -0.271  -4.155  1.00  0.00     0.012 A 
ATOM     31  C   UNL     1      -0.927  -1.849  -4.793  1.00  0.00     0.021 A 
ATOM     32  C   UNL     1       1.442  -1.393  -4.976  1.00  0.00     0.021 A 
ATOM     33  C   UNL     1       0.331  -2.172  -5.298  1.00  0.00     0.041 A 
ATOM     34  Cl  UNL     1       0.516  -3.550  -6.311  1.00  0.00    -0.084 Cl
ENDBRANCH  26  28
ENDBRANCH  21  23
ENDBRANCH  20  21
ENDBRANCH  13  18
ENDBRANCH   7  12
ENDBRANCH   3   6
ENDBRANCH   1   2
BRANCH   1  35
ATOM     35  C   UNL     1       8.166  -2.149   6.559  1.00  0.00     0.042 C 
BRANCH  35  36
ATOM     36  C   UNL     1       9.478  -2.219   7.315  1.00  0.00     0.118 C 
BRANCH  36  37
ATOM     37  N   UNL     1      10.497  -1.333   6.749  1.00  0.00    -0.352 N 
ATOM     38  C   UNL     1      11.820  -1.187   7.138  1.00  0.00     0.251 C 
ATOM     39  H   UNL     1      10.206  -0.769   5.997  1.00  0.00     0.163 HD
ATOM     40  O   UNL     1      12.450  -0.191   6.836  1.00  0.00    -0.269 OA
BRANCH  38  41
ATOM     41  C   UNL     1      12.435  -2.267   7.932  1.00  0.00     0.039 A 
ATOM     42  C   UNL     1      13.294  -2.000   9.004  1.00  0.00     0.014 A 
ATOM     43  C   UNL     1      12.085  -3.570   7.608  1.00  0.00     0.014 A 
ATOM     44  C   UNL     1      13.728  -3.062   9.797  1.00  0.00     0.010 A 
ATOM     45  C   UNL     1      12.335  -4.570   8.503  1.00  0.00     0.010 A 
ATOM     46  C   UNL     1      13.228  -4.346   9.546  1.00  0.00    -0.014 A 
BRANCH  46  47
ATOM     47  C   UNL     1      13.535  -5.486  10.404  1.00  0.00     0.031 A 
ATOM     48  C   UNL     1      13.120  -5.329  11.828  1.00  0.00     0.074 A 
ATOM     49  C   UNL     1      13.862  -6.682   9.861  1.00  0.00     0.049 A 
ATOM     50  N   UNL     1      13.862  -5.337  12.886  1.00  0.00    -0.248 NA
ATOM     51  C   UNL     1      11.715  -4.972  12.100  1.00  0.00     0.031 C 
ATOM     52  C   UNL     1      13.970  -7.024   8.433  1.00  0.00     0.029 A 
ATOM     53  N   UNL     1      14.010  -7.893  10.457  1.00  0.00    -0.354 N 
ATOM     54  C   UNL     1      12.985  -5.242  13.966  1.00  0.00     0.074 A 
ATOM     55  C   UNL     1      11.735  -4.787  13.421  1.00  0.00     0.031 C 
ATOM     56  C   UNL     1      13.892  -8.362   8.278  1.00  0.00     0.029 A 
ATOM     57  C   UNL     1      13.915  -8.979   9.589  1.00  0.00     0.049 A 
ATOM     58  H   UNL     1      14.171  -7.995  11.423  1.00  0.00     0.167 HD
ATOM     59  C   UNL     1      13.278  -5.811  15.171  1.00  0.00     0.037 A 
ATOM     60  C   UNL     1      13.822 -10.289   9.929  1.00  0.00     0.037 A 
ATOM     61  C   UNL     1      14.684  -6.133  15.255  1.00  0.00     0.049 A 
ATOM     62  C   UNL     1      14.294 -10.398  11.335  1.00  0.00     0.074 A 
ATOM     63  C   UNL     1      15.854  -5.407  15.139  1.00  0.00     0.029 A 
ATOM     64  N   UNL     1      15.047  -7.450  15.104  1.00  0.00    -0.354 N 
ATOM     65  N   UNL     1      15.523 -10.157  11.706  1.00  0.00    -0.248 NA
ATOM     66  C   UNL     1      13.298 -10.306  12.392  1.00  0.00     0.031 C 
ATOM     67  C   UNL     1      16.750  -6.265  14.436  1.00  0.00     0.029 A 
ATOM     68  C   UNL     1      16.109  -7.489  14.236  1.00  0.00     0.049 A 
ATOM     69  H   UNL     1      14.623  -8.225  15.539  1.00  0.00     0.167 HD
ATOM     70  C   UNL     1      15.406  -9.475  12.910  1.00  0.00     0.074 A 
ATOM     71  C   UNL     1      14.020  -9.680  13.326  1.00  0.00     0.031 C 
ATOM     72  C   UNL     1      16.351  -8.568  13.302  1.00  0.00     0.037 A 
BRANCH  59  73
ATOM     73  C   UNL     1      12.257  -6.440  16.104  1.00  0.00     0.058 A 
ATOM     74  C   UNL     1      12.691  -6.941  17.352  1.00  0.00     0.135 A 
ATOM     75  C   UNL     1      10.955  -6.837  15.721  1.00  0.00     0.135 A 
ATOM     76  F   UNL     1      13.901  -6.619  17.836  1.00  0.00    -0.206 F 
ATOM     77  C   UNL     1      11.943  -7.855  18.097  1.00  0.00     0.059 A 
ATOM     78  C   UNL     1      10.171  -7.702  16.475  1.00  0.00     0.059 A 
ATOM     79  F   UNL     1      10.405  -6.489  14.554  1.00  0.00    -0.206 F 
ATOM     80  C   UNL     1      10.693  -8.249  17.633  1.00  0.00     0.060 A 
BRANCH  80  81
ATOM     81  S   UNL     1       9.785  -9.534  18.508  1.00  0.00     0.124 S 
ATOM     82  O   UNL     1      10.609 -10.705  18.235  1.00  0.00    -0.237 OA
ATOM     83  O   UNL     1       9.808  -9.039  19.880  1.00  0.00    -0.237 OA
ATOM     84  O   UNL     1       8.475  -9.516  17.863  1.00  0.00    -0.744 OA
ENDBRANCH  80  81
ENDBRANCH  59  73
BRANCH  60  85
ATOM     85  C   UNL     1      13.077 -11.373   9.232  1.00  0.00     0.058 A 
ATOM     86  C   UNL     1      13.288 -12.726   9.551  1.00  0.00     0.135 A 
ATOM     87  C   UNL     1      11.952 -11.097   8.426  1.00  0.00     0.135 A 
ATOM     88  F   UNL     1      14.324 -13.081  10.327  1.00  0.00    -0.206 F 
ATOM     89  C   UNL     1      12.411 -13.737   9.140  1.00  0.00     0.059 A 
ATOM     90  C   UNL     1      11.071 -12.089   7.995  1.00  0.00     0.059 A 
ATOM     91  F   UNL     1      11.621  -9.837   8.107  1.00  0.00    -0.206 F 
ATOM     92  C   UNL     1      11.291 -13.406   8.379  1.00  0.00     0.060 A 
BRANCH  92  93
ATOM     93  S   UNL     1      10.061 -14.678   8.001  1.00  0.00     0.124 S 
ATOM     94  O   UNL     1      10.777 -15.516   7.045  1.00  0.00    -0.237 OA
ATOM     95  O   UNL     1       9.818 -15.271   9.311  1.00  0.00    -0.237 OA
ATOM     96  O   UNL     1       8.944 -13.917   7.448  1.00  0.00    -0.744 OA
ENDBRANCH  92  93
ENDBRANCH  60  85
BRANCH  72  97
ATOM     97  C   UNL     1      17.661  -8.527  12.553  1.00  0.00     0.058 A 
ATOM     98  C   UNL     1      17.794  -8.165  11.200  1.00  0.00     0.135 A 
ATOM     99  C   UNL     1      18.846  -8.703  13.282  1.00  0.00     0.135 A 
ATOM    100  F   UNL     1      16.722  -7.871  10.455  1.00  0.00    -0.206 F 
ATOM    101  C   UNL     1      19.043  -8.026  10.590  1.00  0.00     0.059 A 
ATOM    102  C   UNL     1      20.102  -8.538  12.704  1.00  0.00     0.059 A 
ATOM    103  F   UNL     1      18.791  -8.983  14.594  1.00  0.00    -0.206 F 
ATOM    104  C   UNL     1      20.193  -8.213  11.352  1.00  0.00     0.060 A 
BRANCH 104 105
ATOM    105  S   UNL     1      21.807  -7.956  10.584  1.00  0.00     0.124 S 
ATOM    106  O   UNL     1      21.924  -9.124   9.718  1.00  0.00    -0.237 OA
ATOM    107  O   UNL     1      21.636  -6.676   9.903  1.00  0.00    -0.237 OA
ATOM    108  O   UNL     1      22.725  -7.928  11.721  1.00  0.00    -0.744 OA
ENDBRANCH 104 105
ENDBRANCH  72  97
ENDBRANCH  46  47
ENDBRANCH  38  41
ENDBRANCH  36  37
ENDBRANCH  35  36
ENDBRANCH   1  35
TORSDOF 18
