REMARK SMILES NC(=O)[C@H]1CC(C(=O)NCCCNC(=O)c2ccc(-c3c4nc(c(-c5c(F)cc(S(=O)(=O)[O-])cc5F)c5ccc([nH]5)c(-c5c(F)cc(S(=O)(=O)[O-])cc5F)c5nc(c(-c6c(F)cc(S(=O)(=O)[O-])cc6F)c6ccc3[nH]6)C=C5)C=C4)cc2)=NN1c1ccc(F)cc1
REMARK SMILES IDX 12 1 11 2 10 3 9 4 7 5 8 6 6 8 4 9 5 10 83 11 82 12 2 13
REMARK SMILES IDX 1 14 3 17 84 18 85 19 90 20 86 21 89 22 87 23 88 24 13 25
REMARK SMILES IDX 14 26 15 28 16 29 17 30 81 31 18 32 80 33 19 34 20 35 21 36
REMARK SMILES IDX 74 37 22 38 79 39 73 40 75 41 23 42 78 43 72 44 71 45 24 47
REMARK SMILES IDX 58 48 37 49 57 50 38 51 41 52 56 53 76 54 39 55 40 56 55 58
REMARK SMILES IDX 77 59 42 60 25 61 26 62 35 63 27 64 28 65 34 66 36 67 29 68
REMARK SMILES IDX 30 69 31 70 32 71 33 72 59 73 60 74 69 75 61 76 62 77 68 78
REMARK SMILES IDX 70 79 63 80 64 81 65 82 66 83 67 84 43 85 44 86 53 87 45 88
REMARK SMILES IDX 46 89 52 90 54 91 47 92 48 93 49 94 50 95 51 96
REMARK H PARENT 9 7 1 15 1 16 13 27 75 46 41 57
REMARK Flexibility Score: inf
ROOT
ATOM      1  C   UNL     1       6.969   1.435  -1.512  1.00  0.00     0.118 C 
ENDROOT
BRANCH   1   2
ATOM      2  C   UNL     1       5.459   1.321  -1.718  1.00  0.00     0.042 C 
BRANCH   2   3
ATOM      3  C   UNL     1       5.081   0.601  -3.008  1.00  0.00     0.118 C 
BRANCH   3   4
ATOM      4  N   UNL     1       5.291  -0.832  -2.912  1.00  0.00    -0.351 N 
ATOM      5  C   UNL     1       4.479  -1.898  -2.625  1.00  0.00     0.267 C 
ATOM      6  O   UNL     1       4.995  -3.013  -2.581  1.00  0.00    -0.268 OA
ATOM      7  H   UNL     1       6.222  -1.096  -3.094  1.00  0.00     0.163 HD
BRANCH   5   8
ATOM      8  C   UNL     1       2.979  -1.786  -2.391  1.00  0.00     0.128 C 
ATOM      9  C   UNL     1       0.779  -1.040  -2.408  1.00  0.00     0.203 C 
ATOM     10  C   UNL     1       2.197  -0.541  -2.643  1.00  0.00     0.101 C 
ATOM     11  N   UNL     1       0.972  -2.437  -2.033  1.00  0.00    -0.252 N 
ATOM     12  N   UNL     1       2.281  -2.816  -2.009  1.00  0.00    -0.171 NA
BRANCH   9  13
ATOM     13  C   UNL     1       0.079  -0.276  -1.281  1.00  0.00     0.242 C 
ATOM     14  N   UNL     1       0.658  -0.333  -0.043  1.00  0.00    -0.368 N 
ATOM     15  H   UNL     1       0.247   0.142   0.715  1.00  0.00     0.159 HD
ATOM     16  H   UNL     1       1.487  -0.848   0.089  1.00  0.00     0.159 HD
ATOM     17  O   UNL     1      -0.932   0.398  -1.467  1.00  0.00    -0.273 OA
ENDBRANCH   9  13
BRANCH  11  18
ATOM     18  C   UNL     1      -0.031  -3.403  -2.069  1.00  0.00     0.061 A 
ATOM     19  C   UNL     1       0.044  -4.532  -1.238  1.00  0.00     0.031 A 
ATOM     20  C   UNL     1      -1.135  -3.304  -2.934  1.00  0.00     0.031 A 
ATOM     21  C   UNL     1      -0.960  -5.506  -1.241  1.00  0.00     0.041 A 
ATOM     22  C   UNL     1      -2.125  -4.290  -2.965  1.00  0.00     0.041 A 
ATOM     23  C   UNL     1      -2.034  -5.377  -2.109  1.00  0.00     0.123 A 
ATOM     24  F   UNL     1      -2.992  -6.312  -2.127  1.00  0.00    -0.207 F 
ENDBRANCH  11  18
ENDBRANCH   5   8
ENDBRANCH   3   4
ENDBRANCH   2   3
ENDBRANCH   1   2
BRANCH   1  25
ATOM     25  N   UNL     1       7.602   2.231  -2.557  1.00  0.00    -0.352 N 
ATOM     26  C   UNL     1       8.284   3.416  -2.489  1.00  0.00     0.251 C 
ATOM     27  H   UNL     1       7.526   1.852  -3.463  1.00  0.00     0.163 HD
ATOM     28  O   UNL     1       8.498   4.033  -3.533  1.00  0.00    -0.269 OA
BRANCH  26  29
ATOM     29  C   UNL     1       8.767   3.955  -1.200  1.00  0.00     0.039 A 
ATOM     30  C   UNL     1       8.786   5.342  -1.016  1.00  0.00     0.014 A 
ATOM     31  C   UNL     1       9.279   3.116  -0.205  1.00  0.00     0.014 A 
ATOM     32  C   UNL     1       9.286   5.881   0.172  1.00  0.00     0.010 A 
ATOM     33  C   UNL     1       9.704   3.650   1.009  1.00  0.00     0.010 A 
ATOM     34  C   UNL     1       9.732   5.038   1.202  1.00  0.00    -0.014 A 
BRANCH  34  35
ATOM     35  C   UNL     1      10.266   5.594   2.471  1.00  0.00     0.031 A 
ATOM     36  C   UNL     1      11.708   5.373   2.845  1.00  0.00     0.074 A 
ATOM     37  C   UNL     1       9.442   6.256   3.307  1.00  0.00     0.049 A 
ATOM     38  N   UNL     1      12.345   5.731   3.931  1.00  0.00    -0.248 NA
ATOM     39  C   UNL     1      12.537   4.624   1.886  1.00  0.00     0.031 C 
ATOM     40  C   UNL     1       8.014   6.490   3.078  1.00  0.00     0.029 A 
ATOM     41  N   UNL     1       9.685   6.849   4.519  1.00  0.00    -0.354 N 
ATOM     42  C   UNL     1      13.637   5.237   3.794  1.00  0.00     0.074 A 
ATOM     43  C   UNL     1      13.680   4.509   2.545  1.00  0.00     0.031 C 
ATOM     44  C   UNL     1       7.515   7.197   4.104  1.00  0.00     0.029 A 
ATOM     45  C   UNL     1       8.576   7.442   5.075  1.00  0.00     0.049 A 
ATOM     46  H   UNL     1      10.570   6.850   4.950  1.00  0.00     0.167 HD
ATOM     47  C   UNL     1      14.699   5.397   4.621  1.00  0.00     0.037 A 
ATOM     48  C   UNL     1       8.434   8.111   6.235  1.00  0.00     0.037 A 
ATOM     49  C   UNL     1      14.659   6.154   5.845  1.00  0.00     0.049 A 
ATOM     50  C   UNL     1       9.636   8.309   7.117  1.00  0.00     0.074 A 
ATOM     51  C   UNL     1      15.689   6.417   6.731  1.00  0.00     0.029 A 
ATOM     52  N   UNL     1      13.528   6.779   6.351  1.00  0.00    -0.354 N 
ATOM     53  N   UNL     1      10.862   7.875   6.949  1.00  0.00    -0.248 NA
ATOM     54  C   UNL     1       9.439   9.102   8.338  1.00  0.00     0.031 C 
ATOM     55  C   UNL     1      15.174   7.179   7.786  1.00  0.00     0.029 A 
ATOM     56  C   UNL     1      13.834   7.424   7.537  1.00  0.00     0.049 A 
ATOM     57  H   UNL     1      12.639   6.765   5.928  1.00  0.00     0.167 HD
ATOM     58  C   UNL     1      11.590   8.367   8.026  1.00  0.00     0.074 A 
ATOM     59  C   UNL     1      10.668   9.140   8.834  1.00  0.00     0.031 C 
ATOM     60  C   UNL     1      12.903   8.197   8.320  1.00  0.00     0.037 A 
BRANCH  47  61
ATOM     61  C   UNL     1      15.995   4.747   4.220  1.00  0.00     0.058 A 
ATOM     62  C   UNL     1      16.751   5.222   3.135  1.00  0.00     0.135 A 
ATOM     63  C   UNL     1      16.501   3.652   4.938  1.00  0.00     0.135 A 
ATOM     64  F   UNL     1      16.307   6.255   2.402  1.00  0.00    -0.206 F 
ATOM     65  C   UNL     1      17.943   4.613   2.756  1.00  0.00     0.059 A 
ATOM     66  C   UNL     1      17.706   3.044   4.594  1.00  0.00     0.059 A 
ATOM     67  F   UNL     1      15.820   3.157   5.984  1.00  0.00    -0.206 F 
ATOM     68  C   UNL     1      18.411   3.522   3.490  1.00  0.00     0.060 A 
BRANCH  68  69
ATOM     69  S   UNL     1      19.957   2.739   2.984  1.00  0.00     0.124 S 
ATOM     70  O   UNL     1      19.532   1.997   1.800  1.00  0.00    -0.237 OA
ATOM     71  O   UNL     1      20.823   3.888   2.733  1.00  0.00    -0.237 OA
ATOM     72  O   UNL     1      20.319   1.926   4.139  1.00  0.00    -0.744 OA
ENDBRANCH  68  69
ENDBRANCH  47  61
BRANCH  48  73
ATOM     73  C   UNL     1       7.112   8.679   6.606  1.00  0.00     0.058 A 
ATOM     74  C   UNL     1       6.885  10.062   6.559  1.00  0.00     0.135 A 
ATOM     75  C   UNL     1       6.046   7.854   6.994  1.00  0.00     0.135 A 
ATOM     76  F   UNL     1       7.875  10.892   6.196  1.00  0.00    -0.206 F 
ATOM     77  C   UNL     1       5.654  10.611   6.903  1.00  0.00     0.059 A 
ATOM     78  C   UNL     1       4.798   8.377   7.320  1.00  0.00     0.059 A 
ATOM     79  F   UNL     1       6.206   6.522   7.034  1.00  0.00    -0.206 F 
ATOM     80  C   UNL     1       4.616   9.759   7.281  1.00  0.00     0.060 A 
BRANCH  80  81
ATOM     81  S   UNL     1       3.006  10.476   7.676  1.00  0.00     0.124 S 
ATOM     82  O   UNL     1       3.251  11.035   9.000  1.00  0.00    -0.237 OA
ATOM     83  O   UNL     1       2.826  11.442   6.597  1.00  0.00    -0.237 OA
ATOM     84  O   UNL     1       2.109   9.325   7.631  1.00  0.00    -0.744 OA
ENDBRANCH  80  81
ENDBRANCH  48  73
BRANCH  60  85
ATOM     85  C   UNL     1      13.427   8.897   9.543  1.00  0.00     0.058 A 
ATOM     86  C   UNL     1      13.115   8.456  10.838  1.00  0.00     0.135 A 
ATOM     87  C   UNL     1      14.272  10.010   9.413  1.00  0.00     0.135 A 
ATOM     88  F   UNL     1      12.307   7.399  11.015  1.00  0.00    -0.206 F 
ATOM     89  C   UNL     1      13.594   9.117  11.964  1.00  0.00     0.059 A 
ATOM     90  C   UNL     1      14.784  10.671  10.524  1.00  0.00     0.059 A 
ATOM     91  F   UNL     1      14.611  10.464   8.195  1.00  0.00    -0.206 F 
ATOM     92  C   UNL     1      14.425  10.227  11.796  1.00  0.00     0.060 A 
BRANCH  92  93
ATOM     93  S   UNL     1      15.048  11.075  13.263  1.00  0.00     0.124 S 
ATOM     94  O   UNL     1      13.878  11.842  13.677  1.00  0.00    -0.237 OA
ATOM     95  O   UNL     1      15.419   9.964  14.135  1.00  0.00    -0.237 OA
ATOM     96  O   UNL     1      16.167  11.860  12.750  1.00  0.00    -0.744 OA
ENDBRANCH  92  93
ENDBRANCH  60  85
ENDBRANCH  34  35
ENDBRANCH  26  29
ENDBRANCH   1  25
TORSDOF 15
