REMARK SMILES C[C@H](C(=O)NCCCNC(=O)c1ccc(-c2c3nc(c(-c4c(F)cc(S(=O)(=O)[O-])cc4F)c4ccc([nH]4)c(-c4c(F)cc(S(=O)(=O)[O-])cc4F)c4nc(c(-c5c(F)cc(S(=O)(=O)[O-])cc5F)c5ccc2[nH]5)C=C4)C=C3)cc1)c1cccc(C(=O)c2ccccc2)c1
REMARK SMILES IDX 7 1 6 2 5 3 3 4 4 5 2 7 1 8 78 9 79 10 91 11 80 12 82 13
REMARK SMILES IDX 81 14 83 15 84 16 85 17 86 18 90 19 87 20 89 21 88 22 8 23
REMARK SMILES IDX 9 24 10 25 11 27 12 28 13 29 77 30 14 31 76 32 15 33 16 34
REMARK SMILES IDX 17 35 70 36 18 37 75 38 69 39 71 40 19 41 74 42 68 43 67 44
REMARK SMILES IDX 20 46 54 47 33 48 53 49 34 50 37 51 52 52 72 53 35 54 36 55
REMARK SMILES IDX 51 57 73 58 38 59 21 60 22 61 31 62 23 63 24 64 30 65 32 66
REMARK SMILES IDX 25 67 26 68 27 69 28 70 29 71 55 72 56 73 65 74 57 75 58 76
REMARK SMILES IDX 64 77 66 78 59 79 60 80 61 81 62 82 63 83 39 84 40 85 49 86
REMARK SMILES IDX 41 87 42 88 48 89 50 90 43 91 44 92 45 93 46 94 47 95
REMARK H PARENT 5 6 9 26 71 45 37 56
REMARK Flexibility Score: inf
ROOT
ATOM      1  C   UNL     1      -1.407  -1.946  -2.267  1.00  0.00     0.042 C 
ENDROOT
BRANCH   1   2
ATOM      2  C   UNL     1      -0.996  -1.213  -1.003  1.00  0.00     0.117 C 
BRANCH   2   3
ATOM      3  N   UNL     1       0.415  -0.914  -0.838  1.00  0.00    -0.356 N 
ATOM      4  C   UNL     1       1.023  -0.035   0.012  1.00  0.00     0.227 C 
ATOM      5  O   UNL     1       2.198  -0.307   0.302  1.00  0.00    -0.274 OA
ATOM      6  H   UNL     1       1.023  -1.418  -1.425  1.00  0.00     0.163 HD
BRANCH   4   7
ATOM      7  C   UNL     1       0.434   1.309   0.492  1.00  0.00     0.105 C 
ATOM      8  C   UNL     1       0.985   2.363  -0.486  1.00  0.00     0.023 C 
BRANCH   7   9
ATOM      9  C   UNL     1      -1.063   1.415   0.775  1.00  0.00    -0.035 A 
ATOM     10  C   UNL     1      -1.812   2.547   0.416  1.00  0.00     0.004 A 
ATOM     11  C   UNL     1      -1.744   0.357   1.411  1.00  0.00     0.016 A 
ATOM     12  C   UNL     1      -3.197   2.574   0.575  1.00  0.00     0.001 A 
ATOM     13  C   UNL     1      -3.146   0.322   1.470  1.00  0.00     0.023 A 
ATOM     14  C   UNL     1      -3.863   1.454   1.064  1.00  0.00     0.012 A 
BRANCH  13  15
ATOM     15  C   UNL     1      -3.944  -0.906   1.786  1.00  0.00     0.193 C 
ATOM     16  O   UNL     1      -5.167  -0.824   1.887  1.00  0.00    -0.289 OA
BRANCH  15  17
ATOM     17  C   UNL     1      -3.355  -2.264   1.847  1.00  0.00     0.022 A 
ATOM     18  C   UNL     1      -3.942  -3.268   1.065  1.00  0.00     0.012 A 
ATOM     19  C   UNL     1      -2.284  -2.578   2.688  1.00  0.00     0.012 A 
ATOM     20  C   UNL     1      -3.436  -4.566   1.107  1.00  0.00     0.001 A 
ATOM     21  C   UNL     1      -1.754  -3.870   2.692  1.00  0.00     0.001 A 
ATOM     22  C   UNL     1      -2.330  -4.862   1.903  1.00  0.00     0.000 A 
ENDBRANCH  15  17
ENDBRANCH  13  15
ENDBRANCH   7   9
ENDBRANCH   4   7
ENDBRANCH   2   3
ENDBRANCH   1   2
BRANCH   1  23
ATOM     23  C   UNL     1      -0.684  -3.251  -2.554  1.00  0.00     0.118 C 
BRANCH  23  24
ATOM     24  N   UNL     1      -0.963  -4.343  -1.628  1.00  0.00    -0.352 N 
ATOM     25  C   UNL     1      -1.735  -5.474  -1.779  1.00  0.00     0.251 C 
ATOM     26  H   UNL     1      -0.528  -4.257  -0.749  1.00  0.00     0.163 HD
ATOM     27  O   UNL     1      -1.756  -6.335  -0.901  1.00  0.00    -0.269 OA
BRANCH  25  28
ATOM     28  C   UNL     1      -2.590  -5.645  -2.968  1.00  0.00     0.039 A 
ATOM     29  C   UNL     1      -3.954  -5.912  -2.798  1.00  0.00     0.014 A 
ATOM     30  C   UNL     1      -2.053  -5.542  -4.247  1.00  0.00     0.014 A 
ATOM     31  C   UNL     1      -4.797  -5.972  -3.912  1.00  0.00     0.010 A 
ATOM     32  C   UNL     1      -2.902  -5.510  -5.345  1.00  0.00     0.010 A 
ATOM     33  C   UNL     1      -4.282  -5.719  -5.190  1.00  0.00    -0.014 A 
BRANCH  33  34
ATOM     34  C   UNL     1      -5.130  -5.678  -6.408  1.00  0.00     0.031 A 
ATOM     35  C   UNL     1      -4.831  -6.636  -7.529  1.00  0.00     0.074 A 
ATOM     36  C   UNL     1      -6.039  -4.694  -6.565  1.00  0.00     0.049 A 
ATOM     37  N   UNL     1      -5.223  -6.600  -8.774  1.00  0.00    -0.248 NA
ATOM     38  C   UNL     1      -3.929  -7.758  -7.214  1.00  0.00     0.031 C 
ATOM     39  C   UNL     1      -6.394  -3.694  -5.554  1.00  0.00     0.029 A 
ATOM     40  N   UNL     1      -6.797  -4.342  -7.655  1.00  0.00    -0.354 N 
ATOM     41  C   UNL     1      -4.576  -7.658  -9.402  1.00  0.00     0.074 A 
ATOM     42  C   UNL     1      -3.749  -8.305  -8.408  1.00  0.00     0.031 C 
ATOM     43  C   UNL     1      -7.284  -2.834  -6.077  1.00  0.00     0.029 A 
ATOM     44  C   UNL     1      -7.519  -3.183  -7.474  1.00  0.00     0.049 A 
ATOM     45  H   UNL     1      -6.822  -4.868  -8.487  1.00  0.00     0.167 HD
ATOM     46  C   UNL     1      -4.671  -8.050 -10.693  1.00  0.00     0.037 A 
ATOM     47  C   UNL     1      -8.246  -2.459  -8.348  1.00  0.00     0.037 A 
ATOM     48  C   UNL     1      -5.548  -7.431 -11.650  1.00  0.00     0.049 A 
ATOM     49  C   UNL     1      -8.336  -2.925  -9.779  1.00  0.00     0.074 A 
ATOM     50  C   UNL     1      -5.808  -7.821 -12.951  1.00  0.00     0.029 A 
ATOM     51  N   UNL     1      -6.305  -6.294 -11.411  1.00  0.00    -0.354 N 
ATOM     52  N   UNL     1      -7.781  -3.974 -10.341  1.00  0.00    -0.248 NA
ATOM     53  C   UNL     1      -9.139  -2.107 -10.700  1.00  0.00     0.031 C 
ATOM     54  C   UNL     1      -6.678  -6.887 -13.519  1.00  0.00     0.029 A 
ATOM     55  C   UNL     1      -7.001  -5.945 -12.555  1.00  0.00     0.049 A 
ATOM     56  H   UNL     1      -6.341  -5.808 -10.556  1.00  0.00     0.167 HD
ATOM     57  C   UNL     1      -8.185  -3.951 -11.671  1.00  0.00     0.074 A 
ATOM     58  C   UNL     1      -9.047  -2.798 -11.827  1.00  0.00     0.031 C 
ATOM     59  C   UNL     1      -7.867  -4.800 -12.679  1.00  0.00     0.037 A 
BRANCH  46  60
ATOM     60  C   UNL     1      -3.820  -9.197 -11.160  1.00  0.00     0.058 A 
ATOM     61  C   UNL     1      -4.083 -10.520 -10.777  1.00  0.00     0.135 A 
ATOM     62  C   UNL     1      -2.786  -8.975 -12.086  1.00  0.00     0.135 A 
ATOM     63  F   UNL     1      -5.045 -10.787  -9.880  1.00  0.00    -0.206 F 
ATOM     64  C   UNL     1      -3.353 -11.585 -11.296  1.00  0.00     0.059 A 
ATOM     65  C   UNL     1      -2.061 -10.026 -12.638  1.00  0.00     0.059 A 
ATOM     66  F   UNL     1      -2.487  -7.726 -12.478  1.00  0.00    -0.206 F 
ATOM     67  C   UNL     1      -2.352 -11.329 -12.235  1.00  0.00     0.060 A 
BRANCH  67  68
ATOM     68  S   UNL     1      -1.465 -12.729 -12.949  1.00  0.00     0.124 S 
ATOM     69  O   UNL     1      -0.659 -13.173 -11.816  1.00  0.00    -0.237 OA
ATOM     70  O   UNL     1      -2.554 -13.619 -13.340  1.00  0.00    -0.237 OA
ATOM     71  O   UNL     1      -0.718 -12.133 -14.053  1.00  0.00    -0.744 OA
ENDBRANCH  67  68
ENDBRANCH  46  60
BRANCH  47  72
ATOM     72  C   UNL     1      -8.916  -1.198  -7.921  1.00  0.00     0.058 A 
ATOM     73  C   UNL     1     -10.315  -1.098  -7.892  1.00  0.00     0.135 A 
ATOM     74  C   UNL     1      -8.176  -0.057  -7.569  1.00  0.00     0.135 A 
ATOM     75  F   UNL     1     -11.069  -2.157  -8.226  1.00  0.00    -0.206 F 
ATOM     76  C   UNL     1     -10.957   0.094  -7.570  1.00  0.00     0.059 A 
ATOM     77  C   UNL     1      -8.795   1.137  -7.213  1.00  0.00     0.059 A 
ATOM     78  F   UNL     1      -6.834  -0.100  -7.563  1.00  0.00    -0.206 F 
ATOM     79  C   UNL     1     -10.187   1.209  -7.237  1.00  0.00     0.060 A 
BRANCH  79  80
ATOM     80  S   UNL     1     -11.029   2.752  -6.823  1.00  0.00     0.124 S 
ATOM     81  O   UNL     1     -11.494   3.192  -8.133  1.00  0.00    -0.237 OA
ATOM     82  O   UNL     1     -12.061   2.300  -5.896  1.00  0.00    -0.237 OA
ATOM     83  O   UNL     1      -9.970   3.561  -6.225  1.00  0.00    -0.744 OA
ENDBRANCH  79  80
ENDBRANCH  47  72
BRANCH  59  84
ATOM     84  C   UNL     1      -8.465  -4.533 -14.031  1.00  0.00     0.058 A 
ATOM     85  C   UNL     1      -8.008  -3.481 -14.838  1.00  0.00     0.135 A 
ATOM     86  C   UNL     1      -9.443  -5.392 -14.558  1.00  0.00     0.135 A 
ATOM     87  F   UNL     1      -7.081  -2.627 -14.375  1.00  0.00    -0.206 F 
ATOM     88  C   UNL     1      -8.505  -3.285 -16.121  1.00  0.00     0.059 A 
ATOM     89  C   UNL     1      -9.932  -5.232 -15.850  1.00  0.00     0.059 A 
ATOM     90  F   UNL     1      -9.905  -6.420 -13.828  1.00  0.00    -0.206 F 
ATOM     91  C   UNL     1      -9.460  -4.172 -16.622  1.00  0.00     0.060 A 
BRANCH  91  92
ATOM     92  S   UNL     1     -10.046  -3.942 -18.313  1.00  0.00     0.124 S 
ATOM     93  O   UNL     1     -10.871  -2.746 -18.180  1.00  0.00    -0.237 OA
ATOM     94  O   UNL     1      -8.800  -3.774 -19.054  1.00  0.00    -0.237 OA
ATOM     95  O   UNL     1     -10.773  -5.177 -18.593  1.00  0.00    -0.744 OA
ENDBRANCH  91  92
ENDBRANCH  59  84
ENDBRANCH  33  34
ENDBRANCH  25  28
ENDBRANCH  23  24
ENDBRANCH   1  23
TORSDOF 16
