REMARK SMILES O=C(NCCCNC(=O)c1ccc(-n2cc(CSc3nc4ccccc4c(=O)n3-c3ccc(Cl)cc3)nn2)cc1)c1ccc(-c2c3nc(c(-c4c(F)cc(S(=O)(=O)[O-])cc4F)c4ccc([nH]4)c(-c4c(F)cc(S(=O)(=O)[O-])cc4F)c4nc(c(-c5c(F)cc(S(=O)(=O)[O-])cc5F)c5ccc2[nH]5)C=C4)C=C3)cc1
REMARK SMILES IDX 6 1 5 2 4 3 3 4 1 5 2 6 41 8 42 9 106 10 43 11 105 12 44 13
REMARK SMILES IDX 45 14 46 15 99 16 47 17 104 18 98 19 100 20 48 21 103 22
REMARK SMILES IDX 97 23 96 24 49 26 83 27 62 28 82 29 63 30 66 31 81 32 101 33
REMARK SMILES IDX 64 34 65 35 80 37 102 38 67 39 50 40 51 41 60 42 52 43 53 44
REMARK SMILES IDX 59 45 61 46 54 47 55 48 56 49 57 50 58 51 84 52 85 53 94 54
REMARK SMILES IDX 86 55 87 56 93 57 95 58 88 59 89 60 90 61 91 62 92 63 68 64
REMARK SMILES IDX 69 65 78 66 70 67 71 68 77 69 79 70 72 71 73 72 74 73 75 74
REMARK SMILES IDX 76 75 7 76 8 77 9 79 10 80 11 81 40 82 12 83 39 84 13 85
REMARK SMILES IDX 14 86 15 87 38 88 16 89 37 90 17 91 18 92 19 93 20 94 29 95
REMARK SMILES IDX 21 96 27 97 22 98 26 99 28 100 23 101 25 102 24 103 30 104
REMARK SMILES IDX 31 105 36 106 32 107 35 108 33 109 34 110
REMARK H PARENT 3 7 100 25 66 36 7 78
REMARK Flexibility Score: inf
ROOT
ATOM      1  C   UNL     1       4.356   3.341  -0.391  1.00  0.00     0.118 C 
ENDROOT
BRANCH   1   2
ATOM      2  C   UNL     1       4.929   1.970  -0.752  1.00  0.00     0.042 C 
BRANCH   2   3
ATOM      3  C   UNL     1       4.583   0.849   0.225  1.00  0.00     0.118 C 
BRANCH   3   4
ATOM      4  N   UNL     1       3.168   0.713   0.508  1.00  0.00    -0.352 N 
ATOM      5  O   UNL     1       1.059   0.109   0.592  1.00  0.00    -0.269 OA
ATOM      6  C   UNL     1       2.109   0.056  -0.056  1.00  0.00     0.251 C 
ATOM      7  H   UNL     1       2.901   1.222   1.307  1.00  0.00     0.163 HD
BRANCH   6   8
ATOM      8  C   UNL     1       2.107  -0.666  -1.362  1.00  0.00     0.039 A 
ATOM      9  C   UNL     1       3.203  -0.862  -2.201  1.00  0.00     0.014 A 
ATOM     10  C   UNL     1       0.856  -1.169  -1.779  1.00  0.00     0.014 A 
ATOM     11  C   UNL     1       3.045  -1.503  -3.436  1.00  0.00     0.010 A 
ATOM     12  C   UNL     1       0.696  -1.815  -3.005  1.00  0.00     0.010 A 
ATOM     13  C   UNL     1       1.789  -1.964  -3.852  1.00  0.00    -0.014 A 
BRANCH  13  14
ATOM     14  C   UNL     1       1.689  -2.692  -5.122  1.00  0.00     0.031 A 
ATOM     15  C   UNL     1       2.436  -3.986  -5.197  1.00  0.00     0.074 A 
ATOM     16  C   UNL     1       0.859  -2.369  -6.137  1.00  0.00     0.049 A 
ATOM     17  N   UNL     1       3.392  -4.326  -6.001  1.00  0.00    -0.248 NA
ATOM     18  C   UNL     1       2.098  -5.018  -4.204  1.00  0.00     0.031 C 
ATOM     19  C   UNL     1      -0.206  -1.363  -6.155  1.00  0.00     0.029 A 
ATOM     20  N   UNL     1       0.741  -2.963  -7.363  1.00  0.00    -0.354 N 
ATOM     21  C   UNL     1       3.665  -5.670  -5.739  1.00  0.00     0.074 A 
ATOM     22  C   UNL     1       2.917  -6.010  -4.554  1.00  0.00     0.031 C 
ATOM     23  C   UNL     1      -0.982  -1.554  -7.247  1.00  0.00     0.029 A 
ATOM     24  C   UNL     1      -0.393  -2.594  -8.074  1.00  0.00     0.049 A 
ATOM     25  H   UNL     1       1.406  -3.600  -7.713  1.00  0.00     0.167 HD
ATOM     26  C   UNL     1       4.363  -6.464  -6.600  1.00  0.00     0.037 A 
ATOM     27  C   UNL     1      -0.842  -3.137  -9.234  1.00  0.00     0.037 A 
ATOM     28  C   UNL     1       5.101  -5.694  -7.563  1.00  0.00     0.049 A 
ATOM     29  C   UNL     1       0.301  -3.827  -9.883  1.00  0.00     0.074 A 
ATOM     30  C   UNL     1       6.099  -4.742  -7.489  1.00  0.00     0.029 A 
ATOM     31  N   UNL     1       4.622  -5.621  -8.847  1.00  0.00    -0.354 N 
ATOM     32  N   UNL     1       1.344  -3.224 -10.383  1.00  0.00    -0.248 NA
ATOM     33  C   UNL     1       0.460  -5.253  -9.647  1.00  0.00     0.031 C 
ATOM     34  C   UNL     1       5.818  -3.827  -8.545  1.00  0.00     0.029 A 
ATOM     35  C   UNL     1       4.690  -4.302  -9.217  1.00  0.00     0.049 A 
ATOM     36  H   UNL     1       4.293  -6.370  -9.396  1.00  0.00     0.167 HD
ATOM     37  C   UNL     1       2.402  -4.086 -10.144  1.00  0.00     0.074 A 
ATOM     38  C   UNL     1       1.782  -5.358  -9.787  1.00  0.00     0.031 C 
ATOM     39  C   UNL     1       3.678  -3.624  -9.998  1.00  0.00     0.037 A 
BRANCH  26  40
ATOM     40  C   UNL     1       4.167  -7.955  -6.746  1.00  0.00     0.058 A 
ATOM     41  C   UNL     1       5.106  -8.726  -7.464  1.00  0.00     0.135 A 
ATOM     42  C   UNL     1       2.955  -8.608  -6.435  1.00  0.00     0.135 A 
ATOM     43  F   UNL     1       6.286  -8.201  -7.830  1.00  0.00    -0.206 F 
ATOM     44  C   UNL     1       4.836 -10.029  -7.890  1.00  0.00     0.059 A 
ATOM     45  C   UNL     1       2.686  -9.923  -6.803  1.00  0.00     0.059 A 
ATOM     46  F   UNL     1       1.940  -7.966  -5.842  1.00  0.00    -0.206 F 
ATOM     47  C   UNL     1       3.615 -10.612  -7.567  1.00  0.00     0.060 A 
BRANCH  47  48
ATOM     48  S   UNL     1       3.218 -12.249  -8.210  1.00  0.00     0.124 S 
ATOM     49  O   UNL     1       3.019 -11.964  -9.626  1.00  0.00    -0.237 OA
ATOM     50  O   UNL     1       4.417 -13.010  -7.873  1.00  0.00    -0.237 OA
ATOM     51  O   UNL     1       2.018 -12.620  -7.465  1.00  0.00    -0.744 OA
ENDBRANCH  47  48
ENDBRANCH  26  40
BRANCH  27  52
ATOM     52  C   UNL     1      -2.245  -3.360  -9.671  1.00  0.00     0.058 A 
ATOM     53  C   UNL     1      -2.556  -3.669 -11.008  1.00  0.00     0.135 A 
ATOM     54  C   UNL     1      -3.275  -3.563  -8.731  1.00  0.00     0.135 A 
ATOM     55  F   UNL     1      -1.628  -3.530 -11.967  1.00  0.00    -0.206 F 
ATOM     56  C   UNL     1      -3.797  -4.196 -11.383  1.00  0.00     0.059 A 
ATOM     57  C   UNL     1      -4.523  -4.076  -9.082  1.00  0.00     0.059 A 
ATOM     58  F   UNL     1      -3.064  -3.357  -7.422  1.00  0.00    -0.206 F 
ATOM     59  C   UNL     1      -4.769  -4.415 -10.407  1.00  0.00     0.060 A 
BRANCH  59  60
ATOM     60  S   UNL     1      -6.304  -5.261 -10.854  1.00  0.00     0.124 S 
ATOM     61  O   UNL     1      -6.985  -4.247 -11.651  1.00  0.00    -0.237 OA
ATOM     62  O   UNL     1      -5.813  -6.425 -11.586  1.00  0.00    -0.237 OA
ATOM     63  O   UNL     1      -6.917  -5.556  -9.561  1.00  0.00    -0.744 OA
ENDBRANCH  59  60
ENDBRANCH  27  52
BRANCH  39  64
ATOM     64  C   UNL     1       3.991  -2.214 -10.425  1.00  0.00     0.058 A 
ATOM     65  C   UNL     1       3.438  -1.067  -9.831  1.00  0.00     0.135 A 
ATOM     66  C   UNL     1       5.024  -2.019 -11.356  1.00  0.00     0.135 A 
ATOM     67  F   UNL     1       2.518  -1.166  -8.861  1.00  0.00    -0.206 F 
ATOM     68  C   UNL     1       3.873   0.217 -10.168  1.00  0.00     0.059 A 
ATOM     69  C   UNL     1       5.496  -0.750 -11.682  1.00  0.00     0.059 A 
ATOM     70  F   UNL     1       5.634  -3.078 -11.916  1.00  0.00    -0.206 F 
ATOM     71  C   UNL     1       4.910   0.365 -11.089  1.00  0.00     0.060 A 
BRANCH  71  72
ATOM     72  S   UNL     1       5.551   2.019 -11.431  1.00  0.00     0.124 S 
ATOM     73  O   UNL     1       4.495   2.593 -12.259  1.00  0.00    -0.237 OA
ATOM     74  O   UNL     1       5.686   2.592 -10.094  1.00  0.00    -0.237 OA
ATOM     75  O   UNL     1       6.814   1.761 -12.118  1.00  0.00    -0.744 OA
ENDBRANCH  71  72
ENDBRANCH  39  64
ENDBRANCH  13  14
ENDBRANCH   6   8
ENDBRANCH   3   4
ENDBRANCH   2   3
ENDBRANCH   1   2
BRANCH   1  76
ATOM     76  N   UNL     1       4.919   3.912   0.824  1.00  0.00    -0.352 N 
ATOM     77  C   UNL     1       5.783   4.975   0.990  1.00  0.00     0.251 C 
ATOM     78  H   UNL     1       4.639   3.471   1.659  1.00  0.00     0.163 HD
ATOM     79  O   UNL     1       6.183   5.287   2.093  1.00  0.00    -0.269 OA
BRANCH  77  80
ATOM     80  C   UNL     1       6.253   5.719  -0.199  1.00  0.00     0.039 A 
ATOM     81  C   UNL     1       7.627   5.756  -0.464  1.00  0.00     0.016 A 
ATOM     82  C   UNL     1       5.350   6.378  -1.034  1.00  0.00     0.016 A 
ATOM     83  C   UNL     1       8.098   6.370  -1.628  1.00  0.00     0.029 A 
ATOM     84  C   UNL     1       5.819   7.019  -2.180  1.00  0.00     0.029 A 
ATOM     85  C   UNL     1       7.193   7.004  -2.484  1.00  0.00     0.066 A 
BRANCH  85  86
ATOM     86  N   UNL     1       7.657   7.666  -3.643  1.00  0.00    -0.220 N 
ATOM     87  C   UNL     1       7.041   8.712  -4.273  1.00  0.00     0.141 A 
ATOM     88  N   UNL     1       8.788   7.348  -4.309  1.00  0.00    -0.062 NA
ATOM     89  C   UNL     1       7.796   8.983  -5.388  1.00  0.00     0.093 A 
ATOM     90  N   UNL     1       8.845   8.100  -5.410  1.00  0.00    -0.134 NA
BRANCH  89  91
ATOM     91  C   UNL     1       7.459   9.863  -6.530  1.00  0.00     0.138 C 
BRANCH  91  92
ATOM     92  S   UNL     1       7.899  11.606  -6.585  1.00  0.00    -0.081 SA
BRANCH  92  93
ATOM     93  C   UNL     1       8.564  12.153  -5.070  1.00  0.00     0.176 A 
ATOM     94  N   UNL     1       9.657  12.838  -5.244  1.00  0.00    -0.223 NA
ATOM     95  N   UNL     1       8.004  11.959  -3.810  1.00  0.00    -0.255 N 
ATOM     96  C   UNL     1      10.348  13.302  -4.123  1.00  0.00     0.079 A 
ATOM     97  C   UNL     1       8.950  11.854  -2.776  1.00  0.00     0.266 A 
ATOM     98  C   UNL     1      11.335  14.281  -4.243  1.00  0.00     0.029 A 
ATOM     99  C   UNL     1      10.128  12.726  -2.884  1.00  0.00     0.066 A 
ATOM    100  O   UNL     1       8.891  11.102  -1.805  1.00  0.00    -0.268 OA
ATOM    101  C   UNL     1      12.127  14.626  -3.140  1.00  0.00     0.002 A 
ATOM    102  C   UNL     1      10.941  13.021  -1.784  1.00  0.00     0.016 A 
ATOM    103  C   UNL     1      11.952  13.971  -1.920  1.00  0.00     0.001 A 
BRANCH  95 104
ATOM    104  C   UNL     1       6.596  11.791  -3.474  1.00  0.00     0.051 A 
ATOM    105  C   UNL     1       6.195  11.697  -2.123  1.00  0.00     0.028 A 
ATOM    106  C   UNL     1       5.552  11.715  -4.408  1.00  0.00     0.028 A 
ATOM    107  C   UNL     1       4.907  11.301  -1.742  1.00  0.00     0.022 A 
ATOM    108  C   UNL     1       4.267  11.273  -4.045  1.00  0.00     0.022 A 
ATOM    109  C   UNL     1       3.964  11.024  -2.715  1.00  0.00     0.041 A 
ATOM    110  Cl  UNL     1       2.442  10.365  -2.277  1.00  0.00    -0.084 Cl
ENDBRANCH  95 104
ENDBRANCH  92  93
ENDBRANCH  91  92
ENDBRANCH  89  91
ENDBRANCH  85  86
ENDBRANCH  77  80
ENDBRANCH   1  76
TORSDOF 18
