REMARK SMILES C#Cc1cc(Cl)cc2c1O[C@H](C(F)(F)F)C(C(=O)NCCCNC(=O)c1ccc(-c3c4nc(c(-c5c(F)cc(S(=O)(=O)[O-])cc5F)c5ccc([nH]5)c(-c5c(F)cc(S(=O)(=O)[O-])cc5F)c5nc(c(-c6c(F)cc(S(=O)(=O)[O-])cc6F)c6ccc3[nH]6)C=C5)C=C4)cc1)=C2
REMARK SMILES IDX 22 1 21 2 20 3 19 4 17 5 18 6 16 8 3 9 4 10 9 11 5 12 8 13
REMARK SMILES IDX 10 14 6 15 7 16 92 17 11 18 2 19 1 20 12 21 13 22 14 23
REMARK SMILES IDX 15 24 23 25 24 26 25 28 26 29 27 30 91 31 28 32 90 33 29 34
REMARK SMILES IDX 30 35 31 36 84 37 32 38 89 39 83 40 85 41 33 42 88 43 82 44
REMARK SMILES IDX 81 45 34 47 68 48 47 49 67 50 48 51 51 52 66 53 86 54 49 55
REMARK SMILES IDX 50 56 65 58 87 59 52 60 35 61 36 62 45 63 37 64 38 65 44 66
REMARK SMILES IDX 46 67 39 68 40 69 41 70 42 71 43 72 69 73 70 74 79 75 71 76
REMARK SMILES IDX 72 77 78 78 80 79 73 80 74 81 75 82 76 83 77 84 53 85 54 86
REMARK SMILES IDX 63 87 55 88 56 89 62 90 64 91 57 92 58 93 59 94 60 95 61 96
REMARK H PARENT 19 7 23 27 85 46 51 57
REMARK Flexibility Score: inf
ROOT
ATOM      1  C   UNL     1      -2.850  -8.496   1.238  1.00  0.00     0.118 C 
ENDROOT
BRANCH   1   2
ATOM      2  C   UNL     1      -2.273  -7.100   1.071  1.00  0.00     0.042 C 
BRANCH   2   3
ATOM      3  C   UNL     1      -2.754  -6.452  -0.214  1.00  0.00     0.118 C 
BRANCH   3   4
ATOM      4  N   UNL     1      -4.106  -5.923  -0.086  1.00  0.00    -0.352 N 
ATOM      5  C   UNL     1      -4.694  -4.705  -0.049  1.00  0.00     0.251 C 
ATOM      6  O   UNL     1      -5.925  -4.708   0.043  1.00  0.00    -0.270 OA
ATOM      7  H   UNL     1      -4.769  -6.646  -0.005  1.00  0.00     0.163 HD
BRANCH   5   8
ATOM      8  C   UNL     1      -3.961  -3.408  -0.116  1.00  0.00     0.067 C 
ATOM      9  C   UNL     1      -1.946   0.276  -0.046  1.00  0.00     0.068 A 
ATOM     10  C   UNL     1      -2.672   1.465  -0.078  1.00  0.00     0.041 A 
ATOM     11  C   UNL     1      -2.626  -0.948  -0.024  1.00  0.00     0.143 A 
ATOM     12  C   UNL     1      -4.066   1.419  -0.081  1.00  0.00     0.043 A 
ATOM     13  C   UNL     1      -4.023  -0.997  -0.025  1.00  0.00     0.020 A 
ATOM     14  O   UNL     1      -1.866  -2.081   0.050  1.00  0.00    -0.474 OA
ATOM     15  Cl  UNL     1      -4.962   2.889  -0.113  1.00  0.00    -0.084 Cl
ATOM     16  C   UNL     1      -4.746   0.198  -0.052  1.00  0.00     0.032 A 
ATOM     17  C   UNL     1      -4.695  -2.291   0.043  1.00  0.00     0.025 C 
ATOM     18  C   UNL     1      -2.487  -3.314  -0.373  1.00  0.00     0.314 C 
BRANCH   9  19
ATOM     19  C   UNL     1      -0.513   0.306  -0.046  1.00  0.00    -0.067 C 
ATOM     20  C   UNL     1       0.689   0.259  -0.045  1.00  0.00     0.010 C 
ENDBRANCH   9  19
BRANCH  18  21
ATOM     21  C   UNL     1      -2.129  -3.588  -1.847  1.00  0.00     0.429 C 
ATOM     22  F   UNL     1      -0.815  -3.899  -1.970  1.00  0.00    -0.167 F 
ATOM     23  F   UNL     1      -2.819  -4.631  -2.370  1.00  0.00    -0.167 F 
ATOM     24  F   UNL     1      -2.373  -2.526  -2.648  1.00  0.00    -0.167 F 
ENDBRANCH  18  21
ENDBRANCH   5   8
ENDBRANCH   3   4
ENDBRANCH   2   3
ENDBRANCH   1   2
BRANCH   1  25
ATOM     25  N   UNL     1      -2.407  -9.397   0.174  1.00  0.00    -0.352 N 
ATOM     26  C   UNL     1      -1.493 -10.421   0.209  1.00  0.00     0.251 C 
ATOM     27  H   UNL     1      -2.829  -9.245  -0.703  1.00  0.00     0.163 HD
ATOM     28  O   UNL     1      -1.051 -10.889  -0.835  1.00  0.00    -0.269 OA
BRANCH  26  29
ATOM     29  C   UNL     1      -1.045 -10.934   1.515  1.00  0.00     0.039 A 
ATOM     30  C   UNL     1       0.307 -11.201   1.725  1.00  0.00     0.014 A 
ATOM     31  C   UNL     1      -1.973 -11.109   2.543  1.00  0.00     0.014 A 
ATOM     32  C   UNL     1       0.736 -11.566   3.001  1.00  0.00     0.010 A 
ATOM     33  C   UNL     1      -1.529 -11.343   3.834  1.00  0.00     0.010 A 
ATOM     34  C   UNL     1      -0.173 -11.593   4.074  1.00  0.00    -0.014 A 
BRANCH  34  35
ATOM     35  C   UNL     1       0.276 -11.906   5.450  1.00  0.00     0.031 A 
ATOM     36  C   UNL     1      -0.275 -13.114   6.157  1.00  0.00     0.074 A 
ATOM     37  C   UNL     1       1.152 -11.088   6.066  1.00  0.00     0.049 A 
ATOM     38  N   UNL     1      -0.004 -13.557   7.356  1.00  0.00    -0.248 NA
ATOM     39  C   UNL     1      -1.281 -13.916   5.438  1.00  0.00     0.031 C 
ATOM     40  C   UNL     1       1.708  -9.859   5.492  1.00  0.00     0.029 A 
ATOM     41  N   UNL     1       1.739 -11.168   7.303  1.00  0.00    -0.354 N 
ATOM     42  C   UNL     1      -0.795 -14.685   7.527  1.00  0.00     0.074 A 
ATOM     43  C   UNL     1      -1.622 -14.811   6.351  1.00  0.00     0.031 C 
ATOM     44  C   UNL     1       2.596  -9.334   6.351  1.00  0.00     0.029 A 
ATOM     45  C   UNL     1       2.640 -10.159   7.554  1.00  0.00     0.049 A 
ATOM     46  H   UNL     1       1.535 -11.881   7.950  1.00  0.00     0.167 HD
ATOM     47  C   UNL     1      -0.797 -15.565   8.554  1.00  0.00     0.037 A 
ATOM     48  C   UNL     1       3.418  -9.931   8.631  1.00  0.00     0.037 A 
ATOM     49  C   UNL     1       0.046 -15.440   9.711  1.00  0.00     0.049 A 
ATOM     50  C   UNL     1       3.366 -10.902   9.780  1.00  0.00     0.074 A 
ATOM     51  C   UNL     1       0.149 -16.295  10.792  1.00  0.00     0.029 A 
ATOM     52  N   UNL     1       0.928 -14.393   9.938  1.00  0.00    -0.354 N 
ATOM     53  N   UNL     1       2.663 -12.004   9.895  1.00  0.00    -0.248 NA
ATOM     54  C   UNL     1       4.209 -10.603  10.946  1.00  0.00     0.031 C 
ATOM     55  C   UNL     1       1.047 -15.735  11.702  1.00  0.00     0.029 A 
ATOM     56  C   UNL     1       1.556 -14.565  11.159  1.00  0.00     0.049 A 
ATOM     57  H   UNL     1       1.084 -13.641   9.323  1.00  0.00     0.167 HD
ATOM     58  C   UNL     1       2.999 -12.544  11.132  1.00  0.00     0.074 A 
ATOM     59  C   UNL     1       3.977 -11.653  11.723  1.00  0.00     0.031 C 
ATOM     60  C   UNL     1       2.538 -13.672  11.725  1.00  0.00     0.037 A 
BRANCH  47  61
ATOM     61  C   UNL     1      -1.720 -16.748   8.464  1.00  0.00     0.058 A 
ATOM     62  C   UNL     1      -1.507 -17.775   7.529  1.00  0.00     0.135 A 
ATOM     63  C   UNL     1      -2.795 -16.889   9.356  1.00  0.00     0.135 A 
ATOM     64  F   UNL     1      -0.507 -17.683   6.638  1.00  0.00    -0.206 F 
ATOM     65  C   UNL     1      -2.337 -18.888   7.470  1.00  0.00     0.059 A 
ATOM     66  C   UNL     1      -3.618 -18.011   9.337  1.00  0.00     0.059 A 
ATOM     67  F   UNL     1      -3.048 -15.935  10.266  1.00  0.00    -0.206 F 
ATOM     68  C   UNL     1      -3.386 -19.001   8.383  1.00  0.00     0.060 A 
BRANCH  68  69
ATOM     69  S   UNL     1      -4.436 -20.466   8.303  1.00  0.00     0.124 S 
ATOM     70  O   UNL     1      -5.103 -20.277   7.018  1.00  0.00    -0.237 OA
ATOM     71  O   UNL     1      -3.458 -21.548   8.355  1.00  0.00    -0.237 OA
ATOM     72  O   UNL     1      -5.292 -20.338   9.477  1.00  0.00    -0.744 OA
ENDBRANCH  68  69
ENDBRANCH  47  61
BRANCH  48  73
ATOM     73  C   UNL     1       4.335  -8.759   8.649  1.00  0.00     0.058 A 
ATOM     74  C   UNL     1       5.727  -8.931   8.607  1.00  0.00     0.135 A 
ATOM     75  C   UNL     1       3.843  -7.444   8.678  1.00  0.00     0.135 A 
ATOM     76  F   UNL     1       6.250 -10.166   8.583  1.00  0.00    -0.206 F 
ATOM     77  C   UNL     1       6.597  -7.845   8.604  1.00  0.00     0.059 A 
ATOM     78  C   UNL     1       4.691  -6.342   8.646  1.00  0.00     0.059 A 
ATOM     79  F   UNL     1       2.519  -7.222   8.703  1.00  0.00    -0.206 F 
ATOM     80  C   UNL     1       6.069  -6.553   8.616  1.00  0.00     0.060 A 
BRANCH  80  81
ATOM     81  S   UNL     1       7.209  -5.154   8.561  1.00  0.00     0.124 S 
ATOM     82  O   UNL     1       7.877  -5.266   9.853  1.00  0.00    -0.237 OA
ATOM     83  O   UNL     1       8.022  -5.473   7.391  1.00  0.00    -0.237 OA
ATOM     84  O   UNL     1       6.324  -4.004   8.406  1.00  0.00    -0.744 OA
ENDBRANCH  80  81
ENDBRANCH  48  73
BRANCH  60  85
ATOM     85  C   UNL     1       3.087 -14.037  13.076  1.00  0.00     0.058 A 
ATOM     86  C   UNL     1       2.720 -13.330  14.231  1.00  0.00     0.135 A 
ATOM     87  C   UNL     1       3.884 -15.183  13.232  1.00  0.00     0.135 A 
ATOM     88  F   UNL     1       1.964 -12.224  14.136  1.00  0.00    -0.206 F 
ATOM     89  C   UNL     1       3.124 -13.747  15.494  1.00  0.00     0.059 A 
ATOM     90  C   UNL     1       4.272 -15.637  14.488  1.00  0.00     0.059 A 
ATOM     91  F   UNL     1       4.253 -15.901  12.159  1.00  0.00    -0.206 F 
ATOM     92  C   UNL     1       3.887 -14.911  15.613  1.00  0.00     0.060 A 
BRANCH  92  93
ATOM     93  S   UNL     1       4.332 -15.479  17.267  1.00  0.00     0.124 S 
ATOM     94  O   UNL     1       5.247 -14.428  17.704  1.00  0.00    -0.237 OA
ATOM     95  O   UNL     1       3.038 -15.513  17.940  1.00  0.00    -0.237 OA
ATOM     96  O   UNL     1       4.944 -16.782  17.029  1.00  0.00    -0.744 OA
ENDBRANCH  92  93
ENDBRANCH  60  85
ENDBRANCH  34  35
ENDBRANCH  26  29
ENDBRANCH   1  25
TORSDOF 15
