REMARK SMILES CCc1nc(C)c(C)c2nn(CC(=O)NCCCNC(=O)c3ccc(-c4c5nc(c(-c6c(F)cc(S(=O)(=O)[O-])cc6F)c6ccc([nH]6)c(-c6c(F)cc(S(=O)(=O)[O-])cc6F)c6nc(c(-c7c(F)cc(S(=O)(=O)[O-])cc7F)c7ccc4[nH]7)C=C6)C=C5)cc3)c(=O)n12
REMARK SMILES IDX 17 1 16 2 15 3 13 4 14 5 12 7 11 8 3 9 4 10 90 11 5 12 9 13
REMARK SMILES IDX 88 14 6 15 7 16 10 17 89 18 8 19 2 20 1 21 18 22 19 23 20 24
REMARK SMILES IDX 21 26 22 27 23 28 87 29 24 30 86 31 25 32 26 33 27 34 80 35
REMARK SMILES IDX 28 36 85 37 79 38 81 39 29 40 84 41 78 42 77 43 30 45 64 46
REMARK SMILES IDX 43 47 63 48 44 49 47 50 62 51 82 52 45 53 46 54 61 56 83 57
REMARK SMILES IDX 48 58 31 59 32 60 41 61 33 62 34 63 40 64 42 65 35 66 36 67
REMARK SMILES IDX 37 68 38 69 39 70 65 71 66 72 75 73 67 74 68 75 74 76 76 77
REMARK SMILES IDX 69 78 70 79 71 80 72 81 73 82 49 83 50 84 59 85 51 86 52 87
REMARK SMILES IDX 58 88 60 89 53 90 54 91 55 92 56 93 57 94
REMARK H PARENT 15 6 19 25 81 44 47 55
REMARK Flexibility Score: inf
ROOT
ATOM      1  C   UNL     1       3.246  -4.910  -1.579  1.00  0.00     0.042 C 
ENDROOT
BRANCH   1   2
ATOM      2  C   UNL     1       2.315  -6.125  -1.522  1.00  0.00     0.117 C 
BRANCH   2   3
ATOM      3  N   UNL     1       1.480  -6.145  -0.333  1.00  0.00    -0.354 N 
ATOM      4  C   UNL     1       0.158  -5.836  -0.186  1.00  0.00     0.241 C 
ATOM      5  O   UNL     1      -0.384  -6.179   0.870  1.00  0.00    -0.273 OA
ATOM      6  H   UNL     1       1.938  -6.425   0.493  1.00  0.00     0.163 HD
BRANCH   4   7
ATOM      7  C   UNL     1      -0.673  -5.281  -1.342  1.00  0.00     0.249 C 
BRANCH   7   8
ATOM      8  N   UNL     1      -0.106  -4.109  -1.964  1.00  0.00    -0.203 N 
ATOM      9  C   UNL     1       0.771  -0.685  -2.510  1.00  0.00     0.119 A 
ATOM     10  N   UNL     1       1.408  -0.190  -3.530  1.00  0.00    -0.239 NA
ATOM     11  N   UNL     1       0.466  -2.024  -2.426  1.00  0.00    -0.230 N 
ATOM     12  C   UNL     1       1.769  -1.032  -4.562  1.00  0.00     0.046 A 
ATOM     13  C   UNL     1       0.823  -2.888  -3.403  1.00  0.00     0.167 A 
ATOM     14  C   UNL     1      -0.196  -2.797  -1.483  1.00  0.00     0.352 A 
ATOM     15  C   UNL     1       2.459  -0.349  -5.714  1.00  0.00     0.067 C 
ATOM     16  C   UNL     1       1.523  -2.356  -4.580  1.00  0.00     0.016 A 
ATOM     17  N   UNL     1       0.501  -4.128  -3.196  1.00  0.00    -0.149 NA
ATOM     18  O   UNL     1      -0.787  -2.434  -0.471  1.00  0.00    -0.245 OA
ATOM     19  C   UNL     1       1.861  -3.339  -5.654  1.00  0.00     0.050 C 
BRANCH   9  20
ATOM     20  C   UNL     1       0.339   0.245  -1.393  1.00  0.00     0.072 C 
ATOM     21  C   UNL     1       1.159   0.082  -0.125  1.00  0.00     0.012 C 
ENDBRANCH   9  20
ENDBRANCH   7   8
ENDBRANCH   4   7
ENDBRANCH   2   3
ENDBRANCH   1   2
BRANCH   1  22
ATOM     22  C   UNL     1       4.376  -4.996  -0.564  1.00  0.00     0.118 C 
BRANCH  22  23
ATOM     23  N   UNL     1       5.369  -6.017  -0.897  1.00  0.00    -0.352 N 
ATOM     24  C   UNL     1       6.572  -6.273  -0.270  1.00  0.00     0.251 C 
ATOM     25  H   UNL     1       5.152  -6.593  -1.666  1.00  0.00     0.163 HD
ATOM     26  O   UNL     1       7.442  -6.918  -0.847  1.00  0.00    -0.269 OA
BRANCH  24  27
ATOM     27  C   UNL     1       6.798  -5.764   1.097  1.00  0.00     0.039 A 
ATOM     28  C   UNL     1       8.052  -5.288   1.493  1.00  0.00     0.014 A 
ATOM     29  C   UNL     1       5.729  -5.766   1.990  1.00  0.00     0.014 A 
ATOM     30  C   UNL     1       8.195  -4.750   2.770  1.00  0.00     0.010 A 
ATOM     31  C   UNL     1       5.831  -5.104   3.187  1.00  0.00     0.010 A 
ATOM     32  C   UNL     1       7.072  -4.644   3.606  1.00  0.00    -0.014 A 
BRANCH  32  33
ATOM     33  C   UNL     1       7.134  -3.890   4.856  1.00  0.00     0.031 A 
ATOM     34  C   UNL     1       7.580  -2.483   4.656  1.00  0.00     0.074 A 
ATOM     35  C   UNL     1       6.594  -4.341   6.012  1.00  0.00     0.049 A 
ATOM     36  N   UNL     1       8.688  -1.940   5.039  1.00  0.00    -0.248 NA
ATOM     37  C   UNL     1       6.785  -1.624   3.754  1.00  0.00     0.031 C 
ATOM     38  C   UNL     1       5.842  -5.585   6.223  1.00  0.00     0.029 A 
ATOM     39  N   UNL     1       6.492  -3.736   7.229  1.00  0.00    -0.354 N 
ATOM     40  C   UNL     1       8.581  -0.599   4.683  1.00  0.00     0.074 A 
ATOM     41  C   UNL     1       7.538  -0.523   3.695  1.00  0.00     0.031 C 
ATOM     42  C   UNL     1       5.166  -5.521   7.391  1.00  0.00     0.029 A 
ATOM     43  C   UNL     1       5.558  -4.314   8.093  1.00  0.00     0.049 A 
ATOM     44  H   UNL     1       7.034  -2.954   7.480  1.00  0.00     0.167 HD
ATOM     45  C   UNL     1       9.111   0.373   5.475  1.00  0.00     0.037 A 
ATOM     46  C   UNL     1       5.121  -3.819   9.283  1.00  0.00     0.037 A 
ATOM     47  C   UNL     1      10.091  -0.170   6.382  1.00  0.00     0.049 A 
ATOM     48  C   UNL     1       6.138  -2.831   9.725  1.00  0.00     0.074 A 
ATOM     49  C   UNL     1      11.245  -0.915   6.234  1.00  0.00     0.029 A 
ATOM     50  N   UNL     1       9.713  -0.318   7.694  1.00  0.00    -0.354 N 
ATOM     51  N   UNL     1       7.366  -3.139  10.045  1.00  0.00    -0.248 NA
ATOM     52  C   UNL     1       5.915  -1.440   9.366  1.00  0.00     0.031 C 
ATOM     53  C   UNL     1      11.227  -1.843   7.316  1.00  0.00     0.029 A 
ATOM     54  C   UNL     1      10.119  -1.556   8.116  1.00  0.00     0.049 A 
ATOM     55  H   UNL     1       9.234   0.350   8.236  1.00  0.00     0.167 HD
ATOM     56  C   UNL     1       8.134  -2.117   9.509  1.00  0.00     0.074 A 
ATOM     57  C   UNL     1       7.181  -1.058   9.181  1.00  0.00     0.031 C 
ATOM     58  C   UNL     1       9.422  -2.339   9.114  1.00  0.00     0.037 A 
BRANCH  45  59
ATOM     59  C   UNL     1       8.433   1.702   5.719  1.00  0.00     0.058 A 
ATOM     60  C   UNL     1       9.136   2.734   6.371  1.00  0.00     0.135 A 
ATOM     61  C   UNL     1       7.040   1.909   5.584  1.00  0.00     0.135 A 
ATOM     62  F   UNL     1      10.454   2.621   6.600  1.00  0.00    -0.206 F 
ATOM     63  C   UNL     1       8.499   3.872   6.871  1.00  0.00     0.059 A 
ATOM     64  C   UNL     1       6.396   3.060   6.018  1.00  0.00     0.059 A 
ATOM     65  F   UNL     1       6.216   0.964   5.115  1.00  0.00    -0.206 F 
ATOM     66  C   UNL     1       7.128   4.025   6.686  1.00  0.00     0.060 A 
BRANCH  66  67
ATOM     67  S   UNL     1       6.295   5.473   7.357  1.00  0.00     0.124 S 
ATOM     68  O   UNL     1       6.399   5.231   8.791  1.00  0.00    -0.237 OA
ATOM     69  O   UNL     1       7.113   6.559   6.828  1.00  0.00    -0.237 OA
ATOM     70  O   UNL     1       4.951   5.378   6.794  1.00  0.00    -0.744 OA
ENDBRANCH  66  67
ENDBRANCH  45  59
BRANCH  46  71
ATOM     71  C   UNL     1       3.753  -3.859   9.884  1.00  0.00     0.058 A 
ATOM     72  C   UNL     1       3.526  -3.397  11.197  1.00  0.00     0.135 A 
ATOM     73  C   UNL     1       2.601  -4.053   9.097  1.00  0.00     0.135 A 
ATOM     74  F   UNL     1       4.561  -3.174  12.022  1.00  0.00    -0.206 F 
ATOM     75  C   UNL     1       2.248  -3.075  11.673  1.00  0.00     0.059 A 
ATOM     76  C   UNL     1       1.315  -3.748   9.553  1.00  0.00     0.059 A 
ATOM     77  F   UNL     1       2.695  -4.457   7.822  1.00  0.00    -0.206 F 
ATOM     78  C   UNL     1       1.148  -3.228  10.831  1.00  0.00     0.060 A 
BRANCH  78  79
ATOM     79  S   UNL     1      -0.475  -2.636  11.371  1.00  0.00     0.124 S 
ATOM     80  O   UNL     1      -0.784  -3.550  12.465  1.00  0.00    -0.237 OA
ATOM     81  O   UNL     1      -0.188  -1.258  11.755  1.00  0.00    -0.237 OA
ATOM     82  O   UNL     1      -1.306  -2.787  10.180  1.00  0.00    -0.744 OA
ENDBRANCH  78  79
ENDBRANCH  46  71
BRANCH  58  83
ATOM     83  C   UNL     1      10.123  -3.587   9.591  1.00  0.00     0.058 A 
ATOM     84  C   UNL     1       9.780  -4.903   9.230  1.00  0.00     0.135 A 
ATOM     85  C   UNL     1      11.316  -3.411  10.308  1.00  0.00     0.135 A 
ATOM     86  F   UNL     1       8.702  -5.155   8.475  1.00  0.00    -0.206 F 
ATOM     87  C   UNL     1      10.585  -5.992   9.582  1.00  0.00     0.059 A 
ATOM     88  C   UNL     1      12.147  -4.475  10.640  1.00  0.00     0.059 A 
ATOM     89  F   UNL     1      11.723  -2.174  10.640  1.00  0.00    -0.206 F 
ATOM     90  C   UNL     1      11.773  -5.766  10.278  1.00  0.00     0.060 A 
BRANCH  90  91
ATOM     91  S   UNL     1      12.866  -7.157  10.647  1.00  0.00     0.124 S 
ATOM     92  O   UNL     1      12.083  -7.915  11.617  1.00  0.00    -0.237 OA
ATOM     93  O   UNL     1      13.034  -7.783   9.339  1.00  0.00    -0.237 OA
ATOM     94  O   UNL     1      14.066  -6.517  11.181  1.00  0.00    -0.744 OA
ENDBRANCH  90  91
ENDBRANCH  58  83
ENDBRANCH  32  33
ENDBRANCH  24  27
ENDBRANCH  22  23
ENDBRANCH   1  22
TORSDOF 15
