REMARK SMILES CC(C)(C)c1cc(NC(=O)CSC[C@H]([NH3+])C(=O)NCCCNC(=O)c2ccc(-c3c4nc(c(-c5c(F)cc(S(=O)(=O)[O-])cc5F)c5ccc([nH]5)c(-c5c(F)cc(S(=O)(=O)[O-])cc5F)c5nc(c(-c6c(F)cc(S(=O)(=O)[O-])cc6F)c6ccc3[nH]6)C=C5)C=C4)cc2)on1
REMARK SMILES IDX 16 1 17 2 18 3 14 5 13 6 12 7 11 8 9 9 8 10 10 12 7 13 5 14
REMARK SMILES IDX 6 15 92 16 91 17 2 18 1 19 3 20 4 21 15 22 19 26 20 27 21 28
REMARK SMILES IDX 22 29 23 30 24 32 25 33 26 34 90 35 27 36 89 37 28 38 29 39
REMARK SMILES IDX 30 40 83 41 31 42 88 43 82 44 84 45 32 46 87 47 81 48 80 49
REMARK SMILES IDX 33 51 67 52 46 53 66 54 47 55 50 56 65 57 85 58 48 59 49 60
REMARK SMILES IDX 64 62 86 63 51 64 34 65 35 66 44 67 36 68 37 69 43 70 45 71
REMARK SMILES IDX 38 72 39 73 40 74 41 75 42 76 68 77 69 78 78 79 70 80 71 81
REMARK SMILES IDX 77 82 79 83 72 84 73 85 74 86 75 87 76 88 52 89 53 90 62 91
REMARK SMILES IDX 54 92 55 93 61 94 63 95 56 96 57 97 58 98 59 99 60 100
REMARK H PARENT 18 4 8 11 15 23 15 24 15 25 22 31 84 50 50 61
REMARK Flexibility Score: inf
ROOT
ATOM      1  C   UNL     1       6.018   7.629  -1.673  1.00  0.00     0.279 C 
ATOM      2  O   UNL     1       7.231   7.847  -1.623  1.00  0.00    -0.268 OA
ATOM      3  N   UNL     1       5.217   8.229  -0.746  1.00  0.00    -0.351 N 
ATOM      4  H   UNL     1       5.702   8.779  -0.090  1.00  0.00     0.163 HD
ENDROOT
BRANCH   1   5
ATOM      5  C   UNL     1       5.414   6.736  -2.766  1.00  0.00     0.280 C 
BRANCH   5   6
ATOM      6  C   UNL     1       4.496   7.546  -3.703  1.00  0.00     0.145 C 
BRANCH   6   7
ATOM      7  S   UNL     1       5.344   8.355  -5.106  1.00  0.00    -0.145 SA
BRANCH   7   8
ATOM      8  C   UNL     1       6.187   9.776  -4.320  1.00  0.00     0.170 C 
BRANCH   8   9
ATOM      9  C   UNL     1       5.314  10.637  -3.422  1.00  0.00     0.236 C 
ATOM     10  N   UNL     1       4.280  11.398  -3.872  1.00  0.00    -0.294 N 
ATOM     11  H   UNL     1       3.774  11.878  -3.177  1.00  0.00     0.173 HD
ATOM     12  O   UNL     1       5.533  10.697  -2.205  1.00  0.00    -0.274 OA
BRANCH  10  13
ATOM     13  C   UNL     1       3.845  11.588  -5.152  1.00  0.00     0.231 A 
ATOM     14  C   UNL     1       2.777  12.106  -7.012  1.00  0.00     0.091 A 
ATOM     15  C   UNL     1       2.745  12.268  -5.604  1.00  0.00     0.097 A 
ATOM     16  N   UNL     1       3.862  11.411  -7.380  1.00  0.00    -0.082 NA
ATOM     17  O   UNL     1       4.527  11.098  -6.213  1.00  0.00    -0.338 OA
BRANCH  14  18
ATOM     18  C   UNL     1       1.785  12.623  -8.033  1.00  0.00     0.008 C 
ATOM     19  C   UNL     1       0.378  12.067  -7.732  1.00  0.00     0.018 C 
ATOM     20  C   UNL     1       2.162  12.207  -9.471  1.00  0.00     0.018 C 
ATOM     21  C   UNL     1       1.741  14.162  -7.973  1.00  0.00     0.018 C 
ENDBRANCH  14  18
ENDBRANCH  10  13
ENDBRANCH   8   9
ENDBRANCH   7   8
ENDBRANCH   6   7
ENDBRANCH   5   6
BRANCH   5  22
ATOM     22  N   UNL     1       4.766   5.556  -2.143  1.00  0.00    -0.347 N 
ATOM     23  H   UNL     1       4.017   5.867  -1.525  1.00  0.00     0.345 HD
ATOM     24  H   UNL     1       5.457   5.034  -1.605  1.00  0.00     0.345 HD
ATOM     25  H   UNL     1       4.379   4.956  -2.872  1.00  0.00     0.345 HD
ENDBRANCH   5  22
ENDBRANCH   1   5
BRANCH   3  26
ATOM     26  C   UNL     1       3.777   8.203  -0.552  1.00  0.00     0.118 C 
BRANCH  26  27
ATOM     27  C   UNL     1       3.404   7.654   0.815  1.00  0.00     0.042 C 
BRANCH  27  28
ATOM     28  C   UNL     1       3.897   8.512   1.971  1.00  0.00     0.118 C 
BRANCH  28  29
ATOM     29  N   UNL     1       3.260   9.821   2.006  1.00  0.00    -0.352 N 
ATOM     30  C   UNL     1       2.459  10.384   2.968  1.00  0.00     0.251 C 
ATOM     31  H   UNL     1       3.429  10.389   1.220  1.00  0.00     0.163 HD
ATOM     32  O   UNL     1       1.847  11.422   2.710  1.00  0.00    -0.269 OA
BRANCH  30  33
ATOM     33  C   UNL     1       2.311   9.743   4.293  1.00  0.00     0.039 A 
ATOM     34  C   UNL     1       1.056   9.733   4.905  1.00  0.00     0.014 A 
ATOM     35  C   UNL     1       3.406   9.168   4.945  1.00  0.00     0.014 A 
ATOM     36  C   UNL     1       0.889   9.094   6.136  1.00  0.00     0.010 A 
ATOM     37  C   UNL     1       3.218   8.445   6.120  1.00  0.00     0.010 A 
ATOM     38  C   UNL     1       1.961   8.413   6.738  1.00  0.00    -0.014 A 
BRANCH  38  39
ATOM     39  C   UNL     1       1.778   7.671   8.014  1.00  0.00     0.031 A 
ATOM     40  C   UNL     1       2.549   8.067   9.245  1.00  0.00     0.074 A 
ATOM     41  C   UNL     1       0.952   6.606   8.049  1.00  0.00     0.049 A 
ATOM     42  N   UNL     1       2.529   7.533  10.439  1.00  0.00    -0.248 NA
ATOM     43  C   UNL     1       3.490   9.191   9.111  1.00  0.00     0.031 C 
ATOM     44  C   UNL     1       0.205   6.077   6.906  1.00  0.00     0.029 A 
ATOM     45  N   UNL     1       0.607   5.772   9.083  1.00  0.00    -0.354 N 
ATOM     46  C   UNL     1       3.460   8.242  11.190  1.00  0.00     0.074 A 
ATOM     47  C   UNL     1       4.071   9.205  10.301  1.00  0.00     0.031 C 
ATOM     48  C   UNL     1      -0.530   5.029   7.307  1.00  0.00     0.029 A 
ATOM     49  C   UNL     1      -0.282   4.787   8.725  1.00  0.00     0.049 A 
ATOM     50  H   UNL     1       0.963   5.871   9.996  1.00  0.00     0.167 HD
ATOM     51  C   UNL     1       3.763   8.118  12.505  1.00  0.00     0.037 A 
ATOM     52  C   UNL     1      -0.834   3.797   9.453  1.00  0.00     0.037 A 
ATOM     53  C   UNL     1       3.134   7.170  13.389  1.00  0.00     0.049 A 
ATOM     54  C   UNL     1      -0.508   3.698  10.918  1.00  0.00     0.074 A 
ATOM     55  C   UNL     1       3.311   7.017  14.753  1.00  0.00     0.029 A 
ATOM     56  N   UNL     1       2.214   6.208  12.996  1.00  0.00    -0.354 N 
ATOM     57  N   UNL     1       0.308   4.436  11.633  1.00  0.00    -0.248 NA
ATOM     58  C   UNL     1      -1.189   2.643  11.678  1.00  0.00     0.031 C 
ATOM     59  C   UNL     1       2.542   5.926  15.175  1.00  0.00     0.029 A 
ATOM     60  C   UNL     1       1.836   5.439  14.086  1.00  0.00     0.049 A 
ATOM     61  H   UNL     1       1.879   6.089  12.078  1.00  0.00     0.167 HD
ATOM     62  C   UNL     1       0.224   3.947  12.932  1.00  0.00     0.074 A 
ATOM     63  C   UNL     1      -0.741   2.865  12.906  1.00  0.00     0.031 C 
ATOM     64  C   UNL     1       0.883   4.357  14.045  1.00  0.00     0.037 A 
BRANCH  51  65
ATOM     65  C   UNL     1       4.825   9.027  13.065  1.00  0.00     0.058 A 
ATOM     66  C   UNL     1       4.627  10.412  13.192  1.00  0.00     0.135 A 
ATOM     67  C   UNL     1       6.053   8.503  13.502  1.00  0.00     0.135 A 
ATOM     68  F   UNL     1       3.479  10.973  12.778  1.00  0.00    -0.206 F 
ATOM     69  C   UNL     1       5.620  11.248  13.693  1.00  0.00     0.059 A 
ATOM     70  C   UNL     1       7.048   9.316  14.038  1.00  0.00     0.059 A 
ATOM     71  F   UNL     1       6.299   7.187  13.407  1.00  0.00    -0.206 F 
ATOM     72  C   UNL     1       6.829  10.691  14.112  1.00  0.00     0.060 A 
BRANCH  72  73
ATOM     73  S   UNL     1       8.108  11.790  14.756  1.00  0.00     0.124 S 
ATOM     74  O   UNL     1       8.555  12.460  13.538  1.00  0.00    -0.237 OA
ATOM     75  O   UNL     1       7.362  12.619  15.697  1.00  0.00    -0.237 OA
ATOM     76  O   UNL     1       9.072  10.875  15.358  1.00  0.00    -0.744 OA
ENDBRANCH  72  73
ENDBRANCH  51  65
BRANCH  52  77
ATOM     77  C   UNL     1      -1.773   2.842   8.806  1.00  0.00     0.058 A 
ATOM     78  C   UNL     1      -3.146   2.867   9.090  1.00  0.00     0.135 A 
ATOM     79  C   UNL     1      -1.319   1.907   7.862  1.00  0.00     0.135 A 
ATOM     80  F   UNL     1      -3.629   3.738   9.989  1.00  0.00    -0.206 F 
ATOM     81  C   UNL     1      -4.036   1.996   8.470  1.00  0.00     0.059 A 
ATOM     82  C   UNL     1      -2.192   1.044   7.208  1.00  0.00     0.059 A 
ATOM     83  F   UNL     1      -0.017   1.854   7.540  1.00  0.00    -0.206 F 
ATOM     84  C   UNL     1      -3.549   1.091   7.524  1.00  0.00     0.060 A 
BRANCH  84  85
ATOM     85  S   UNL     1      -4.722   0.015   6.671  1.00  0.00     0.124 S 
ATOM     86  O   UNL     1      -5.082  -0.924   7.727  1.00  0.00    -0.237 OA
ATOM     87  O   UNL     1      -5.763   0.956   6.270  1.00  0.00    -0.237 OA
ATOM     88  O   UNL     1      -3.933  -0.539   5.574  1.00  0.00    -0.744 OA
ENDBRANCH  84  85
ENDBRANCH  52  77
BRANCH  64  89
ATOM     89  C   UNL     1       0.563   3.647  15.333  1.00  0.00     0.058 A 
ATOM     90  C   UNL     1       0.950   2.316  15.563  1.00  0.00     0.135 A 
ATOM     91  C   UNL     1      -0.127   4.313  16.360  1.00  0.00     0.135 A 
ATOM     92  F   UNL     1       1.609   1.631  14.616  1.00  0.00    -0.206 F 
ATOM     93  C   UNL     1       0.624   1.658  16.745  1.00  0.00     0.059 A 
ATOM     94  C   UNL     1      -0.433   3.685  17.563  1.00  0.00     0.059 A 
ATOM     95  F   UNL     1      -0.508   5.590  16.201  1.00  0.00    -0.206 F 
ATOM     96  C   UNL     1      -0.072   2.350  17.737  1.00  0.00     0.060 A 
BRANCH  96  97
ATOM     97  S   UNL     1      -0.495   1.484  19.263  1.00  0.00     0.124 S 
ATOM     98  O   UNL     1      -1.578   0.614  18.816  1.00  0.00    -0.237 OA
ATOM     99  O   UNL     1       0.757   0.815  19.601  1.00  0.00    -0.237 OA
ATOM    100  O   UNL     1      -0.888   2.560  20.168  1.00  0.00    -0.744 OA
ENDBRANCH  96  97
ENDBRANCH  64  89
ENDBRANCH  38  39
ENDBRANCH  30  33
ENDBRANCH  28  29
ENDBRANCH  27  28
ENDBRANCH  26  27
ENDBRANCH   3  26
TORSDOF 20
