REMARK SMILES C[C@H]1CC[C@@](C[C@@H]2CSc3ccccc32)(C(=O)NCCCNC(=O)c2ccc(-c3c4nc(c(-c5c(F)cc(S(=O)(=O)[O-])cc5F)c5ccc([nH]5)c(-c5c(F)cc(S(=O)(=O)[O-])cc5F)c5nc(c(-c6c(F)cc(S(=O)(=O)[O-])cc6F)c6ccc3[nH]6)C=C5)C=C4)cc2)CC1
REMARK SMILES IDX 20 1 19 2 18 3 16 4 17 5 5 7 1 8 2 9 92 10 3 11 91 12 4 13
REMARK SMILES IDX 6 14 7 15 8 16 15 17 9 18 10 19 14 20 11 21 13 22 12 23
REMARK SMILES IDX 21 24 22 25 23 26 24 28 25 29 26 30 90 31 27 32 89 33 28 34
REMARK SMILES IDX 29 35 30 36 83 37 31 38 88 39 82 40 84 41 32 42 87 43 81 44
REMARK SMILES IDX 80 45 33 47 67 48 46 49 66 50 47 51 50 52 65 53 85 54 48 55
REMARK SMILES IDX 49 56 64 58 86 59 51 60 34 61 35 62 44 63 36 64 37 65 43 66
REMARK SMILES IDX 45 67 38 68 39 69 40 70 41 71 42 72 68 73 69 74 78 75 70 76
REMARK SMILES IDX 71 77 77 78 79 79 72 80 73 81 74 82 75 83 76 84 52 85 53 86
REMARK SMILES IDX 62 87 54 88 55 89 61 90 63 91 56 92 57 93 58 94 59 95 60 96
REMARK H PARENT 18 6 22 27 84 46 50 57
REMARK Flexibility Score: inf
ROOT
ATOM      1  C   UNL     1      -2.508   4.726  -0.924  1.00  0.00     0.042 C 
ENDROOT
BRANCH   1   2
ATOM      2  C   UNL     1      -3.278   3.805  -0.007  1.00  0.00     0.117 C 
BRANCH   2   3
ATOM      3  N   UNL     1      -4.448   4.363   0.604  1.00  0.00    -0.356 N 
ATOM      4  C   UNL     1      -5.686   3.799   0.652  1.00  0.00     0.226 C 
ATOM      5  O   UNL     1      -6.387   4.134   1.613  1.00  0.00    -0.274 OA
ATOM      6  H   UNL     1      -4.346   5.244   1.032  1.00  0.00     0.163 HD
BRANCH   4   7
ATOM      7  C   UNL     1      -6.187   2.774  -0.419  1.00  0.00     0.050 C 
ATOM      8  C   UNL     1      -8.579   5.925  -2.486  1.00  0.00     0.007 C 
ATOM      9  C   UNL     1      -8.000   4.558  -2.131  1.00  0.00    -0.014 C 
ATOM     10  C   UNL     1      -8.414   4.130  -0.722  1.00  0.00     0.004 C 
ATOM     11  C   UNL     1      -6.477   4.567  -2.261  1.00  0.00     0.004 C 
ATOM     12  C   UNL     1      -7.765   2.801  -0.307  1.00  0.00     0.017 C 
ATOM     13  C   UNL     1      -5.888   3.209  -1.872  1.00  0.00     0.017 C 
BRANCH   7  14
ATOM     14  C   UNL     1      -5.769   1.289  -0.020  1.00  0.00     0.026 C 
BRANCH  14  15
ATOM     15  C   UNL     1      -4.587   0.428  -0.586  1.00  0.00     0.032 C 
ATOM     16  C   UNL     1      -3.257   0.516   0.200  1.00  0.00     0.083 C 
ATOM     17  C   UNL     1      -4.282   0.520  -2.054  1.00  0.00    -0.030 A 
ATOM     18  S   UNL     1      -1.895   0.865  -0.963  1.00  0.00    -0.125 SA
ATOM     19  C   UNL     1      -2.966   0.865  -2.368  1.00  0.00     0.011 A 
ATOM     20  C   UNL     1      -5.200   0.300  -3.077  1.00  0.00     0.005 A 
ATOM     21  C   UNL     1      -2.595   1.163  -3.671  1.00  0.00     0.015 A 
ATOM     22  C   UNL     1      -4.833   0.578  -4.395  1.00  0.00     0.000 A 
ATOM     23  C   UNL     1      -3.545   1.041  -4.687  1.00  0.00     0.001 A 
ENDBRANCH  14  15
ENDBRANCH   7  14
ENDBRANCH   4   7
ENDBRANCH   2   3
ENDBRANCH   1   2
BRANCH   1  24
ATOM     24  C   UNL     1      -1.381   5.464  -0.223  1.00  0.00     0.118 C 
BRANCH  24  25
ATOM     25  N   UNL     1      -0.383   4.590   0.403  1.00  0.00    -0.352 N 
ATOM     26  C   UNL     1       0.977   4.477   0.224  1.00  0.00     0.251 C 
ATOM     27  H   UNL     1      -0.754   3.970   1.073  1.00  0.00     0.163 HD
ATOM     28  O   UNL     1       1.599   3.609   0.832  1.00  0.00    -0.269 OA
BRANCH  26  29
ATOM     29  C   UNL     1       1.679   5.362  -0.726  1.00  0.00     0.039 A 
ATOM     30  C   UNL     1       1.318   6.700  -0.834  1.00  0.00     0.014 A 
ATOM     31  C   UNL     1       2.666   4.836  -1.565  1.00  0.00     0.014 A 
ATOM     32  C   UNL     1       1.715   7.420  -1.948  1.00  0.00     0.010 A 
ATOM     33  C   UNL     1       3.186   5.620  -2.601  1.00  0.00     0.010 A 
ATOM     34  C   UNL     1       2.654   6.894  -2.851  1.00  0.00    -0.014 A 
BRANCH  34  35
ATOM     35  C   UNL     1       3.019   7.696  -4.051  1.00  0.00     0.031 A 
ATOM     36  C   UNL     1       2.786   7.159  -5.442  1.00  0.00     0.074 A 
ATOM     37  C   UNL     1       3.457   8.960  -3.879  1.00  0.00     0.049 A 
ATOM     38  N   UNL     1       3.027   7.734  -6.593  1.00  0.00    -0.248 NA
ATOM     39  C   UNL     1       2.220   5.805  -5.564  1.00  0.00     0.031 C 
ATOM     40  C   UNL     1       3.705   9.597  -2.581  1.00  0.00     0.029 A 
ATOM     41  N   UNL     1       3.718   9.955  -4.785  1.00  0.00    -0.354 N 
ATOM     42  C   UNL     1       2.683   6.803  -7.568  1.00  0.00     0.074 A 
ATOM     43  C   UNL     1       2.229   5.617  -6.877  1.00  0.00     0.031 C 
ATOM     44  C   UNL     1       3.978  10.894  -2.769  1.00  0.00     0.029 A 
ATOM     45  C   UNL     1       4.026  11.162  -4.201  1.00  0.00     0.049 A 
ATOM     46  H   UNL     1       3.688   9.819  -5.760  1.00  0.00     0.167 HD
ATOM     47  C   UNL     1       2.732   6.931  -8.916  1.00  0.00     0.037 A 
ATOM     48  C   UNL     1       4.333  12.352  -4.751  1.00  0.00     0.037 A 
ATOM     49  C   UNL     1       3.135   8.135  -9.596  1.00  0.00     0.049 A 
ATOM     50  C   UNL     1       4.391  12.462  -6.245  1.00  0.00     0.074 A 
ATOM     51  C   UNL     1       3.213   8.369 -10.958  1.00  0.00     0.029 A 
ATOM     52  N   UNL     1       3.507   9.314  -8.967  1.00  0.00    -0.354 N 
ATOM     53  N   UNL     1       4.109  11.552  -7.147  1.00  0.00    -0.248 NA
ATOM     54  C   UNL     1       4.835  13.747  -6.798  1.00  0.00     0.031 C 
ATOM     55  C   UNL     1       3.661   9.679 -11.153  1.00  0.00     0.029 A 
ATOM     56  C   UNL     1       3.826  10.274  -9.912  1.00  0.00     0.049 A 
ATOM     57  H   UNL     1       3.540   9.449  -7.992  1.00  0.00     0.167 HD
ATOM     58  C   UNL     1       4.351  12.152  -8.375  1.00  0.00     0.074 A 
ATOM     59  C   UNL     1       4.770  13.512  -8.102  1.00  0.00     0.031 C 
ATOM     60  C   UNL     1       4.248  11.620  -9.617  1.00  0.00     0.037 A 
BRANCH  47  61
ATOM     61  C   UNL     1       2.352   5.743  -9.756  1.00  0.00     0.058 A 
ATOM     62  C   UNL     1       1.015   5.353  -9.923  1.00  0.00     0.135 A 
ATOM     63  C   UNL     1       3.335   5.029 -10.462  1.00  0.00     0.135 A 
ATOM     64  F   UNL     1       0.037   5.988  -9.257  1.00  0.00    -0.206 F 
ATOM     65  C   UNL     1       0.665   4.293 -10.755  1.00  0.00     0.059 A 
ATOM     66  C   UNL     1       3.007   3.979 -11.316  1.00  0.00     0.059 A 
ATOM     67  F   UNL     1       4.630   5.359 -10.336  1.00  0.00    -0.206 F 
ATOM     68  C   UNL     1       1.668   3.615 -11.451  1.00  0.00     0.060 A 
BRANCH  68  69
ATOM     69  S   UNL     1       1.192   2.262 -12.549  1.00  0.00     0.124 S 
ATOM     70  O   UNL     1       0.802   1.233 -11.590  1.00  0.00    -0.237 OA
ATOM     71  O   UNL     1       0.102   2.855 -13.318  1.00  0.00    -0.237 OA
ATOM     72  O   UNL     1       2.411   1.988 -13.302  1.00  0.00    -0.744 OA
ENDBRANCH  68  69
ENDBRANCH  47  61
BRANCH  48  73
ATOM     73  C   UNL     1       4.635  13.514  -3.876  1.00  0.00     0.058 A 
ATOM     74  C   UNL     1       3.758  14.605  -3.794  1.00  0.00     0.135 A 
ATOM     75  C   UNL     1       5.785  13.536  -3.071  1.00  0.00     0.135 A 
ATOM     76  F   UNL     1       2.649  14.633  -4.548  1.00  0.00    -0.206 F 
ATOM     77  C   UNL     1       4.010  15.677  -2.944  1.00  0.00     0.059 A 
ATOM     78  C   UNL     1       6.044  14.583  -2.194  1.00  0.00     0.059 A 
ATOM     79  F   UNL     1       6.648  12.508  -3.102  1.00  0.00    -0.206 F 
ATOM     80  C   UNL     1       5.153  15.653  -2.143  1.00  0.00     0.060 A 
BRANCH  80  81
ATOM     81  S   UNL     1       5.438  17.015  -0.992  1.00  0.00     0.124 S 
ATOM     82  O   UNL     1       5.887  18.070  -1.893  1.00  0.00    -0.237 OA
ATOM     83  O   UNL     1       4.117  17.200  -0.400  1.00  0.00    -0.237 OA
ATOM     84  O   UNL     1       6.452  16.482  -0.087  1.00  0.00    -0.744 OA
ENDBRANCH  80  81
ENDBRANCH  48  73
BRANCH  60  85
ATOM     85  C   UNL     1       4.597  12.510 -10.772  1.00  0.00     0.058 A 
ATOM     86  C   UNL     1       5.932  12.803 -11.087  1.00  0.00     0.135 A 
ATOM     87  C   UNL     1       3.592  13.031 -11.603  1.00  0.00     0.135 A 
ATOM     88  F   UNL     1       6.926  12.335 -10.316  1.00  0.00    -0.206 F 
ATOM     89  C   UNL     1       6.261  13.595 -12.180  1.00  0.00     0.059 A 
ATOM     90  C   UNL     1       3.899  13.808 -12.714  1.00  0.00     0.059 A 
ATOM     91  F   UNL     1       2.300  12.771 -11.345  1.00  0.00    -0.206 F 
ATOM     92  C   UNL     1       5.237  14.092 -12.989  1.00  0.00     0.060 A 
BRANCH  92  93
ATOM     93  S   UNL     1       5.680  15.088 -14.428  1.00  0.00     0.124 S 
ATOM     94  O   UNL     1       6.076  16.345 -13.803  1.00  0.00    -0.237 OA
ATOM     95  O   UNL     1       6.760  14.309 -15.026  1.00  0.00    -0.237 OA
ATOM     96  O   UNL     1       4.444  15.133 -15.204  1.00  0.00    -0.744 OA
ENDBRANCH  92  93
ENDBRANCH  60  85
ENDBRANCH  34  35
ENDBRANCH  26  29
ENDBRANCH  24  25
ENDBRANCH   1  24
TORSDOF 15
