REMARK SMILES O=C(CN1C(=O)c2ccccc2[C@@H]1O)NCCCNC(=O)c1ccc(-c2c3nc(c(-c4c(F)cc(S(=O)(=O)[O-])cc4F)c4ccc([nH]4)c(-c4c(F)cc(S(=O)(=O)[O-])cc4F)c4nc(c(-c5c(F)cc(S(=O)(=O)[O-])cc5F)c5ccc2[nH]5)C=C4)C=C3)cc1
REMARK SMILES IDX 17 1 16 2 15 3 1 4 2 5 3 7 4 8 5 9 13 10 6 11 7 12 12 13
REMARK SMILES IDX 8 14 11 15 9 16 10 17 14 18 18 20 19 21 20 22 21 24 22 25
REMARK SMILES IDX 23 26 87 27 24 28 86 29 25 30 26 31 27 32 80 33 28 34 85 35
REMARK SMILES IDX 79 36 81 37 29 38 84 39 78 40 77 41 30 43 64 44 43 45 63 46
REMARK SMILES IDX 44 47 47 48 62 49 82 50 45 51 46 52 61 54 83 55 48 56 31 57
REMARK SMILES IDX 32 58 41 59 33 60 34 61 40 62 42 63 35 64 36 65 37 66 38 67
REMARK SMILES IDX 39 68 65 69 66 70 75 71 67 72 68 73 74 74 76 75 69 76 70 77
REMARK SMILES IDX 71 78 72 79 73 80 49 81 50 82 59 83 51 84 52 85 58 86 60 87
REMARK SMILES IDX 53 88 54 89 55 90 56 91 57 92
REMARK H PARENT 15 6 14 19 19 23 81 42 47 53
REMARK Flexibility Score: inf
ROOT
ATOM      1  C   UNL     1       2.297   3.477   0.995  1.00  0.00     0.042 C 
ENDROOT
BRANCH   1   2
ATOM      2  C   UNL     1       1.893   2.493  -0.097  1.00  0.00     0.117 C 
BRANCH   2   3
ATOM      3  N   UNL     1       2.629   1.252  -0.010  1.00  0.00    -0.354 N 
ATOM      4  O   UNL     1       0.868  -0.232  -0.030  1.00  0.00    -0.273 OA
ATOM      5  C   UNL     1       2.074  -0.007  -0.008  1.00  0.00     0.239 C 
ATOM      6  H   UNL     1       3.609   1.313   0.053  1.00  0.00     0.163 HD
BRANCH   5   7
ATOM      7  C   UNL     1       3.128  -1.128   0.016  1.00  0.00     0.222 C 
BRANCH   7   8
ATOM      8  N   UNL     1       3.793  -1.323  -1.268  1.00  0.00    -0.299 N 
ATOM      9  C   UNL     1       4.516  -0.335  -1.919  1.00  0.00     0.257 C 
ATOM     10  C   UNL     1       4.224  -2.632  -1.695  1.00  0.00     0.247 C 
ATOM     11  O   UNL     1       4.609   0.847  -1.636  1.00  0.00    -0.269 OA
ATOM     12  C   UNL     1       5.216  -0.968  -3.032  1.00  0.00     0.047 A 
ATOM     13  C   UNL     1       5.060  -2.345  -2.898  1.00  0.00     0.014 A 
ATOM     14  C   UNL     1       5.921  -0.379  -4.062  1.00  0.00     0.014 A 
ATOM     15  C   UNL     1       5.664  -3.196  -3.806  1.00  0.00     0.009 A 
ATOM     16  C   UNL     1       6.513  -1.231  -4.992  1.00  0.00     0.001 A 
ATOM     17  C   UNL     1       6.394  -2.628  -4.859  1.00  0.00     0.001 A 
BRANCH  10  18
ATOM     18  O   UNL     1       3.094  -3.394  -2.025  1.00  0.00    -0.369 OA
ATOM     19  H   UNL     1       2.573  -2.927  -2.696  1.00  0.00     0.213 HD
ENDBRANCH  10  18
ENDBRANCH   7   8
ENDBRANCH   5   7
ENDBRANCH   2   3
ENDBRANCH   1   2
BRANCH   1  20
ATOM     20  C   UNL     1       3.792   3.788   1.084  1.00  0.00     0.118 C 
BRANCH  20  21
ATOM     21  N   UNL     1       4.315   4.494  -0.074  1.00  0.00    -0.352 N 
ATOM     22  C   UNL     1       5.011   5.678  -0.155  1.00  0.00     0.251 C 
ATOM     23  H   UNL     1       4.145   4.054  -0.939  1.00  0.00     0.163 HD
ATOM     24  O   UNL     1       5.244   6.161  -1.261  1.00  0.00    -0.269 OA
BRANCH  22  25
ATOM     25  C   UNL     1       5.465   6.393   1.065  1.00  0.00     0.039 A 
ATOM     26  C   UNL     1       5.402   7.790   1.085  1.00  0.00     0.014 A 
ATOM     27  C   UNL     1       5.998   5.717   2.166  1.00  0.00     0.014 A 
ATOM     28  C   UNL     1       5.823   8.497   2.217  1.00  0.00     0.010 A 
ATOM     29  C   UNL     1       6.335   6.417   3.327  1.00  0.00     0.010 A 
ATOM     30  C   UNL     1       6.267   7.817   3.364  1.00  0.00    -0.014 A 
BRANCH  30  31
ATOM     31  C   UNL     1       6.678   8.567   4.585  1.00  0.00     0.031 A 
ATOM     32  C   UNL     1       8.094   8.481   5.100  1.00  0.00     0.074 A 
ATOM     33  C   UNL     1       5.771   9.311   5.251  1.00  0.00     0.049 A 
ATOM     34  N   UNL     1       8.634   9.069   6.139  1.00  0.00    -0.248 NA
ATOM     35  C   UNL     1       9.019   7.603   4.367  1.00  0.00     0.031 C 
ATOM     36  C   UNL     1       4.356   9.439   4.894  1.00  0.00     0.029 A 
ATOM     37  N   UNL     1       5.901  10.104   6.366  1.00  0.00    -0.354 N 
ATOM     38  C   UNL     1       9.953   8.629   6.185  1.00  0.00     0.074 A 
ATOM     39  C   UNL     1      10.113   7.675   5.110  1.00  0.00     0.031 C 
ATOM     40  C   UNL     1       3.760  10.286   5.748  1.00  0.00     0.029 A 
ATOM     41  C   UNL     1       4.736  10.735   6.737  1.00  0.00     0.049 A 
ATOM     42  H   UNL     1       6.750  10.210   6.854  1.00  0.00     0.167 HD
ATOM     43  C   UNL     1      10.948   9.004   7.027  1.00  0.00     0.037 A 
ATOM     44  C   UNL     1       4.479  11.580   7.755  1.00  0.00     0.037 A 
ATOM     45  C   UNL     1      10.789   9.966   8.089  1.00  0.00     0.049 A 
ATOM     46  C   UNL     1       5.601  11.983   8.675  1.00  0.00     0.074 A 
ATOM     47  C   UNL     1      11.746  10.446   8.966  1.00  0.00     0.029 A 
ATOM     48  N   UNL     1       9.596  10.591   8.423  1.00  0.00    -0.354 N 
ATOM     49  N   UNL     1       6.857  11.604   8.664  1.00  0.00    -0.248 NA
ATOM     50  C   UNL     1       5.272  12.942   9.738  1.00  0.00     0.031 C 
ATOM     51  C   UNL     1      11.122  11.319   9.864  1.00  0.00     0.029 A 
ATOM     52  C   UNL     1       9.790  11.437   9.504  1.00  0.00     0.049 A 
ATOM     53  H   UNL     1       8.738  10.454   7.960  1.00  0.00     0.167 HD
ATOM     54  C   UNL     1       7.477  12.309   9.691  1.00  0.00     0.074 A 
ATOM     55  C   UNL     1       6.459  13.145  10.293  1.00  0.00     0.031 C 
ATOM     56  C   UNL     1       8.772  12.271  10.096  1.00  0.00     0.037 A 
BRANCH  43  57
ATOM     57  C   UNL     1      12.303   8.373   6.833  1.00  0.00     0.058 A 
ATOM     58  C   UNL     1      13.092   8.643   5.702  1.00  0.00     0.135 A 
ATOM     59  C   UNL     1      12.838   7.515   7.808  1.00  0.00     0.135 A 
ATOM     60  F   UNL     1      12.629   9.445   4.730  1.00  0.00    -0.206 F 
ATOM     61  C   UNL     1      14.344   8.062   5.530  1.00  0.00     0.059 A 
ATOM     62  C   UNL     1      14.103   6.949   7.673  1.00  0.00     0.059 A 
ATOM     63  F   UNL     1      12.132   7.220   8.911  1.00  0.00    -0.206 F 
ATOM     64  C   UNL     1      14.842   7.216   6.521  1.00  0.00     0.060 A 
BRANCH  64  65
ATOM     65  S   UNL     1      16.471   6.474   6.283  1.00  0.00     0.124 S 
ATOM     66  O   UNL     1      16.201   5.514   5.217  1.00  0.00    -0.237 OA
ATOM     67  O   UNL     1      17.285   7.625   5.907  1.00  0.00    -0.237 OA
ATOM     68  O   UNL     1      16.776   5.894   7.587  1.00  0.00    -0.744 OA
ENDBRANCH  64  65
ENDBRANCH  43  57
BRANCH  44  69
ATOM     69  C   UNL     1       3.107  12.130   7.940  1.00  0.00     0.058 A 
ATOM     70  C   UNL     1       2.834  13.490   7.725  1.00  0.00     0.135 A 
ATOM     71  C   UNL     1       2.042  11.307   8.337  1.00  0.00     0.135 A 
ATOM     72  F   UNL     1       3.820  14.320   7.351  1.00  0.00    -0.206 F 
ATOM     73  C   UNL     1       1.562  14.019   7.918  1.00  0.00     0.059 A 
ATOM     74  C   UNL     1       0.754  11.807   8.506  1.00  0.00     0.059 A 
ATOM     75  F   UNL     1       2.244   9.996   8.541  1.00  0.00    -0.206 F 
ATOM     76  C   UNL     1       0.527  13.168   8.306  1.00  0.00     0.060 A 
BRANCH  76  77
ATOM     77  S   UNL     1      -1.130  13.857   8.513  1.00  0.00     0.124 S 
ATOM     78  O   UNL     1      -0.972  14.640   9.733  1.00  0.00    -0.237 OA
ATOM     79  O   UNL     1      -1.298  14.621   7.281  1.00  0.00    -0.237 OA
ATOM     80  O   UNL     1      -1.974  12.672   8.628  1.00  0.00    -0.744 OA
ENDBRANCH  76  77
ENDBRANCH  44  69
BRANCH  56  81
ATOM     81  C   UNL     1       9.176  13.203  11.209  1.00  0.00     0.058 A 
ATOM     82  C   UNL     1       8.720  13.039  12.527  1.00  0.00     0.135 A 
ATOM     83  C   UNL     1      10.044  14.277  10.949  1.00  0.00     0.135 A 
ATOM     84  F   UNL     1       7.889  12.030  12.834  1.00  0.00    -0.206 F 
ATOM     85  C   UNL     1       9.065  13.936  13.534  1.00  0.00     0.059 A 
ATOM     86  C   UNL     1      10.432  15.164  11.948  1.00  0.00     0.059 A 
ATOM     87  F   UNL     1      10.526  14.474   9.711  1.00  0.00    -0.206 F 
ATOM     88  C   UNL     1       9.918  14.999  13.232  1.00  0.00     0.060 A 
BRANCH  88  89
ATOM     89  S   UNL     1      10.346  16.165  14.542  1.00  0.00     0.124 S 
ATOM     90  O   UNL     1       9.101  16.911  14.691  1.00  0.00    -0.237 OA
ATOM     91  O   UNL     1      10.690  15.278  15.649  1.00  0.00    -0.237 OA
ATOM     92  O   UNL     1      11.464  16.916  13.978  1.00  0.00    -0.744 OA
ENDBRANCH  88  89
ENDBRANCH  56  81
ENDBRANCH  30  31
ENDBRANCH  22  25
ENDBRANCH  20  21
ENDBRANCH   1  20
TORSDOF 15
