REMARK SMILES O=C(NCCCNC(=O)c1ccccc1-n1ccnn1)c1ccc(-c2c3nc(c(-c4c(F)cc(S(=O)(=O)[O-])cc4F)c4ccc([nH]4)c(-c4c(F)cc(S(=O)(=O)[O-])cc4F)c4nc(c(-c5c(F)cc(S(=O)(=O)[O-])cc5F)c5ccc2[nH]5)C=C4)C=C3)cc1
REMARK SMILES IDX 4 1 3 2 1 3 2 4 21 6 22 7 86 8 23 9 85 10 24 11 25 12 26 13
REMARK SMILES IDX 79 14 27 15 84 16 78 17 80 18 28 19 83 20 77 21 76 22 29 24
REMARK SMILES IDX 63 25 42 26 62 27 43 28 46 29 61 30 81 31 44 32 45 33 60 35
REMARK SMILES IDX 82 36 47 37 30 38 31 39 40 40 32 41 33 42 39 43 41 44 34 45
REMARK SMILES IDX 35 46 36 47 37 48 38 49 64 50 65 51 74 52 66 53 67 54 73 55
REMARK SMILES IDX 75 56 68 57 69 58 70 59 71 60 72 61 48 62 49 63 58 64 50 65
REMARK SMILES IDX 51 66 57 67 59 68 52 69 53 70 54 71 55 72 56 73 5 74 6 75
REMARK SMILES IDX 7 76 8 77 9 79 10 80 11 81 15 82 12 83 14 84 13 85 16 86
REMARK SMILES IDX 17 87 20 88 18 89 19 90
REMARK H PARENT 3 5 80 23 46 34 7 78
REMARK Flexibility Score: inf
ROOT
ATOM      1  C   UNL     1       4.744  -0.821   0.353  1.00  0.00     0.118 C 
ENDROOT
BRANCH   1   2
ATOM      2  N   UNL     1       3.320  -1.031   0.186  1.00  0.00    -0.352 N 
ATOM      3  O   UNL     1       1.206  -0.774  -0.382  1.00  0.00    -0.269 OA
ATOM      4  C   UNL     1       2.240  -0.213  -0.006  1.00  0.00     0.251 C 
ATOM      5  H   UNL     1       3.072  -1.983   0.219  1.00  0.00     0.163 HD
BRANCH   4   6
ATOM      6  C   UNL     1       2.204   1.248   0.273  1.00  0.00     0.039 A 
ATOM      7  C   UNL     1       3.310   2.066   0.504  1.00  0.00     0.014 A 
ATOM      8  C   UNL     1       0.919   1.822   0.345  1.00  0.00     0.014 A 
ATOM      9  C   UNL     1       3.137   3.395   0.891  1.00  0.00     0.010 A 
ATOM     10  C   UNL     1       0.741   3.151   0.714  1.00  0.00     0.010 A 
ATOM     11  C   UNL     1       1.853   3.929   1.023  1.00  0.00    -0.014 A 
BRANCH  11  12
ATOM     12  C   UNL     1       1.710   5.350   1.340  1.00  0.00     0.031 A 
ATOM     13  C   UNL     1       2.161   6.283   0.264  1.00  0.00     0.074 A 
ATOM     14  C   UNL     1       1.052   5.809   2.425  1.00  0.00     0.049 A 
ATOM     15  N   UNL     1       3.082   7.190   0.313  1.00  0.00    -0.248 NA
ATOM     16  C   UNL     1       1.569   6.112  -1.073  1.00  0.00     0.031 C 
ATOM     17  C   UNL     1       0.278   5.033   3.397  1.00  0.00     0.029 A 
ATOM     18  N   UNL     1       0.839   7.096   2.823  1.00  0.00    -0.354 N 
ATOM     19  C   UNL     1       3.054   7.839  -0.923  1.00  0.00     0.074 A 
ATOM     20  C   UNL     1       2.216   7.040  -1.779  1.00  0.00     0.031 C 
ATOM     21  C   UNL     1      -0.496   5.873   4.121  1.00  0.00     0.029 A 
ATOM     22  C   UNL     1      -0.183   7.245   3.755  1.00  0.00     0.049 A 
ATOM     23  H   UNL     1       1.364   7.856   2.480  1.00  0.00     0.167 HD
ATOM     24  C   UNL     1       3.558   9.092  -1.100  1.00  0.00     0.037 A 
ATOM     25  C   UNL     1      -0.778   8.405   4.137  1.00  0.00     0.037 A 
ATOM     26  C   UNL     1       4.429   9.469  -0.019  1.00  0.00     0.049 A 
ATOM     27  C   UNL     1       0.139   9.517   3.775  1.00  0.00     0.074 A 
ATOM     28  C   UNL     1       5.609   8.975   0.501  1.00  0.00     0.029 A 
ATOM     29  N   UNL     1       3.940  10.336   0.926  1.00  0.00    -0.354 N 
ATOM     30  N   UNL     1       1.298   9.725   4.335  1.00  0.00    -0.248 NA
ATOM     31  C   UNL     1      -0.051  10.158   2.483  1.00  0.00     0.031 C 
ATOM     32  C   UNL     1       5.507   9.183   1.907  1.00  0.00     0.029 A 
ATOM     33  C   UNL     1       4.297   9.835   2.151  1.00  0.00     0.049 A 
ATOM     34  H   UNL     1       3.430  11.161   0.757  1.00  0.00     0.167 HD
ATOM     35  C   UNL     1       2.121  10.148   3.301  1.00  0.00     0.074 A 
ATOM     36  C   UNL     1       1.213  10.487   2.208  1.00  0.00     0.031 C 
ATOM     37  C   UNL     1       3.467   9.925   3.331  1.00  0.00     0.037 A 
BRANCH  24  38
ATOM     38  C   UNL     1       3.008  10.115  -2.069  1.00  0.00     0.058 A 
ATOM     39  C   UNL     1       3.720  11.313  -2.294  1.00  0.00     0.135 A 
ATOM     40  C   UNL     1       1.681  10.098  -2.552  1.00  0.00     0.135 A 
ATOM     41  F   UNL     1       4.989  11.444  -1.876  1.00  0.00    -0.206 F 
ATOM     42  C   UNL     1       3.130  12.437  -2.875  1.00  0.00     0.059 A 
ATOM     43  C   UNL     1       1.091  11.187  -3.184  1.00  0.00     0.059 A 
ATOM     44  F   UNL     1       0.861   9.061  -2.343  1.00  0.00    -0.206 F 
ATOM     45  C   UNL     1       1.807  12.368  -3.299  1.00  0.00     0.060 A 
BRANCH  45  46
ATOM     46  S   UNL     1       1.004  13.851  -3.934  1.00  0.00     0.124 S 
ATOM     47  O   UNL     1       0.892  14.659  -2.726  1.00  0.00    -0.237 OA
ATOM     48  O   UNL     1       1.965  14.314  -4.928  1.00  0.00    -0.237 OA
ATOM     49  O   UNL     1      -0.254  13.344  -4.476  1.00  0.00    -0.744 OA
ENDBRANCH  45  46
ENDBRANCH  24  38
BRANCH  25  50
ATOM     50  C   UNL     1      -2.209   8.639   4.477  1.00  0.00     0.058 A 
ATOM     51  C   UNL     1      -2.634   9.835   5.085  1.00  0.00     0.135 A 
ATOM     52  C   UNL     1      -3.229   7.817   3.954  1.00  0.00     0.135 A 
ATOM     53  F   UNL     1      -1.733  10.693   5.588  1.00  0.00    -0.206 F 
ATOM     54  C   UNL     1      -3.982  10.215   5.130  1.00  0.00     0.059 A 
ATOM     55  C   UNL     1      -4.578   8.168   3.999  1.00  0.00     0.059 A 
ATOM     56  F   UNL     1      -2.938   6.687   3.295  1.00  0.00    -0.206 F 
ATOM     57  C   UNL     1      -4.946   9.382   4.564  1.00  0.00     0.060 A 
BRANCH  57  58
ATOM     58  S   UNL     1      -6.662   9.945   4.456  1.00  0.00     0.124 S 
ATOM     59  O   UNL     1      -7.083   9.903   5.852  1.00  0.00    -0.237 OA
ATOM     60  O   UNL     1      -6.516  11.275   3.874  1.00  0.00    -0.237 OA
ATOM     61  O   UNL     1      -7.290   8.954   3.585  1.00  0.00    -0.744 OA
ENDBRANCH  57  58
ENDBRANCH  25  50
BRANCH  37  62
ATOM     62  C   UNL     1       4.098   9.503   4.631  1.00  0.00     0.058 A 
ATOM     63  C   UNL     1       3.813   8.300   5.301  1.00  0.00     0.135 A 
ATOM     64  C   UNL     1       5.154  10.280   5.131  1.00  0.00     0.135 A 
ATOM     65  F   UNL     1       2.892   7.448   4.828  1.00  0.00    -0.206 F 
ATOM     66  C   UNL     1       4.521   7.908   6.438  1.00  0.00     0.059 A 
ATOM     67  C   UNL     1       5.894   9.893   6.244  1.00  0.00     0.059 A 
ATOM     68  F   UNL     1       5.516  11.410   4.500  1.00  0.00    -0.206 F 
ATOM     69  C   UNL     1       5.564   8.710   6.900  1.00  0.00     0.060 A 
BRANCH  69  70
ATOM     70  S   UNL     1       6.541   8.158   8.315  1.00  0.00     0.124 S 
ATOM     71  O   UNL     1       5.606   8.340   9.423  1.00  0.00    -0.237 OA
ATOM     72  O   UNL     1       6.847   6.771   7.968  1.00  0.00    -0.237 OA
ATOM     73  O   UNL     1       7.688   9.057   8.312  1.00  0.00    -0.744 OA
ENDBRANCH  69  70
ENDBRANCH  37  62
ENDBRANCH  11  12
ENDBRANCH   4   6
ENDBRANCH   1   2
BRANCH   1  74
ATOM     74  C   UNL     1       5.226  -0.551   1.778  1.00  0.00     0.042 C 
BRANCH  74  75
ATOM     75  C   UNL     1       4.792  -1.564   2.831  1.00  0.00     0.118 C 
BRANCH  75  76
ATOM     76  N   UNL     1       5.209  -2.932   2.551  1.00  0.00    -0.352 N 
ATOM     77  C   UNL     1       5.644  -3.923   3.400  1.00  0.00     0.253 C 
ATOM     78  H   UNL     1       5.173  -3.188   1.601  1.00  0.00     0.163 HD
ATOM     79  O   UNL     1       5.895  -5.036   2.957  1.00  0.00    -0.269 OA
BRANCH  77  80
ATOM     80  C   UNL     1       5.857  -3.662   4.843  1.00  0.00     0.065 A 
ATOM     81  C   UNL     1       7.166  -3.898   5.301  1.00  0.00     0.016 A 
ATOM     82  C   UNL     1       4.893  -3.166   5.733  1.00  0.00     0.079 A 
ATOM     83  C   UNL     1       7.528  -3.588   6.612  1.00  0.00     0.001 A 
ATOM     84  C   UNL     1       5.283  -2.802   7.036  1.00  0.00     0.029 A 
ATOM     85  C   UNL     1       6.592  -3.021   7.472  1.00  0.00     0.002 A 
BRANCH  82  86
ATOM     86  N   UNL     1       3.529  -3.026   5.385  1.00  0.00    -0.220 N 
ATOM     87  C   UNL     1       2.781  -3.715   4.457  1.00  0.00     0.137 A 
ATOM     88  N   UNL     1       2.743  -2.102   5.989  1.00  0.00    -0.062 NA
ATOM     89  C   UNL     1       1.580  -3.052   4.420  1.00  0.00     0.157 A 
ATOM     90  N   UNL     1       1.577  -2.067   5.357  1.00  0.00    -0.139 NA
ENDBRANCH  82  86
ENDBRANCH  77  80
ENDBRANCH  75  76
ENDBRANCH  74  75
ENDBRANCH   1  74
TORSDOF 14
