REMARK SMILES O=C(NCCCNC(=O)[C@H](Cc1ccc(O)cc1)NC(=O)c1ccc(Cl)s1)c1ccc(-c2c3nc(c(-c4c(F)cc(S(=O)(=O)[O-])cc4F)c4ccc([nH]4)c(-c4c(F)cc(S(=O)(=O)[O-])cc4F)c4nc(c(-c5c(F)cc(S(=O)(=O)[O-])cc5F)c5ccc2[nH]5)C=C4)C=C3)cc1
REMARK SMILES IDX 5 1 4 2 3 3 1 4 2 5 28 7 29 8 93 9 30 10 92 11 31 12 32 13
REMARK SMILES IDX 33 14 86 15 34 16 91 17 85 18 87 19 35 20 90 21 84 22 83 23
REMARK SMILES IDX 36 25 70 26 49 27 69 28 50 29 53 30 68 31 88 32 51 33 52 34
REMARK SMILES IDX 67 36 89 37 54 38 37 39 38 40 47 41 39 42 40 43 46 44 48 45
REMARK SMILES IDX 41 46 42 47 43 48 44 49 45 50 71 51 72 52 81 53 73 54 74 55
REMARK SMILES IDX 80 56 82 57 75 58 76 59 77 60 78 61 79 62 55 63 56 64 65 65
REMARK SMILES IDX 57 66 58 67 64 68 66 69 59 70 60 71 61 72 62 73 63 74 6 75
REMARK SMILES IDX 7 76 8 77 9 79 10 80 19 81 20 82 21 84 22 85 23 86 27 87
REMARK SMILES IDX 24 88 25 89 26 90 11 91 12 92 13 93 18 94 14 95 17 96 15 97
REMARK SMILES IDX 16 98
REMARK H PARENT 3 6 87 24 53 35 7 78 19 83 16 99
REMARK Flexibility Score: inf
ROOT
ATOM      1  C   UNL     1       9.393   4.695  -5.269  1.00  0.00     0.042 C 
ENDROOT
BRANCH   1   2
ATOM      2  C   UNL     1      10.869   4.382  -5.434  1.00  0.00     0.118 C 
BRANCH   2   3
ATOM      3  N   UNL     1      11.426   5.010  -6.630  1.00  0.00    -0.352 N 
ATOM      4  O   UNL     1      12.092   6.597  -8.055  1.00  0.00    -0.269 OA
ATOM      5  C   UNL     1      11.914   6.274  -6.881  1.00  0.00     0.251 C 
ATOM      6  H   UNL     1      11.460   4.411  -7.411  1.00  0.00     0.163 HD
BRANCH   5   7
ATOM      7  C   UNL     1      12.205   7.252  -5.800  1.00  0.00     0.039 A 
ATOM      8  C   UNL     1      12.547   6.839  -4.519  1.00  0.00     0.014 A 
ATOM      9  C   UNL     1      12.235   8.626  -6.084  1.00  0.00     0.014 A 
ATOM     10  C   UNL     1      12.716   7.757  -3.495  1.00  0.00     0.010 A 
ATOM     11  C   UNL     1      12.595   9.553  -5.090  1.00  0.00     0.010 A 
ATOM     12  C   UNL     1      12.831   9.124  -3.777  1.00  0.00    -0.014 A 
BRANCH  12  13
ATOM     13  C   UNL     1      13.342  10.005  -2.689  1.00  0.00     0.031 A 
ATOM     14  C   UNL     1      12.548  11.167  -2.168  1.00  0.00     0.074 A 
ATOM     15  C   UNL     1      14.516   9.669  -2.107  1.00  0.00     0.049 A 
ATOM     16  N   UNL     1      12.823  11.958  -1.163  1.00  0.00    -0.248 NA
ATOM     17  C   UNL     1      11.292  11.495  -2.860  1.00  0.00     0.031 C 
ATOM     18  C   UNL     1      15.394   8.579  -2.552  1.00  0.00     0.029 A 
ATOM     19  N   UNL     1      15.153  10.160  -0.996  1.00  0.00    -0.354 N 
ATOM     20  C   UNL     1      11.788  12.883  -1.105  1.00  0.00     0.074 A 
ATOM     21  C   UNL     1      10.889  12.572  -2.196  1.00  0.00     0.031 C 
ATOM     22  C   UNL     1      16.391   8.420  -1.673  1.00  0.00     0.029 A 
ATOM     23  C   UNL     1      16.292   9.461  -0.661  1.00  0.00     0.049 A 
ATOM     24  H   UNL     1      14.827  10.936  -0.486  1.00  0.00     0.167 HD
ATOM     25  C   UNL     1      11.607  13.892  -0.219  1.00  0.00     0.037 A 
ATOM     26  C   UNL     1      17.181   9.647   0.333  1.00  0.00     0.037 A 
ATOM     27  C   UNL     1      12.513  14.191   0.864  1.00  0.00     0.049 A 
ATOM     28  C   UNL     1      16.955  10.779   1.290  1.00  0.00     0.074 A 
ATOM     29  C   UNL     1      12.418  15.195   1.813  1.00  0.00     0.029 A 
ATOM     30  N   UNL     1      13.677  13.489   1.146  1.00  0.00    -0.354 N 
ATOM     31  N   UNL     1      15.963  11.637   1.327  1.00  0.00    -0.248 NA
ATOM     32  C   UNL     1      17.969  10.979   2.331  1.00  0.00     0.031 C 
ATOM     33  C   UNL     1      13.543  15.127   2.641  1.00  0.00     0.029 A 
ATOM     34  C   UNL     1      14.315  14.047   2.244  1.00  0.00     0.049 A 
ATOM     35  H   UNL     1      14.002  12.709   0.641  1.00  0.00     0.167 HD
ATOM     36  C   UNL     1      16.233  12.479   2.397  1.00  0.00     0.074 A 
ATOM     37  C   UNL     1      17.459  12.000   3.005  1.00  0.00     0.031 C 
ATOM     38  C   UNL     1      15.540  13.561   2.829  1.00  0.00     0.037 A 
BRANCH  25  39
ATOM     39  C   UNL     1      10.388  14.761  -0.381  1.00  0.00     0.058 A 
ATOM     40  C   UNL     1       9.102  14.290  -0.076  1.00  0.00     0.135 A 
ATOM     41  C   UNL     1      10.514  16.102  -0.781  1.00  0.00     0.135 A 
ATOM     42  F   UNL     1       8.921  13.011   0.289  1.00  0.00    -0.206 F 
ATOM     43  C   UNL     1       7.983  15.112  -0.169  1.00  0.00     0.059 A 
ATOM     44  C   UNL     1       9.412  16.950  -0.857  1.00  0.00     0.059 A 
ATOM     45  F   UNL     1      11.720  16.605  -1.090  1.00  0.00    -0.206 F 
ATOM     46  C   UNL     1       8.149  16.444  -0.555  1.00  0.00     0.060 A 
BRANCH  46  47
ATOM     47  S   UNL     1       6.691  17.505  -0.640  1.00  0.00     0.124 S 
ATOM     48  O   UNL     1       6.005  16.965  -1.810  1.00  0.00    -0.237 OA
ATOM     49  O   UNL     1       6.047  17.252   0.645  1.00  0.00    -0.237 OA
ATOM     50  O   UNL     1       7.251  18.842  -0.805  1.00  0.00    -0.744 OA
ENDBRANCH  46  47
ENDBRANCH  25  39
BRANCH  26  51
ATOM     51  C   UNL     1      18.385   8.777   0.433  1.00  0.00     0.058 A 
ATOM     52  C   UNL     1      18.585   7.919   1.523  1.00  0.00     0.135 A 
ATOM     53  C   UNL     1      19.368   8.793  -0.572  1.00  0.00     0.135 A 
ATOM     54  F   UNL     1      17.679   7.866   2.512  1.00  0.00    -0.206 F 
ATOM     55  C   UNL     1      19.726   7.128   1.629  1.00  0.00     0.059 A 
ATOM     56  C   UNL     1      20.497   7.985  -0.507  1.00  0.00     0.059 A 
ATOM     57  F   UNL     1      19.218   9.581  -1.648  1.00  0.00    -0.206 F 
ATOM     58  C   UNL     1      20.677   7.170   0.608  1.00  0.00     0.060 A 
BRANCH  58  59
ATOM     59  S   UNL     1      22.144   6.126   0.737  1.00  0.00     0.124 S 
ATOM     60  O   UNL     1      22.923   6.841   1.741  1.00  0.00    -0.237 OA
ATOM     61  O   UNL     1      21.577   4.848   1.156  1.00  0.00    -0.237 OA
ATOM     62  O   UNL     1      22.688   6.146  -0.618  1.00  0.00    -0.744 OA
ENDBRANCH  58  59
ENDBRANCH  26  51
BRANCH  38  63
ATOM     63  C   UNL     1      16.092  14.281   4.028  1.00  0.00     0.058 A 
ATOM     64  C   UNL     1      17.272  15.038   3.952  1.00  0.00     0.135 A 
ATOM     65  C   UNL     1      15.435  14.210   5.266  1.00  0.00     0.135 A 
ATOM     66  F   UNL     1      17.944  15.130   2.793  1.00  0.00    -0.206 F 
ATOM     67  C   UNL     1      17.806  15.662   5.074  1.00  0.00     0.059 A 
ATOM     68  C   UNL     1      15.934  14.854   6.393  1.00  0.00     0.059 A 
ATOM     69  F   UNL     1      14.297  13.508   5.390  1.00  0.00    -0.206 F 
ATOM     70  C   UNL     1      17.131  15.560   6.291  1.00  0.00     0.060 A 
BRANCH  70  71
ATOM     71  S   UNL     1      17.837  16.371   7.741  1.00  0.00     0.124 S 
ATOM     72  O   UNL     1      18.956  15.488   8.055  1.00  0.00    -0.237 OA
ATOM     73  O   UNL     1      18.195  17.687   7.220  1.00  0.00    -0.237 OA
ATOM     74  O   UNL     1      16.740  16.361   8.703  1.00  0.00    -0.744 OA
ENDBRANCH  70  71
ENDBRANCH  38  63
ENDBRANCH  12  13
ENDBRANCH   5   7
ENDBRANCH   2   3
ENDBRANCH   1   2
BRANCH   1  75
ATOM     75  C   UNL     1       8.547   3.755  -6.110  1.00  0.00     0.117 C 
BRANCH  75  76
ATOM     76  N   UNL     1       7.883   2.739  -5.316  1.00  0.00    -0.354 N 
ATOM     77  C   UNL     1       6.647   2.784  -4.728  1.00  0.00     0.242 C 
ATOM     78  H   UNL     1       8.389   1.906  -5.181  1.00  0.00     0.163 HD
ATOM     79  O   UNL     1       6.222   1.760  -4.186  1.00  0.00    -0.273 OA
BRANCH  77  80
ATOM     80  C   UNL     1       5.784   4.057  -4.846  1.00  0.00     0.176 C 
BRANCH  80  81
ATOM     81  N   UNL     1       4.600   3.705  -5.646  1.00  0.00    -0.339 N 
ATOM     82  C   UNL     1       4.292   4.106  -6.924  1.00  0.00     0.262 C 
ATOM     83  H   UNL     1       3.948   3.108  -5.213  1.00  0.00     0.164 HD
ATOM     84  O   UNL     1       3.314   3.603  -7.486  1.00  0.00    -0.268 OA
BRANCH  82  85
ATOM     85  C   UNL     1       5.169   5.053  -7.575  1.00  0.00     0.093 A 
ATOM     86  C   UNL     1       6.160   4.796  -8.506  1.00  0.00     0.027 A 
ATOM     87  S   UNL     1       5.051   6.727  -7.223  1.00  0.00    -0.118 S 
ATOM     88  C   UNL     1       6.929   5.964  -8.803  1.00  0.00     0.033 A 
ATOM     89  C   UNL     1       6.424   7.062  -8.156  1.00  0.00     0.094 A 
ATOM     90  Cl  UNL     1       7.058   8.656  -8.205  1.00  0.00    -0.072 Cl
ENDBRANCH  82  85
ENDBRANCH  80  81
BRANCH  80  91
ATOM     91  C   UNL     1       5.383   4.588  -3.454  1.00  0.00     0.070 C 
BRANCH  91  92
ATOM     92  C   UNL     1       6.191   5.749  -2.892  1.00  0.00    -0.045 A 
ATOM     93  C   UNL     1       6.998   6.600  -3.663  1.00  0.00     0.007 A 
ATOM     94  C   UNL     1       6.078   6.028  -1.520  1.00  0.00     0.007 A 
ATOM     95  C   UNL     1       7.748   7.625  -3.079  1.00  0.00     0.046 A 
ATOM     96  C   UNL     1       6.802   7.072  -0.937  1.00  0.00     0.046 A 
ATOM     97  C   UNL     1       7.651   7.845  -1.715  1.00  0.00     0.115 A 
BRANCH  97  98
ATOM     98  O   UNL     1       8.372   8.816  -1.094  1.00  0.00    -0.508 OA
ATOM     99  H   UNL     1       8.956   9.356  -1.590  1.00  0.00     0.293 HD
ENDBRANCH  97  98
ENDBRANCH  91  92
ENDBRANCH  80  91
ENDBRANCH  77  80
ENDBRANCH  75  76
ENDBRANCH   1  75
TORSDOF 18
