REMARK SMILES C[C@H](O)[C@H](C)[NH2+]C1(C(=O)NCCCNC(=O)c2ccc(-c3c4nc(c(-c5c(F)cc(S(=O)(=O)[O-])cc5F)c5ccc([nH]5)c(-c5c(F)cc(S(=O)(=O)[O-])cc5F)c5nc(c(-c6c(F)cc(S(=O)(=O)[O-])cc6F)c6ccc3[nH]6)C=C5)C=C4)cc2)CC1
REMARK SMILES IDX 11 1 10 2 8 3 9 4 7 6 83 7 84 8 6 9 4 12 5 13 2 14 1 15 3 16
REMARK SMILES IDX 12 18 13 19 14 20 15 21 16 23 17 24 18 25 82 26 19 27 81 28
REMARK SMILES IDX 20 29 21 30 22 31 75 32 23 33 80 34 74 35 76 36 24 37 79 38
REMARK SMILES IDX 73 39 72 40 25 42 59 43 38 44 58 45 39 46 42 47 57 48 77 49
REMARK SMILES IDX 40 50 41 51 56 53 78 54 43 55 26 56 27 57 36 58 28 59 29 60
REMARK SMILES IDX 35 61 37 62 30 63 31 64 32 65 33 66 34 67 60 68 61 69 70 70
REMARK SMILES IDX 62 71 63 72 69 73 71 74 64 75 65 76 66 77 67 78 68 79 44 80
REMARK SMILES IDX 45 81 54 82 46 83 47 84 53 85 55 86 48 87 49 88 50 89 51 90
REMARK SMILES IDX 52 91
REMARK H PARENT 10 5 6 10 6 11 3 17 14 22 76 41 42 52
REMARK Flexibility Score: inf
ROOT
ATOM      1  C   UNL     1      -5.752   2.234   3.355  1.00  0.00     0.118 C 
ENDROOT
BRANCH   1   2
ATOM      2  N   UNL     1      -4.390   2.200   3.848  1.00  0.00    -0.351 N 
ATOM      3  C   UNL     1      -3.169   2.043   3.255  1.00  0.00     0.281 C 
ATOM      4  O   UNL     1      -2.197   1.981   4.017  1.00  0.00    -0.268 OA
ATOM      5  H   UNL     1      -4.331   2.316   4.824  1.00  0.00     0.163 HD
BRANCH   3   6
ATOM      6  C   UNL     1      -2.905   2.031   1.748  1.00  0.00     0.176 C 
ATOM      7  C   UNL     1      -3.630   3.057   0.887  1.00  0.00     0.086 C 
ATOM      8  C   UNL     1      -3.888   1.597   0.688  1.00  0.00     0.086 C 
BRANCH   6   9
ATOM      9  N   UNL     1      -1.429   1.958   1.494  1.00  0.00    -0.329 N 
ATOM     10  H   UNL     1      -1.179   2.775   0.937  1.00  0.00     0.347 HD
ATOM     11  H   UNL     1      -1.018   1.905   2.426  1.00  0.00     0.347 HD
BRANCH   9  12
ATOM     12  C   UNL     1      -0.892   0.776   0.796  1.00  0.00     0.208 C 
ATOM     13  C   UNL     1       0.622   1.058   0.724  1.00  0.00     0.078 C 
BRANCH  12  14
ATOM     14  C   UNL     1      -1.143  -0.616   1.456  1.00  0.00     0.169 C 
ATOM     15  C   UNL     1      -0.676  -1.778   0.568  1.00  0.00     0.045 C 
BRANCH  14  16
ATOM     16  O   UNL     1      -2.526  -0.851   1.737  1.00  0.00    -0.387 OA
ATOM     17  H   UNL     1      -3.025  -0.877   0.905  1.00  0.00     0.211 HD
ENDBRANCH  14  16
ENDBRANCH  12  14
ENDBRANCH   9  12
ENDBRANCH   6   9
ENDBRANCH   3   6
ENDBRANCH   1   2
BRANCH   1  18
ATOM     18  C   UNL     1      -6.494   0.945   3.686  1.00  0.00     0.042 C 
BRANCH  18  19
ATOM     19  C   UNL     1      -6.684   0.718   5.183  1.00  0.00     0.118 C 
BRANCH  19  20
ATOM     20  N   UNL     1      -7.480   1.768   5.810  1.00  0.00    -0.352 N 
ATOM     21  C   UNL     1      -8.705   1.702   6.422  1.00  0.00     0.251 C 
ATOM     22  H   UNL     1      -7.073   2.664   5.790  1.00  0.00     0.163 HD
ATOM     23  O   UNL     1      -9.305   2.745   6.685  1.00  0.00    -0.269 OA
BRANCH  21  24
ATOM     24  C   UNL     1      -9.309   0.396   6.756  1.00  0.00     0.039 A 
ATOM     25  C   UNL     1     -10.680   0.211   6.559  1.00  0.00     0.014 A 
ATOM     26  C   UNL     1      -8.534  -0.636   7.292  1.00  0.00     0.014 A 
ATOM     27  C   UNL     1     -11.260  -1.028   6.844  1.00  0.00     0.010 A 
ATOM     28  C   UNL     1      -9.095  -1.893   7.494  1.00  0.00     0.010 A 
ATOM     29  C   UNL     1     -10.466  -2.100   7.283  1.00  0.00    -0.014 A 
BRANCH  29  30
ATOM     30  C   UNL     1     -11.051  -3.441   7.542  1.00  0.00     0.031 A 
ATOM     31  C   UNL     1     -11.004  -4.029   8.927  1.00  0.00     0.074 A 
ATOM     32  C   UNL     1     -11.564  -4.154   6.520  1.00  0.00     0.049 A 
ATOM     33  N   UNL     1     -11.391  -5.210   9.337  1.00  0.00    -0.248 NA
ATOM     34  C   UNL     1     -10.418  -3.191   9.986  1.00  0.00     0.031 C 
ATOM     35  C   UNL     1     -11.624  -3.711   5.125  1.00  0.00     0.029 A 
ATOM     36  N   UNL     1     -12.123  -5.407   6.493  1.00  0.00    -0.354 N 
ATOM     37  C   UNL     1     -11.082  -5.261  10.692  1.00  0.00     0.074 A 
ATOM     38  C   UNL     1     -10.424  -4.016  11.021  1.00  0.00     0.031 C 
ATOM     39  C   UNL     1     -12.207  -4.667   4.384  1.00  0.00     0.029 A 
ATOM     40  C   UNL     1     -12.525  -5.806   5.239  1.00  0.00     0.049 A 
ATOM     41  H   UNL     1     -12.227  -5.968   7.295  1.00  0.00     0.167 HD
ATOM     42  C   UNL     1     -11.345  -6.245  11.585  1.00  0.00     0.037 A 
ATOM     43  C   UNL     1     -13.078  -6.962   4.824  1.00  0.00     0.037 A 
ATOM     44  C   UNL     1     -12.021  -7.472  11.251  1.00  0.00     0.049 A 
ATOM     45  C   UNL     1     -13.358  -8.043   5.833  1.00  0.00     0.074 A 
ATOM     46  C   UNL     1     -12.384  -8.510  12.092  1.00  0.00     0.029 A 
ATOM     47  N   UNL     1     -12.433  -7.830   9.975  1.00  0.00    -0.354 N 
ATOM     48  N   UNL     1     -13.115  -8.050   7.122  1.00  0.00    -0.248 NA
ATOM     49  C   UNL     1     -13.995  -9.269   5.334  1.00  0.00     0.031 C 
ATOM     50  C   UNL     1     -12.970  -9.516  11.316  1.00  0.00     0.029 A 
ATOM     51  C   UNL     1     -13.028  -9.080  10.002  1.00  0.00     0.049 A 
ATOM     52  H   UNL     1     -12.320  -7.276   9.169  1.00  0.00     0.167 HD
ATOM     53  C   UNL     1     -13.600  -9.266   7.594  1.00  0.00     0.074 A 
ATOM     54  C   UNL     1     -14.158  -9.962   6.453  1.00  0.00     0.031 C 
ATOM     55  C   UNL     1     -13.589  -9.758   8.858  1.00  0.00     0.037 A 
BRANCH  42  56
ATOM     56  C   UNL     1     -10.900  -6.034  13.008  1.00  0.00     0.058 A 
ATOM     57  C   UNL     1     -11.498  -5.068  13.834  1.00  0.00     0.135 A 
ATOM     58  C   UNL     1      -9.883  -6.827  13.563  1.00  0.00     0.135 A 
ATOM     59  F   UNL     1     -12.466  -4.271  13.353  1.00  0.00    -0.206 F 
ATOM     60  C   UNL     1     -11.078  -4.870  15.145  1.00  0.00     0.059 A 
ATOM     61  C   UNL     1      -9.469  -6.669  14.883  1.00  0.00     0.059 A 
ATOM     62  F   UNL     1      -9.277  -7.767  12.821  1.00  0.00    -0.206 F 
ATOM     63  C   UNL     1     -10.062  -5.676  15.661  1.00  0.00     0.060 A 
BRANCH  63  64
ATOM     64  S   UNL     1      -9.530  -5.406  17.365  1.00  0.00     0.124 S 
ATOM     65  O   UNL     1      -8.810  -4.141  17.248  1.00  0.00    -0.237 OA
ATOM     66  O   UNL     1     -10.799  -5.348  18.082  1.00  0.00    -0.237 OA
ATOM     67  O   UNL     1      -8.703  -6.573  17.653  1.00  0.00    -0.744 OA
ENDBRANCH  63  64
ENDBRANCH  42  56
BRANCH  43  68
ATOM     68  C   UNL     1     -13.425  -7.145   3.388  1.00  0.00     0.058 A 
ATOM     69  C   UNL     1     -14.763  -7.188   2.969  1.00  0.00     0.135 A 
ATOM     70  C   UNL     1     -12.429  -7.263   2.406  1.00  0.00     0.135 A 
ATOM     71  F   UNL     1     -15.752  -7.086   3.870  1.00  0.00    -0.206 F 
ATOM     72  C   UNL     1     -15.103  -7.357   1.630  1.00  0.00     0.059 A 
ATOM     73  C   UNL     1     -12.743  -7.404   1.058  1.00  0.00     0.059 A 
ATOM     74  F   UNL     1     -11.133  -7.210   2.752  1.00  0.00    -0.206 F 
ATOM     75  C   UNL     1     -14.084  -7.460   0.681  1.00  0.00     0.060 A 
BRANCH  75  76
ATOM     76  S   UNL     1     -14.537  -7.626  -1.059  1.00  0.00     0.124 S 
ATOM     77  O   UNL     1     -15.047  -8.992  -1.101  1.00  0.00    -0.237 OA
ATOM     78  O   UNL     1     -15.530  -6.568  -1.219  1.00  0.00    -0.237 OA
ATOM     79  O   UNL     1     -13.275  -7.401  -1.758  1.00  0.00    -0.744 OA
ENDBRANCH  75  76
ENDBRANCH  43  68
BRANCH  55  80
ATOM     80  C   UNL     1     -14.240 -11.094   9.089  1.00  0.00     0.058 A 
ATOM     81  C   UNL     1     -13.665 -12.290   8.634  1.00  0.00     0.135 A 
ATOM     82  C   UNL     1     -15.435 -11.180   9.823  1.00  0.00     0.135 A 
ATOM     83  F   UNL     1     -12.526 -12.265   7.922  1.00  0.00    -0.206 F 
ATOM     84  C   UNL     1     -14.264 -13.523   8.875  1.00  0.00     0.059 A 
ATOM     85  C   UNL     1     -16.035 -12.403  10.103  1.00  0.00     0.059 A 
ATOM     86  F   UNL     1     -16.023 -10.068  10.292  1.00  0.00    -0.206 F 
ATOM     87  C   UNL     1     -15.448 -13.569   9.613  1.00  0.00     0.060 A 
BRANCH  87  88
ATOM     88  S   UNL     1     -16.199 -15.177   9.946  1.00  0.00     0.124 S 
ATOM     89  O   UNL     1     -16.738 -15.526   8.636  1.00  0.00    -0.237 OA
ATOM     90  O   UNL     1     -15.057 -15.968  10.393  1.00  0.00    -0.237 OA
ATOM     91  O   UNL     1     -17.192 -14.883  10.975  1.00  0.00    -0.744 OA
ENDBRANCH  87  88
ENDBRANCH  55  80
ENDBRANCH  29  30
ENDBRANCH  21  24
ENDBRANCH  19  20
ENDBRANCH  18  19
ENDBRANCH   1  18
TORSDOF 17
