REMARK SMILES C[C@H]1C[N@H+]2CCC[C@@H]2CN1c1cc(Cl)ccc1C(=O)NCCCNC(=O)c1ccc(-c2c3nc(c(-c4c(F)cc(S(=O)(=O)[O-])cc4F)c4ccc([nH]4)c(-c4c(F)cc(S(=O)(=O)[O-])cc4F)c4nc(c(-c5c(F)cc(S(=O)(=O)[O-])cc5F)c5ccc2[nH]5)C=C4)C=C3)cc1
REMARK SMILES IDX 23 1 22 2 21 3 20 4 18 5 19 6 17 8 11 9 12 10 13 11 16 12
REMARK SMILES IDX 14 13 15 14 10 15 1 16 2 17 3 18 4 19 9 20 5 21 8 22 6 24
REMARK SMILES IDX 7 25 24 26 25 27 26 29 27 30 28 31 92 32 29 33 91 34 30 35
REMARK SMILES IDX 31 36 32 37 85 38 33 39 90 40 84 41 86 42 34 43 89 44 83 45
REMARK SMILES IDX 82 46 35 48 69 49 48 50 68 51 49 52 52 53 67 54 87 55 50 56
REMARK SMILES IDX 51 57 66 59 88 60 53 61 36 62 37 63 46 64 38 65 39 66 45 67
REMARK SMILES IDX 47 68 40 69 41 70 42 71 43 72 44 73 70 74 71 75 80 76 72 77
REMARK SMILES IDX 73 78 79 79 81 80 74 81 75 82 76 83 77 84 78 85 54 86 55 87
REMARK SMILES IDX 64 88 56 89 57 90 63 91 65 92 58 93 59 94 60 95 61 96 62 97
REMARK H PARENT 20 7 4 23 24 28 86 47 52 58
REMARK Flexibility Score: inf
ROOT
ATOM      1  C   UNL     1       5.062   0.880  -2.992  1.00  0.00     0.118 C 
ENDROOT
BRANCH   1   2
ATOM      2  C   UNL     1       4.013   0.402  -2.001  1.00  0.00     0.042 C 
BRANCH   2   3
ATOM      3  C   UNL     1       3.470  -0.983  -2.286  1.00  0.00     0.118 C 
BRANCH   3   4
ATOM      4  N   UNL     1       4.030  -2.086  -1.562  1.00  0.00    -0.352 N 
ATOM      5  C   UNL     1       3.391  -3.276  -1.277  1.00  0.00     0.253 C 
ATOM      6  O   UNL     1       4.090  -4.291  -1.390  1.00  0.00    -0.269 OA
ATOM      7  H   UNL     1       4.954  -1.985  -1.238  1.00  0.00     0.163 HD
BRANCH   5   8
ATOM      8  C   UNL     1       2.019  -3.432  -0.656  1.00  0.00     0.063 A 
ATOM      9  C   UNL     1       0.768  -2.818  -0.941  1.00  0.00     0.052 A 
ATOM     10  C   UNL     1      -0.361  -3.240  -0.189  1.00  0.00     0.047 A 
ATOM     11  C   UNL     1      -0.276  -4.192   0.824  1.00  0.00     0.043 A 
ATOM     12  C   UNL     1       2.062  -4.406   0.381  1.00  0.00     0.017 A 
ATOM     13  Cl  UNL     1      -1.681  -4.639   1.709  1.00  0.00    -0.084 Cl
ATOM     14  C   UNL     1       0.938  -4.779   1.117  1.00  0.00     0.021 A 
BRANCH   9  15
ATOM     15  N   UNL     1       0.543  -1.839  -1.911  1.00  0.00    -0.357 N 
ATOM     16  C   UNL     1       0.275   0.027  -0.240  1.00  0.00     0.037 C 
ATOM     17  C   UNL     1      -0.210  -0.580  -1.568  1.00  0.00     0.134 C 
ATOM     18  C   UNL     1      -0.042   0.523  -2.677  1.00  0.00     0.287 C 
ATOM     19  N   UNL     1      -0.186   0.022  -4.051  1.00  0.00    -0.329 N 
ATOM     20  C   UNL     1       0.369  -2.309  -3.308  1.00  0.00     0.182 C 
ATOM     21  C   UNL     1       0.252   0.975  -5.078  1.00  0.00     0.262 C 
ATOM     22  C   UNL     1       0.694  -1.142  -4.251  1.00  0.00     0.203 C 
ATOM     23  H   UNL     1      -1.181  -0.179  -4.151  1.00  0.00     0.348 HD
ATOM     24  C   UNL     1       0.672   0.084  -6.256  1.00  0.00     0.068 C 
ATOM     25  C   UNL     1       0.563  -1.353  -5.741  1.00  0.00     0.073 C 
ENDBRANCH   9  15
ENDBRANCH   5   8
ENDBRANCH   3   4
ENDBRANCH   2   3
ENDBRANCH   1   2
BRANCH   1  26
ATOM     26  N   UNL     1       4.619   0.904  -4.386  1.00  0.00    -0.352 N 
ATOM     27  C   UNL     1       4.129   1.873  -5.227  1.00  0.00     0.251 C 
ATOM     28  H   UNL     1       4.689   0.024  -4.822  1.00  0.00     0.163 HD
ATOM     29  O   UNL     1       3.836   1.543  -6.377  1.00  0.00    -0.269 OA
BRANCH  27  30
ATOM     30  C   UNL     1       3.921   3.283  -4.823  1.00  0.00     0.039 A 
ATOM     31  C   UNL     1       2.895   4.021  -5.443  1.00  0.00     0.014 A 
ATOM     32  C   UNL     1       4.788   3.934  -3.953  1.00  0.00     0.014 A 
ATOM     33  C   UNL     1       2.745   5.389  -5.186  1.00  0.00     0.010 A 
ATOM     34  C   UNL     1       4.577   5.263  -3.612  1.00  0.00     0.010 A 
ATOM     35  C   UNL     1       3.597   6.018  -4.274  1.00  0.00    -0.014 A 
BRANCH  35  36
ATOM     36  C   UNL     1       3.668   7.489  -4.113  1.00  0.00     0.031 A 
ATOM     37  C   UNL     1       4.944   8.174  -4.535  1.00  0.00     0.074 A 
ATOM     38  C   UNL     1       2.688   8.165  -3.491  1.00  0.00     0.049 A 
ATOM     39  N   UNL     1       5.394   9.361  -4.232  1.00  0.00    -0.248 NA
ATOM     40  C   UNL     1       5.870   7.375  -5.359  1.00  0.00     0.031 C 
ATOM     41  C   UNL     1       1.419   7.596  -3.037  1.00  0.00     0.029 A 
ATOM     42  N   UNL     1       2.627   9.477  -3.099  1.00  0.00    -0.354 N 
ATOM     43  C   UNL     1       6.674   9.427  -4.776  1.00  0.00     0.074 A 
ATOM     44  C   UNL     1       6.946   8.145  -5.383  1.00  0.00     0.031 C 
ATOM     45  C   UNL     1       0.708   8.553  -2.417  1.00  0.00     0.029 A 
ATOM     46  C   UNL     1       1.490   9.786  -2.390  1.00  0.00     0.049 A 
ATOM     47  H   UNL     1       3.330  10.135  -3.304  1.00  0.00     0.167 HD
ATOM     48  C   UNL     1       7.535  10.472  -4.780  1.00  0.00     0.037 A 
ATOM     49  C   UNL     1       1.142  10.930  -1.771  1.00  0.00     0.037 A 
ATOM     50  C   UNL     1       7.208  11.757  -4.222  1.00  0.00     0.049 A 
ATOM     51  C   UNL     1       2.094  12.097  -1.827  1.00  0.00     0.074 A 
ATOM     52  C   UNL     1       7.963  12.915  -4.217  1.00  0.00     0.029 A 
ATOM     53  N   UNL     1       6.011  12.054  -3.585  1.00  0.00    -0.354 N 
ATOM     54  N   UNL     1       3.296  12.156  -2.353  1.00  0.00    -0.248 NA
ATOM     55  C   UNL     1       1.642  13.353  -1.216  1.00  0.00     0.031 C 
ATOM     56  C   UNL     1       7.233  13.905  -3.550  1.00  0.00     0.029 A 
ATOM     57  C   UNL     1       6.004  13.377  -3.181  1.00  0.00     0.049 A 
ATOM     58  H   UNL     1       5.274  11.417  -3.441  1.00  0.00     0.167 HD
ATOM     59  C   UNL     1       3.732  13.463  -2.164  1.00  0.00     0.074 A 
ATOM     60  C   UNL     1       2.658  14.161  -1.485  1.00  0.00     0.031 C 
ATOM     61  C   UNL     1       4.908  14.039  -2.519  1.00  0.00     0.037 A 
BRANCH  48  62
ATOM     62  C   UNL     1       8.890  10.267  -5.406  1.00  0.00     0.058 A 
ATOM     63  C   UNL     1       9.048  10.055  -6.786  1.00  0.00     0.135 A 
ATOM     64  C   UNL     1      10.052  10.291  -4.617  1.00  0.00     0.135 A 
ATOM     65  F   UNL     1       7.973  10.003  -7.590  1.00  0.00    -0.206 F 
ATOM     66  C   UNL     1      10.300   9.837  -7.354  1.00  0.00     0.059 A 
ATOM     67  C   UNL     1      11.318  10.109  -5.168  1.00  0.00     0.059 A 
ATOM     68  F   UNL     1       9.966  10.485  -3.291  1.00  0.00    -0.206 F 
ATOM     69  C   UNL     1      11.430   9.866  -6.536  1.00  0.00     0.060 A 
BRANCH  69  70
ATOM     70  S   UNL     1      13.046   9.586  -7.291  1.00  0.00     0.124 S 
ATOM     71  O   UNL     1      12.999   8.153  -7.559  1.00  0.00    -0.237 OA
ATOM     72  O   UNL     1      12.997  10.452  -8.464  1.00  0.00    -0.237 OA
ATOM     73  O   UNL     1      13.983   9.999  -6.250  1.00  0.00    -0.744 OA
ENDBRANCH  69  70
ENDBRANCH  48  62
BRANCH  49  74
ATOM     74  C   UNL     1      -0.171  11.033  -1.078  1.00  0.00     0.058 A 
ATOM     75  C   UNL     1      -1.204  11.817  -1.613  1.00  0.00     0.135 A 
ATOM     76  C   UNL     1      -0.435  10.329   0.108  1.00  0.00     0.135 A 
ATOM     77  F   UNL     1      -1.000  12.512  -2.742  1.00  0.00    -0.206 F 
ATOM     78  C   UNL     1      -2.446  11.911  -0.994  1.00  0.00     0.059 A 
ATOM     79  C   UNL     1      -1.678  10.388   0.733  1.00  0.00     0.059 A 
ATOM     80  F   UNL     1       0.512   9.549   0.653  1.00  0.00    -0.206 F 
ATOM     81  C   UNL     1      -2.675  11.188   0.178  1.00  0.00     0.060 A 
BRANCH  81  82
ATOM     82  S   UNL     1      -4.312  11.271   0.937  1.00  0.00     0.124 S 
ATOM     83  O   UNL     1      -4.310  12.617   1.497  1.00  0.00    -0.237 OA
ATOM     84  O   UNL     1      -5.192  11.056  -0.208  1.00  0.00    -0.237 OA
ATOM     85  O   UNL     1      -4.286  10.182   1.910  1.00  0.00    -0.744 OA
ENDBRANCH  81  82
ENDBRANCH  49  74
BRANCH  61  86
ATOM     86  C   UNL     1       5.069  15.503  -2.223  1.00  0.00     0.058 A 
ATOM     87  C   UNL     1       5.273  15.975  -0.918  1.00  0.00     0.135 A 
ATOM     88  C   UNL     1       5.067  16.438  -3.271  1.00  0.00     0.135 A 
ATOM     89  F   UNL     1       5.280  15.121   0.117  1.00  0.00    -0.206 F 
ATOM     90  C   UNL     1       5.438  17.331  -0.657  1.00  0.00     0.059 A 
ATOM     91  C   UNL     1       5.260  17.795  -3.036  1.00  0.00     0.059 A 
ATOM     92  F   UNL     1       4.891  16.034  -4.539  1.00  0.00    -0.206 F 
ATOM     93  C   UNL     1       5.429  18.233  -1.724  1.00  0.00     0.060 A 
BRANCH  93  94
ATOM     94  S   UNL     1       5.665  19.987  -1.374  1.00  0.00     0.124 S 
ATOM     95  O   UNL     1       4.371  20.349  -0.806  1.00  0.00    -0.237 OA
ATOM     96  O   UNL     1       6.786  19.972  -0.440  1.00  0.00    -0.237 OA
ATOM     97  O   UNL     1       5.957  20.558  -2.686  1.00  0.00    -0.744 OA
ENDBRANCH  93  94
ENDBRANCH  61  86
ENDBRANCH  35  36
ENDBRANCH  27  30
ENDBRANCH   1  26
TORSDOF 14
