REMARK SMILES Cc1ccc(-c2cc(OCC(=O)NCCCNC(=O)c3ccc(-c4c5nc(c(-c6c(F)cc(S(=O)(=O)[O-])cc6F)c6ccc([nH]6)c(-c6c(F)cc(S(=O)(=O)[O-])cc6F)c6nc(c(-c7c(F)cc(S(=O)(=O)[O-])cc7F)c7ccc4[nH]7)C=C6)C=C5)cc3)nc(NCc3ccc4c(c3)OCO4)n2)cc1
REMARK SMILES IDX 14 1 13 2 11 3 12 4 10 6 9 7 8 8 6 9 7 10 99 11 87 12 86 13
REMARK SMILES IDX 5 14 1 15 2 16 3 17 101 18 4 19 100 20 88 21 89 23 90 24
REMARK SMILES IDX 91 25 95 26 92 27 94 28 93 29 96 30 98 31 97 32 15 33 16 34
REMARK SMILES IDX 17 35 18 36 19 38 20 39 21 40 85 41 22 42 84 43 23 44 24 45
REMARK SMILES IDX 25 46 78 47 26 48 83 49 77 50 79 51 27 52 82 53 76 54 75 55
REMARK SMILES IDX 28 57 62 58 41 59 61 60 42 61 45 62 60 63 80 64 43 65 44 66
REMARK SMILES IDX 59 68 81 69 46 70 29 71 30 72 39 73 31 74 32 75 38 76 40 77
REMARK SMILES IDX 33 78 34 79 35 80 36 81 37 82 63 83 64 84 73 85 65 86 66 87
REMARK SMILES IDX 72 88 74 89 67 90 68 91 69 92 70 93 71 94 47 95 48 96 57 97
REMARK SMILES IDX 49 98 50 99 56 100 58 101 51 102 52 103 53 104 54 105 55 106
REMARK H PARENT 13 5 88 22 17 37 79 56 45 67
REMARK Flexibility Score: inf
ROOT
ATOM      1  C   UNL     1      -6.997   4.314  -2.426  1.00  0.00     0.117 C 
ENDROOT
BRANCH   1   2
ATOM      2  N   UNL     1      -5.546   4.200  -2.437  1.00  0.00    -0.353 N 
ATOM      3  C   UNL     1      -4.766   3.128  -2.758  1.00  0.00     0.258 C 
ATOM      4  O   UNL     1      -3.539   3.249  -2.750  1.00  0.00    -0.271 OA
ATOM      5  H   UNL     1      -5.057   5.013  -2.176  1.00  0.00     0.163 HD
BRANCH   3   6
ATOM      6  C   UNL     1      -5.414   1.790  -3.128  1.00  0.00     0.331 C 
BRANCH   6   7
ATOM      7  O   UNL     1      -6.005   1.071  -2.061  1.00  0.00    -0.467 OA
BRANCH   7   8
ATOM      8  C   UNL     1      -5.190   0.604  -1.068  1.00  0.00     0.219 A 
ATOM      9  C   UNL     1      -3.192  -0.003  -0.022  1.00  0.00     0.080 A 
ATOM     10  C   UNL     1      -3.825   0.501  -1.140  1.00  0.00     0.097 A 
ATOM     11  N   UNL     1      -3.866  -0.429   1.064  1.00  0.00    -0.213 NA
ATOM     12  C   UNL     1      -5.192  -0.270   1.054  1.00  0.00     0.226 A 
ATOM     13  N   UNL     1      -5.879   0.233   0.022  1.00  0.00    -0.177 NA
BRANCH   9  14
ATOM     14  C   UNL     1      -1.727  -0.044   0.053  1.00  0.00     0.000 A 
ATOM     15  C   UNL     1       2.603  -0.110   0.086  1.00  0.00     0.044 C 
ATOM     16  C   UNL     1       1.103  -0.083   0.090  1.00  0.00    -0.051 A 
ATOM     17  C   UNL     1       0.372  -1.274   0.176  1.00  0.00     0.004 A 
ATOM     18  C   UNL     1       0.414   1.129  -0.002  1.00  0.00     0.004 A 
ATOM     19  C   UNL     1      -1.028  -1.254   0.167  1.00  0.00     0.010 A 
ATOM     20  C   UNL     1      -0.983   1.146  -0.022  1.00  0.00     0.010 A 
ENDBRANCH   9  14
BRANCH  12  21
ATOM     21  N   UNL     1      -5.949  -0.607   2.142  1.00  0.00    -0.350 N 
ATOM     22  H   UNL     1      -6.829  -0.180   2.259  1.00  0.00     0.164 HD
BRANCH  21  23
ATOM     23  C   UNL     1      -5.505  -1.563   3.119  1.00  0.00     0.152 C 
BRANCH  23  24
ATOM     24  C   UNL     1      -5.814  -2.999   2.727  1.00  0.00    -0.025 A 
ATOM     25  C   UNL     1      -5.209  -4.046   3.466  1.00  0.00     0.009 A 
ATOM     26  C   UNL     1      -6.697  -3.329   1.681  1.00  0.00     0.056 A 
ATOM     27  C   UNL     1      -5.446  -5.391   3.153  1.00  0.00     0.051 A 
ATOM     28  C   UNL     1      -6.897  -4.660   1.385  1.00  0.00     0.166 A 
ATOM     29  C   UNL     1      -6.285  -5.663   2.096  1.00  0.00     0.165 A 
ATOM     30  O   UNL     1      -7.683  -5.138   0.382  1.00  0.00    -0.454 OA
ATOM     31  O   UNL     1      -6.605  -6.899   1.627  1.00  0.00    -0.454 OA
ATOM     32  C   UNL     1      -7.404  -6.548   0.478  1.00  0.00     0.468 C 
ENDBRANCH  23  24
ENDBRANCH  21  23
ENDBRANCH  12  21
ENDBRANCH   7   8
ENDBRANCH   6   7
ENDBRANCH   3   6
ENDBRANCH   1   2
BRANCH   1  33
ATOM     33  C   UNL     1      -7.621   3.894  -1.102  1.00  0.00     0.042 C 
BRANCH  33  34
ATOM     34  C   UNL     1      -7.282   4.838   0.045  1.00  0.00     0.118 C 
BRANCH  34  35
ATOM     35  N   UNL     1      -8.318   5.814   0.323  1.00  0.00    -0.352 N 
ATOM     36  C   UNL     1      -8.424   6.668   1.415  1.00  0.00     0.251 C 
ATOM     37  H   UNL     1      -9.038   5.879  -0.346  1.00  0.00     0.163 HD
ATOM     38  O   UNL     1      -9.478   7.133   1.753  1.00  0.00    -0.269 OA
BRANCH  36  39
ATOM     39  C   UNL     1      -7.152   7.105   2.051  1.00  0.00     0.039 A 
ATOM     40  C   UNL     1      -6.851   8.472   1.986  1.00  0.00     0.014 A 
ATOM     41  C   UNL     1      -6.203   6.192   2.495  1.00  0.00     0.014 A 
ATOM     42  C   UNL     1      -5.545   8.906   2.220  1.00  0.00     0.010 A 
ATOM     43  C   UNL     1      -4.894   6.614   2.648  1.00  0.00     0.010 A 
ATOM     44  C   UNL     1      -4.548   7.964   2.479  1.00  0.00    -0.014 A 
BRANCH  44  45
ATOM     45  C   UNL     1      -3.113   8.255   2.471  1.00  0.00     0.031 A 
ATOM     46  C   UNL     1      -2.280   8.108   3.696  1.00  0.00     0.074 A 
ATOM     47  C   UNL     1      -2.485   8.534   1.307  1.00  0.00     0.049 A 
ATOM     48  N   UNL     1      -1.087   8.592   3.831  1.00  0.00    -0.248 NA
ATOM     49  C   UNL     1      -2.745   7.412   4.890  1.00  0.00     0.031 C 
ATOM     50  C   UNL     1      -1.054   8.407   1.040  1.00  0.00     0.029 A 
ATOM     51  N   UNL     1      -2.979   9.136   0.161  1.00  0.00    -0.354 N 
ATOM     52  C   UNL     1      -0.533   8.057   4.972  1.00  0.00     0.074 A 
ATOM     53  C   UNL     1      -1.624   7.363   5.618  1.00  0.00     0.031 C 
ATOM     54  C   UNL     1      -0.750   9.101  -0.065  1.00  0.00     0.029 A 
ATOM     55  C   UNL     1      -1.937   9.831  -0.469  1.00  0.00     0.049 A 
ATOM     56  H   UNL     1      -3.909   9.084  -0.158  1.00  0.00     0.167 HD
ATOM     57  C   UNL     1       0.812   8.159   5.194  1.00  0.00     0.037 A 
ATOM     58  C   UNL     1      -1.988  11.186  -0.651  1.00  0.00     0.037 A 
ATOM     59  C   UNL     1       1.487   8.918   4.142  1.00  0.00     0.049 A 
ATOM     60  C   UNL     1      -0.942  11.974   0.112  1.00  0.00     0.074 A 
ATOM     61  C   UNL     1       2.221   8.567   3.021  1.00  0.00     0.029 A 
ATOM     62  N   UNL     1       1.251  10.275   4.034  1.00  0.00    -0.354 N 
ATOM     63  N   UNL     1      -0.014  11.440   0.856  1.00  0.00    -0.248 NA
ATOM     64  C   UNL     1      -0.912  13.439   0.162  1.00  0.00     0.031 C 
ATOM     65  C   UNL     1       2.412   9.732   2.229  1.00  0.00     0.029 A 
ATOM     66  C   UNL     1       1.780  10.784   2.863  1.00  0.00     0.049 A 
ATOM     67  H   UNL     1       0.769  10.811   4.705  1.00  0.00     0.167 HD
ATOM     68  C   UNL     1       0.635  12.428   1.545  1.00  0.00     0.074 A 
ATOM     69  C   UNL     1       0.075  13.667   1.046  1.00  0.00     0.031 C 
ATOM     70  C   UNL     1       1.539  12.174   2.529  1.00  0.00     0.037 A 
BRANCH  57  71
ATOM     71  C   UNL     1       1.562   7.370   6.249  1.00  0.00     0.058 A 
ATOM     72  C   UNL     1       2.904   6.979   6.044  1.00  0.00     0.135 A 
ATOM     73  C   UNL     1       1.006   6.935   7.468  1.00  0.00     0.135 A 
ATOM     74  F   UNL     1       3.611   7.410   4.991  1.00  0.00    -0.206 F 
ATOM     75  C   UNL     1       3.587   6.119   6.904  1.00  0.00     0.059 A 
ATOM     76  C   UNL     1       1.647   6.025   8.317  1.00  0.00     0.059 A 
ATOM     77  F   UNL     1      -0.164   7.417   7.909  1.00  0.00    -0.206 F 
ATOM     78  C   UNL     1       2.936   5.608   8.017  1.00  0.00     0.060 A 
BRANCH  78  79
ATOM     79  S   UNL     1       3.791   4.399   9.043  1.00  0.00     0.124 S 
ATOM     80  O   UNL     1       4.226   3.412   8.059  1.00  0.00    -0.237 OA
ATOM     81  O   UNL     1       4.847   5.204   9.645  1.00  0.00    -0.237 OA
ATOM     82  O   UNL     1       2.752   3.938   9.960  1.00  0.00    -0.744 OA
ENDBRANCH  78  79
ENDBRANCH  57  71
BRANCH  58  83
ATOM     83  C   UNL     1      -3.356  11.668  -0.973  1.00  0.00     0.058 A 
ATOM     84  C   UNL     1      -3.888  11.291  -2.220  1.00  0.00     0.135 A 
ATOM     85  C   UNL     1      -4.249  12.032   0.043  1.00  0.00     0.135 A 
ATOM     86  F   UNL     1      -3.067  10.960  -3.230  1.00  0.00    -0.206 F 
ATOM     87  C   UNL     1      -5.250  11.085  -2.390  1.00  0.00     0.059 A 
ATOM     88  C   UNL     1      -5.621  11.843  -0.110  1.00  0.00     0.059 A 
ATOM     89  F   UNL     1      -3.790  12.415   1.244  1.00  0.00    -0.206 F 
ATOM     90  C   UNL     1      -6.095  11.287  -1.300  1.00  0.00     0.060 A 
BRANCH  90  91
ATOM     91  S   UNL     1      -7.767  10.609  -1.399  1.00  0.00     0.124 S 
ATOM     92  O   UNL     1      -8.270  11.209  -2.630  1.00  0.00    -0.237 OA
ATOM     93  O   UNL     1      -7.491   9.175  -1.462  1.00  0.00    -0.237 OA
ATOM     94  O   UNL     1      -8.390  11.078  -0.167  1.00  0.00    -0.744 OA
ENDBRANCH  90  91
ENDBRANCH  58  83
BRANCH  70  95
ATOM     95  C   UNL     1       2.267  13.255   3.255  1.00  0.00     0.058 A 
ATOM     96  C   UNL     1       3.065  14.183   2.568  1.00  0.00     0.135 A 
ATOM     97  C   UNL     1       2.296  13.301   4.661  1.00  0.00     0.135 A 
ATOM     98  F   UNL     1       3.101  14.187   1.226  1.00  0.00    -0.206 F 
ATOM     99  C   UNL     1       3.854  15.112   3.242  1.00  0.00     0.059 A 
ATOM    100  C   UNL     1       3.100  14.200   5.355  1.00  0.00     0.059 A 
ATOM    101  F   UNL     1       1.530  12.476   5.391  1.00  0.00    -0.206 F 
ATOM    102  C   UNL     1       3.870  15.110   4.636  1.00  0.00     0.060 A 
BRANCH 102 103
ATOM    103  S   UNL     1       4.936  16.268   5.518  1.00  0.00     0.124 S 
ATOM    104  O   UNL     1       6.045  16.464   4.588  1.00  0.00    -0.237 OA
ATOM    105  O   UNL     1       4.046  17.412   5.686  1.00  0.00    -0.237 OA
ATOM    106  O   UNL     1       5.274  15.545   6.740  1.00  0.00    -0.744 OA
ENDBRANCH 102 103
ENDBRANCH  70  95
ENDBRANCH  44  45
ENDBRANCH  36  39
ENDBRANCH  34  35
ENDBRANCH  33  34
ENDBRANCH   1  33
TORSDOF 19
