REMARK SMILES CNC(=O)[C@H](C)Nc1ccc(C(F)(F)F)cc1C(=O)NCCCNC(=O)c1ccc(-c2c3nc(c(-c4c(F)cc(S(=O)(=O)[O-])cc4F)c4ccc([nH]4)c(-c4c(F)cc(S(=O)(=O)[O-])cc4F)c4nc(c(-c5c(F)cc(S(=O)(=O)[O-])cc5F)c5ccc2[nH]5)C=C4)C=C3)cc1
REMARK SMILES IDX 22 1 21 2 20 3 18 4 19 5 17 7 8 8 9 9 10 10 16 11 11 12 7 13
REMARK SMILES IDX 5 15 6 16 3 17 1 18 2 19 4 21 12 22 13 23 14 24 15 25 23 26
REMARK SMILES IDX 24 27 25 28 26 30 27 31 28 32 92 33 29 34 91 35 30 36 31 37
REMARK SMILES IDX 32 38 85 39 33 40 90 41 84 42 86 43 34 44 89 45 83 46 82 47
REMARK SMILES IDX 35 49 69 50 48 51 68 52 49 53 52 54 67 55 87 56 50 57 51 58
REMARK SMILES IDX 66 60 88 61 53 62 36 63 37 64 46 65 38 66 39 67 45 68 47 69
REMARK SMILES IDX 40 70 41 71 42 72 43 73 44 74 70 75 71 76 80 77 72 78 73 79
REMARK SMILES IDX 79 80 81 81 74 82 75 83 76 84 77 85 78 86 54 87 55 88 64 89
REMARK SMILES IDX 56 90 57 91 63 92 65 93 58 94 59 95 60 96 61 97 62 98
REMARK H PARENT 20 6 7 14 2 20 24 29 86 48 52 59
REMARK Flexibility Score: inf
ROOT
ATOM      1  C   UNL     1       1.284   2.503   3.453  1.00  0.00     0.042 C 
ENDROOT
BRANCH   1   2
ATOM      2  C   UNL     1      -0.011   1.727   3.345  1.00  0.00     0.118 C 
BRANCH   2   3
ATOM      3  N   UNL     1      -0.999   1.907   4.366  1.00  0.00    -0.352 N 
ATOM      4  C   UNL     1      -2.321   1.526   4.296  1.00  0.00     0.253 C 
ATOM      5  O   UNL     1      -2.885   1.308   5.374  1.00  0.00    -0.269 OA
ATOM      6  H   UNL     1      -0.705   2.344   5.198  1.00  0.00     0.163 HD
BRANCH   4   7
ATOM      7  C   UNL     1      -3.164   1.520   3.044  1.00  0.00     0.063 A 
ATOM      8  C   UNL     1      -2.891   1.088   1.725  1.00  0.00     0.048 A 
ATOM      9  C   UNL     1      -3.919   1.248   0.757  1.00  0.00     0.027 A 
ATOM     10  C   UNL     1      -5.157   1.825   1.042  1.00  0.00     0.015 A 
ATOM     11  C   UNL     1      -4.438   2.108   3.305  1.00  0.00     0.029 A 
ATOM     12  C   UNL     1      -5.431   2.272   2.327  1.00  0.00     0.056 A 
BRANCH   8  13
ATOM     13  N   UNL     1      -1.744   0.486   1.216  1.00  0.00    -0.373 N 
ATOM     14  H   UNL     1      -1.255   0.966   0.509  1.00  0.00     0.161 HD
BRANCH  13  15
ATOM     15  C   UNL     1      -1.206  -0.807   1.650  1.00  0.00     0.165 C 
ATOM     16  C   UNL     1      -1.685  -1.924   0.732  1.00  0.00     0.041 C 
BRANCH  15  17
ATOM     17  C   UNL     1       0.339  -0.873   1.643  1.00  0.00     0.241 C 
ATOM     18  C   UNL     1       0.827   0.803  -0.235  1.00  0.00     0.142 C 
ATOM     19  N   UNL     1       1.135  -0.168   0.789  1.00  0.00    -0.357 N 
ATOM     20  H   UNL     1       2.096  -0.355   0.888  1.00  0.00     0.163 HD
ATOM     21  O   UNL     1       0.899  -1.625   2.449  1.00  0.00    -0.273 OA
ENDBRANCH  15  17
ENDBRANCH  13  15
ENDBRANCH   8  13
BRANCH  12  22
ATOM     22  C   UNL     1      -6.760   2.908   2.642  1.00  0.00     0.416 C 
ATOM     23  F   UNL     1      -7.031   3.973   1.836  1.00  0.00    -0.166 F 
ATOM     24  F   UNL     1      -7.801   2.045   2.473  1.00  0.00    -0.166 F 
ATOM     25  F   UNL     1      -6.865   3.372   3.917  1.00  0.00    -0.166 F 
ENDBRANCH  12  22
ENDBRANCH   4   7
ENDBRANCH   2   3
ENDBRANCH   1   2
BRANCH   1  26
ATOM     26  C   UNL     1       2.435   1.805   4.178  1.00  0.00     0.118 C 
BRANCH  26  27
ATOM     27  N   UNL     1       2.745   0.431   3.770  1.00  0.00    -0.352 N 
ATOM     28  C   UNL     1       3.819  -0.172   3.158  1.00  0.00     0.251 C 
ATOM     29  H   UNL     1       2.021  -0.202   3.982  1.00  0.00     0.163 HD
ATOM     30  O   UNL     1       3.841  -1.399   3.042  1.00  0.00    -0.269 OA
BRANCH  28  31
ATOM     31  C   UNL     1       4.915   0.593   2.537  1.00  0.00     0.039 A 
ATOM     32  C   UNL     1       5.476   0.114   1.342  1.00  0.00     0.014 A 
ATOM     33  C   UNL     1       5.413   1.753   3.109  1.00  0.00     0.014 A 
ATOM     34  C   UNL     1       6.471   0.845   0.688  1.00  0.00     0.010 A 
ATOM     35  C   UNL     1       6.293   2.547   2.394  1.00  0.00     0.010 A 
ATOM     36  C   UNL     1       6.853   2.093   1.190  1.00  0.00    -0.014 A 
BRANCH  36  37
ATOM     37  C   UNL     1       7.893   2.943   0.562  1.00  0.00     0.031 A 
ATOM     38  C   UNL     1       9.071   3.360   1.404  1.00  0.00     0.074 A 
ATOM     39  C   UNL     1       7.708   3.455  -0.668  1.00  0.00     0.049 A 
ATOM     40  N   UNL     1       9.913   4.341   1.226  1.00  0.00    -0.248 NA
ATOM     41  C   UNL     1       9.274   2.613   2.659  1.00  0.00     0.031 C 
ATOM     42  C   UNL     1       6.593   3.144  -1.565  1.00  0.00     0.029 A 
ATOM     43  N   UNL     1       8.442   4.383  -1.363  1.00  0.00    -0.354 N 
ATOM     44  C   UNL     1      10.696   4.372   2.375  1.00  0.00     0.074 A 
ATOM     45  C   UNL     1      10.193   3.350   3.264  1.00  0.00     0.031 C 
ATOM     46  C   UNL     1       6.720   3.864  -2.692  1.00  0.00     0.029 A 
ATOM     47  C   UNL     1       7.889   4.728  -2.574  1.00  0.00     0.049 A 
ATOM     48  H   UNL     1       9.285   4.765  -1.027  1.00  0.00     0.167 HD
ATOM     49  C   UNL     1      11.753   5.170   2.652  1.00  0.00     0.037 A 
ATOM     50  C   UNL     1       8.271   5.658  -3.470  1.00  0.00     0.037 A 
ATOM     51  C   UNL     1      12.286   6.124   1.716  1.00  0.00     0.049 A 
ATOM     52  C   UNL     1       9.485   6.496  -3.169  1.00  0.00     0.074 A 
ATOM     53  C   UNL     1      13.401   6.930   1.847  1.00  0.00     0.029 A 
ATOM     54  N   UNL     1      11.748   6.378   0.462  1.00  0.00    -0.354 N 
ATOM     55  N   UNL     1      10.231   6.505  -2.089  1.00  0.00    -0.248 NA
ATOM     56  C   UNL     1       9.911   7.445  -4.204  1.00  0.00     0.031 C 
ATOM     57  C   UNL     1      13.522   7.693   0.681  1.00  0.00     0.029 A 
ATOM     58  C   UNL     1      12.509   7.329  -0.193  1.00  0.00     0.049 A 
ATOM     59  H   UNL     1      10.944   5.946   0.093  1.00  0.00     0.167 HD
ATOM     60  C   UNL     1      11.237   7.434  -2.330  1.00  0.00     0.074 A 
ATOM     61  C   UNL     1      11.004   7.963  -3.659  1.00  0.00     0.031 C 
ATOM     62  C   UNL     1      12.263   7.815  -1.528  1.00  0.00     0.037 A 
BRANCH  49  63
ATOM     63  C   UNL     1      12.404   5.031   4.002  1.00  0.00     0.058 A 
ATOM     64  C   UNL     1      13.105   3.872   4.372  1.00  0.00     0.135 A 
ATOM     65  C   UNL     1      12.335   6.077   4.938  1.00  0.00     0.135 A 
ATOM     66  F   UNL     1      13.189   2.833   3.525  1.00  0.00    -0.206 F 
ATOM     67  C   UNL     1      13.679   3.737   5.631  1.00  0.00     0.059 A 
ATOM     68  C   UNL     1      12.932   5.978   6.192  1.00  0.00     0.059 A 
ATOM     69  F   UNL     1      11.676   7.208   4.642  1.00  0.00    -0.206 F 
ATOM     70  C   UNL     1      13.587   4.796   6.535  1.00  0.00     0.060 A 
BRANCH  70  71
ATOM     71  S   UNL     1      14.342   4.606   8.163  1.00  0.00     0.124 S 
ATOM     72  O   UNL     1      13.408   3.691   8.812  1.00  0.00    -0.237 OA
ATOM     73  O   UNL     1      15.651   4.047   7.837  1.00  0.00    -0.237 OA
ATOM     74  O   UNL     1      14.359   5.966   8.691  1.00  0.00    -0.744 OA
ENDBRANCH  70  71
ENDBRANCH  49  63
BRANCH  50  75
ATOM     75  C   UNL     1       7.517   5.821  -4.742  1.00  0.00     0.058 A 
ATOM     76  C   UNL     1       8.074   5.402  -5.959  1.00  0.00     0.135 A 
ATOM     77  C   UNL     1       6.224   6.365  -4.769  1.00  0.00     0.135 A 
ATOM     78  F   UNL     1       9.309   4.878  -5.986  1.00  0.00    -0.206 F 
ATOM     79  C   UNL     1       7.384   5.530  -7.160  1.00  0.00     0.059 A 
ATOM     80  C   UNL     1       5.503   6.480  -5.955  1.00  0.00     0.059 A 
ATOM     81  F   UNL     1       5.635   6.760  -3.629  1.00  0.00    -0.206 F 
ATOM     82  C   UNL     1       6.096   6.067  -7.147  1.00  0.00     0.060 A 
BRANCH  82  83
ATOM     83  S   UNL     1       5.189   6.174  -8.705  1.00  0.00     0.124 S 
ATOM     84  O   UNL     1       5.879   7.271  -9.373  1.00  0.00    -0.237 OA
ATOM     85  O   UNL     1       5.399   4.846  -9.273  1.00  0.00    -0.237 OA
ATOM     86  O   UNL     1       3.821   6.454  -8.277  1.00  0.00    -0.744 OA
ENDBRANCH  82  83
ENDBRANCH  50  75
BRANCH  62  87
ATOM     87  C   UNL     1      13.243   8.806  -2.086  1.00  0.00     0.058 A 
ATOM     88  C   UNL     1      12.926  10.166  -2.218  1.00  0.00     0.135 A 
ATOM     89  C   UNL     1      14.545   8.396  -2.419  1.00  0.00     0.135 A 
ATOM     90  F   UNL     1      11.693  10.605  -1.918  1.00  0.00    -0.206 F 
ATOM     91  C   UNL     1      13.862  11.085  -2.678  1.00  0.00     0.059 A 
ATOM     92  C   UNL     1      15.505   9.302  -2.854  1.00  0.00     0.059 A 
ATOM     93  F   UNL     1      14.899   7.107  -2.298  1.00  0.00    -0.206 F 
ATOM     94  C   UNL     1      15.150  10.644  -2.989  1.00  0.00     0.060 A 
BRANCH  94  95
ATOM     95  S   UNL     1      16.370  11.856  -3.537  1.00  0.00     0.124 S 
ATOM     96  O   UNL     1      15.919  12.131  -4.897  1.00  0.00    -0.237 OA
ATOM     97  O   UNL     1      16.187  12.939  -2.576  1.00  0.00    -0.237 OA
ATOM     98  O   UNL     1      17.636  11.137  -3.428  1.00  0.00    -0.744 OA
ENDBRANCH  94  95
ENDBRANCH  62  87
ENDBRANCH  36  37
ENDBRANCH  28  31
ENDBRANCH  26  27
ENDBRANCH   1  26
TORSDOF 17
