REMARK SMILES Cc1cc(N2N=C(C(=O)NCCCNC(=O)c3ccc(-c4c5nc(c(-c6c(F)cc(S(=O)(=O)[O-])cc6F)c6ccc([nH]6)c(-c6c(F)cc(S(=O)(=O)[O-])cc6F)c6nc(c(-c7c(F)cc(S(=O)(=O)[O-])cc7F)c7ccc4[nH]7)C=C6)C=C5)cc3)C[C@H]2c2ccccc2)c([N+](=O)[O-])cc1C
REMARK SMILES IDX 12 1 11 2 10 3 8 4 9 5 7 7 5 8 6 9 84 10 83 11 4 12 1 13
REMARK SMILES IDX 2 14 3 15 96 16 95 17 97 18 91 19 92 20 93 21 94 22 85 23
REMARK SMILES IDX 86 24 90 25 87 26 89 27 88 28 13 29 14 30 15 31 16 33 17 34
REMARK SMILES IDX 18 35 82 36 19 37 81 38 20 39 21 40 22 41 75 42 23 43 80 44
REMARK SMILES IDX 74 45 76 46 24 47 79 48 73 49 72 50 25 52 59 53 38 54 58 55
REMARK SMILES IDX 39 56 42 57 57 58 77 59 40 60 41 61 56 63 78 64 43 65 26 66
REMARK SMILES IDX 27 67 36 68 28 69 29 70 35 71 37 72 30 73 31 74 32 75 33 76
REMARK SMILES IDX 34 77 60 78 61 79 70 80 62 81 63 82 69 83 71 84 64 85 65 86
REMARK SMILES IDX 66 87 67 88 68 89 44 90 45 91 54 92 46 93 47 94 53 95 55 96
REMARK SMILES IDX 48 97 49 98 50 99 51 100 52 101
REMARK H PARENT 10 6 14 32 76 51 42 62
REMARK Flexibility Score: inf
ROOT
ATOM      1  C   UNL     1      -8.576   3.345  -0.644  1.00  0.00     0.042 C 
ENDROOT
BRANCH   1   2
ATOM      2  C   UNL     1      -7.498   3.857   0.303  1.00  0.00     0.118 C 
BRANCH   2   3
ATOM      3  N   UNL     1      -7.188   2.876   1.320  1.00  0.00    -0.351 N 
ATOM      4  C   UNL     1      -6.134   2.032   1.540  1.00  0.00     0.267 C 
ATOM      5  O   UNL     1      -6.208   1.276   2.507  1.00  0.00    -0.268 OA
ATOM      6  H   UNL     1      -7.891   2.798   2.005  1.00  0.00     0.163 HD
BRANCH   4   7
ATOM      7  C   UNL     1      -4.862   2.018   0.709  1.00  0.00     0.128 C 
ATOM      8  N   UNL     1      -2.801   1.672   0.271  1.00  0.00    -0.250 N 
ATOM      9  N   UNL     1      -3.761   1.545   1.219  1.00  0.00    -0.171 NA
ATOM     10  C   UNL     1      -3.276   2.281  -0.978  1.00  0.00     0.144 C 
ATOM     11  C   UNL     1      -4.786   2.399  -0.738  1.00  0.00     0.096 C 
BRANCH   8  12
ATOM     12  C   UNL     1      -1.714   0.803   0.258  1.00  0.00     0.138 A 
ATOM     13  C   UNL     1       2.055   1.377   0.236  1.00  0.00     0.045 C 
ATOM     14  C   UNL     1       0.749   0.632   0.229  1.00  0.00    -0.046 A 
ATOM     15  C   UNL     1      -0.435   1.375   0.362  1.00  0.00     0.039 A 
ATOM     16  C   UNL     1       0.668  -0.761   0.075  1.00  0.00    -0.041 A 
ATOM     17  C   UNL     1      -0.600  -1.364   0.025  1.00  0.00     0.091 A 
ATOM     18  C   UNL     1       1.880  -1.645  -0.031  1.00  0.00     0.045 C 
ATOM     19  C   UNL     1      -1.772  -0.586   0.101  1.00  0.00     0.294 A 
BRANCH  19  20
ATOM     20  N   UNL     1      -3.042  -1.280  -0.073  1.00  0.00     0.065 N 
ATOM     21  O   UNL     1      -3.179  -2.362   0.519  1.00  0.00    -0.258 OA
ATOM     22  O   UNL     1      -3.854  -0.812  -0.887  1.00  0.00    -0.258 OA
ENDBRANCH  19  20
ENDBRANCH   8  12
BRANCH  10  23
ATOM     23  C   UNL     1      -2.522   3.582  -1.252  1.00  0.00    -0.023 A 
ATOM     24  C   UNL     1      -2.946   4.845  -0.807  1.00  0.00     0.006 A 
ATOM     25  C   UNL     1      -1.296   3.512  -1.944  1.00  0.00     0.006 A 
ATOM     26  C   UNL     1      -2.188   5.992  -1.070  1.00  0.00     0.000 A 
ATOM     27  C   UNL     1      -0.518   4.650  -2.165  1.00  0.00     0.000 A 
ATOM     28  C   UNL     1      -0.971   5.893  -1.738  1.00  0.00     0.000 A 
ENDBRANCH  10  23
ENDBRANCH   4   7
ENDBRANCH   2   3
ENDBRANCH   1   2
BRANCH   1  29
ATOM     29  C   UNL     1      -9.967   3.410  -0.019  1.00  0.00     0.118 C 
BRANCH  29  30
ATOM     30  N   UNL     1     -10.376   4.788   0.246  1.00  0.00    -0.352 N 
ATOM     31  C   UNL     1     -11.368   5.539  -0.332  1.00  0.00     0.251 C 
ATOM     32  H   UNL     1      -9.860   5.248   0.948  1.00  0.00     0.163 HD
ATOM     33  O   UNL     1     -11.380   6.758  -0.172  1.00  0.00    -0.269 OA
BRANCH  31  34
ATOM     34  C   UNL     1     -12.408   4.879  -1.143  1.00  0.00     0.039 A 
ATOM     35  C   UNL     1     -12.844   5.478  -2.327  1.00  0.00     0.014 A 
ATOM     36  C   UNL     1     -12.956   3.666  -0.722  1.00  0.00     0.014 A 
ATOM     37  C   UNL     1     -13.781   4.820  -3.126  1.00  0.00     0.010 A 
ATOM     38  C   UNL     1     -13.810   2.968  -1.564  1.00  0.00     0.010 A 
ATOM     39  C   UNL     1     -14.241   3.542  -2.768  1.00  0.00    -0.014 A 
BRANCH  39  40
ATOM     40  C   UNL     1     -15.197   2.782  -3.611  1.00  0.00     0.031 A 
ATOM     41  C   UNL     1     -16.534   2.391  -3.041  1.00  0.00     0.074 A 
ATOM     42  C   UNL     1     -14.825   2.361  -4.836  1.00  0.00     0.049 A 
ATOM     43  N   UNL     1     -17.445   1.598  -3.539  1.00  0.00    -0.248 NA
ATOM     44  C   UNL     1     -16.873   2.936  -1.715  1.00  0.00     0.031 C 
ATOM     45  C   UNL     1     -13.539   2.644  -5.477  1.00  0.00     0.029 A 
ATOM     46  N   UNL     1     -15.487   1.583  -5.752  1.00  0.00    -0.354 N 
ATOM     47  C   UNL     1     -18.449   1.527  -2.580  1.00  0.00     0.074 A 
ATOM     48  C   UNL     1     -18.010   2.311  -1.447  1.00  0.00     0.031 C 
ATOM     49  C   UNL     1     -13.512   2.062  -6.686  1.00  0.00     0.029 A 
ATOM     50  C   UNL     1     -14.755   1.323  -6.887  1.00  0.00     0.049 A 
ATOM     51  H   UNL     1     -16.400   1.243  -5.611  1.00  0.00     0.167 HD
ATOM     52  C   UNL     1     -19.639   0.886  -2.648  1.00  0.00     0.037 A 
ATOM     53  C   UNL     1     -15.046   0.559  -7.959  1.00  0.00     0.037 A 
ATOM     54  C   UNL     1     -20.077   0.136  -3.795  1.00  0.00     0.049 A 
ATOM     55  C   UNL     1     -16.373  -0.150  -8.010  1.00  0.00     0.074 A 
ATOM     56  C   UNL     1     -21.287  -0.505  -3.992  1.00  0.00     0.029 A 
ATOM     57  N   UNL     1     -19.322  -0.072  -4.941  1.00  0.00    -0.354 N 
ATOM     58  N   UNL     1     -17.334  -0.164  -7.117  1.00  0.00    -0.248 NA
ATOM     59  C   UNL     1     -16.659  -0.943  -9.213  1.00  0.00     0.031 C 
ATOM     60  C   UNL     1     -21.245  -1.142  -5.235  1.00  0.00     0.029 A 
ATOM     61  C   UNL     1     -20.033  -0.847  -5.840  1.00  0.00     0.049 A 
ATOM     62  H   UNL     1     -18.414   0.279  -5.091  1.00  0.00     0.167 HD
ATOM     63  C   UNL     1     -18.354  -0.933  -7.668  1.00  0.00     0.074 A 
ATOM     64  C   UNL     1     -17.892  -1.366  -8.970  1.00  0.00     0.031 C 
ATOM     65  C   UNL     1     -19.565  -1.246  -7.145  1.00  0.00     0.037 A 
BRANCH  52  66
ATOM     66  C   UNL     1     -20.550   0.971  -1.454  1.00  0.00     0.058 A 
ATOM     67  C   UNL     1     -21.173   2.174  -1.083  1.00  0.00     0.135 A 
ATOM     68  C   UNL     1     -20.829  -0.172  -0.686  1.00  0.00     0.135 A 
ATOM     69  F   UNL     1     -20.930   3.302  -1.770  1.00  0.00    -0.206 F 
ATOM     70  C   UNL     1     -22.013   2.248   0.022  1.00  0.00     0.059 A 
ATOM     71  C   UNL     1     -21.692  -0.128   0.404  1.00  0.00     0.059 A 
ATOM     72  F   UNL     1     -20.260  -1.348  -0.994  1.00  0.00    -0.206 F 
ATOM     73  C   UNL     1     -22.267   1.091   0.760  1.00  0.00     0.060 A 
BRANCH  73  74
ATOM     74  S   UNL     1     -23.366   1.206   2.187  1.00  0.00     0.124 S 
ATOM     75  O   UNL     1     -22.532   1.934   3.138  1.00  0.00    -0.237 OA
ATOM     76  O   UNL     1     -24.502   1.945   1.647  1.00  0.00    -0.237 OA
ATOM     77  O   UNL     1     -23.632  -0.189   2.525  1.00  0.00    -0.744 OA
ENDBRANCH  73  74
ENDBRANCH  52  66
BRANCH  53  78
ATOM     78  C   UNL     1     -14.070   0.443  -9.076  1.00  0.00     0.058 A 
ATOM     79  C   UNL     1     -14.333   1.026 -10.325  1.00  0.00     0.135 A 
ATOM     80  C   UNL     1     -12.853  -0.238  -8.918  1.00  0.00     0.135 A 
ATOM     81  F   UNL     1     -15.485   1.684 -10.528  1.00  0.00    -0.206 F 
ATOM     82  C   UNL     1     -13.435   0.924 -11.382  1.00  0.00     0.059 A 
ATOM     83  C   UNL     1     -11.925  -0.330  -9.952  1.00  0.00     0.059 A 
ATOM     84  F   UNL     1     -12.543  -0.797  -7.738  1.00  0.00    -0.206 F 
ATOM     85  C   UNL     1     -12.231   0.246 -11.184  1.00  0.00     0.060 A 
BRANCH  85  86
ATOM     86  S   UNL     1     -11.053   0.160 -12.550  1.00  0.00     0.124 S 
ATOM     87  O   UNL     1     -11.717  -0.773 -13.453  1.00  0.00    -0.237 OA
ATOM     88  O   UNL     1     -10.998   1.550 -12.994  1.00  0.00    -0.237 OA
ATOM     89  O   UNL     1      -9.836  -0.334 -11.913  1.00  0.00    -0.744 OA
ENDBRANCH  85  86
ENDBRANCH  53  78
BRANCH  65  90
ATOM     90  C   UNL     1     -20.511  -2.046  -7.997  1.00  0.00     0.058 A 
ATOM     91  C   UNL     1     -20.320  -3.415  -8.234  1.00  0.00     0.135 A 
ATOM     92  C   UNL     1     -21.674  -1.446  -8.507  1.00  0.00     0.135 A 
ATOM     93  F   UNL     1     -19.221  -4.035  -7.776  1.00  0.00    -0.206 F 
ATOM     94  C   UNL     1     -21.247  -4.161  -8.956  1.00  0.00     0.059 A 
ATOM     95  C   UNL     1     -22.628  -2.178  -9.206  1.00  0.00     0.059 A 
ATOM     96  F   UNL     1     -21.908  -0.140  -8.300  1.00  0.00    -0.206 F 
ATOM     97  C   UNL     1     -22.402  -3.535  -9.430  1.00  0.00     0.060 A 
BRANCH  97  98
ATOM     98  S   UNL     1     -23.627  -4.529 -10.307  1.00  0.00     0.124 S 
ATOM     99  O   UNL     1     -22.953  -4.770 -11.579  1.00  0.00    -0.237 OA
ATOM    100  O   UNL     1     -23.769  -5.690  -9.434  1.00  0.00    -0.237 OA
ATOM    101  O   UNL     1     -24.794  -3.654 -10.371  1.00  0.00    -0.744 OA
ENDBRANCH  97  98
ENDBRANCH  65  90
ENDBRANCH  39  40
ENDBRANCH  31  34
ENDBRANCH  29  30
ENDBRANCH   1  29
TORSDOF 16
