REMARK SMILES Cc1ccc(NC(=O)c2ccccc2NC(=O)[C@H]2CCCC[C@H]2C(=O)NCCCNC(=O)c2ccc(-c3c4nc(c(-c5c(F)cc(S(=O)(=O)[O-])cc5F)c5ccc([nH]5)c(-c5c(F)cc(S(=O)(=O)[O-])cc5F)c5nc(c(-c6c(F)cc(S(=O)(=O)[O-])cc6F)c6ccc3[nH]6)C=C5)C=C4)cc2)cc1
REMARK SMILES IDX 27 1 26 2 24 3 25 4 23 6 18 7 19 8 20 9 22 10 21 11 16 12
REMARK SMILES IDX 15 13 17 15 14 16 9 17 10 18 11 19 13 20 12 21 7 22 6 23
REMARK SMILES IDX 8 25 5 26 1 27 2 28 3 29 100 30 4 31 99 32 28 33 29 34 30 35
REMARK SMILES IDX 31 36 32 38 33 39 34 40 98 41 35 42 97 43 36 44 37 45 38 46
REMARK SMILES IDX 91 47 39 48 96 49 90 50 92 51 40 52 95 53 89 54 88 55 41 57
REMARK SMILES IDX 75 58 54 59 74 60 55 61 58 62 73 63 93 64 56 65 57 66 72 68
REMARK SMILES IDX 94 69 59 70 42 71 43 72 52 73 44 74 45 75 51 76 53 77 46 78
REMARK SMILES IDX 47 79 48 80 49 81 50 82 76 83 77 84 86 85 78 86 79 87 85 88
REMARK SMILES IDX 87 89 80 90 81 91 82 92 83 93 84 94 60 95 61 96 70 97 62 98
REMARK SMILES IDX 63 99 69 100 71 101 64 102 65 103 66 104 67 105 68 106
REMARK H PARENT 26 5 15 14 6 24 30 37 92 56 58 67
REMARK Flexibility Score: inf
ROOT
ATOM      1  C   UNL     1       0.809  -2.326   7.024  1.00  0.00     0.117 C 
ENDROOT
BRANCH   1   2
ATOM      2  N   UNL     1      -0.113  -1.260   6.552  1.00  0.00    -0.356 N 
ATOM      3  C   UNL     1      -1.225  -1.175   5.764  1.00  0.00     0.223 C 
ATOM      4  O   UNL     1      -1.907  -0.141   5.768  1.00  0.00    -0.275 OA
ATOM      5  H   UNL     1       0.149  -0.377   6.901  1.00  0.00     0.163 HD
BRANCH   3   6
ATOM      6  C   UNL     1      -1.652  -2.272   4.793  1.00  0.00     0.091 C 
ATOM      7  C   UNL     1      -0.800  -2.245   3.498  1.00  0.00     0.091 C 
ATOM      8  C   UNL     1      -0.864  -3.565   2.718  1.00  0.00     0.014 C 
ATOM      9  C   UNL     1      -0.729  -4.791   3.618  1.00  0.00     0.001 C 
ATOM     10  C   UNL     1      -1.978  -3.600   5.484  1.00  0.00     0.014 C 
ATOM     11  C   UNL     1      -1.863  -4.851   4.624  1.00  0.00     0.001 C 
BRANCH   7  12
ATOM     12  C   UNL     1       0.660  -1.868   3.717  1.00  0.00     0.228 C 
ATOM     13  N   UNL     1       1.260  -0.704   3.347  1.00  0.00    -0.325 N 
ATOM     14  H   UNL     1       2.012  -0.484   3.942  1.00  0.00     0.169 HD
ATOM     15  O   UNL     1       1.381  -2.707   4.274  1.00  0.00    -0.274 OA
BRANCH  13  16
ATOM     16  C   UNL     1       1.097   0.278   2.340  1.00  0.00     0.054 A 
ATOM     17  C   UNL     1       2.086   1.286   2.149  1.00  0.00     0.063 A 
ATOM     18  C   UNL     1       1.854   2.316   1.204  1.00  0.00     0.016 A 
ATOM     19  C   UNL     1       0.707   2.348   0.422  1.00  0.00     0.001 A 
ATOM     20  C   UNL     1       0.004   0.284   1.461  1.00  0.00     0.027 A 
ATOM     21  C   UNL     1      -0.206   1.317   0.536  1.00  0.00     0.002 A 
BRANCH  17  22
ATOM     22  C   UNL     1       3.381   1.470   2.885  1.00  0.00     0.257 C 
ATOM     23  N   UNL     1       4.171   0.467   3.388  1.00  0.00    -0.322 N 
ATOM     24  H   UNL     1       4.784   0.786   4.090  1.00  0.00     0.170 HD
ATOM     25  O   UNL     1       3.786   2.626   3.059  1.00  0.00    -0.269 OA
BRANCH  23  26
ATOM     26  C   UNL     1       4.309  -0.902   3.138  1.00  0.00     0.041 A 
ATOM     27  C   UNL     1       3.833  -5.152   3.204  1.00  0.00     0.044 C 
ATOM     28  C   UNL     1       4.173  -3.696   3.097  1.00  0.00    -0.051 A 
ATOM     29  C   UNL     1       3.745  -2.949   1.991  1.00  0.00     0.005 A 
ATOM     30  C   UNL     1       4.812  -3.042   4.152  1.00  0.00     0.005 A 
ATOM     31  C   UNL     1       3.829  -1.551   2.003  1.00  0.00     0.026 A 
ATOM     32  C   UNL     1       4.892  -1.651   4.165  1.00  0.00     0.026 A 
ENDBRANCH  23  26
ENDBRANCH  17  22
ENDBRANCH  13  16
ENDBRANCH   7  12
ENDBRANCH   3   6
ENDBRANCH   1   2
BRANCH   1  33
ATOM     33  C   UNL     1       2.418  -2.103   7.005  1.00  0.00     0.042 C 
BRANCH  33  34
ATOM     34  C   UNL     1       3.093  -1.600   8.362  1.00  0.00     0.118 C 
BRANCH  34  35
ATOM     35  N   UNL     1       4.625  -1.197   8.622  1.00  0.00    -0.352 N 
ATOM     36  C   UNL     1       5.462  -0.146   9.215  1.00  0.00     0.251 C 
ATOM     37  H   UNL     1       5.208  -1.901   8.256  1.00  0.00     0.163 HD
ATOM     38  O   UNL     1       6.230  -0.595  10.089  1.00  0.00    -0.269 OA
BRANCH  36  39
ATOM     39  C   UNL     1       5.684   1.415   8.969  1.00  0.00     0.039 A 
ATOM     40  C   UNL     1       5.885   2.341  10.049  1.00  0.00     0.014 A 
ATOM     41  C   UNL     1       5.666   2.061   7.741  1.00  0.00     0.014 A 
ATOM     42  C   UNL     1       5.458   3.736   9.941  1.00  0.00     0.010 A 
ATOM     43  C   UNL     1       5.233   3.424   7.629  1.00  0.00     0.010 A 
ATOM     44  C   UNL     1       4.861   4.184   8.748  1.00  0.00    -0.014 A 
BRANCH  44  45
ATOM     45  C   UNL     1       3.643   5.132   8.664  1.00  0.00     0.031 A 
ATOM     46  C   UNL     1       3.804   6.492   8.155  1.00  0.00     0.074 A 
ATOM     47  C   UNL     1       2.305   4.874   8.862  1.00  0.00     0.049 A 
ATOM     48  N   UNL     1       3.474   7.569   8.793  1.00  0.00    -0.248 NA
ATOM     49  C   UNL     1       4.265   6.701   6.793  1.00  0.00     0.031 C 
ATOM     50  C   UNL     1       1.066   5.654   8.656  1.00  0.00     0.029 A 
ATOM     51  N   UNL     1       1.710   3.693   9.254  1.00  0.00    -0.354 N 
ATOM     52  C   UNL     1       3.403   8.552   7.827  1.00  0.00     0.074 A 
ATOM     53  C   UNL     1       4.108   8.021   6.676  1.00  0.00     0.031 C 
ATOM     54  C   UNL     1       0.025   5.050   9.288  1.00  0.00     0.029 A 
ATOM     55  C   UNL     1       0.538   3.878   9.970  1.00  0.00     0.049 A 
ATOM     56  H   UNL     1       2.082   2.805   9.045  1.00  0.00     0.167 HD
ATOM     57  C   UNL     1       2.490   9.570   7.895  1.00  0.00     0.037 A 
ATOM     58  C   UNL     1       0.483   3.509  11.294  1.00  0.00     0.037 A 
ATOM     59  C   UNL     1       1.440   9.279   8.882  1.00  0.00     0.049 A 
ATOM     60  C   UNL     1       0.422   4.739  12.146  1.00  0.00     0.074 A 
ATOM     61  C   UNL     1       0.112   8.907   8.722  1.00  0.00     0.029 A 
ATOM     62  N   UNL     1       1.744   9.043  10.218  1.00  0.00    -0.354 N 
ATOM     63  N   UNL     1       0.573   5.927  11.647  1.00  0.00    -0.248 NA
ATOM     64  C   UNL     1       0.224   4.767  13.588  1.00  0.00     0.031 C 
ATOM     65  C   UNL     1      -0.367   8.409   9.958  1.00  0.00     0.029 A 
ATOM     66  C   UNL     1       0.660   8.493  10.882  1.00  0.00     0.049 A 
ATOM     67  H   UNL     1       2.614   9.239  10.636  1.00  0.00     0.167 HD
ATOM     68  C   UNL     1       0.529   6.864  12.623  1.00  0.00     0.074 A 
ATOM     69  C   UNL     1       0.273   6.093  13.826  1.00  0.00     0.031 C 
ATOM     70  C   UNL     1       0.728   8.175  12.307  1.00  0.00     0.037 A 
BRANCH  57  71
ATOM     71  C   UNL     1       2.345  10.631   6.811  1.00  0.00     0.058 A 
ATOM     72  C   UNL     1       1.155  11.373   6.641  1.00  0.00     0.135 A 
ATOM     73  C   UNL     1       3.390  11.007   5.939  1.00  0.00     0.135 A 
ATOM     74  F   UNL     1       0.118  11.243   7.479  1.00  0.00    -0.206 F 
ATOM     75  C   UNL     1       0.984  12.321   5.629  1.00  0.00     0.059 A 
ATOM     76  C   UNL     1       3.225  11.903   4.878  1.00  0.00     0.059 A 
ATOM     77  F   UNL     1       4.644  10.566   6.124  1.00  0.00    -0.206 F 
ATOM     78  C   UNL     1       2.016  12.564   4.734  1.00  0.00     0.060 A 
BRANCH  78  79
ATOM     79  S   UNL     1       1.790  13.818   3.459  1.00  0.00     0.124 S 
ATOM     80  O   UNL     1       0.594  13.348   2.766  1.00  0.00    -0.237 OA
ATOM     81  O   UNL     1       1.627  15.031   4.253  1.00  0.00    -0.237 OA
ATOM     82  O   UNL     1       3.025  13.743   2.683  1.00  0.00    -0.744 OA
ENDBRANCH  78  79
ENDBRANCH  57  71
BRANCH  58  83
ATOM     83  C   UNL     1       1.249   2.229  11.720  1.00  0.00     0.058 A 
ATOM     84  C   UNL     1       0.704   1.046  11.193  1.00  0.00     0.135 A 
ATOM     85  C   UNL     1       2.606   2.344  11.497  1.00  0.00     0.135 A 
ATOM     86  F   UNL     1      -0.349   0.479  11.794  1.00  0.00    -0.206 F 
ATOM     87  C   UNL     1       1.154   0.514   9.981  1.00  0.00     0.059 A 
ATOM     88  C   UNL     1       3.046   1.854  10.262  1.00  0.00     0.059 A 
ATOM     89  F   UNL     1       3.295   3.350  12.068  1.00  0.00    -0.206 F 
ATOM     90  C   UNL     1       2.280   1.087   9.412  1.00  0.00     0.060 A 
BRANCH  90  91
ATOM     91  S   UNL     1       2.408   1.299   7.417  1.00  0.00     0.124 S 
ATOM     92  O   UNL     1       1.123   0.749   7.060  1.00  0.00    -0.237 OA
ATOM     93  O   UNL     1       2.480   2.730   7.146  1.00  0.00    -0.237 OA
ATOM     94  O   UNL     1       3.560   0.566   6.941  1.00  0.00    -0.744 OA
ENDBRANCH  90  91
ENDBRANCH  58  83
BRANCH  70  95
ATOM     95  C   UNL     1       0.889   9.295  13.289  1.00  0.00     0.058 A 
ATOM     96  C   UNL     1       1.355   9.132  14.602  1.00  0.00     0.135 A 
ATOM     97  C   UNL     1       0.669  10.631  12.873  1.00  0.00     0.135 A 
ATOM     98  F   UNL     1       1.729   7.936  15.075  1.00  0.00    -0.206 F 
ATOM     99  C   UNL     1       1.498  10.208  15.473  1.00  0.00     0.059 A 
ATOM    100  C   UNL     1       0.879  11.723  13.701  1.00  0.00     0.059 A 
ATOM    101  F   UNL     1       0.246  10.928  11.635  1.00  0.00    -0.206 F 
ATOM    102  C   UNL     1       1.253  11.498  15.014  1.00  0.00     0.060 A 
BRANCH 102 103
ATOM    103  S   UNL     1       1.457  12.885  16.137  1.00  0.00     0.124 S 
ATOM    104  O   UNL     1       0.186  12.861  16.855  1.00  0.00    -0.237 OA
ATOM    105  O   UNL     1       2.629  12.495  16.915  1.00  0.00    -0.237 OA
ATOM    106  O   UNL     1       1.656  14.020  15.242  1.00  0.00    -0.744 OA
ENDBRANCH 102 103
ENDBRANCH  70  95
ENDBRANCH  44  45
ENDBRANCH  36  39
ENDBRANCH  34  35
ENDBRANCH  33  34
ENDBRANCH   1  33
TORSDOF 17
