REMARK SMILES CCOc1cc(C[NH+]2CCC3(CC2)[C@H](C(=O)NCCCNC(=O)c2ccc(-c4c5nc(c(-c6c(F)cc(S(=O)(=O)[O-])cc6F)c6ccc([nH]6)c(-c6c(F)cc(S(=O)(=O)[O-])cc6F)c6nc(c(-c7c(F)cc(S(=O)(=O)[O-])cc7F)c7ccc4[nH]7)C=C6)C=C5)cc2)CC(=O)N3C)ccc1OC
REMARK SMILES IDX 18 1 17 2 15 3 16 4 14 6 8 7 9 8 13 9 10 11 12 12 11 13
REMARK SMILES IDX 93 14 90 15 91 16 94 17 92 18 7 19 6 20 4 21 5 22 97 23
REMARK SMILES IDX 96 24 95 25 3 26 2 27 1 28 98 29 99 30 19 31 20 32 21 33
REMARK SMILES IDX 22 34 23 36 24 37 25 38 89 39 26 40 88 41 27 42 28 43 29 44
REMARK SMILES IDX 82 45 30 46 87 47 81 48 83 49 31 50 86 51 80 52 79 53 32 55
REMARK SMILES IDX 66 56 45 57 65 58 46 59 49 60 64 61 84 62 47 63 48 64 63 66
REMARK SMILES IDX 85 67 50 68 33 69 34 70 43 71 35 72 36 73 42 74 44 75 37 76
REMARK SMILES IDX 38 77 39 78 40 79 41 80 67 81 68 82 77 83 69 84 70 85 76 86
REMARK SMILES IDX 78 87 71 88 72 89 73 90 74 91 75 92 51 93 52 94 61 95 53 96
REMARK SMILES IDX 54 97 60 98 62 99 55 100 56 101 57 102 58 103 59 104
REMARK H PARENT 17 5 8 10 21 35 83 54 49 65
REMARK Flexibility Score: inf
ROOT
ATOM      1  C   UNL     1       2.362  -0.567   6.555  1.00  0.00     0.117 C 
ENDROOT
BRANCH   1   2
ATOM      2  N   UNL     1       2.589  -0.102   5.198  1.00  0.00    -0.356 N 
ATOM      3  C   UNL     1       2.268  -0.514   3.958  1.00  0.00     0.226 C 
ATOM      4  O   UNL     1       2.693   0.225   3.062  1.00  0.00    -0.275 OA
ATOM      5  H   UNL     1       3.115   0.730   5.181  1.00  0.00     0.163 HD
BRANCH   3   6
ATOM      6  C   UNL     1       1.405  -1.720   3.590  1.00  0.00     0.114 C 
ATOM      7  N   UNL     1       3.609  -5.356   2.990  1.00  0.00    -0.331 N 
ATOM      8  C   UNL     1       4.033  -4.561   4.127  1.00  0.00     0.265 C 
ATOM      9  C   UNL     1       2.165  -5.501   2.920  1.00  0.00     0.265 C 
ATOM     10  H   UNL     1       3.927  -6.306   3.184  1.00  0.00     0.348 HD
ATOM     11  C   UNL     1       3.361  -3.198   4.192  1.00  0.00     0.091 C 
ATOM     12  C   UNL     1       1.337  -4.209   2.998  1.00  0.00     0.091 C 
ATOM     13  C   UNL     1       1.829  -3.153   4.028  1.00  0.00     0.065 C 
ATOM     14  N   UNL     1       1.018  -3.300   5.246  1.00  0.00    -0.339 N 
ATOM     15  C   UNL     1      -0.019  -1.529   4.080  1.00  0.00     0.116 C 
ATOM     16  C   UNL     1      -0.106  -2.466   5.249  1.00  0.00     0.223 C 
ATOM     17  C   UNL     1       1.059  -4.426   6.152  1.00  0.00     0.147 C 
ATOM     18  O   UNL     1      -1.028  -2.493   6.041  1.00  0.00    -0.275 OA
BRANCH   7  19
ATOM     19  C   UNL     1       4.367  -5.198   1.740  1.00  0.00     0.299 C 
BRANCH  19  20
ATOM     20  C   UNL     1       4.292  -3.848   1.054  1.00  0.00     0.010 A 
ATOM     21  C   UNL     1       2.921  -2.077   0.103  1.00  0.00     0.161 A 
ATOM     22  C   UNL     1       3.123  -3.432   0.398  1.00  0.00     0.060 A 
ATOM     23  C   UNL     1       3.966  -1.160   0.274  1.00  0.00     0.160 A 
ATOM     24  C   UNL     1       5.198  -1.619   0.747  1.00  0.00     0.051 A 
ATOM     25  C   UNL     1       5.352  -2.939   1.173  1.00  0.00     0.013 A 
BRANCH  21  26
ATOM     26  O   UNL     1       1.652  -1.596  -0.025  1.00  0.00    -0.490 OA
BRANCH  26  27
ATOM     27  C   UNL     1       0.828  -2.074  -1.073  1.00  0.00     0.226 C 
ATOM     28  C   UNL     1      -0.156  -0.939  -1.332  1.00  0.00     0.049 C 
ENDBRANCH  26  27
ENDBRANCH  21  26
BRANCH  23  29
ATOM     29  O   UNL     1       3.947   0.191   0.049  1.00  0.00    -0.493 OA
ATOM     30  C   UNL     1       2.696   0.864   0.027  1.00  0.00     0.278 C 
ENDBRANCH  23  29
ENDBRANCH  19  20
ENDBRANCH   7  19
ENDBRANCH   3   6
ENDBRANCH   1   2
BRANCH   1  31
ATOM     31  C   UNL     1       3.625  -1.095   7.235  1.00  0.00     0.042 C 
BRANCH  31  32
ATOM     32  C   UNL     1       4.867  -0.262   6.947  1.00  0.00     0.118 C 
BRANCH  32  33
ATOM     33  N   UNL     1       4.772   1.034   7.601  1.00  0.00    -0.352 N 
ATOM     34  C   UNL     1       5.239   1.373   8.848  1.00  0.00     0.251 C 
ATOM     35  H   UNL     1       4.324   1.748   7.093  1.00  0.00     0.163 HD
ATOM     36  O   UNL     1       4.752   2.321   9.454  1.00  0.00    -0.269 OA
BRANCH  34  37
ATOM     37  C   UNL     1       6.328   0.572   9.444  1.00  0.00     0.039 A 
ATOM     38  C   UNL     1       6.257   0.197  10.785  1.00  0.00     0.014 A 
ATOM     39  C   UNL     1       7.425   0.200   8.661  1.00  0.00     0.014 A 
ATOM     40  C   UNL     1       7.275  -0.587  11.331  1.00  0.00     0.010 A 
ATOM     41  C   UNL     1       8.386  -0.660   9.179  1.00  0.00     0.010 A 
ATOM     42  C   UNL     1       8.336  -1.041  10.527  1.00  0.00    -0.014 A 
BRANCH  42  43
ATOM     43  C   UNL     1       9.420  -1.888  11.087  1.00  0.00     0.031 A 
ATOM     44  C   UNL     1      10.842  -1.389  11.086  1.00  0.00     0.074 A 
ATOM     45  C   UNL     1       9.132  -3.121  11.548  1.00  0.00     0.049 A 
ATOM     46  N   UNL     1      11.928  -1.991  11.496  1.00  0.00    -0.248 NA
ATOM     47  C   UNL     1      11.080  -0.050  10.521  1.00  0.00     0.031 C 
ATOM     48  C   UNL     1       7.803  -3.739  11.540  1.00  0.00     0.029 A 
ATOM     49  N   UNL     1       9.937  -4.080  12.107  1.00  0.00    -0.354 N 
ATOM     50  C   UNL     1      12.973  -1.115  11.225  1.00  0.00     0.074 A 
ATOM     51  C   UNL     1      12.401   0.033  10.558  1.00  0.00     0.031 C 
ATOM     52  C   UNL     1       7.880  -4.957  12.097  1.00  0.00     0.029 A 
ATOM     53  C   UNL     1       9.266  -5.225  12.467  1.00  0.00     0.049 A 
ATOM     54  H   UNL     1      10.906  -3.960  12.238  1.00  0.00     0.167 HD
ATOM     55  C   UNL     1      14.286  -1.241  11.531  1.00  0.00     0.037 A 
ATOM     56  C   UNL     1       9.717  -6.363  13.029  1.00  0.00     0.037 A 
ATOM     57  C   UNL     1      14.840  -2.374  12.225  1.00  0.00     0.049 A 
ATOM     58  C   UNL     1      11.178  -6.474  13.375  1.00  0.00     0.074 A 
ATOM     59  C   UNL     1      16.142  -2.571  12.649  1.00  0.00     0.029 A 
ATOM     60  N   UNL     1      14.124  -3.504  12.596  1.00  0.00    -0.354 N 
ATOM     61  N   UNL     1      12.139  -5.600  13.184  1.00  0.00    -0.248 NA
ATOM     62  C   UNL     1      11.615  -7.718  14.021  1.00  0.00     0.031 C 
ATOM     63  C   UNL     1      16.226  -3.841  13.228  1.00  0.00     0.029 A 
ATOM     64  C   UNL     1      14.963  -4.413  13.218  1.00  0.00     0.049 A 
ATOM     65  H   UNL     1      13.162  -3.639  12.439  1.00  0.00     0.167 HD
ATOM     66  C   UNL     1      13.290  -6.181  13.707  1.00  0.00     0.074 A 
ATOM     67  C   UNL     1      12.899  -7.470  14.240  1.00  0.00     0.031 C 
ATOM     68  C   UNL     1      14.555  -5.694  13.741  1.00  0.00     0.037 A 
BRANCH  55  69
ATOM     69  C   UNL     1      15.212  -0.126  11.125  1.00  0.00     0.058 A 
ATOM     70  C   UNL     1      15.157   1.140  11.732  1.00  0.00     0.135 A 
ATOM     71  C   UNL     1      16.194  -0.336  10.143  1.00  0.00     0.135 A 
ATOM     72  F   UNL     1      14.228   1.404  12.665  1.00  0.00    -0.206 F 
ATOM     73  C   UNL     1      16.022   2.165  11.360  1.00  0.00     0.059 A 
ATOM     74  C   UNL     1      17.090   0.666   9.778  1.00  0.00     0.059 A 
ATOM     75  F   UNL     1      16.292  -1.524   9.528  1.00  0.00    -0.206 F 
ATOM     76  C   UNL     1      16.987   1.917  10.383  1.00  0.00     0.060 A 
BRANCH  76  77
ATOM     77  S   UNL     1      18.111   3.253   9.926  1.00  0.00     0.124 S 
ATOM     78  O   UNL     1      17.221   4.142   9.185  1.00  0.00    -0.237 OA
ATOM     79  O   UNL     1      18.558   3.744  11.226  1.00  0.00    -0.237 OA
ATOM     80  O   UNL     1      19.132   2.582   9.128  1.00  0.00    -0.744 OA
ENDBRANCH  76  77
ENDBRANCH  55  69
BRANCH  56  81
ATOM     81  C   UNL     1       8.773  -7.476  13.318  1.00  0.00     0.058 A 
ATOM     82  C   UNL     1       8.438  -7.820  14.636  1.00  0.00     0.135 A 
ATOM     83  C   UNL     1       8.176  -8.210  12.280  1.00  0.00     0.135 A 
ATOM     84  F   UNL     1       8.986  -7.152  15.662  1.00  0.00    -0.206 F 
ATOM     85  C   UNL     1       7.561  -8.863  14.918  1.00  0.00     0.059 A 
ATOM     86  C   UNL     1       7.274  -9.238  12.536  1.00  0.00     0.059 A 
ATOM     87  F   UNL     1       8.447  -7.910  11.001  1.00  0.00    -0.206 F 
ATOM     88  C   UNL     1       6.981  -9.565  13.860  1.00  0.00     0.060 A 
BRANCH  88  89
ATOM     89  S   UNL     1       5.808 -10.885  14.235  1.00  0.00     0.124 S 
ATOM     90  O   UNL     1       6.692 -11.926  14.747  1.00  0.00    -0.237 OA
ATOM     91  O   UNL     1       4.934 -10.248  15.215  1.00  0.00    -0.237 OA
ATOM     92  O   UNL     1       5.190 -11.162  12.941  1.00  0.00    -0.744 OA
ENDBRANCH  88  89
ENDBRANCH  56  81
BRANCH  68  93
ATOM     93  C   UNL     1      15.605  -6.549  14.397  1.00  0.00     0.058 A 
ATOM     94  C   UNL     1      16.070  -7.732  13.803  1.00  0.00     0.135 A 
ATOM     95  C   UNL     1      16.178  -6.158  15.618  1.00  0.00     0.135 A 
ATOM     96  F   UNL     1      15.553  -8.153  12.638  1.00  0.00    -0.206 F 
ATOM     97  C   UNL     1      17.044  -8.516  14.413  1.00  0.00     0.059 A 
ATOM     98  C   UNL     1      17.176  -6.910  16.230  1.00  0.00     0.059 A 
ATOM     99  F   UNL     1      15.779  -5.028  16.223  1.00  0.00    -0.206 F 
ATOM    100  C   UNL     1      17.590  -8.097  15.627  1.00  0.00     0.060 A 
BRANCH 100 101
ATOM    101  S   UNL     1      18.864  -9.116  16.400  1.00  0.00     0.124 S 
ATOM    102  O   UNL     1      18.080 -10.245  16.889  1.00  0.00    -0.237 OA
ATOM    103  O   UNL     1      19.757  -9.400  15.281  1.00  0.00    -0.237 OA
ATOM    104  O   UNL     1      19.419  -8.243  17.430  1.00  0.00    -0.744 OA
ENDBRANCH 100 101
ENDBRANCH  68  93
ENDBRANCH  42  43
ENDBRANCH  34  37
ENDBRANCH  32  33
ENDBRANCH  31  32
ENDBRANCH   1  31
TORSDOF 18
