REMARK SMILES COc1cc([N+](=O)[O-])cc([C@H]2[NH2+][C@H](C(=O)NCCCNC(=O)c3ccc(-c4c5nc(c(-c6c(F)cc(S(=O)(=O)[O-])cc6F)c6ccc([nH]6)c(-c6c(F)cc(S(=O)(=O)[O-])cc6F)c6nc(c(-c7c(F)cc(S(=O)(=O)[O-])cc7F)c7ccc4[nH]7)C=C6)C=C5)cc3)CS2)c1O
REMARK SMILES IDX 18 1 17 2 16 3 14 4 15 5 13 7 11 8 12 9 90 10 89 13 10 14
REMARK SMILES IDX 3 15 4 16 91 17 5 18 9 19 2 20 1 21 92 22 6 24 7 25 8 26
REMARK SMILES IDX 19 27 20 28 21 29 22 31 23 32 24 33 88 34 25 35 87 36 26 37
REMARK SMILES IDX 27 38 28 39 81 40 29 41 86 42 80 43 82 44 30 45 85 46 79 47
REMARK SMILES IDX 78 48 31 50 65 51 44 52 64 53 45 54 48 55 63 56 83 57 46 58
REMARK SMILES IDX 47 59 62 61 84 62 49 63 32 64 33 65 42 66 34 67 35 68 41 69
REMARK SMILES IDX 43 70 36 71 37 72 38 73 39 74 40 75 66 76 67 77 76 78 68 79
REMARK SMILES IDX 69 80 75 81 77 82 70 83 71 84 72 85 73 86 74 87 50 88 51 89
REMARK SMILES IDX 60 90 52 91 53 92 59 93 61 94 54 95 55 96 56 97 57 98 58 99
REMARK H PARENT 16 6 12 11 12 12 92 23 20 30 82 49 48 60
REMARK Flexibility Score: inf
ROOT
ATOM      1  C   UNL     1       2.123  -2.831   0.345  1.00  0.00     0.042 C 
ENDROOT
BRANCH   1   2
ATOM      2  C   UNL     1       2.312  -1.426  -0.218  1.00  0.00     0.118 C 
BRANCH   2   3
ATOM      3  N   UNL     1       3.188  -0.600   0.588  1.00  0.00    -0.351 N 
ATOM      4  C   UNL     1       4.513  -0.314   0.453  1.00  0.00     0.279 C 
ATOM      5  O   UNL     1       5.005   0.480   1.262  1.00  0.00    -0.268 OA
ATOM      6  H   UNL     1       2.753  -0.174   1.362  1.00  0.00     0.163 HD
BRANCH   4   7
ATOM      7  C   UNL     1       5.382  -0.902  -0.669  1.00  0.00     0.283 C 
ATOM      8  C   UNL     1       5.022  -2.949  -1.928  1.00  0.00     0.278 C 
ATOM      9  N   UNL     1       5.397  -2.392  -0.623  1.00  0.00    -0.320 N 
ATOM     10  S   UNL     1       5.538  -1.708  -3.138  1.00  0.00    -0.087 SA
ATOM     11  H   UNL     1       6.334  -2.711  -0.378  1.00  0.00     0.348 HD
ATOM     12  H   UNL     1       4.725  -2.707   0.077  1.00  0.00     0.348 HD
ATOM     13  C   UNL     1       5.052  -0.353  -2.050  1.00  0.00     0.151 C 
BRANCH   8  14
ATOM     14  C   UNL     1       5.487  -4.388  -2.139  1.00  0.00     0.073 A 
ATOM     15  C   UNL     1       5.914  -6.382  -3.526  1.00  0.00     0.167 A 
ATOM     16  C   UNL     1       6.048  -7.165  -2.374  1.00  0.00     0.136 A 
ATOM     17  C   UNL     1       5.634  -5.004  -3.405  1.00  0.00     0.168 A 
ATOM     18  C   UNL     1       5.890  -6.587  -1.118  1.00  0.00     0.273 A 
ATOM     19  C   UNL     1       5.601  -5.221  -0.999  1.00  0.00     0.100 A 
BRANCH  15  20
ATOM     20  O   UNL     1       6.089  -7.119  -4.667  1.00  0.00    -0.493 OA
ATOM     21  C   UNL     1       5.881  -6.503  -5.928  1.00  0.00     0.278 C 
ENDBRANCH  15  20
BRANCH  17  22
ATOM     22  O   UNL     1       5.477  -4.273  -4.552  1.00  0.00    -0.504 OA
ATOM     23  H   UNL     1       5.576  -4.685  -5.388  1.00  0.00     0.293 HD
ENDBRANCH  17  22
BRANCH  18  24
ATOM     24  N   UNL     1       6.021  -7.411   0.091  1.00  0.00     0.062 N 
ATOM     25  O   UNL     1       6.440  -8.568  -0.043  1.00  0.00    -0.258 OA
ATOM     26  O   UNL     1       5.732  -6.883   1.175  1.00  0.00    -0.258 OA
ENDBRANCH  18  24
ENDBRANCH   8  14
ENDBRANCH   4   7
ENDBRANCH   2   3
ENDBRANCH   1   2
BRANCH   1  27
ATOM     27  C   UNL     1       1.204  -2.884   1.560  1.00  0.00     0.118 C 
BRANCH  27  28
ATOM     28  N   UNL     1      -0.160  -2.484   1.236  1.00  0.00    -0.352 N 
ATOM     29  C   UNL     1      -1.344  -3.163   1.378  1.00  0.00     0.251 C 
ATOM     30  H   UNL     1      -0.245  -1.581   0.853  1.00  0.00     0.163 HD
ATOM     31  O   UNL     1      -2.352  -2.722   0.835  1.00  0.00    -0.269 OA
BRANCH  29  32
ATOM     32  C   UNL     1      -1.411  -4.413   2.167  1.00  0.00     0.039 A 
ATOM     33  C   UNL     1      -2.235  -5.449   1.719  1.00  0.00     0.014 A 
ATOM     34  C   UNL     1      -0.706  -4.551   3.366  1.00  0.00     0.014 A 
ATOM     35  C   UNL     1      -2.310  -6.640   2.445  1.00  0.00     0.010 A 
ATOM     36  C   UNL     1      -0.720  -5.765   4.045  1.00  0.00     0.010 A 
ATOM     37  C   UNL     1      -1.530  -6.818   3.599  1.00  0.00    -0.014 A 
BRANCH  37  38
ATOM     38  C   UNL     1      -1.553  -8.095   4.355  1.00  0.00     0.031 A 
ATOM     39  C   UNL     1      -2.066  -8.130   5.768  1.00  0.00     0.074 A 
ATOM     40  C   UNL     1      -1.053  -9.209   3.787  1.00  0.00     0.049 A 
ATOM     41  N   UNL     1      -2.119  -9.134   6.604  1.00  0.00    -0.248 NA
ATOM     42  C   UNL     1      -2.560  -6.860   6.324  1.00  0.00     0.031 C 
ATOM     43  C   UNL     1      -0.486  -9.289   2.439  1.00  0.00     0.029 A 
ATOM     44  N   UNL     1      -0.935 -10.486   4.273  1.00  0.00    -0.354 N 
ATOM     45  C   UNL     1      -2.637  -8.617   7.786  1.00  0.00     0.074 A 
ATOM     46  C   UNL     1      -2.826  -7.197   7.576  1.00  0.00     0.031 C 
ATOM     47  C   UNL     1      -0.113 -10.555   2.194  1.00  0.00     0.029 A 
ATOM     48  C   UNL     1      -0.376 -11.366   3.378  1.00  0.00     0.049 A 
ATOM     49  H   UNL     1      -1.223 -10.747   5.178  1.00  0.00     0.167 HD
ATOM     50  C   UNL     1      -2.948  -9.268   8.934  1.00  0.00     0.037 A 
ATOM     51  C   UNL     1      -0.107 -12.680   3.498  1.00  0.00     0.037 A 
ATOM     52  C   UNL     1      -2.767 -10.683   9.128  1.00  0.00     0.049 A 
ATOM     53  C   UNL     1      -0.446 -13.382   4.783  1.00  0.00     0.074 A 
ATOM     54  C   UNL     1      -3.099 -11.453  10.228  1.00  0.00     0.029 A 
ATOM     55  N   UNL     1      -2.195 -11.542   8.199  1.00  0.00    -0.354 N 
ATOM     56  N   UNL     1      -0.994 -12.892   5.870  1.00  0.00    -0.248 NA
ATOM     57  C   UNL     1      -0.134 -14.815   4.858  1.00  0.00     0.031 C 
ATOM     58  C   UNL     1      -2.688 -12.768   9.982  1.00  0.00     0.029 A 
ATOM     59  C   UNL     1      -2.143 -12.829   8.709  1.00  0.00     0.049 A 
ATOM     60  H   UNL     1      -1.873 -11.275   7.307  1.00  0.00     0.167 HD
ATOM     61  C   UNL     1      -1.113 -13.960   6.751  1.00  0.00     0.074 A 
ATOM     62  C   UNL     1      -0.590 -15.125   6.064  1.00  0.00     0.031 C 
ATOM     63  C   UNL     1      -1.612 -13.977   8.013  1.00  0.00     0.037 A 
BRANCH  50  64
ATOM     64  C   UNL     1      -3.508  -8.443  10.062  1.00  0.00     0.058 A 
ATOM     65  C   UNL     1      -4.781  -7.853   9.984  1.00  0.00     0.135 A 
ATOM     66  C   UNL     1      -2.758  -8.220  11.228  1.00  0.00     0.135 A 
ATOM     67  F   UNL     1      -5.538  -8.022   8.888  1.00  0.00    -0.206 F 
ATOM     68  C   UNL     1      -5.266  -7.028  10.994  1.00  0.00     0.059 A 
ATOM     69  C   UNL     1      -3.237  -7.424  12.265  1.00  0.00     0.059 A 
ATOM     70  F   UNL     1      -1.538  -8.763  11.361  1.00  0.00    -0.206 F 
ATOM     71  C   UNL     1      -4.481  -6.811  12.126  1.00  0.00     0.060 A 
BRANCH  71  72
ATOM     72  S   UNL     1      -5.103  -5.701  13.408  1.00  0.00     0.124 S 
ATOM     73  O   UNL     1      -4.903  -4.397  12.783  1.00  0.00    -0.237 OA
ATOM     74  O   UNL     1      -6.491  -6.128  13.548  1.00  0.00    -0.237 OA
ATOM     75  O   UNL     1      -4.243  -5.987  14.552  1.00  0.00    -0.744 OA
ENDBRANCH  71  72
ENDBRANCH  50  64
BRANCH  51  76
ATOM     76  C   UNL     1       0.469 -13.420   2.344  1.00  0.00     0.058 A 
ATOM     77  C   UNL     1      -0.321 -14.313   1.605  1.00  0.00     0.135 A 
ATOM     78  C   UNL     1       1.791 -13.211   1.923  1.00  0.00     0.135 A 
ATOM     79  F   UNL     1      -1.589 -14.549   1.974  1.00  0.00    -0.206 F 
ATOM     80  C   UNL     1       0.178 -14.973   0.488  1.00  0.00     0.059 A 
ATOM     81  C   UNL     1       2.307 -13.843   0.794  1.00  0.00     0.059 A 
ATOM     82  F   UNL     1       2.581 -12.354   2.588  1.00  0.00    -0.206 F 
ATOM     83  C   UNL     1       1.492 -14.725   0.085  1.00  0.00     0.060 A 
BRANCH  83  84
ATOM     84  S   UNL     1       2.097 -15.526  -1.417  1.00  0.00     0.124 S 
ATOM     85  O   UNL     1       2.244 -16.907  -0.975  1.00  0.00    -0.237 OA
ATOM     86  O   UNL     1       1.011 -15.270  -2.358  1.00  0.00    -0.237 OA
ATOM     87  O   UNL     1       3.340 -14.816  -1.700  1.00  0.00    -0.744 OA
ENDBRANCH  83  84
ENDBRANCH  51  76
BRANCH  63  88
ATOM     88  C   UNL     1      -1.635 -15.301   8.725  1.00  0.00     0.058 A 
ATOM     89  C   UNL     1      -0.461 -15.898   9.210  1.00  0.00     0.135 A 
ATOM     90  C   UNL     1      -2.852 -15.960   8.961  1.00  0.00     0.135 A 
ATOM     91  F   UNL     1       0.730 -15.313   9.004  1.00  0.00    -0.206 F 
ATOM     92  C   UNL     1      -0.490 -17.115   9.882  1.00  0.00     0.059 A 
ATOM     93  C   UNL     1      -2.907 -17.165   9.656  1.00  0.00     0.059 A 
ATOM     94  F   UNL     1      -4.006 -15.428   8.528  1.00  0.00    -0.206 F 
ATOM     95  C   UNL     1      -1.718 -17.741  10.101  1.00  0.00     0.060 A 
BRANCH  95  96
ATOM     96  S   UNL     1      -1.746 -19.306  11.001  1.00  0.00     0.124 S 
ATOM     97  O   UNL     1      -1.240 -20.233   9.995  1.00  0.00    -0.237 OA
ATOM     98  O   UNL     1      -0.852 -19.038  12.123  1.00  0.00    -0.237 OA
ATOM     99  O   UNL     1      -3.153 -19.470  11.355  1.00  0.00    -0.744 OA
ENDBRANCH  95  96
ENDBRANCH  63  88
ENDBRANCH  37  38
ENDBRANCH  29  32
ENDBRANCH  27  28
ENDBRANCH   1  27
TORSDOF 17
