REMARK SMILES O=C(NCCCNC(=O)c1cc([N+](=O)[O-])c(NCCC2=CCCCC2)c([N+](=O)[O-])c1)c1ccc(-c2c3nc(c(-c4c(F)cc(S(=O)(=O)[O-])cc4F)c4ccc([nH]4)c(-c4c(F)cc(S(=O)(=O)[O-])cc4F)c4nc(c(-c5c(F)cc(S(=O)(=O)[O-])cc5F)c5ccc2[nH]5)C=C4)C=C3)cc1
REMARK SMILES IDX 5 1 4 2 3 3 1 4 2 5 31 7 32 8 96 9 33 10 95 11 34 12 35 13
REMARK SMILES IDX 36 14 89 15 37 16 94 17 88 18 90 19 38 20 93 21 87 22 86 23
REMARK SMILES IDX 39 25 73 26 52 27 72 28 53 29 56 30 71 31 91 32 54 33 55 34
REMARK SMILES IDX 70 36 92 37 57 38 40 39 41 40 50 41 42 42 43 43 49 44 51 45
REMARK SMILES IDX 44 46 45 47 46 48 47 49 48 50 74 51 75 52 84 53 76 54 77 55
REMARK SMILES IDX 83 56 85 57 78 58 79 59 80 60 81 61 82 62 58 63 59 64 68 65
REMARK SMILES IDX 60 66 61 67 67 68 69 69 62 70 63 71 64 72 65 73 66 74 6 75
REMARK SMILES IDX 7 76 8 77 9 79 10 80 11 81 30 82 12 83 26 84 16 85 13 86
REMARK SMILES IDX 14 87 15 88 27 89 28 90 29 91 17 92 18 94 19 95 20 96 21 97
REMARK SMILES IDX 25 98 22 99 24 100 23 101
REMARK H PARENT 3 6 90 24 56 35 7 78 17 93
REMARK Flexibility Score: inf
ROOT
ATOM      1  C   UNL     1       4.944  -0.559  -2.492  1.00  0.00     0.042 C 
ENDROOT
BRANCH   1   2
ATOM      2  C   UNL     1       4.593   0.382  -1.352  1.00  0.00     0.118 C 
BRANCH   2   3
ATOM      3  N   UNL     1       3.164   0.419  -1.065  1.00  0.00    -0.352 N 
ATOM      4  O   UNL     1       1.238  -0.034   0.003  1.00  0.00    -0.269 OA
ATOM      5  C   UNL     1       2.465  -0.001   0.043  1.00  0.00     0.251 C 
ATOM      6  H   UNL     1       2.610   0.808  -1.780  1.00  0.00     0.163 HD
BRANCH   5   7
ATOM      7  C   UNL     1       3.183  -0.432   1.262  1.00  0.00     0.039 A 
ATOM      8  C   UNL     1       4.310   0.258   1.705  1.00  0.00     0.014 A 
ATOM      9  C   UNL     1       2.713  -1.533   1.986  1.00  0.00     0.014 A 
ATOM     10  C   UNL     1       5.070  -0.255   2.746  1.00  0.00     0.010 A 
ATOM     11  C   UNL     1       3.416  -1.980   3.111  1.00  0.00     0.010 A 
ATOM     12  C   UNL     1       4.622  -1.366   3.479  1.00  0.00    -0.014 A 
BRANCH  12  13
ATOM     13  C   UNL     1       5.410  -1.803   4.661  1.00  0.00     0.031 A 
ATOM     14  C   UNL     1       6.050  -3.163   4.719  1.00  0.00     0.074 A 
ATOM     15  C   UNL     1       5.595  -0.922   5.665  1.00  0.00     0.049 A 
ATOM     16  N   UNL     1       6.809  -3.672   5.656  1.00  0.00    -0.248 NA
ATOM     17  C   UNL     1       5.805  -4.073   3.589  1.00  0.00     0.031 C 
ATOM     18  C   UNL     1       5.003   0.420   5.726  1.00  0.00     0.029 A 
ATOM     19  N   UNL     1       6.348  -1.000   6.807  1.00  0.00    -0.354 N 
ATOM     20  C   UNL     1       7.128  -4.959   5.236  1.00  0.00     0.074 A 
ATOM     21  C   UNL     1       6.450  -5.167   3.975  1.00  0.00     0.031 C 
ATOM     22  C   UNL     1       5.461   1.056   6.813  1.00  0.00     0.029 A 
ATOM     23  C   UNL     1       6.320   0.149   7.562  1.00  0.00     0.049 A 
ATOM     24  H   UNL     1       6.859  -1.802   7.062  1.00  0.00     0.167 HD
ATOM     25  C   UNL     1       7.923  -5.874   5.842  1.00  0.00     0.037 A 
ATOM     26  C   UNL     1       6.906   0.439   8.739  1.00  0.00     0.037 A 
ATOM     27  C   UNL     1       8.598  -5.655   7.097  1.00  0.00     0.049 A 
ATOM     28  C   UNL     1       7.770  -0.599   9.393  1.00  0.00     0.074 A 
ATOM     29  C   UNL     1       9.424  -6.520   7.795  1.00  0.00     0.029 A 
ATOM     30  N   UNL     1       8.529  -4.486   7.842  1.00  0.00    -0.354 N 
ATOM     31  N   UNL     1       8.066  -1.806   8.972  1.00  0.00    -0.248 NA
ATOM     32  C   UNL     1       8.378  -0.240  10.679  1.00  0.00     0.031 C 
ATOM     33  C   UNL     1       9.827  -5.887   8.976  1.00  0.00     0.029 A 
ATOM     34  C   UNL     1       9.289  -4.611   8.995  1.00  0.00     0.049 A 
ATOM     35  H   UNL     1       8.016  -3.685   7.589  1.00  0.00     0.167 HD
ATOM     36  C   UNL     1       8.903  -2.348   9.939  1.00  0.00     0.074 A 
ATOM     37  C   UNL     1       9.089  -1.326  10.950  1.00  0.00     0.031 C 
ATOM     38  C   UNL     1       9.461  -3.582   9.990  1.00  0.00     0.037 A 
BRANCH  25  39
ATOM     39  C   UNL     1       8.111  -7.202   5.159  1.00  0.00     0.058 A 
ATOM     40  C   UNL     1       8.891  -7.327   3.998  1.00  0.00     0.135 A 
ATOM     41  C   UNL     1       7.552  -8.373   5.699  1.00  0.00     0.135 A 
ATOM     42  F   UNL     1       9.436  -6.240   3.430  1.00  0.00    -0.206 F 
ATOM     43  C   UNL     1       9.095  -8.561   3.387  1.00  0.00     0.059 A 
ATOM     44  C   UNL     1       7.763  -9.621   5.117  1.00  0.00     0.059 A 
ATOM     45  F   UNL     1       6.798  -8.312   6.807  1.00  0.00    -0.206 F 
ATOM     46  C   UNL     1       8.527  -9.703   3.954  1.00  0.00     0.060 A 
BRANCH  46  47
ATOM     47  S   UNL     1       8.812 -11.296   3.153  1.00  0.00     0.124 S 
ATOM     48  O   UNL     1       7.971 -11.178   1.966  1.00  0.00    -0.237 OA
ATOM     49  O   UNL     1      10.251 -11.272   2.914  1.00  0.00    -0.237 OA
ATOM     50  O   UNL     1       8.360 -12.263   4.148  1.00  0.00    -0.744 OA
ENDBRANCH  46  47
ENDBRANCH  25  39
BRANCH  26  51
ATOM     51  C   UNL     1       6.670   1.761   9.376  1.00  0.00     0.058 A 
ATOM     52  C   UNL     1       7.697   2.708   9.492  1.00  0.00     0.135 A 
ATOM     53  C   UNL     1       5.402   2.105   9.870  1.00  0.00     0.135 A 
ATOM     54  F   UNL     1       8.926   2.426   9.035  1.00  0.00    -0.206 F 
ATOM     55  C   UNL     1       7.481   3.942  10.098  1.00  0.00     0.059 A 
ATOM     56  C   UNL     1       5.154   3.343  10.451  1.00  0.00     0.059 A 
ATOM     57  F   UNL     1       4.380   1.241   9.762  1.00  0.00    -0.206 F 
ATOM     58  C   UNL     1       6.206   4.249  10.575  1.00  0.00     0.060 A 
BRANCH  58  59
ATOM     59  S   UNL     1       5.923   5.864  11.332  1.00  0.00     0.124 S 
ATOM     60  O   UNL     1       6.532   5.680  12.645  1.00  0.00    -0.237 OA
ATOM     61  O   UNL     1       6.627   6.760  10.420  1.00  0.00    -0.237 OA
ATOM     62  O   UNL     1       4.469   5.987  11.321  1.00  0.00    -0.744 OA
ENDBRANCH  58  59
ENDBRANCH  26  51
BRANCH  38  63
ATOM     63  C   UNL     1      10.342  -3.880  11.170  1.00  0.00     0.058 A 
ATOM     64  C   UNL     1       9.810  -4.084  12.453  1.00  0.00     0.135 A 
ATOM     65  C   UNL     1      11.734  -3.976  11.012  1.00  0.00     0.135 A 
ATOM     66  F   UNL     1       8.486  -3.994  12.657  1.00  0.00    -0.206 F 
ATOM     67  C   UNL     1      10.630  -4.340  13.546  1.00  0.00     0.059 A 
ATOM     68  C   UNL     1      12.571  -4.257  12.087  1.00  0.00     0.059 A 
ATOM     69  F   UNL     1      12.292  -3.797   9.804  1.00  0.00    -0.206 F 
ATOM     70  C   UNL     1      12.011  -4.421  13.353  1.00  0.00     0.060 A 
BRANCH  70  71
ATOM     71  S   UNL     1      13.065  -4.765  14.777  1.00  0.00     0.124 S 
ATOM     72  O   UNL     1      13.067  -3.475  15.459  1.00  0.00    -0.237 OA
ATOM     73  O   UNL     1      12.342  -5.838  15.452  1.00  0.00    -0.237 OA
ATOM     74  O   UNL     1      14.334  -5.158  14.172  1.00  0.00    -0.744 OA
ENDBRANCH  70  71
ENDBRANCH  38  63
ENDBRANCH  12  13
ENDBRANCH   5   7
ENDBRANCH   2   3
ENDBRANCH   1   2
BRANCH   1  75
ATOM     75  C   UNL     1       4.324  -0.172  -3.825  1.00  0.00     0.118 C 
BRANCH  75  76
ATOM     76  N   UNL     1       4.760   1.139  -4.295  1.00  0.00    -0.352 N 
ATOM     77  C   UNL     1       5.626   1.503  -5.293  1.00  0.00     0.251 C 
ATOM     78  H   UNL     1       4.361   1.897  -3.809  1.00  0.00     0.163 HD
ATOM     79  O   UNL     1       5.979   2.671  -5.414  1.00  0.00    -0.269 OA
BRANCH  77  80
ATOM     80  C   UNL     1       6.166   0.494  -6.226  1.00  0.00     0.053 A 
ATOM     81  C   UNL     1       7.496   0.568  -6.615  1.00  0.00     0.102 A 
ATOM     82  C   UNL     1       5.355  -0.486  -6.781  1.00  0.00     0.102 A 
ATOM     83  C   UNL     1       8.033  -0.438  -7.442  1.00  0.00     0.300 A 
ATOM     84  C   UNL     1       5.923  -1.535  -7.530  1.00  0.00     0.300 A 
ATOM     85  C   UNL     1       7.312  -1.587  -7.842  1.00  0.00     0.192 A 
BRANCH  83  86
ATOM     86  N   UNL     1       9.361  -0.153  -7.949  1.00  0.00     0.065 N 
ATOM     87  O   UNL     1      10.271  -0.034  -7.118  1.00  0.00    -0.258 OA
ATOM     88  O   UNL     1       9.477   0.001  -9.173  1.00  0.00    -0.258 OA
ENDBRANCH  83  86
BRANCH  84  89
ATOM     89  N   UNL     1       4.983  -2.591  -7.962  1.00  0.00     0.065 N 
ATOM     90  O   UNL     1       5.339  -3.370  -8.857  1.00  0.00    -0.258 OA
ATOM     91  O   UNL     1       3.872  -2.628  -7.412  1.00  0.00    -0.258 OA
ENDBRANCH  84  89
BRANCH  85  92
ATOM     92  N   UNL     1       7.853  -2.738  -8.385  1.00  0.00    -0.374 N 
ATOM     93  H   UNL     1       7.193  -3.444  -8.571  1.00  0.00     0.161 HD
BRANCH  92  94
ATOM     94  C   UNL     1       9.224  -3.097  -8.733  1.00  0.00     0.118 C 
BRANCH  94  95
ATOM     95  C   UNL     1       9.564  -4.539  -8.315  1.00  0.00     0.052 C 
BRANCH  95  96
ATOM     96  C   UNL     1       8.849  -5.725  -8.940  1.00  0.00    -0.072 C 
ATOM     97  C   UNL     1       7.871  -5.666  -9.863  1.00  0.00    -0.028 C 
ATOM     98  C   UNL     1       9.340  -7.063  -8.415  1.00  0.00     0.031 C 
ATOM     99  C   UNL     1       7.112  -6.865 -10.361  1.00  0.00     0.027 C 
ATOM    100  C   UNL     1       8.870  -8.261  -9.242  1.00  0.00     0.005 C 
ATOM    101  C   UNL     1       7.388  -8.140  -9.564  1.00  0.00     0.004 C 
ENDBRANCH  95  96
ENDBRANCH  94  95
ENDBRANCH  92  94
ENDBRANCH  85  92
ENDBRANCH  77  80
ENDBRANCH  75  76
ENDBRANCH   1  75
TORSDOF 19
