REMARK SMILES C[C@H]([C@@H](C)O)[N@H+]1CC[C@@](C)(C(=O)NCCCNC(=O)c2ccc(-c3c4nc(c(-c5c(F)cc(S(=O)(=O)[O-])cc5F)c5ccc([nH]5)c(-c5c(F)cc(S(=O)(=O)[O-])cc5F)c5nc(c(-c6c(F)cc(S(=O)(=O)[O-])cc6F)c6ccc3[nH]6)C=C5)C=C4)cc2)C1
REMARK SMILES IDX 15 1 14 2 13 3 11 4 12 5 9 7 6 8 7 9 86 10 8 12 10 13 2 14
REMARK SMILES IDX 1 15 3 16 4 17 5 18 16 20 17 21 18 22 19 24 20 25 21 26
REMARK SMILES IDX 85 27 22 28 84 29 23 30 24 31 25 32 78 33 26 34 83 35 77 36
REMARK SMILES IDX 79 37 27 38 82 39 76 40 75 41 28 43 62 44 41 45 61 46 42 47
REMARK SMILES IDX 45 48 60 49 80 50 43 51 44 52 59 54 81 55 46 56 29 57 30 58
REMARK SMILES IDX 39 59 31 60 32 61 38 62 40 63 33 64 34 65 35 66 36 67 37 68
REMARK SMILES IDX 63 69 64 70 73 71 65 72 66 73 72 74 74 75 67 76 68 77 69 78
REMARK SMILES IDX 70 79 71 80 47 81 48 82 57 83 49 84 50 85 56 86 58 87 51 88
REMARK SMILES IDX 52 89 53 90 54 91 55 92
REMARK H PARENT 13 6 6 11 5 19 17 23 79 42 45 53
REMARK Flexibility Score: inf
ROOT
ATOM      1  C   UNL     1      -4.535  -3.365   4.292  1.00  0.00     0.042 C 
ENDROOT
BRANCH   1   2
ATOM      2  C   UNL     1      -4.835  -1.934   3.852  1.00  0.00     0.117 C 
BRANCH   2   3
ATOM      3  N   UNL     1      -3.685  -1.081   4.076  1.00  0.00    -0.355 N 
ATOM      4  C   UNL     1      -2.739  -0.595   3.231  1.00  0.00     0.231 C 
ATOM      5  O   UNL     1      -1.829   0.039   3.775  1.00  0.00    -0.274 OA
ATOM      6  H   UNL     1      -3.567  -0.803   5.013  1.00  0.00     0.163 HD
BRANCH   4   7
ATOM      7  C   UNL     1      -2.862  -0.711   1.696  1.00  0.00     0.100 C 
ATOM      8  N   UNL     1      -0.893  -1.419   0.436  1.00  0.00    -0.330 N 
ATOM      9  C   UNL     1      -1.544  -2.600   0.999  1.00  0.00     0.263 C 
ATOM     10  C   UNL     1      -1.526  -0.235   1.054  1.00  0.00     0.279 C 
ATOM     11  H   UNL     1      -1.040  -1.359  -0.572  1.00  0.00     0.348 HD
ATOM     12  C   UNL     1      -2.978  -2.143   1.154  1.00  0.00     0.084 C 
ATOM     13  C   UNL     1      -4.064   0.153   1.256  1.00  0.00     0.028 C 
BRANCH   8  14
ATOM     14  C   UNL     1       0.593  -1.485   0.505  1.00  0.00     0.209 C 
ATOM     15  C   UNL     1       1.155  -1.762   1.911  1.00  0.00     0.078 C 
BRANCH  14  16
ATOM     16  C   UNL     1       1.252  -0.227  -0.139  1.00  0.00     0.169 C 
ATOM     17  C   UNL     1       2.704  -0.460  -0.545  1.00  0.00     0.045 C 
BRANCH  16  18
ATOM     18  O   UNL     1       0.548   0.137  -1.336  1.00  0.00    -0.387 OA
ATOM     19  H   UNL     1       0.612  -0.585  -1.980  1.00  0.00     0.211 HD
ENDBRANCH  16  18
ENDBRANCH  14  16
ENDBRANCH   8  14
ENDBRANCH   4   7
ENDBRANCH   2   3
ENDBRANCH   1   2
BRANCH   1  20
ATOM     20  C   UNL     1      -4.393  -3.512   5.804  1.00  0.00     0.118 C 
BRANCH  20  21
ATOM     21  N   UNL     1      -5.662  -3.326   6.495  1.00  0.00    -0.352 N 
ATOM     22  C   UNL     1      -6.357  -4.213   7.281  1.00  0.00     0.251 C 
ATOM     23  H   UNL     1      -6.079  -2.442   6.383  1.00  0.00     0.163 HD
ATOM     24  O   UNL     1      -7.518  -3.969   7.599  1.00  0.00    -0.269 OA
BRANCH  22  25
ATOM     25  C   UNL     1      -5.707  -5.463   7.724  1.00  0.00     0.039 A 
ATOM     26  C   UNL     1      -6.402  -6.670   7.623  1.00  0.00     0.014 A 
ATOM     27  C   UNL     1      -4.406  -5.438   8.234  1.00  0.00     0.014 A 
ATOM     28  C   UNL     1      -5.764  -7.865   7.969  1.00  0.00     0.010 A 
ATOM     29  C   UNL     1      -3.749  -6.632   8.506  1.00  0.00     0.010 A 
ATOM     30  C   UNL     1      -4.421  -7.858   8.378  1.00  0.00    -0.014 A 
BRANCH  30  31
ATOM     31  C   UNL     1      -3.686  -9.110   8.691  1.00  0.00     0.031 A 
ATOM     32  C   UNL     1      -3.152  -9.330  10.080  1.00  0.00     0.074 A 
ATOM     33  C   UNL     1      -3.414  -9.993   7.709  1.00  0.00     0.049 A 
ATOM     34  N   UNL     1      -2.348 -10.262  10.518  1.00  0.00    -0.248 NA
ATOM     35  C   UNL     1      -3.552  -8.350  11.104  1.00  0.00     0.031 C 
ATOM     36  C   UNL     1      -3.853  -9.875   6.317  1.00  0.00     0.029 A 
ATOM     37  N   UNL     1      -2.680 -11.153   7.727  1.00  0.00    -0.354 N 
ATOM     38  C   UNL     1      -2.126  -9.969  11.859  1.00  0.00     0.074 A 
ATOM     39  C   UNL     1      -2.842  -8.746  12.149  1.00  0.00     0.031 C 
ATOM     40  C   UNL     1      -3.387 -10.923   5.618  1.00  0.00     0.029 A 
ATOM     41  C   UNL     1      -2.577 -11.761   6.497  1.00  0.00     0.049 A 
ATOM     42  H   UNL     1      -2.267 -11.517   8.543  1.00  0.00     0.167 HD
ATOM     43  C   UNL     1      -1.406 -10.667  12.769  1.00  0.00     0.037 A 
ATOM     44  C   UNL     1      -1.889 -12.855   6.116  1.00  0.00     0.037 A 
ATOM     45  C   UNL     1      -0.721 -11.899  12.476  1.00  0.00     0.049 A 
ATOM     46  C   UNL     1      -1.081 -13.606   7.141  1.00  0.00     0.074 A 
ATOM     47  C   UNL     1      -0.006 -12.710  13.338  1.00  0.00     0.029 A 
ATOM     48  N   UNL     1      -0.667 -12.496  11.225  1.00  0.00    -0.354 N 
ATOM     49  N   UNL     1      -0.918 -13.340   8.415  1.00  0.00    -0.248 NA
ATOM     50  C   UNL     1      -0.363 -14.803   6.680  1.00  0.00     0.031 C 
ATOM     51  C   UNL     1       0.518 -13.776  12.600  1.00  0.00     0.029 A 
ATOM     52  C   UNL     1       0.084 -13.658  11.289  1.00  0.00     0.049 A 
ATOM     53  H   UNL     1      -1.098 -12.147  10.412  1.00  0.00     0.167 HD
ATOM     54  C   UNL     1      -0.110 -14.356   8.915  1.00  0.00     0.074 A 
ATOM     55  C   UNL     1       0.182 -15.241   7.807  1.00  0.00     0.031 C 
ATOM     56  C   UNL     1       0.344 -14.541  10.179  1.00  0.00     0.037 A 
BRANCH  43  57
ATOM     57  C   UNL     1      -1.324 -10.118  14.167  1.00  0.00     0.058 A 
ATOM     58  C   UNL     1      -2.438 -10.109  15.022  1.00  0.00     0.135 A 
ATOM     59  C   UNL     1      -0.109  -9.627  14.671  1.00  0.00     0.135 A 
ATOM     60  F   UNL     1      -3.628 -10.552  14.587  1.00  0.00    -0.206 F 
ATOM     61  C   UNL     1      -2.358  -9.605  16.316  1.00  0.00     0.059 A 
ATOM     62  C   UNL     1       0.002  -9.145  15.973  1.00  0.00     0.059 A 
ATOM     63  F   UNL     1       0.988  -9.611  13.897  1.00  0.00    -0.206 F 
ATOM     64  C   UNL     1      -1.133  -9.124  16.782  1.00  0.00     0.060 A 
BRANCH  64  65
ATOM     65  S   UNL     1      -1.047  -8.477  18.465  1.00  0.00     0.124 S 
ATOM     66  O   UNL     1      -1.762  -7.212  18.326  1.00  0.00    -0.237 OA
ATOM     67  O   UNL     1      -1.734  -9.511  19.232  1.00  0.00    -0.237 OA
ATOM     68  O   UNL     1       0.386  -8.363  18.713  1.00  0.00    -0.744 OA
ENDBRANCH  64  65
ENDBRANCH  43  57
BRANCH  44  69
ATOM     69  C   UNL     1      -1.942 -13.314   4.702  1.00  0.00     0.058 A 
ATOM     70  C   UNL     1      -2.612 -14.496   4.354  1.00  0.00     0.135 A 
ATOM     71  C   UNL     1      -1.337 -12.579   3.670  1.00  0.00     0.135 A 
ATOM     72  F   UNL     1      -3.201 -15.237   5.305  1.00  0.00    -0.206 F 
ATOM     73  C   UNL     1      -2.666 -14.945   3.038  1.00  0.00     0.059 A 
ATOM     74  C   UNL     1      -1.400 -12.993   2.342  1.00  0.00     0.059 A 
ATOM     75  F   UNL     1      -0.699 -11.431   3.946  1.00  0.00    -0.206 F 
ATOM     76  C   UNL     1      -2.058 -14.184   2.038  1.00  0.00     0.060 A 
BRANCH  76  77
ATOM     77  S   UNL     1      -2.172 -14.753   0.328  1.00  0.00     0.124 S 
ATOM     78  O   UNL     1      -1.260 -15.890   0.336  1.00  0.00    -0.237 OA
ATOM     79  O   UNL     1      -3.591 -15.072   0.206  1.00  0.00    -0.237 OA
ATOM     80  O   UNL     1      -1.730 -13.593  -0.441  1.00  0.00    -0.744 OA
ENDBRANCH  76  77
ENDBRANCH  44  69
BRANCH  56  81
ATOM     81  C   UNL     1       1.161 -15.771  10.458  1.00  0.00     0.058 A 
ATOM     82  C   UNL     1       2.496 -15.882  10.043  1.00  0.00     0.135 A 
ATOM     83  C   UNL     1       0.626 -16.810  11.239  1.00  0.00     0.135 A 
ATOM     84  F   UNL     1       3.051 -14.921   9.287  1.00  0.00    -0.206 F 
ATOM     85  C   UNL     1       3.274 -16.983  10.390  1.00  0.00     0.059 A 
ATOM     86  C   UNL     1       1.393 -17.906  11.619  1.00  0.00     0.059 A 
ATOM     87  F   UNL     1      -0.644 -16.747  11.668  1.00  0.00    -0.206 F 
ATOM     88  C   UNL     1       2.716 -17.985  11.187  1.00  0.00     0.060 A 
BRANCH  88  89
ATOM     89  S   UNL     1       3.759 -19.369  11.693  1.00  0.00     0.124 S 
ATOM     90  O   UNL     1       3.878 -20.119  10.447  1.00  0.00    -0.237 OA
ATOM     91  O   UNL     1       4.972 -18.695  12.146  1.00  0.00    -0.237 OA
ATOM     92  O   UNL     1       2.979 -20.016  12.744  1.00  0.00    -0.744 OA
ENDBRANCH  88  89
ENDBRANCH  56  81
ENDBRANCH  30  31
ENDBRANCH  22  25
ENDBRANCH  20  21
ENDBRANCH   1  20
TORSDOF 16
