REMARK SMILES Cc1cccc(C(=O)NCCCNC(=O)c2ccc(-c3c4nc(c(-c5c(F)cc(S(=O)(=O)[O-])cc5F)c5ccc([nH]5)c(-c5c(F)cc(S(=O)(=O)[O-])cc5F)c5nc(c(-c6c(F)cc(S(=O)(=O)[O-])cc6F)c6ccc3[nH]6)C=C5)C=C4)cc2)c1NC(=O)Cc1ccccc1
REMARK SMILES IDX 11 1 10 2 9 3 7 4 8 5 6 7 1 8 2 9 3 10 82 11 4 12 5 13 83 14
REMARK SMILES IDX 84 15 85 17 86 18 87 19 88 20 92 21 89 22 91 23 90 24 12 25
REMARK SMILES IDX 13 26 14 27 15 29 16 30 17 31 81 32 18 33 80 34 19 35 20 36
REMARK SMILES IDX 21 37 74 38 22 39 79 40 73 41 75 42 23 43 78 44 72 45 71 46
REMARK SMILES IDX 24 48 58 49 37 50 57 51 38 52 41 53 56 54 76 55 39 56 40 57
REMARK SMILES IDX 55 59 77 60 42 61 25 62 26 63 35 64 27 65 28 66 34 67 36 68
REMARK SMILES IDX 29 69 30 70 31 71 32 72 33 73 59 74 60 75 69 76 61 77 62 78
REMARK SMILES IDX 68 79 70 80 63 81 64 82 65 83 66 84 67 85 43 86 44 87 53 88
REMARK SMILES IDX 45 89 46 90 52 91 54 92 47 93 48 94 49 95 50 96 51 97
REMARK H PARENT 9 6 83 16 13 28 75 47 41 58
REMARK Flexibility Score: inf
ROOT
ATOM      1  C   UNL     1       2.270   3.957  -0.113  1.00  0.00     0.042 C 
ENDROOT
BRANCH   1   2
ATOM      2  C   UNL     1       1.570   3.695   1.230  1.00  0.00     0.118 C 
BRANCH   2   3
ATOM      3  N   UNL     1       0.102   3.652   1.293  1.00  0.00    -0.352 N 
ATOM      4  C   UNL     1      -0.789   2.598   1.415  1.00  0.00     0.253 C 
ATOM      5  O   UNL     1      -1.845   2.766   2.023  1.00  0.00    -0.269 OA
ATOM      6  H   UNL     1      -0.328   4.537   1.238  1.00  0.00     0.163 HD
BRANCH   4   7
ATOM      7  C   UNL     1      -0.529   1.252   0.840  1.00  0.00     0.063 A 
ATOM      8  C   UNL     1       2.304  -0.199  -1.035  1.00  0.00     0.046 C 
ATOM      9  C   UNL     1       0.938  -0.134  -0.421  1.00  0.00    -0.027 A 
ATOM     10  C   UNL     1       0.358  -1.280   0.129  1.00  0.00     0.005 A 
ATOM     11  C   UNL     1       0.242   1.071  -0.291  1.00  0.00     0.056 A 
ATOM     12  C   UNL     1      -0.751  -1.158   0.962  1.00  0.00     0.001 A 
ATOM     13  C   UNL     1      -1.126   0.114   1.401  1.00  0.00     0.016 A 
BRANCH  11  14
ATOM     14  N   UNL     1       0.143   1.870  -1.446  1.00  0.00    -0.325 N 
ATOM     15  C   UNL     1      -0.906   2.580  -1.966  1.00  0.00     0.228 C 
ATOM     16  H   UNL     1       0.973   1.928  -1.972  1.00  0.00     0.169 HD
ATOM     17  O   UNL     1      -0.669   3.189  -3.018  1.00  0.00    -0.274 OA
BRANCH  15  18
ATOM     18  C   UNL     1      -2.323   2.557  -1.380  1.00  0.00     0.135 C 
BRANCH  18  19
ATOM     19  C   UNL     1      -2.893   3.928  -1.115  1.00  0.00    -0.039 A 
ATOM     20  C   UNL     1      -4.272   4.159  -1.190  1.00  0.00     0.004 A 
ATOM     21  C   UNL     1      -2.051   4.998  -0.818  1.00  0.00     0.004 A 
ATOM     22  C   UNL     1      -4.766   5.456  -1.126  1.00  0.00     0.000 A 
ATOM     23  C   UNL     1      -2.535   6.288  -0.755  1.00  0.00     0.000 A 
ATOM     24  C   UNL     1      -3.886   6.514  -0.959  1.00  0.00     0.000 A 
ENDBRANCH  18  19
ENDBRANCH  15  18
ENDBRANCH  11  14
ENDBRANCH   4   7
ENDBRANCH   2   3
ENDBRANCH   1   2
BRANCH   1  25
ATOM     25  C   UNL     1       1.930   5.223  -0.882  1.00  0.00     0.118 C 
BRANCH  25  26
ATOM     26  N   UNL     1       2.671   6.417  -0.519  1.00  0.00    -0.352 N 
ATOM     27  C   UNL     1       2.982   7.299  -1.546  1.00  0.00     0.251 C 
ATOM     28  H   UNL     1       2.941   6.593   0.411  1.00  0.00     0.163 HD
ATOM     29  O   UNL     1       3.856   7.117  -2.393  1.00  0.00    -0.269 OA
BRANCH  27  30
ATOM     30  C   UNL     1       1.911   8.283  -1.792  1.00  0.00     0.039 A 
ATOM     31  C   UNL     1       1.851   9.522  -1.153  1.00  0.00     0.014 A 
ATOM     32  C   UNL     1       0.839   7.802  -2.548  1.00  0.00     0.014 A 
ATOM     33  C   UNL     1       0.651  10.237  -1.168  1.00  0.00     0.010 A 
ATOM     34  C   UNL     1      -0.350   8.491  -2.535  1.00  0.00     0.010 A 
ATOM     35  C   UNL     1      -0.460   9.683  -1.807  1.00  0.00    -0.014 A 
BRANCH  35  36
ATOM     36  C   UNL     1      -1.813  10.218  -1.738  1.00  0.00     0.031 A 
ATOM     37  C   UNL     1      -2.401  10.872  -2.928  1.00  0.00     0.074 A 
ATOM     38  C   UNL     1      -2.587   9.871  -0.689  1.00  0.00     0.049 A 
ATOM     39  N   UNL     1      -3.558  11.435  -2.963  1.00  0.00    -0.248 NA
ATOM     40  C   UNL     1      -1.700  10.945  -4.203  1.00  0.00     0.031 C 
ATOM     41  C   UNL     1      -4.048   9.873  -0.628  1.00  0.00     0.029 A 
ATOM     42  N   UNL     1      -2.238   9.429   0.572  1.00  0.00    -0.354 N 
ATOM     43  C   UNL     1      -3.886  11.670  -4.281  1.00  0.00     0.074 A 
ATOM     44  C   UNL     1      -2.662  11.414  -5.004  1.00  0.00     0.031 C 
ATOM     45  C   UNL     1      -4.446   9.649   0.638  1.00  0.00     0.029 A 
ATOM     46  C   UNL     1      -3.258   9.741   1.466  1.00  0.00     0.049 A 
ATOM     47  H   UNL     1      -1.399   8.967   0.801  1.00  0.00     0.167 HD
ATOM     48  C   UNL     1      -5.192  11.928  -4.595  1.00  0.00     0.037 A 
ATOM     49  C   UNL     1      -3.091  10.722   2.407  1.00  0.00     0.037 A 
ATOM     50  C   UNL     1      -6.002  12.003  -3.368  1.00  0.00     0.049 A 
ATOM     51  C   UNL     1      -4.003  11.903   2.118  1.00  0.00     0.074 A 
ATOM     52  C   UNL     1      -6.848  11.100  -2.744  1.00  0.00     0.029 A 
ATOM     53  N   UNL     1      -5.737  13.000  -2.427  1.00  0.00    -0.354 N 
ATOM     54  N   UNL     1      -4.406  12.237   0.917  1.00  0.00    -0.248 NA
ATOM     55  C   UNL     1      -4.650  12.695   3.160  1.00  0.00     0.031 C 
ATOM     56  C   UNL     1      -7.003  11.507  -1.390  1.00  0.00     0.029 A 
ATOM     57  C   UNL     1      -6.275  12.672  -1.194  1.00  0.00     0.049 A 
ATOM     58  H   UNL     1      -5.235  13.826  -2.614  1.00  0.00     0.167 HD
ATOM     59  C   UNL     1      -5.415  13.156   1.012  1.00  0.00     0.074 A 
ATOM     60  C   UNL     1      -5.495  13.450   2.434  1.00  0.00     0.031 C 
ATOM     61  C   UNL     1      -6.167  13.574  -0.052  1.00  0.00     0.037 A 
BRANCH  48  62
ATOM     62  C   UNL     1      -5.784  11.849  -6.000  1.00  0.00     0.058 A 
ATOM     63  C   UNL     1      -7.161  11.587  -6.200  1.00  0.00     0.135 A 
ATOM     64  C   UNL     1      -5.052  11.985  -7.198  1.00  0.00     0.135 A 
ATOM     65  F   UNL     1      -8.015  11.512  -5.170  1.00  0.00    -0.206 F 
ATOM     66  C   UNL     1      -7.734  11.391  -7.464  1.00  0.00     0.059 A 
ATOM     67  C   UNL     1      -5.587  11.739  -8.469  1.00  0.00     0.059 A 
ATOM     68  F   UNL     1      -3.794  12.436  -7.204  1.00  0.00    -0.206 F 
ATOM     69  C   UNL     1      -6.933  11.440  -8.595  1.00  0.00     0.060 A 
BRANCH  69  70
ATOM     70  S   UNL     1      -7.672  11.159 -10.217  1.00  0.00     0.124 S 
ATOM     71  O   UNL     1      -8.257   9.831 -10.065  1.00  0.00    -0.237 OA
ATOM     72  O   UNL     1      -8.620  12.264 -10.316  1.00  0.00    -0.237 OA
ATOM     73  O   UNL     1      -6.533  11.232 -11.129  1.00  0.00    -0.744 OA
ENDBRANCH  69  70
ENDBRANCH  48  62
BRANCH  49  74
ATOM     74  C   UNL     1      -1.704  10.733   2.963  1.00  0.00     0.058 A 
ATOM     75  C   UNL     1      -1.328   9.595   3.711  1.00  0.00     0.135 A 
ATOM     76  C   UNL     1      -0.672  11.473   2.365  1.00  0.00     0.135 A 
ATOM     77  F   UNL     1      -2.269   8.856   4.321  1.00  0.00    -0.206 F 
ATOM     78  C   UNL     1      -0.029   9.095   3.688  1.00  0.00     0.059 A 
ATOM     79  C   UNL     1       0.646  10.998   2.348  1.00  0.00     0.059 A 
ATOM     80  F   UNL     1      -0.954  12.572   1.650  1.00  0.00    -0.206 F 
ATOM     81  C   UNL     1       0.935   9.766   2.941  1.00  0.00     0.060 A 
BRANCH  81  82
ATOM     82  S   UNL     1       2.489   8.899   2.605  1.00  0.00     0.124 S 
ATOM     83  O   UNL     1       2.998   8.641   3.946  1.00  0.00    -0.237 OA
ATOM     84  O   UNL     1       2.021   7.724   1.865  1.00  0.00    -0.237 OA
ATOM     85  O   UNL     1       3.251   9.858   1.815  1.00  0.00    -0.744 OA
ENDBRANCH  81  82
ENDBRANCH  49  74
BRANCH  61  86
ATOM     86  C   UNL     1      -6.975  14.847  -0.061  1.00  0.00     0.058 A 
ATOM     87  C   UNL     1      -6.623  15.973   0.703  1.00  0.00     0.135 A 
ATOM     88  C   UNL     1      -8.018  15.043  -0.998  1.00  0.00     0.135 A 
ATOM     89  F   UNL     1      -5.582  15.949   1.548  1.00  0.00    -0.206 F 
ATOM     90  C   UNL     1      -7.291  17.189   0.591  1.00  0.00     0.059 A 
ATOM     91  C   UNL     1      -8.657  16.267  -1.170  1.00  0.00     0.059 A 
ATOM     92  F   UNL     1      -8.435  14.055  -1.804  1.00  0.00    -0.206 F 
ATOM     93  C   UNL     1      -8.302  17.330  -0.353  1.00  0.00     0.060 A 
BRANCH  93  94
ATOM     94  S   UNL     1      -9.099  18.929  -0.559  1.00  0.00     0.124 S 
ATOM     95  O   UNL     1     -10.183  18.838   0.413  1.00  0.00    -0.237 OA
ATOM     96  O   UNL     1      -8.031  19.867  -0.226  1.00  0.00    -0.237 OA
ATOM     97  O   UNL     1      -9.502  18.924  -1.962  1.00  0.00    -0.744 OA
ENDBRANCH  93  94
ENDBRANCH  61  86
ENDBRANCH  35  36
ENDBRANCH  27  30
ENDBRANCH  25  26
ENDBRANCH   1  25
TORSDOF 16
