REMARK SMILES CCc1nn(-c2ccncn2)c(Cl)c1C(=O)NCCCNC(=O)c1ccc(-c2c3nc(c(-c4c(F)cc(S(=O)(=O)[O-])cc4F)c4ccc([nH]4)c(-c4c(F)cc(S(=O)(=O)[O-])cc4F)c4nc(c(-c5c(F)cc(S(=O)(=O)[O-])cc5F)c5ccc2[nH]5)C=C4)C=C3)cc1
REMARK SMILES IDX 20 1 19 2 18 3 17 4 15 5 16 6 14 8 3 9 4 10 5 11 12 12 13 13
REMARK SMILES IDX 2 14 1 15 6 16 7 17 11 18 8 19 10 20 9 21 21 22 22 23 23 25
REMARK SMILES IDX 24 26 25 27 89 28 26 29 88 30 27 31 28 32 29 33 82 34 30 35
REMARK SMILES IDX 87 36 81 37 83 38 31 39 86 40 80 41 79 42 32 44 66 45 45 46
REMARK SMILES IDX 65 47 46 48 49 49 64 50 84 51 47 52 48 53 63 55 85 56 50 57
REMARK SMILES IDX 33 58 34 59 43 60 35 61 36 62 42 63 44 64 37 65 38 66 39 67
REMARK SMILES IDX 40 68 41 69 67 70 68 71 77 72 69 73 70 74 76 75 78 76 71 77
REMARK SMILES IDX 72 78 73 79 74 80 75 81 51 82 52 83 61 84 53 85 54 86 60 87
REMARK SMILES IDX 62 88 55 89 56 90 57 91 58 92 59 93
REMARK H PARENT 17 7 21 24 83 43 49 54
REMARK Flexibility Score: inf
ROOT
ATOM      1  C   UNL     1      -2.305   0.330   1.385  1.00  0.00     0.118 C 
ENDROOT
BRANCH   1   2
ATOM      2  C   UNL     1      -1.407   0.300   0.155  1.00  0.00     0.042 C 
BRANCH   2   3
ATOM      3  C   UNL     1      -0.260  -0.693   0.322  1.00  0.00     0.118 C 
BRANCH   3   4
ATOM      4  N   UNL     1      -0.479  -1.950  -0.336  1.00  0.00    -0.352 N 
ATOM      5  C   UNL     1       0.055  -2.583  -1.421  1.00  0.00     0.256 C 
ATOM      6  O   UNL     1      -0.227  -3.785  -1.434  1.00  0.00    -0.269 OA
ATOM      7  H   UNL     1      -1.182  -2.484   0.100  1.00  0.00     0.163 HD
BRANCH   5   8
ATOM      8  C   UNL     1       0.853  -1.986  -2.502  1.00  0.00     0.100 A 
ATOM      9  C   UNL     1       1.521  -0.741  -2.790  1.00  0.00     0.077 A 
ATOM     10  N   UNL     1       2.209  -0.782  -3.943  1.00  0.00    -0.169 NA
ATOM     11  N   UNL     1       1.882  -1.960  -4.519  1.00  0.00    -0.203 N 
ATOM     12  C   UNL     1       1.138  -2.722  -3.652  1.00  0.00     0.147 A 
ATOM     13  Cl  UNL     1       0.826  -4.373  -4.033  1.00  0.00    -0.061 Cl
BRANCH   9  14
ATOM     14  C   UNL     1       1.605   0.574  -2.080  1.00  0.00     0.056 C 
ATOM     15  C   UNL     1       2.639   0.614  -0.960  1.00  0.00     0.011 C 
ENDBRANCH   9  14
BRANCH  11  16
ATOM     16  C   UNL     1       2.310  -2.248  -5.853  1.00  0.00     0.158 A 
ATOM     17  C   UNL     1       1.451  -2.895  -6.724  1.00  0.00     0.069 A 
ATOM     18  N   UNL     1       3.558  -1.863  -6.216  1.00  0.00    -0.217 NA
ATOM     19  C   UNL     1       1.960  -3.190  -7.967  1.00  0.00     0.117 A 
ATOM     20  C   UNL     1       3.953  -2.231  -7.442  1.00  0.00     0.224 A 
ATOM     21  N   UNL     1       3.213  -2.886  -8.348  1.00  0.00    -0.245 NA
ENDBRANCH  11  16
ENDBRANCH   5   8
ENDBRANCH   3   4
ENDBRANCH   2   3
ENDBRANCH   1   2
BRANCH   1  22
ATOM     22  N   UNL     1      -1.580   0.793   2.572  1.00  0.00    -0.352 N 
ATOM     23  C   UNL     1      -1.886   0.594   3.902  1.00  0.00     0.251 C 
ATOM     24  H   UNL     1      -0.765   1.316   2.397  1.00  0.00     0.163 HD
ATOM     25  O   UNL     1      -1.345   1.263   4.776  1.00  0.00    -0.269 OA
BRANCH  23  26
ATOM     26  C   UNL     1      -2.904  -0.411   4.238  1.00  0.00     0.039 A 
ATOM     27  C   UNL     1      -4.021  -0.038   4.982  1.00  0.00     0.014 A 
ATOM     28  C   UNL     1      -2.804  -1.678   3.665  1.00  0.00     0.014 A 
ATOM     29  C   UNL     1      -5.107  -0.906   5.027  1.00  0.00     0.010 A 
ATOM     30  C   UNL     1      -3.925  -2.482   3.615  1.00  0.00     0.010 A 
ATOM     31  C   UNL     1      -5.087  -2.104   4.287  1.00  0.00    -0.014 A 
BRANCH  31  32
ATOM     32  C   UNL     1      -6.347  -2.829   4.078  1.00  0.00     0.031 A 
ATOM     33  C   UNL     1      -7.510  -1.963   3.720  1.00  0.00     0.074 A 
ATOM     34  C   UNL     1      -6.489  -4.170   4.009  1.00  0.00     0.049 A 
ATOM     35  N   UNL     1      -8.521  -1.661   4.467  1.00  0.00    -0.248 NA
ATOM     36  C   UNL     1      -7.478  -1.229   2.445  1.00  0.00     0.031 C 
ATOM     37  C   UNL     1      -5.443  -5.195   4.022  1.00  0.00     0.029 A 
ATOM     38  N   UNL     1      -7.626  -4.902   3.813  1.00  0.00    -0.354 N 
ATOM     39  C   UNL     1      -9.378  -0.910   3.668  1.00  0.00     0.074 A 
ATOM     40  C   UNL     1      -8.601  -0.509   2.524  1.00  0.00     0.031 C 
ATOM     41  C   UNL     1      -5.960  -6.374   3.615  1.00  0.00     0.029 A 
ATOM     42  C   UNL     1      -7.399  -6.235   3.489  1.00  0.00     0.049 A 
ATOM     43  H   UNL     1      -8.529  -4.519   3.894  1.00  0.00     0.167 HD
ATOM     44  C   UNL     1     -10.723  -0.906   3.890  1.00  0.00     0.037 A 
ATOM     45  C   UNL     1      -8.317  -7.169   3.139  1.00  0.00     0.037 A 
ATOM     46  C   UNL     1     -11.033  -1.420   5.204  1.00  0.00     0.049 A 
ATOM     47  C   UNL     1      -9.623  -6.719   3.678  1.00  0.00     0.074 A 
ATOM     48  C   UNL     1     -10.649  -1.107   6.495  1.00  0.00     0.029 A 
ATOM     49  N   UNL     1     -11.586  -2.675   5.278  1.00  0.00    -0.354 N 
ATOM     50  N   UNL     1      -9.904  -6.655   4.951  1.00  0.00    -0.248 NA
ATOM     51  C   UNL     1     -10.508  -5.961   2.809  1.00  0.00     0.031 C 
ATOM     52  C   UNL     1     -10.542  -2.362   7.165  1.00  0.00     0.029 A 
ATOM     53  C   UNL     1     -10.936  -3.359   6.271  1.00  0.00     0.049 A 
ATOM     54  H   UNL     1     -12.318  -3.022   4.718  1.00  0.00     0.167 HD
ATOM     55  C   UNL     1     -10.690  -5.522   5.080  1.00  0.00     0.074 A 
ATOM     56  C   UNL     1     -11.134  -5.217   3.724  1.00  0.00     0.031 C 
ATOM     57  C   UNL     1     -10.674  -4.781   6.227  1.00  0.00     0.037 A 
BRANCH  44  58
ATOM     58  C   UNL     1     -11.773  -0.843   2.796  1.00  0.00     0.058 A 
ATOM     59  C   UNL     1     -13.136  -0.760   3.157  1.00  0.00     0.135 A 
ATOM     60  C   UNL     1     -11.527  -1.171   1.444  1.00  0.00     0.135 A 
ATOM     61  F   UNL     1     -13.493  -0.451   4.414  1.00  0.00    -0.206 F 
ATOM     62  C   UNL     1     -14.167  -1.084   2.274  1.00  0.00     0.059 A 
ATOM     63  C   UNL     1     -12.541  -1.443   0.533  1.00  0.00     0.059 A 
ATOM     64  F   UNL     1     -10.293  -1.346   0.958  1.00  0.00    -0.206 F 
ATOM     65  C   UNL     1     -13.855  -1.446   0.968  1.00  0.00     0.060 A 
BRANCH  65  66
ATOM     66  S   UNL     1     -15.166  -1.982  -0.144  1.00  0.00     0.124 S 
ATOM     67  O   UNL     1     -15.507  -3.282   0.422  1.00  0.00    -0.237 OA
ATOM     68  O   UNL     1     -16.159  -0.927   0.028  1.00  0.00    -0.237 OA
ATOM     69  O   UNL     1     -14.507  -2.009  -1.446  1.00  0.00    -0.744 OA
ENDBRANCH  65  66
ENDBRANCH  44  58
BRANCH  45  70
ATOM     70  C   UNL     1      -8.188  -8.300   2.185  1.00  0.00     0.058 A 
ATOM     71  C   UNL     1      -9.177  -9.296   2.104  1.00  0.00     0.135 A 
ATOM     72  C   UNL     1      -7.247  -8.272   1.135  1.00  0.00     0.135 A 
ATOM     73  F   UNL     1     -10.120  -9.393   3.054  1.00  0.00    -0.206 F 
ATOM     74  C   UNL     1      -9.274 -10.165   1.012  1.00  0.00     0.059 A 
ATOM     75  C   UNL     1      -7.314  -9.138   0.044  1.00  0.00     0.059 A 
ATOM     76  F   UNL     1      -6.288  -7.336   1.089  1.00  0.00    -0.206 F 
ATOM     77  C   UNL     1      -8.351 -10.060  -0.027  1.00  0.00     0.060 A 
BRANCH  77  78
ATOM     78  S   UNL     1      -8.595 -11.033  -1.532  1.00  0.00     0.124 S 
ATOM     79  O   UNL     1      -8.277 -12.381  -1.075  1.00  0.00    -0.237 OA
ATOM     80  O   UNL     1      -9.998 -10.778  -1.840  1.00  0.00    -0.237 OA
ATOM     81  O   UNL     1      -7.640 -10.449  -2.471  1.00  0.00    -0.744 OA
ENDBRANCH  77  78
ENDBRANCH  45  70
BRANCH  57  82
ATOM     82  C   UNL     1     -10.151  -5.418   7.488  1.00  0.00     0.058 A 
ATOM     83  C   UNL     1      -8.846  -5.907   7.675  1.00  0.00     0.135 A 
ATOM     84  C   UNL     1     -11.001  -5.423   8.607  1.00  0.00     0.135 A 
ATOM     85  F   UNL     1      -7.934  -5.841   6.694  1.00  0.00    -0.206 F 
ATOM     86  C   UNL     1      -8.427  -6.426   8.903  1.00  0.00     0.059 A 
ATOM     87  C   UNL     1     -10.594  -5.901   9.847  1.00  0.00     0.059 A 
ATOM     88  F   UNL     1     -12.242  -4.916   8.512  1.00  0.00    -0.206 F 
ATOM     89  C   UNL     1      -9.310  -6.420   9.984  1.00  0.00     0.060 A 
BRANCH  89  90
ATOM     90  S   UNL     1      -8.751  -7.038  11.586  1.00  0.00     0.124 S 
ATOM     91  O   UNL     1      -8.687  -8.477  11.354  1.00  0.00    -0.237 OA
ATOM     92  O   UNL     1      -7.467  -6.364  11.757  1.00  0.00    -0.237 OA
ATOM     93  O   UNL     1      -9.799  -6.600  12.505  1.00  0.00    -0.744 OA
ENDBRANCH  89  90
ENDBRANCH  57  82
ENDBRANCH  31  32
ENDBRANCH  23  26
ENDBRANCH   1  22
TORSDOF 15
