REMARK SMILES COCC[C@H](NC(=O)N1CCN2C(=O)NC[C@H]2C1)C(=O)NCCCNC(=O)c1ccc(-c2c3nc(c(-c4c(F)cc(S(=O)(=O)[O-])cc4F)c4ccc([nH]4)c(-c4c(F)cc(S(=O)(=O)[O-])cc4F)c4nc(c(-c5c(F)cc(S(=O)(=O)[O-])cc5F)c5ccc2[nH]5)C=C4)C=C3)cc1
REMARK SMILES IDX 23 1 22 2 21 3 19 4 20 5 5 7 4 8 3 9 2 10 1 11 6 12 7 13
REMARK SMILES IDX 8 15 9 16 10 17 18 18 11 19 17 20 12 21 16 22 13 23 15 24
REMARK SMILES IDX 14 25 24 27 25 28 26 29 27 31 28 32 29 33 93 34 30 35 92 36
REMARK SMILES IDX 31 37 32 38 33 39 86 40 34 41 91 42 85 43 87 44 35 45 90 46
REMARK SMILES IDX 84 47 83 48 36 50 70 51 49 52 69 53 50 54 53 55 68 56 88 57
REMARK SMILES IDX 51 58 52 59 67 61 89 62 54 63 37 64 38 65 47 66 39 67 40 68
REMARK SMILES IDX 46 69 48 70 41 71 42 72 43 73 44 74 45 75 71 76 72 77 81 78
REMARK SMILES IDX 73 79 74 80 80 81 82 82 75 83 76 84 77 85 78 86 79 87 55 88
REMARK SMILES IDX 56 89 65 90 57 91 58 92 64 93 66 94 59 95 60 96 61 97 62 98
REMARK SMILES IDX 63 99
REMARK H PARENT 21 6 6 14 15 26 25 30 87 49 53 60
REMARK Flexibility Score: inf
ROOT
ATOM      1  C   UNL     1       1.385   4.387   4.596  1.00  0.00     0.042 C 
ENDROOT
BRANCH   1   2
ATOM      2  C   UNL     1       2.424   3.283   4.441  1.00  0.00     0.117 C 
BRANCH   2   3
ATOM      3  N   UNL     1       1.975   1.965   4.861  1.00  0.00    -0.354 N 
ATOM      4  C   UNL     1       1.402   0.955   4.144  1.00  0.00     0.242 C 
ATOM      5  O   UNL     1       1.194  -0.115   4.726  1.00  0.00    -0.273 OA
ATOM      6  H   UNL     1       2.106   1.770   5.817  1.00  0.00     0.163 HD
BRANCH   4   7
ATOM      7  C   UNL     1       1.162   1.079   2.634  1.00  0.00     0.175 C 
BRANCH   7   8
ATOM      8  C   UNL     1       2.563   0.893   1.994  1.00  0.00     0.063 C 
BRANCH   8   9
ATOM      9  C   UNL     1       2.560   0.345   0.577  1.00  0.00     0.162 C 
BRANCH   9  10
ATOM     10  O   UNL     1       2.140   1.359  -0.328  1.00  0.00    -0.385 OA
ATOM     11  C   UNL     1       0.946   1.018  -1.016  1.00  0.00     0.194 C 
ENDBRANCH   9  10
ENDBRANCH   8   9
ENDBRANCH   7   8
BRANCH   7  12
ATOM     12  N   UNL     1       0.492   2.310   2.193  1.00  0.00    -0.326 N 
ATOM     13  C   UNL     1      -0.829   2.601   2.103  1.00  0.00     0.318 C 
ATOM     14  H   UNL     1       1.097   3.037   1.920  1.00  0.00     0.166 HD
ATOM     15  O   UNL     1      -1.177   3.217   1.093  1.00  0.00    -0.249 OA
BRANCH  13  16
ATOM     16  N   UNL     1      -1.734   2.222   3.051  1.00  0.00    -0.321 N 
ATOM     17  C   UNL     1      -1.509   2.006   4.486  1.00  0.00     0.143 C 
ATOM     18  C   UNL     1      -3.175   2.276   2.729  1.00  0.00     0.148 C 
ATOM     19  C   UNL     1      -2.106   0.679   4.966  1.00  0.00     0.143 C 
ATOM     20  C   UNL     1      -3.840   0.962   3.151  1.00  0.00     0.125 C 
ATOM     21  N   UNL     1      -3.476   0.562   4.503  1.00  0.00    -0.317 N 
ATOM     22  C   UNL     1      -5.363   0.964   3.219  1.00  0.00     0.144 C 
ATOM     23  C   UNL     1      -4.519  -0.094   5.129  1.00  0.00     0.317 C 
ATOM     24  N   UNL     1      -5.638   0.071   4.321  1.00  0.00    -0.336 N 
ATOM     25  O   UNL     1      -4.494  -0.697   6.182  1.00  0.00    -0.249 OA
ATOM     26  H   UNL     1      -6.507  -0.365   4.479  1.00  0.00     0.165 HD
ENDBRANCH  13  16
ENDBRANCH   7  12
ENDBRANCH   4   7
ENDBRANCH   2   3
ENDBRANCH   1   2
BRANCH   1  27
ATOM     27  C   UNL     1       0.789   4.509   5.989  1.00  0.00     0.118 C 
BRANCH  27  28
ATOM     28  N   UNL     1       1.796   4.748   7.006  1.00  0.00    -0.352 N 
ATOM     29  C   UNL     1       2.073   5.876   7.733  1.00  0.00     0.251 C 
ATOM     30  H   UNL     1       2.374   3.976   7.205  1.00  0.00     0.163 HD
ATOM     31  O   UNL     1       3.122   5.931   8.370  1.00  0.00    -0.269 OA
BRANCH  29  32
ATOM     32  C   UNL     1       1.137   7.021   7.742  1.00  0.00     0.039 A 
ATOM     33  C   UNL     1       1.664   8.315   7.722  1.00  0.00     0.014 A 
ATOM     34  C   UNL     1      -0.247   6.834   7.814  1.00  0.00     0.014 A 
ATOM     35  C   UNL     1       0.804   9.415   7.725  1.00  0.00     0.010 A 
ATOM     36  C   UNL     1      -1.103   7.928   7.722  1.00  0.00     0.010 A 
ATOM     37  C   UNL     1      -0.588   9.231   7.693  1.00  0.00    -0.014 A 
BRANCH  37  38
ATOM     38  C   UNL     1      -1.512  10.393   7.640  1.00  0.00     0.031 A 
ATOM     39  C   UNL     1      -2.485  10.643   8.762  1.00  0.00     0.074 A 
ATOM     40  C   UNL     1      -1.509  11.196   6.558  1.00  0.00     0.049 A 
ATOM     41  N   UNL     1      -3.394  11.577   8.874  1.00  0.00    -0.248 NA
ATOM     42  C   UNL     1      -2.450   9.703   9.893  1.00  0.00     0.031 C 
ATOM     43  C   UNL     1      -0.647  11.028   5.385  1.00  0.00     0.029 A 
ATOM     44  N   UNL     1      -2.258  12.307   6.262  1.00  0.00    -0.354 N 
ATOM     45  C   UNL     1      -4.046  11.330  10.077  1.00  0.00     0.074 A 
ATOM     46  C   UNL     1      -3.468  10.125  10.629  1.00  0.00     0.031 C 
ATOM     47  C   UNL     1      -0.898  12.015   4.511  1.00  0.00     0.029 A 
ATOM     48  C   UNL     1      -1.966  12.859   5.037  1.00  0.00     0.049 A 
ATOM     49  H   UNL     1      -2.940  12.674   6.870  1.00  0.00     0.167 HD
ATOM     50  C   UNL     1      -5.021  12.055  10.677  1.00  0.00     0.037 A 
ATOM     51  C   UNL     1      -2.504  13.919   4.402  1.00  0.00     0.037 A 
ATOM     52  C   UNL     1      -5.580  13.262  10.125  1.00  0.00     0.049 A 
ATOM     53  C   UNL     1      -3.590  14.705   5.083  1.00  0.00     0.074 A 
ATOM     54  C   UNL     1      -6.528  14.103  10.681  1.00  0.00     0.029 A 
ATOM     55  N   UNL     1      -5.249  13.797   8.887  1.00  0.00    -0.354 N 
ATOM     56  N   UNL     1      -4.146  14.499   6.253  1.00  0.00    -0.248 NA
ATOM     57  C   UNL     1      -4.117  15.872   4.363  1.00  0.00     0.031 C 
ATOM     58  C   UNL     1      -6.814  15.112   9.755  1.00  0.00     0.029 A 
ATOM     59  C   UNL     1      -5.997  14.939   8.649  1.00  0.00     0.049 A 
ATOM     60  H   UNL     1      -4.582  13.420   8.270  1.00  0.00     0.167 HD
ATOM     61  C   UNL     1      -5.071  15.525   6.421  1.00  0.00     0.074 A 
ATOM     62  C   UNL     1      -4.989  16.356   5.237  1.00  0.00     0.031 C 
ATOM     63  C   UNL     1      -5.907  15.758   7.464  1.00  0.00     0.037 A 
BRANCH  50  64
ATOM     64  C   UNL     1      -5.553  11.552  11.994  1.00  0.00     0.058 A 
ATOM     65  C   UNL     1      -4.767  11.545  13.159  1.00  0.00     0.135 A 
ATOM     66  C   UNL     1      -6.873  11.084  12.098  1.00  0.00     0.135 A 
ATOM     67  F   UNL     1      -3.493  11.969  13.118  1.00  0.00    -0.206 F 
ATOM     68  C   UNL     1      -5.255  11.053  14.365  1.00  0.00     0.059 A 
ATOM     69  C   UNL     1      -7.394  10.619  13.303  1.00  0.00     0.059 A 
ATOM     70  F   UNL     1      -7.673  11.069  11.019  1.00  0.00    -0.206 F 
ATOM     71  C   UNL     1      -6.570  10.589  14.426  1.00  0.00     0.060 A 
BRANCH  71  72
ATOM     72  S   UNL     1      -7.182   9.940  15.995  1.00  0.00     0.124 S 
ATOM     73  O   UNL     1      -6.460   8.674  16.087  1.00  0.00    -0.237 OA
ATOM     74  O   UNL     1      -6.772  10.973  16.941  1.00  0.00    -0.237 OA
ATOM     75  O   UNL     1      -8.621   9.827  15.779  1.00  0.00    -0.744 OA
ENDBRANCH  71  72
ENDBRANCH  50  64
BRANCH  51  76
ATOM     76  C   UNL     1      -1.999  14.303   3.057  1.00  0.00     0.058 A 
ATOM     77  C   UNL     1      -1.238  15.467   2.874  1.00  0.00     0.135 A 
ATOM     78  C   UNL     1      -2.231  13.491   1.935  1.00  0.00     0.135 A 
ATOM     79  F   UNL     1      -0.995  16.279   3.914  1.00  0.00    -0.206 F 
ATOM     80  C   UNL     1      -0.728  15.816   1.628  1.00  0.00     0.059 A 
ATOM     81  C   UNL     1      -1.708  13.805   0.684  1.00  0.00     0.059 A 
ATOM     82  F   UNL     1      -2.940  12.358   2.060  1.00  0.00    -0.206 F 
ATOM     83  C   UNL     1      -0.962  14.973   0.540  1.00  0.00     0.060 A 
BRANCH  83  84
ATOM     84  S   UNL     1      -0.233  15.399  -1.056  1.00  0.00     0.124 S 
ATOM     85  O   UNL     1      -1.035  16.552  -1.448  1.00  0.00    -0.237 OA
ATOM     86  O   UNL     1       1.153  15.678  -0.694  1.00  0.00    -0.237 OA
ATOM     87  O   UNL     1      -0.434  14.191  -1.851  1.00  0.00    -0.744 OA
ENDBRANCH  83  84
ENDBRANCH  51  76
BRANCH  63  88
ATOM     88  C   UNL     1      -6.782  16.980   7.392  1.00  0.00     0.058 A 
ATOM     89  C   UNL     1      -7.873  17.061   6.512  1.00  0.00     0.135 A 
ATOM     90  C   UNL     1      -6.559  18.064   8.258  1.00  0.00     0.135 A 
ATOM     91  F   UNL     1      -8.128  16.058   5.657  1.00  0.00    -0.206 F 
ATOM     92  C   UNL     1      -8.696  18.182   6.476  1.00  0.00     0.059 A 
ATOM     93  C   UNL     1      -7.389  19.181   8.262  1.00  0.00     0.059 A 
ATOM     94  F   UNL     1      -5.537  18.035   9.128  1.00  0.00    -0.206 F 
ATOM     95  C   UNL     1      -8.448  19.236   7.359  1.00  0.00     0.060 A 
BRANCH  95  96
ATOM     96  S   UNL     1      -9.547  20.668   7.327  1.00  0.00     0.124 S 
ATOM     97  O   UNL     1      -9.160  21.308   6.074  1.00  0.00    -0.237 OA
ATOM     98  O   UNL     1     -10.868  20.047   7.339  1.00  0.00    -0.237 OA
ATOM     99  O   UNL     1      -9.192  21.397   8.540  1.00  0.00    -0.744 OA
ENDBRANCH  95  96
ENDBRANCH  63  88
ENDBRANCH  37  38
ENDBRANCH  29  32
ENDBRANCH  27  28
ENDBRANCH   1  27
TORSDOF 18
