REMARK SMILES N#Cc1ccc(C(=O)N2CCC(Oc3ccccc3)(C(=O)NCCCNC(=O)c3ccc(-c4c5nc(c(-c6c(F)cc(S(=O)(=O)[O-])cc6F)c6ccc([nH]6)c(-c6c(F)cc(S(=O)(=O)[O-])cc6F)c6nc(c(-c7c(F)cc(S(=O)(=O)[O-])cc7F)c7ccc4[nH]7)C=C6)C=C5)cc3)CC2)cc1
REMARK SMILES IDX 24 1 23 2 22 3 20 4 21 5 12 7 7 8 8 9 9 10 10 11 96 12 11 13
REMARK SMILES IDX 95 14 6 15 3 16 4 17 98 18 5 19 97 20 2 21 1 22 13 23 14 24
REMARK SMILES IDX 15 25 19 26 16 27 18 28 17 29 25 30 26 31 27 32 28 34 29 35
REMARK SMILES IDX 30 36 94 37 31 38 93 39 32 40 33 41 34 42 87 43 35 44 92 45
REMARK SMILES IDX 86 46 88 47 36 48 91 49 85 50 84 51 37 53 71 54 50 55 70 56
REMARK SMILES IDX 51 57 54 58 69 59 89 60 52 61 53 62 68 64 90 65 55 66 38 67
REMARK SMILES IDX 39 68 48 69 40 70 41 71 47 72 49 73 42 74 43 75 44 76 45 77
REMARK SMILES IDX 46 78 72 79 73 80 82 81 74 82 75 83 81 84 83 85 76 86 77 87
REMARK SMILES IDX 78 88 79 89 80 90 56 91 57 92 66 93 58 94 59 95 65 96 67 97
REMARK SMILES IDX 60 98 61 99 62 100 63 101 64 102
REMARK H PARENT 22 6 26 33 88 52 54 63
REMARK Flexibility Score: inf
ROOT
ATOM      1  C   UNL     1       7.307  -5.268   3.131  1.00  0.00     0.042 C 
ENDROOT
BRANCH   1   2
ATOM      2  C   UNL     1       7.606  -5.396   1.643  1.00  0.00     0.118 C 
BRANCH   2   3
ATOM      3  N   UNL     1       6.389  -5.495   0.859  1.00  0.00    -0.353 N 
ATOM      4  C   UNL     1       5.855  -4.643  -0.063  1.00  0.00     0.264 C 
ATOM      5  O   UNL     1       4.830  -5.037  -0.630  1.00  0.00    -0.270 OA
ATOM      6  H   UNL     1       5.862  -6.312   1.019  1.00  0.00     0.163 HD
BRANCH   4   7
ATOM      7  C   UNL     1       6.493  -3.253  -0.362  1.00  0.00     0.190 C 
ATOM      8  C   UNL     1       3.684  -0.202   0.315  1.00  0.00     0.253 C 
ATOM      9  O   UNL     1       4.263   0.761   0.808  1.00  0.00    -0.269 OA
ATOM     10  N   UNL     1       4.297  -1.430   0.140  1.00  0.00    -0.338 N 
ATOM     11  C   UNL     1       5.007  -2.011   1.261  1.00  0.00     0.124 C 
ATOM     12  C   UNL     1       4.298  -2.157  -1.125  1.00  0.00     0.124 C 
ATOM     13  C   UNL     1       6.432  -2.342   0.878  1.00  0.00     0.080 C 
ATOM     14  C   UNL     1       5.717  -2.585  -1.525  1.00  0.00     0.080 C 
BRANCH   8  15
ATOM     15  C   UNL     1       2.217  -0.126   0.060  1.00  0.00     0.040 A 
ATOM     16  C   UNL     1      -0.579   0.082  -0.082  1.00  0.00     0.052 A 
ATOM     17  C   UNL     1       0.214   1.236  -0.098  1.00  0.00     0.020 A 
ATOM     18  C   UNL     1       0.027  -1.175   0.001  1.00  0.00     0.020 A 
ATOM     19  C   UNL     1       1.607   1.132  -0.026  1.00  0.00     0.015 A 
ATOM     20  C   UNL     1       1.417  -1.277   0.082  1.00  0.00     0.015 A 
BRANCH  16  21
ATOM     21  C   UNL     1      -2.009   0.182  -0.124  1.00  0.00     0.099 C 
ATOM     22  N   UNL     1      -3.165   0.254  -0.163  1.00  0.00    -0.192 NA
ENDBRANCH  16  21
ENDBRANCH   8  15
BRANCH   7  23
ATOM     23  O   UNL     1       7.827  -3.641  -0.783  1.00  0.00    -0.477 OA
BRANCH  23  24
ATOM     24  C   UNL     1       8.735  -2.669  -1.078  1.00  0.00     0.120 A 
ATOM     25  C   UNL     1       9.195  -2.605  -2.391  1.00  0.00     0.046 A 
ATOM     26  C   UNL     1       9.315  -1.861  -0.102  1.00  0.00     0.046 A 
ATOM     27  C   UNL     1      10.162  -1.664  -2.746  1.00  0.00     0.004 A 
ATOM     28  C   UNL     1      10.257  -0.898  -0.460  1.00  0.00     0.004 A 
ATOM     29  C   UNL     1      10.675  -0.794  -1.784  1.00  0.00     0.000 A 
ENDBRANCH  23  24
ENDBRANCH   7  23
ENDBRANCH   4   7
ENDBRANCH   2   3
ENDBRANCH   1   2
BRANCH   1  30
ATOM     30  C   UNL     1       6.644  -6.501   3.732  1.00  0.00     0.118 C 
BRANCH  30  31
ATOM     31  N   UNL     1       7.495  -7.679   3.663  1.00  0.00    -0.352 N 
ATOM     32  C   UNL     1       8.016  -8.453   4.669  1.00  0.00     0.251 C 
ATOM     33  H   UNL     1       7.734  -7.966   2.752  1.00  0.00     0.163 HD
ATOM     34  O   UNL     1       8.888  -9.276   4.401  1.00  0.00    -0.269 OA
BRANCH  32  35
ATOM     35  C   UNL     1       7.550  -8.292   6.064  1.00  0.00     0.039 A 
ATOM     36  C   UNL     1       8.485  -8.382   7.098  1.00  0.00     0.014 A 
ATOM     37  C   UNL     1       6.201  -8.084   6.362  1.00  0.00     0.014 A 
ATOM     38  C   UNL     1       8.073  -8.207   8.421  1.00  0.00     0.010 A 
ATOM     39  C   UNL     1       5.809  -7.814   7.670  1.00  0.00     0.010 A 
ATOM     40  C   UNL     1       6.739  -7.884   8.717  1.00  0.00    -0.014 A 
BRANCH  40  41
ATOM     41  C   UNL     1       6.308  -7.619  10.116  1.00  0.00     0.031 A 
ATOM     42  C   UNL     1       5.269  -8.489  10.773  1.00  0.00     0.074 A 
ATOM     43  C   UNL     1       6.827  -6.568  10.781  1.00  0.00     0.049 A 
ATOM     44  N   UNL     1       4.755  -8.397  11.973  1.00  0.00    -0.248 NA
ATOM     45  C   UNL     1       4.718  -9.594   9.971  1.00  0.00     0.031 C 
ATOM     46  C   UNL     1       7.807  -5.624  10.237  1.00  0.00     0.029 A 
ATOM     47  N   UNL     1       6.606  -6.113  12.057  1.00  0.00    -0.354 N 
ATOM     48  C   UNL     1       3.823  -9.423  12.068  1.00  0.00     0.074 A 
ATOM     49  C   UNL     1       3.793 -10.085  10.783  1.00  0.00     0.031 C 
ATOM     50  C   UNL     1       8.129  -4.728  11.182  1.00  0.00     0.029 A 
ATOM     51  C   UNL     1       7.343  -4.997  12.382  1.00  0.00     0.049 A 
ATOM     52  H   UNL     1       5.979  -6.545  12.681  1.00  0.00     0.167 HD
ATOM     53  C   UNL     1       3.078  -9.796  13.137  1.00  0.00     0.037 A 
ATOM     54  C   UNL     1       7.376  -4.266  13.513  1.00  0.00     0.037 A 
ATOM     55  C   UNL     1       3.119  -9.133  14.416  1.00  0.00     0.049 A 
ATOM     56  C   UNL     1       6.514  -4.682  14.675  1.00  0.00     0.074 A 
ATOM     57  C   UNL     1       2.437  -9.461  15.575  1.00  0.00     0.029 A 
ATOM     58  N   UNL     1       3.872  -8.004  14.703  1.00  0.00    -0.354 N 
ATOM     59  N   UNL     1       5.688  -5.697  14.770  1.00  0.00    -0.248 NA
ATOM     60  C   UNL     1       6.595  -3.858  15.889  1.00  0.00     0.031 C 
ATOM     61  C   UNL     1       2.724  -8.491  16.540  1.00  0.00     0.029 A 
ATOM     62  C   UNL     1       3.646  -7.603  16.011  1.00  0.00     0.049 A 
ATOM     63  H   UNL     1       4.478  -7.553  14.071  1.00  0.00     0.167 HD
ATOM     64  C   UNL     1       5.177  -5.652  16.063  1.00  0.00     0.074 A 
ATOM     65  C   UNL     1       5.801  -4.521  16.717  1.00  0.00     0.031 C 
ATOM     66  C   UNL     1       4.275  -6.475  16.655  1.00  0.00     0.037 A 
BRANCH  53  67
ATOM     67  C   UNL     1       2.149 -10.972  12.971  1.00  0.00     0.058 A 
ATOM     68  C   UNL     1       2.631 -12.278  12.783  1.00  0.00     0.135 A 
ATOM     69  C   UNL     1       0.757 -10.797  13.046  1.00  0.00     0.135 A 
ATOM     70  F   UNL     1       3.951 -12.506  12.688  1.00  0.00    -0.206 F 
ATOM     71  C   UNL     1       1.769 -13.361  12.644  1.00  0.00     0.059 A 
ATOM     72  C   UNL     1      -0.123 -11.871  12.946  1.00  0.00     0.059 A 
ATOM     73  F   UNL     1       0.238  -9.572  13.224  1.00  0.00    -0.206 F 
ATOM     74  C   UNL     1       0.392 -13.147  12.731  1.00  0.00     0.060 A 
BRANCH  74  75
ATOM     75  S   UNL     1      -0.710 -14.566  12.560  1.00  0.00     0.124 S 
ATOM     76  O   UNL     1      -0.538 -14.900  11.149  1.00  0.00    -0.237 OA
ATOM     77  O   UNL     1      -0.140 -15.517  13.509  1.00  0.00    -0.237 OA
ATOM     78  O   UNL     1      -2.018 -14.029  12.921  1.00  0.00    -0.744 OA
ENDBRANCH  74  75
ENDBRANCH  53  67
BRANCH  54  79
ATOM     79  C   UNL     1       8.264  -3.075  13.606  1.00  0.00     0.058 A 
ATOM     80  C   UNL     1       9.364  -3.055  14.477  1.00  0.00     0.135 A 
ATOM     81  C   UNL     1       8.034  -1.933  12.823  1.00  0.00     0.135 A 
ATOM     82  F   UNL     1       9.625  -4.119  15.253  1.00  0.00    -0.206 F 
ATOM     83  C   UNL     1      10.190  -1.941  14.585  1.00  0.00     0.059 A 
ATOM     84  C   UNL     1       8.865  -0.819  12.888  1.00  0.00     0.059 A 
ATOM     85  F   UNL     1       7.005  -1.904  11.961  1.00  0.00    -0.206 F 
ATOM     86  C   UNL     1       9.935  -0.829  13.781  1.00  0.00     0.060 A 
BRANCH  86  87
ATOM     87  S   UNL     1      11.041   0.593  13.896  1.00  0.00     0.124 S 
ATOM     88  O   UNL     1      10.718   1.112  15.220  1.00  0.00    -0.237 OA
ATOM     89  O   UNL     1      12.353  -0.031  13.755  1.00  0.00    -0.237 OA
ATOM     90  O   UNL     1      10.630   1.431  12.773  1.00  0.00    -0.744 OA
ENDBRANCH  86  87
ENDBRANCH  54  79
BRANCH  66  91
ATOM     91  C   UNL     1       3.939  -6.213  18.100  1.00  0.00     0.058 A 
ATOM     92  C   UNL     1       3.217  -5.078  18.504  1.00  0.00     0.135 A 
ATOM     93  C   UNL     1       4.313  -7.135  19.092  1.00  0.00     0.135 A 
ATOM     94  F   UNL     1       2.837  -4.160  17.601  1.00  0.00    -0.206 F 
ATOM     95  C   UNL     1       2.910  -4.850  19.842  1.00  0.00     0.059 A 
ATOM     96  C   UNL     1       3.983  -6.947  20.430  1.00  0.00     0.059 A 
ATOM     97  F   UNL     1       4.995  -8.244  18.763  1.00  0.00    -0.206 F 
ATOM     98  C   UNL     1       3.295  -5.792  20.798  1.00  0.00     0.060 A 
BRANCH  98  99
ATOM     99  S   UNL     1       2.870  -5.493  22.526  1.00  0.00     0.124 S 
ATOM    100  O   UNL     1       3.754  -4.381  22.859  1.00  0.00    -0.237 OA
ATOM    101  O   UNL     1       1.449  -5.171  22.444  1.00  0.00    -0.237 OA
ATOM    102  O   UNL     1       3.184  -6.761  23.179  1.00  0.00    -0.744 OA
ENDBRANCH  98  99
ENDBRANCH  66  91
ENDBRANCH  40  41
ENDBRANCH  32  35
ENDBRANCH  30  31
ENDBRANCH   1  30
TORSDOF 17
