REMARK SMILES O=C(COc1ccc(Br)cc1/C=C1\C(=O)Nc2ccc(Br)cc21)NCCCNC(=O)c1ccc(-c2c3nc(c(-c4c(F)cc(S(=O)(=O)[O-])cc4F)c4ccc([nH]4)c(-c4c(F)cc(S(=O)(=O)[O-])cc4F)c4nc(c(-c5c(F)cc(S(=O)(=O)[O-])cc5F)c5ccc2[nH]5)C=C4)C=C3)cc1
REMARK SMILES IDX 26 1 25 2 24 3 1 4 2 5 3 7 4 8 5 9 6 10 11 11 7 12 10 13
REMARK SMILES IDX 8 14 9 15 12 16 13 17 14 18 23 19 15 20 16 21 17 22 22 23
REMARK SMILES IDX 18 25 20 26 19 27 21 28 27 29 28 30 29 31 30 33 31 34 32 35
REMARK SMILES IDX 96 36 33 37 95 38 34 39 35 40 36 41 89 42 37 43 94 44 88 45
REMARK SMILES IDX 90 46 38 47 93 48 87 49 86 50 39 52 73 53 52 54 72 55 53 56
REMARK SMILES IDX 56 57 71 58 91 59 54 60 55 61 70 63 92 64 57 65 40 66 41 67
REMARK SMILES IDX 50 68 42 69 43 70 49 71 51 72 44 73 45 74 46 75 47 76 48 77
REMARK SMILES IDX 74 78 75 79 84 80 76 81 77 82 83 83 85 84 78 85 79 86 80 87
REMARK SMILES IDX 81 88 82 89 58 90 59 91 68 92 60 93 61 94 67 95 69 96 62 97
REMARK SMILES IDX 63 98 64 99 65 100 66 101
REMARK H PARENT 24 6 16 24 28 32 90 51 56 62
REMARK Flexibility Score: inf
ROOT
ATOM      1  C   UNL     1       2.631   0.076  -3.055  1.00  0.00     0.042 C 
ENDROOT
BRANCH   1   2
ATOM      2  C   UNL     1       2.446  -0.806  -1.834  1.00  0.00     0.117 C 
BRANCH   2   3
ATOM      3  N   UNL     1       3.280  -0.462  -0.691  1.00  0.00    -0.353 N 
ATOM      4  O   UNL     1       1.673   0.736   0.430  1.00  0.00    -0.271 OA
ATOM      5  C   UNL     1       2.748   0.140   0.434  1.00  0.00     0.257 C 
ATOM      6  H   UNL     1       4.243  -0.661  -0.721  1.00  0.00     0.163 HD
BRANCH   5   7
ATOM      7  C   UNL     1       3.554  -0.078   1.739  1.00  0.00     0.329 C 
BRANCH   7   8
ATOM      8  O   UNL     1       4.216  -1.319   2.014  1.00  0.00    -0.483 OA
BRANCH   8   9
ATOM      9  C   UNL     1       3.422  -2.420   2.260  1.00  0.00     0.127 A 
ATOM     10  C   UNL     1       2.296  -2.682   1.448  1.00  0.00     0.048 A 
ATOM     11  C   UNL     1       3.795  -3.361   3.260  1.00  0.00     0.018 A 
ATOM     12  C   UNL     1       1.511  -3.818   1.597  1.00  0.00     0.019 A 
ATOM     13  C   UNL     1       2.999  -4.521   3.333  1.00  0.00     0.027 A 
ATOM     14  C   UNL     1       1.868  -4.738   2.548  1.00  0.00     0.018 A 
ATOM     15  Br  UNL     1       0.822  -6.291   2.801  1.00  0.00    -0.051 Br
BRANCH  11  16
ATOM     16  C   UNL     1       4.910  -3.123   4.256  1.00  0.00     0.026 C 
ATOM     17  C   UNL     1       5.145  -3.733   5.448  1.00  0.00     0.050 C 
ATOM     18  C   UNL     1       4.327  -4.831   6.087  1.00  0.00     0.256 C 
ATOM     19  C   UNL     1       5.824  -3.103   6.604  1.00  0.00     0.012 A 
ATOM     20  O   UNL     1       4.133  -5.965   5.706  1.00  0.00    -0.269 OA
ATOM     21  N   UNL     1       4.048  -4.355   7.353  1.00  0.00    -0.321 N 
ATOM     22  C   UNL     1       4.975  -3.378   7.695  1.00  0.00     0.049 A 
ATOM     23  C   UNL     1       7.063  -2.543   6.849  1.00  0.00     0.026 A 
ATOM     24  H   UNL     1       3.307  -4.661   7.925  1.00  0.00     0.170 HD
ATOM     25  C   UNL     1       5.200  -2.940   8.982  1.00  0.00     0.028 A 
ATOM     26  C   UNL     1       7.364  -2.193   8.179  1.00  0.00     0.018 A 
ATOM     27  C   UNL     1       6.424  -2.331   9.223  1.00  0.00     0.018 A 
ATOM     28  Br  UNL     1       9.117  -1.633   8.631  1.00  0.00    -0.051 Br
ENDBRANCH  11  16
ENDBRANCH   8   9
ENDBRANCH   7   8
ENDBRANCH   5   7
ENDBRANCH   2   3
ENDBRANCH   1   2
BRANCH   1  29
ATOM     29  C   UNL     1       4.051   0.116  -3.596  1.00  0.00     0.118 C 
BRANCH  29  30
ATOM     30  N   UNL     1       4.542  -1.168  -4.090  1.00  0.00    -0.352 N 
ATOM     31  C   UNL     1       5.136  -1.476  -5.295  1.00  0.00     0.251 C 
ATOM     32  H   UNL     1       4.431  -1.925  -3.471  1.00  0.00     0.163 HD
ATOM     33  O   UNL     1       5.431  -2.640  -5.552  1.00  0.00    -0.269 OA
BRANCH  31  34
ATOM     34  C   UNL     1       5.365  -0.411  -6.296  1.00  0.00     0.039 A 
ATOM     35  C   UNL     1       5.907   0.819  -5.920  1.00  0.00     0.014 A 
ATOM     36  C   UNL     1       4.964  -0.625  -7.618  1.00  0.00     0.014 A 
ATOM     37  C   UNL     1       5.846   1.893  -6.801  1.00  0.00     0.010 A 
ATOM     38  C   UNL     1       4.993   0.433  -8.530  1.00  0.00     0.010 A 
ATOM     39  C   UNL     1       5.370   1.718  -8.111  1.00  0.00    -0.014 A 
BRANCH  39  40
ATOM     40  C   UNL     1       5.240   2.893  -9.014  1.00  0.00     0.031 A 
ATOM     41  C   UNL     1       3.885   3.330  -9.512  1.00  0.00     0.074 A 
ATOM     42  C   UNL     1       6.338   3.601  -9.344  1.00  0.00     0.049 A 
ATOM     43  N   UNL     1       3.583   4.302 -10.336  1.00  0.00    -0.248 NA
ATOM     44  C   UNL     1       2.717   2.579  -9.024  1.00  0.00     0.031 C 
ATOM     45  C   UNL     1       7.700   3.301  -8.897  1.00  0.00     0.029 A 
ATOM     46  N   UNL     1       6.482   4.726 -10.115  1.00  0.00    -0.354 N 
ATOM     47  C   UNL     1       2.200   4.268 -10.479  1.00  0.00     0.074 A 
ATOM     48  C   UNL     1       1.722   3.162  -9.678  1.00  0.00     0.031 C 
ATOM     49  C   UNL     1       8.533   4.241  -9.367  1.00  0.00     0.029 A 
ATOM     50  C   UNL     1       7.780   5.167 -10.205  1.00  0.00     0.049 A 
ATOM     51  H   UNL     1       5.727   5.174 -10.562  1.00  0.00     0.167 HD
ATOM     52  C   UNL     1       1.401   5.091 -11.201  1.00  0.00     0.037 A 
ATOM     53  C   UNL     1       8.313   6.188 -10.904  1.00  0.00     0.037 A 
ATOM     54  C   UNL     1       1.881   6.205 -11.981  1.00  0.00     0.049 A 
ATOM     55  C   UNL     1       7.414   7.048 -11.745  1.00  0.00     0.074 A 
ATOM     56  C   UNL     1       1.150   7.097 -12.747  1.00  0.00     0.029 A 
ATOM     57  N   UNL     1       3.211   6.583 -12.091  1.00  0.00    -0.354 N 
ATOM     58  N   UNL     1       6.112   6.981 -11.893  1.00  0.00    -0.248 NA
ATOM     59  C   UNL     1       8.057   8.115 -12.522  1.00  0.00     0.031 C 
ATOM     60  C   UNL     1       2.041   7.989 -13.353  1.00  0.00     0.029 A 
ATOM     61  C   UNL     1       3.323   7.685 -12.924  1.00  0.00     0.049 A 
ATOM     62  H   UNL     1       3.964   6.135 -11.643  1.00  0.00     0.167 HD
ATOM     63  C   UNL     1       5.778   8.008 -12.768  1.00  0.00     0.074 A 
ATOM     64  C   UNL     1       7.012   8.691 -13.101  1.00  0.00     0.031 C 
ATOM     65  C   UNL     1       4.559   8.352 -13.252  1.00  0.00     0.037 A 
BRANCH  52  66
ATOM     66  C   UNL     1      -0.080   4.819 -11.197  1.00  0.00     0.058 A 
ATOM     67  C   UNL     1      -0.878   5.088 -10.074  1.00  0.00     0.135 A 
ATOM     68  C   UNL     1      -0.720   4.341 -12.353  1.00  0.00     0.135 A 
ATOM     69  F   UNL     1      -0.318   5.530  -8.937  1.00  0.00    -0.206 F 
ATOM     70  C   UNL     1      -2.254   4.879 -10.092  1.00  0.00     0.059 A 
ATOM     71  C   UNL     1      -2.098   4.149 -12.402  1.00  0.00     0.059 A 
ATOM     72  F   UNL     1      -0.006   4.066 -13.456  1.00  0.00    -0.206 F 
ATOM     73  C   UNL     1      -2.856   4.412 -11.262  1.00  0.00     0.060 A 
BRANCH  73  74
ATOM     74  S   UNL     1      -4.645   4.165 -11.271  1.00  0.00     0.124 S 
ATOM     75  O   UNL     1      -4.783   3.006 -10.393  1.00  0.00    -0.237 OA
ATOM     76  O   UNL     1      -5.136   5.429 -10.733  1.00  0.00    -0.237 OA
ATOM     77  O   UNL     1      -4.949   3.923 -12.678  1.00  0.00    -0.744 OA
ENDBRANCH  73  74
ENDBRANCH  52  66
BRANCH  53  78
ATOM     78  C   UNL     1       9.776   6.439 -10.836  1.00  0.00     0.058 A 
ATOM     79  C   UNL     1      10.285   7.567 -10.178  1.00  0.00     0.135 A 
ATOM     80  C   UNL     1      10.695   5.535 -11.393  1.00  0.00     0.135 A 
ATOM     81  F   UNL     1       9.446   8.464  -9.638  1.00  0.00    -0.206 F 
ATOM     82  C   UNL     1      11.653   7.793 -10.075  1.00  0.00     0.059 A 
ATOM     83  C   UNL     1      12.068   5.724 -11.278  1.00  0.00     0.059 A 
ATOM     84  F   UNL     1      10.258   4.432 -12.022  1.00  0.00    -0.206 F 
ATOM     85  C   UNL     1      12.537   6.860 -10.621  1.00  0.00     0.060 A 
BRANCH  85  86
ATOM     86  S   UNL     1      14.311   7.128 -10.417  1.00  0.00     0.124 S 
ATOM     87  O   UNL     1      14.543   8.252 -11.316  1.00  0.00    -0.237 OA
ATOM     88  O   UNL     1      14.412   7.418  -8.990  1.00  0.00    -0.237 OA
ATOM     89  O   UNL     1      14.893   5.855 -10.833  1.00  0.00    -0.744 OA
ENDBRANCH  85  86
ENDBRANCH  53  78
BRANCH  65  90
ATOM     90  C   UNL     1       4.496   9.536 -14.178  1.00  0.00     0.058 A 
ATOM     91  C   UNL     1       4.976   9.466 -15.495  1.00  0.00     0.135 A 
ATOM     92  C   UNL     1       3.918  10.743 -13.753  1.00  0.00     0.135 A 
ATOM     93  F   UNL     1       5.544   8.338 -15.949  1.00  0.00    -0.206 F 
ATOM     94  C   UNL     1       4.913  10.562 -16.349  1.00  0.00     0.059 A 
ATOM     95  C   UNL     1       3.819  11.842 -14.599  1.00  0.00     0.059 A 
ATOM     96  F   UNL     1       3.433  10.858 -12.506  1.00  0.00    -0.206 F 
ATOM     97  C   UNL     1       4.333  11.747 -15.891  1.00  0.00     0.060 A 
BRANCH  97  98
ATOM     98  S   UNL     1       4.246  13.157 -17.015  1.00  0.00     0.124 S 
ATOM     99  O   UNL     1       5.642  13.579 -17.066  1.00  0.00    -0.237 OA
ATOM    100  O   UNL     1       3.722  12.551 -18.236  1.00  0.00    -0.237 OA
ATOM    101  O   UNL     1       3.337  14.077 -16.339  1.00  0.00    -0.744 OA
ENDBRANCH  97  98
ENDBRANCH  65  90
ENDBRANCH  39  40
ENDBRANCH  31  34
ENDBRANCH  29  30
ENDBRANCH   1  29
TORSDOF 16
