REMARK SMILES C[C@@H](C1CC1)N(C)C(=O)N1Cc2nc[nH]c2C[C@H]1C(=O)NCCCNC(=O)c1ccc(-c2c3nc(c(-c4c(F)cc(S(=O)(=O)[O-])cc4F)c4ccc([nH]4)c(-c4c(F)cc(S(=O)(=O)[O-])cc4F)c4nc(c(-c5c(F)cc(S(=O)(=O)[O-])cc5F)c5ccc2[nH]5)C=C4)C=C3)cc1
REMARK SMILES IDX 22 1 21 2 19 3 20 4 18 6 10 7 11 8 12 9 17 10 13 11 16 12
REMARK SMILES IDX 14 13 15 14 8 16 9 17 6 18 7 19 2 20 1 21 3 22 4 23 5 24
REMARK SMILES IDX 23 25 24 26 25 27 26 28 27 30 28 31 29 32 93 33 30 34 92 35
REMARK SMILES IDX 31 36 32 37 33 38 86 39 34 40 91 41 85 42 87 43 35 44 90 45
REMARK SMILES IDX 84 46 83 47 36 49 70 50 49 51 69 52 50 53 53 54 68 55 88 56
REMARK SMILES IDX 51 57 52 58 67 60 89 61 54 62 37 63 38 64 47 65 39 66 40 67
REMARK SMILES IDX 46 68 48 69 41 70 42 71 43 72 44 73 45 74 71 75 72 76 81 77
REMARK SMILES IDX 73 78 74 79 80 80 82 81 75 82 76 83 77 84 78 85 79 86 55 87
REMARK SMILES IDX 56 88 65 89 57 90 58 91 64 92 66 93 59 94 60 95 61 96 62 97
REMARK SMILES IDX 63 98
REMARK H PARENT 21 5 15 15 25 29 87 48 53 59
REMARK Flexibility Score: inf
ROOT
ATOM      1  C   UNL     1      -6.542  -0.861  -0.264  1.00  0.00     0.117 C 
ENDROOT
BRANCH   1   2
ATOM      2  N   UNL     1      -5.800   0.342  -0.610  1.00  0.00    -0.354 N 
ATOM      3  C   UNL     1      -4.778   0.610  -1.462  1.00  0.00     0.243 C 
ATOM      4  O   UNL     1      -4.661   1.807  -1.767  1.00  0.00    -0.273 OA
ATOM      5  H   UNL     1      -6.107   1.137  -0.117  1.00  0.00     0.163 HD
BRANCH   3   6
ATOM      6  C   UNL     1      -3.814  -0.422  -2.119  1.00  0.00     0.182 C 
ATOM      7  N   UNL     1      -2.877  -1.161  -1.202  1.00  0.00    -0.306 N 
ATOM      8  C   UNL     1      -3.284  -2.482  -0.667  1.00  0.00     0.180 C 
ATOM      9  C   UNL     1      -4.351  -3.125  -1.474  1.00  0.00     0.081 A 
ATOM     10  C   UNL     1      -4.545  -1.287  -3.185  1.00  0.00     0.091 C 
ATOM     11  N   UNL     1      -5.017  -4.271  -1.117  1.00  0.00    -0.240 NA
ATOM     12  C   UNL     1      -4.904  -2.593  -2.609  1.00  0.00     0.042 A 
ATOM     13  C   UNL     1      -5.951  -4.428  -2.029  1.00  0.00     0.197 A 
ATOM     14  N   UNL     1      -5.901  -3.446  -2.983  1.00  0.00    -0.348 N 
ATOM     15  H   UNL     1      -6.472  -3.370  -3.781  1.00  0.00     0.167 HD
BRANCH   7  16
ATOM     16  C   UNL     1      -1.589  -0.806  -0.808  1.00  0.00     0.321 C 
ATOM     17  O   UNL     1      -0.959  -1.568  -0.067  1.00  0.00    -0.248 OA
BRANCH  16  18
ATOM     18  N   UNL     1      -0.976   0.324  -1.312  1.00  0.00    -0.325 N 
ATOM     19  C   UNL     1      -1.634   1.624  -1.350  1.00  0.00     0.149 C 
BRANCH  18  20
ATOM     20  C   UNL     1       0.501   0.386  -1.397  1.00  0.00     0.086 C 
ATOM     21  C   UNL     1       1.225   0.235  -0.053  1.00  0.00     0.031 C 
BRANCH  20  22
ATOM     22  C   UNL     1       1.125  -0.475  -2.479  1.00  0.00     0.011 C 
ATOM     23  C   UNL     1       1.223  -1.980  -2.386  1.00  0.00     0.006 C 
ATOM     24  C   UNL     1       0.345  -1.353  -3.432  1.00  0.00     0.006 C 
ENDBRANCH  20  22
ENDBRANCH  18  20
ENDBRANCH  16  18
ENDBRANCH   7  16
ENDBRANCH   3   6
ENDBRANCH   1   2
BRANCH   1  25
ATOM     25  C   UNL     1      -6.016  -1.581   0.976  1.00  0.00     0.042 C 
BRANCH  25  26
ATOM     26  C   UNL     1      -7.006  -1.615   2.124  1.00  0.00     0.118 C 
BRANCH  26  27
ATOM     27  N   UNL     1      -8.166  -2.481   1.867  1.00  0.00    -0.352 N 
ATOM     28  C   UNL     1      -9.327  -2.571   2.618  1.00  0.00     0.251 C 
ATOM     29  H   UNL     1      -8.113  -3.062   1.073  1.00  0.00     0.163 HD
ATOM     30  O   UNL     1     -10.082  -3.538   2.527  1.00  0.00    -0.269 OA
BRANCH  28  31
ATOM     31  C   UNL     1      -9.624  -1.464   3.538  1.00  0.00     0.039 A 
ATOM     32  C   UNL     1      -9.877  -1.674   4.897  1.00  0.00     0.014 A 
ATOM     33  C   UNL     1      -9.431  -0.189   3.028  1.00  0.00     0.014 A 
ATOM     34  C   UNL     1      -9.802  -0.586   5.767  1.00  0.00     0.010 A 
ATOM     35  C   UNL     1      -9.140   0.818   3.908  1.00  0.00     0.010 A 
ATOM     36  C   UNL     1      -9.385   0.658   5.272  1.00  0.00    -0.014 A 
BRANCH  36  37
ATOM     37  C   UNL     1      -9.076   1.785   6.158  1.00  0.00     0.031 A 
ATOM     38  C   UNL     1      -8.143   1.496   7.291  1.00  0.00     0.074 A 
ATOM     39  C   UNL     1      -9.388   3.054   5.804  1.00  0.00     0.049 A 
ATOM     40  N   UNL     1      -8.365   1.636   8.558  1.00  0.00    -0.248 NA
ATOM     41  C   UNL     1      -6.839   0.876   6.992  1.00  0.00     0.031 C 
ATOM     42  C   UNL     1     -10.054   3.513   4.574  1.00  0.00     0.029 A 
ATOM     43  N   UNL     1      -9.036   4.228   6.391  1.00  0.00    -0.354 N 
ATOM     44  C   UNL     1      -7.164   1.338   9.203  1.00  0.00     0.074 A 
ATOM     45  C   UNL     1      -6.331   0.704   8.215  1.00  0.00     0.031 C 
ATOM     46  C   UNL     1      -9.797   4.822   4.378  1.00  0.00     0.029 A 
ATOM     47  C   UNL     1      -9.130   5.337   5.555  1.00  0.00     0.049 A 
ATOM     48  H   UNL     1      -8.739   4.289   7.328  1.00  0.00     0.167 HD
ATOM     49  C   UNL     1      -6.867   1.844  10.435  1.00  0.00     0.037 A 
ATOM     50  C   UNL     1      -8.675   6.592   5.795  1.00  0.00     0.037 A 
ATOM     51  C   UNL     1      -8.045   2.378  11.073  1.00  0.00     0.049 A 
ATOM     52  C   UNL     1      -8.512   6.708   7.268  1.00  0.00     0.074 A 
ATOM     53  C   UNL     1      -9.271   1.855  11.437  1.00  0.00     0.029 A 
ATOM     54  N   UNL     1      -8.205   3.744  11.082  1.00  0.00    -0.354 N 
ATOM     55  N   UNL     1      -9.510   6.671   8.110  1.00  0.00    -0.248 NA
ATOM     56  C   UNL     1      -7.210   6.391   7.836  1.00  0.00     0.031 C 
ATOM     57  C   UNL     1     -10.210   2.889  11.151  1.00  0.00     0.029 A 
ATOM     58  C   UNL     1      -9.498   4.005  10.706  1.00  0.00     0.049 A 
ATOM     59  H   UNL     1      -7.519   4.410  11.315  1.00  0.00     0.167 HD
ATOM     60  C   UNL     1      -9.047   5.915   9.177  1.00  0.00     0.074 A 
ATOM     61  C   UNL     1      -7.597   5.861   9.000  1.00  0.00     0.031 C 
ATOM     62  C   UNL     1      -9.900   5.161   9.934  1.00  0.00     0.037 A 
BRANCH  49  63
ATOM     63  C   UNL     1      -5.475   2.188  10.926  1.00  0.00     0.058 A 
ATOM     64  C   UNL     1      -5.289   2.566  12.274  1.00  0.00     0.135 A 
ATOM     65  C   UNL     1      -4.380   2.442  10.072  1.00  0.00     0.135 A 
ATOM     66  F   UNL     1      -6.261   2.372  13.181  1.00  0.00    -0.206 F 
ATOM     67  C   UNL     1      -4.142   3.229  12.717  1.00  0.00     0.059 A 
ATOM     68  C   UNL     1      -3.205   3.050  10.504  1.00  0.00     0.059 A 
ATOM     69  F   UNL     1      -4.430   2.208   8.755  1.00  0.00    -0.206 F 
ATOM     70  C   UNL     1      -3.114   3.485  11.815  1.00  0.00     0.060 A 
BRANCH  70  71
ATOM     71  S   UNL     1      -1.692   4.458  12.343  1.00  0.00     0.124 S 
ATOM     72  O   UNL     1      -2.289   5.779  12.502  1.00  0.00    -0.237 OA
ATOM     73  O   UNL     1      -1.299   3.780  13.574  1.00  0.00    -0.237 OA
ATOM     74  O   UNL     1      -0.758   4.317  11.230  1.00  0.00    -0.744 OA
ENDBRANCH  70  71
ENDBRANCH  49  63
BRANCH  50  75
ATOM     75  C   UNL     1      -8.125   7.573   4.822  1.00  0.00     0.058 A 
ATOM     76  C   UNL     1      -7.910   8.915   5.182  1.00  0.00     0.135 A 
ATOM     77  C   UNL     1      -7.553   7.164   3.598  1.00  0.00     0.135 A 
ATOM     78  F   UNL     1      -8.404   9.390   6.335  1.00  0.00    -0.206 F 
ATOM     79  C   UNL     1      -7.129   9.781   4.407  1.00  0.00     0.059 A 
ATOM     80  C   UNL     1      -6.785   8.012   2.802  1.00  0.00     0.059 A 
ATOM     81  F   UNL     1      -7.646   5.893   3.177  1.00  0.00    -0.206 F 
ATOM     82  C   UNL     1      -6.550   9.313   3.228  1.00  0.00     0.060 A 
BRANCH  82  83
ATOM     83  S   UNL     1      -5.381  10.360   2.330  1.00  0.00     0.124 S 
ATOM     84  O   UNL     1      -6.258  11.383   1.770  1.00  0.00    -0.237 OA
ATOM     85  O   UNL     1      -4.483  10.801   3.392  1.00  0.00    -0.237 OA
ATOM     86  O   UNL     1      -4.786   9.447   1.357  1.00  0.00    -0.744 OA
ENDBRANCH  82  83
ENDBRANCH  50  75
BRANCH  62  87
ATOM     87  C   UNL     1     -11.386   5.378   9.776  1.00  0.00     0.058 A 
ATOM     88  C   UNL     1     -12.106   5.127   8.593  1.00  0.00     0.135 A 
ATOM     89  C   UNL     1     -12.137   5.690  10.919  1.00  0.00     0.135 A 
ATOM     90  F   UNL     1     -11.486   4.715   7.481  1.00  0.00    -0.206 F 
ATOM     91  C   UNL     1     -13.497   5.224   8.537  1.00  0.00     0.059 A 
ATOM     92  C   UNL     1     -13.528   5.761  10.896  1.00  0.00     0.059 A 
ATOM     93  F   UNL     1     -11.520   5.876  12.098  1.00  0.00    -0.206 F 
ATOM     94  C   UNL     1     -14.201   5.540   9.696  1.00  0.00     0.060 A 
BRANCH  94  95
ATOM     95  S   UNL     1     -16.005   5.588   9.641  1.00  0.00     0.124 S 
ATOM     96  O   UNL     1     -16.256   6.821   8.903  1.00  0.00    -0.237 OA
ATOM     97  O   UNL     1     -16.336   4.351   8.939  1.00  0.00    -0.237 OA
ATOM     98  O   UNL     1     -16.389   5.614  11.050  1.00  0.00    -0.744 OA
ENDBRANCH  94  95
ENDBRANCH  62  87
ENDBRANCH  36  37
ENDBRANCH  28  31
ENDBRANCH  26  27
ENDBRANCH  25  26
ENDBRANCH   1  25
TORSDOF 17
