REMARK SMILES O=C(NCCCNC(=O)[C@H]1C[N@H+](Cc2cccc(Cl)c2)CC12CCCCC2)c1ccc(-c2c3nc(c(-c4c(F)cc(S(=O)(=O)[O-])cc4F)c4ccc([nH]4)c(-c4c(F)cc(S(=O)(=O)[O-])cc4F)c4nc(c(-c5c(F)cc(S(=O)(=O)[O-])cc5F)c5ccc2[nH]5)C=C4)C=C3)cc1
REMARK SMILES IDX 4 1 3 2 1 3 2 4 28 6 29 7 93 8 30 9 92 10 31 11 32 12 33 13
REMARK SMILES IDX 86 14 34 15 91 16 85 17 87 18 35 19 90 20 84 21 83 22 36 24
REMARK SMILES IDX 70 25 49 26 69 27 50 28 53 29 68 30 88 31 51 32 52 33 67 35
REMARK SMILES IDX 89 36 54 37 37 38 38 39 47 40 39 41 40 42 46 43 48 44 41 45
REMARK SMILES IDX 42 46 43 47 44 48 45 49 71 50 72 51 81 52 73 53 74 54 80 55
REMARK SMILES IDX 82 56 75 57 76 58 77 59 78 60 79 61 55 62 56 63 65 64 57 65
REMARK SMILES IDX 58 66 64 67 66 68 59 69 60 70 61 71 62 72 63 73 5 74 6 75
REMARK SMILES IDX 7 76 8 77 9 79 10 80 11 81 22 82 12 83 21 84 23 85 27 86
REMARK SMILES IDX 24 88 26 89 25 90 13 91 14 92 15 93 20 94 16 95 18 96 17 97
REMARK SMILES IDX 19 98
REMARK H PARENT 3 5 87 23 53 34 7 78 12 87
REMARK Flexibility Score: inf
ROOT
ATOM      1  C   UNL     1       4.107  -0.799  -1.147  1.00  0.00     0.118 C 
ENDROOT
BRANCH   1   2
ATOM      2  N   UNL     1       2.749  -0.291  -1.051  1.00  0.00    -0.352 N 
ATOM      3  O   UNL     1       0.937   0.551  -0.017  1.00  0.00    -0.269 OA
ATOM      4  C   UNL     1       2.169   0.441  -0.046  1.00  0.00     0.251 C 
ATOM      5  H   UNL     1       2.163  -0.501  -1.814  1.00  0.00     0.163 HD
BRANCH   4   6
ATOM      6  C   UNL     1       2.994   1.083   1.003  1.00  0.00     0.039 A 
ATOM      7  C   UNL     1       4.212   1.690   0.689  1.00  0.00     0.014 A 
ATOM      8  C   UNL     1       2.527   1.119   2.321  1.00  0.00     0.014 A 
ATOM      9  C   UNL     1       5.023   2.193   1.701  1.00  0.00     0.010 A 
ATOM     10  C   UNL     1       3.297   1.723   3.323  1.00  0.00     0.010 A 
ATOM     11  C   UNL     1       4.568   2.241   3.028  1.00  0.00    -0.014 A 
BRANCH  11  12
ATOM     12  C   UNL     1       5.412   2.898   4.064  1.00  0.00     0.031 A 
ATOM     13  C   UNL     1       5.935   2.133   5.251  1.00  0.00     0.074 A 
ATOM     14  C   UNL     1       5.733   4.200   3.908  1.00  0.00     0.049 A 
ATOM     15  N   UNL     1       6.709   2.549   6.221  1.00  0.00    -0.248 NA
ATOM     16  C   UNL     1       5.529   0.725   5.374  1.00  0.00     0.031 C 
ATOM     17  C   UNL     1       5.269   5.056   2.812  1.00  0.00     0.029 A 
ATOM     18  N   UNL     1       6.537   5.026   4.651  1.00  0.00    -0.354 N 
ATOM     19  C   UNL     1       6.862   1.468   7.082  1.00  0.00     0.074 A 
ATOM     20  C   UNL     1       6.079   0.383   6.532  1.00  0.00     0.031 C 
ATOM     21  C   UNL     1       5.844   6.262   2.919  1.00  0.00     0.029 A 
ATOM     22  C   UNL     1       6.662   6.291   4.125  1.00  0.00     0.049 A 
ATOM     23  H   UNL     1       6.983   4.741   5.481  1.00  0.00     0.167 HD
ATOM     24  C   UNL     1       7.594   1.387   8.221  1.00  0.00     0.037 A 
ATOM     25  C   UNL     1       7.348   7.363   4.565  1.00  0.00     0.037 A 
ATOM     26  C   UNL     1       8.390   2.467   8.750  1.00  0.00     0.049 A 
ATOM     27  C   UNL     1       8.150   7.245   5.830  1.00  0.00     0.074 A 
ATOM     28  C   UNL     1       9.202   2.468   9.872  1.00  0.00     0.029 A 
ATOM     29  N   UNL     1       8.475   3.738   8.199  1.00  0.00    -0.354 N 
ATOM     30  N   UNL     1       8.311   6.202   6.609  1.00  0.00    -0.248 NA
ATOM     31  C   UNL     1       8.862   8.448   6.277  1.00  0.00     0.031 C 
ATOM     32  C   UNL     1       9.737   3.752  10.027  1.00  0.00     0.029 A 
ATOM     33  C   UNL     1       9.306   4.536   8.970  1.00  0.00     0.049 A 
ATOM     34  H   UNL     1       8.011   4.030   7.381  1.00  0.00     0.167 HD
ATOM     35  C   UNL     1       9.165   6.615   7.624  1.00  0.00     0.074 A 
ATOM     36  C   UNL     1       9.496   7.999   7.351  1.00  0.00     0.031 C 
ATOM     37  C   UNL     1       9.633   5.912   8.684  1.00  0.00     0.037 A 
BRANCH  24  38
ATOM     38  C   UNL     1       7.554   0.093   8.992  1.00  0.00     0.058 A 
ATOM     39  C   UNL     1       8.172  -1.075   8.518  1.00  0.00     0.135 A 
ATOM     40  C   UNL     1       6.922   0.033  10.245  1.00  0.00     0.135 A 
ATOM     41  F   UNL     1       8.781  -1.081   7.321  1.00  0.00    -0.206 F 
ATOM     42  C   UNL     1       8.139  -2.263   9.244  1.00  0.00     0.059 A 
ATOM     43  C   UNL     1       6.900  -1.136  11.001  1.00  0.00     0.059 A 
ATOM     44  F   UNL     1       6.317   1.120  10.750  1.00  0.00    -0.206 F 
ATOM     45  C   UNL     1       7.499  -2.284  10.484  1.00  0.00     0.060 A 
BRANCH  45  46
ATOM     46  S   UNL     1       7.461  -3.833  11.411  1.00  0.00     0.124 S 
ATOM     47  O   UNL     1       6.498  -4.611  10.638  1.00  0.00    -0.237 OA
ATOM     48  O   UNL     1       8.848  -4.280  11.329  1.00  0.00    -0.237 OA
ATOM     49  O   UNL     1       7.016  -3.424  12.740  1.00  0.00    -0.744 OA
ENDBRANCH  45  46
ENDBRANCH  24  38
BRANCH  25  50
ATOM     50  C   UNL     1       7.312   8.634   3.795  1.00  0.00     0.058 A 
ATOM     51  C   UNL     1       8.449   9.104   3.121  1.00  0.00     0.135 A 
ATOM     52  C   UNL     1       6.135   9.393   3.699  1.00  0.00     0.135 A 
ATOM     53  F   UNL     1       9.599   8.416   3.186  1.00  0.00    -0.206 F 
ATOM     54  C   UNL     1       8.427  10.289   2.393  1.00  0.00     0.059 A 
ATOM     55  C   UNL     1       6.080  10.565   2.952  1.00  0.00     0.059 A 
ATOM     56  F   UNL     1       5.014   8.978   4.309  1.00  0.00    -0.206 F 
ATOM     57  C   UNL     1       7.235  11.011   2.312  1.00  0.00     0.060 A 
BRANCH  57  58
ATOM     58  S   UNL     1       7.203  12.523   1.325  1.00  0.00     0.124 S 
ATOM     59  O   UNL     1       7.946  13.444   2.176  1.00  0.00    -0.237 OA
ATOM     60  O   UNL     1       7.873  12.103   0.099  1.00  0.00    -0.237 OA
ATOM     61  O   UNL     1       5.776  12.802   1.186  1.00  0.00    -0.744 OA
ENDBRANCH  57  58
ENDBRANCH  25  50
BRANCH  37  62
ATOM     62  C   UNL     1      10.593   6.615   9.604  1.00  0.00     0.058 A 
ATOM     63  C   UNL     1      10.177   7.636  10.473  1.00  0.00     0.135 A 
ATOM     64  C   UNL     1      11.948   6.246   9.628  1.00  0.00     0.135 A 
ATOM     65  F   UNL     1       8.894   8.032  10.485  1.00  0.00    -0.206 F 
ATOM     66  C   UNL     1      11.077   8.290  11.309  1.00  0.00     0.059 A 
ATOM     67  C   UNL     1      12.859   6.866  10.477  1.00  0.00     0.059 A 
ATOM     68  F   UNL     1      12.398   5.269   8.824  1.00  0.00    -0.206 F 
ATOM     69  C   UNL     1      12.417   7.899  11.302  1.00  0.00     0.060 A 
BRANCH  69  70
ATOM     70  S   UNL     1      13.574   8.746  12.398  1.00  0.00     0.124 S 
ATOM     71  O   UNL     1      13.749  10.021  11.711  1.00  0.00    -0.237 OA
ATOM     72  O   UNL     1      12.833   8.799  13.655  1.00  0.00    -0.237 OA
ATOM     73  O   UNL     1      14.741   7.869  12.403  1.00  0.00    -0.744 OA
ENDBRANCH  69  70
ENDBRANCH  37  62
ENDBRANCH  11  12
ENDBRANCH   4   6
ENDBRANCH   1   2
BRANCH   1  74
ATOM     74  C   UNL     1       4.152  -2.311  -1.001  1.00  0.00     0.042 C 
BRANCH  74  75
ATOM     75  C   UNL     1       3.889  -3.064  -2.300  1.00  0.00     0.117 C 
BRANCH  75  76
ATOM     76  N   UNL     1       4.914  -2.804  -3.296  1.00  0.00    -0.356 N 
ATOM     77  C   UNL     1       6.034  -3.503  -3.635  1.00  0.00     0.229 C 
ATOM     78  H   UNL     1       4.776  -1.980  -3.816  1.00  0.00     0.163 HD
ATOM     79  O   UNL     1       6.743  -3.020  -4.520  1.00  0.00    -0.275 OA
BRANCH  77  80
ATOM     80  C   UNL     1       6.350  -4.837  -2.966  1.00  0.00     0.145 C 
ATOM     81  C   UNL     1       7.218  -5.683  -3.905  1.00  0.00     0.276 C 
ATOM     82  C   UNL     1       7.117  -4.849  -1.604  1.00  0.00     0.037 C 
ATOM     83  N   UNL     1       7.881  -6.667  -3.062  1.00  0.00    -0.330 N 
ATOM     84  C   UNL     1       8.176  -5.982  -1.803  1.00  0.00     0.270 C 
ATOM     85  C   UNL     1       7.802  -3.495  -1.280  1.00  0.00     0.014 C 
ATOM     86  C   UNL     1       6.162  -5.245  -0.452  1.00  0.00     0.014 C 
ATOM     87  H   UNL     1       8.754  -6.971  -3.494  1.00  0.00     0.348 HD
ATOM     88  C   UNL     1       8.318  -3.357   0.157  1.00  0.00     0.001 C 
ATOM     89  C   UNL     1       6.783  -5.173   0.936  1.00  0.00     0.001 C 
ATOM     90  C   UNL     1       7.294  -3.771   1.208  1.00  0.00     0.000 C 
BRANCH  83  91
ATOM     91  C   UNL     1       7.307  -8.015  -3.006  1.00  0.00     0.299 C 
BRANCH  91  92
ATOM     92  C   UNL     1       5.924  -8.188  -2.413  1.00  0.00     0.008 A 
ATOM     93  C   UNL     1       4.773  -7.819  -3.129  1.00  0.00     0.009 A 
ATOM     94  C   UNL     1       5.766  -8.683  -1.107  1.00  0.00     0.030 A 
ATOM     95  C   UNL     1       3.518  -7.808  -2.515  1.00  0.00     0.002 A 
ATOM     96  C   UNL     1       4.506  -8.687  -0.503  1.00  0.00     0.041 A 
ATOM     97  C   UNL     1       3.388  -8.224  -1.192  1.00  0.00     0.020 A 
ATOM     98  Cl  UNL     1       4.346  -9.197   1.132  1.00  0.00    -0.084 Cl
ENDBRANCH  91  92
ENDBRANCH  83  91
ENDBRANCH  77  80
ENDBRANCH  75  76
ENDBRANCH  74  75
ENDBRANCH   1  74
TORSDOF 15
