REMARK SMILES CC[C@@](C)(NC(=O)/C=C/c1cccc(F)c1)C(=O)NCCCNC(=O)c1ccc(-c2c3nc(c(-c4c(F)cc(S(=O)(=O)[O-])cc4F)c4ccc([nH]4)c(-c4c(F)cc(S(=O)(=O)[O-])cc4F)c4nc(c(-c5c(F)cc(S(=O)(=O)[O-])cc5F)c5ccc2[nH]5)C=C4)C=C3)cc1
REMARK SMILES IDX 21 1 20 2 19 3 17 4 18 5 3 7 4 8 2 9 1 10 5 11 6 12 7 14
REMARK SMILES IDX 8 15 9 16 10 17 11 18 16 19 12 20 14 21 13 22 15 23 22 24
REMARK SMILES IDX 23 25 24 26 25 28 26 29 27 30 91 31 28 32 90 33 29 34 30 35
REMARK SMILES IDX 31 36 84 37 32 38 89 39 83 40 85 41 33 42 88 43 82 44 81 45
REMARK SMILES IDX 34 47 68 48 47 49 67 50 48 51 51 52 66 53 86 54 49 55 50 56
REMARK SMILES IDX 65 58 87 59 52 60 35 61 36 62 45 63 37 64 38 65 44 66 46 67
REMARK SMILES IDX 39 68 40 69 41 70 42 71 43 72 69 73 70 74 79 75 71 76 72 77
REMARK SMILES IDX 78 78 80 79 73 80 74 81 75 82 76 83 77 84 53 85 54 86 63 87
REMARK SMILES IDX 55 88 56 89 62 90 64 91 57 92 58 93 59 94 60 95 61 96
REMARK H PARENT 19 6 5 13 23 27 85 46 51 57
REMARK Flexibility Score: inf
ROOT
ATOM      1  C   UNL     1       2.612   1.849   5.916  1.00  0.00     0.042 C 
ENDROOT
BRANCH   1   2
ATOM      2  C   UNL     1       2.000   2.523   4.691  1.00  0.00     0.117 C 
BRANCH   2   3
ATOM      3  N   UNL     1       2.582   2.174   3.404  1.00  0.00    -0.354 N 
ATOM      4  C   UNL     1       2.126   1.435   2.348  1.00  0.00     0.245 C 
ATOM      5  O   UNL     1       2.714   1.626   1.278  1.00  0.00    -0.272 OA
ATOM      6  H   UNL     1       3.485   2.543   3.267  1.00  0.00     0.163 HD
BRANCH   4   7
ATOM      7  C   UNL     1       0.856   0.531   2.425  1.00  0.00     0.116 C 
ATOM      8  C   UNL     1      -0.352   1.497   2.335  1.00  0.00     0.045 C 
BRANCH   7   9
ATOM      9  C   UNL     1       0.686  -0.511   1.274  1.00  0.00     0.035 C 
ATOM     10  C   UNL     1       0.863  -0.039  -0.163  1.00  0.00     0.007 C 
ENDBRANCH   7   9
BRANCH   7  11
ATOM     11  N   UNL     1       0.777  -0.227   3.695  1.00  0.00    -0.338 N 
ATOM     12  C   UNL     1       1.615  -1.157   4.237  1.00  0.00     0.244 C 
ATOM     13  H   UNL     1      -0.016  -0.024   4.242  1.00  0.00     0.164 HD
ATOM     14  O   UNL     1       1.163  -1.930   5.081  1.00  0.00    -0.270 OA
BRANCH  12  15
ATOM     15  C   UNL     1       3.085  -1.111   4.035  1.00  0.00     0.072 C 
ATOM     16  C   UNL     1       3.787  -1.062   2.894  1.00  0.00     0.014 C 
BRANCH  16  17
ATOM     17  C   UNL     1       5.236  -0.822   2.890  1.00  0.00    -0.023 A 
ATOM     18  C   UNL     1       6.146  -1.685   3.512  1.00  0.00     0.008 A 
ATOM     19  C   UNL     1       5.716   0.328   2.252  1.00  0.00     0.047 A 
ATOM     20  C   UNL     1       7.515  -1.390   3.505  1.00  0.00     0.004 A 
ATOM     21  C   UNL     1       7.075   0.619   2.264  1.00  0.00     0.123 A 
ATOM     22  C   UNL     1       7.979  -0.230   2.885  1.00  0.00     0.039 A 
ATOM     23  F   UNL     1       7.513   1.737   1.671  1.00  0.00    -0.207 F 
ENDBRANCH  16  17
ENDBRANCH  12  15
ENDBRANCH   7  11
ENDBRANCH   4   7
ENDBRANCH   2   3
ENDBRANCH   1   2
BRANCH   1  24
ATOM     24  C   UNL     1       4.134   1.782   5.971  1.00  0.00     0.118 C 
BRANCH  24  25
ATOM     25  N   UNL     1       4.768   3.085   6.017  1.00  0.00    -0.352 N 
ATOM     26  C   UNL     1       5.506   3.701   6.997  1.00  0.00     0.251 C 
ATOM     27  H   UNL     1       4.649   3.623   5.201  1.00  0.00     0.163 HD
ATOM     28  O   UNL     1       5.822   4.879   6.833  1.00  0.00    -0.269 OA
BRANCH  26  29
ATOM     29  C   UNL     1       5.902   3.007   8.247  1.00  0.00     0.039 A 
ATOM     30  C   UNL     1       5.884   3.745   9.436  1.00  0.00     0.014 A 
ATOM     31  C   UNL     1       6.358   1.685   8.271  1.00  0.00     0.014 A 
ATOM     32  C   UNL     1       6.270   3.151  10.641  1.00  0.00     0.010 A 
ATOM     33  C   UNL     1       6.674   1.070   9.488  1.00  0.00     0.010 A 
ATOM     34  C   UNL     1       6.642   1.797  10.687  1.00  0.00    -0.014 A 
BRANCH  34  35
ATOM     35  C   UNL     1       6.988   1.159  11.988  1.00  0.00     0.031 A 
ATOM     36  C   UNL     1       8.384   0.662  12.262  1.00  0.00     0.074 A 
ATOM     37  C   UNL     1       6.037   1.028  12.935  1.00  0.00     0.049 A 
ATOM     38  N   UNL     1       8.867   0.125  13.354  1.00  0.00    -0.248 NA
ATOM     39  C   UNL     1       9.360   0.767  11.167  1.00  0.00     0.031 C 
ATOM     40  C   UNL     1       4.635   1.424  12.781  1.00  0.00     0.029 A 
ATOM     41  N   UNL     1       6.104   0.540  14.217  1.00  0.00    -0.354 N 
ATOM     42  C   UNL     1      10.197  -0.171  13.080  1.00  0.00     0.074 A 
ATOM     43  C   UNL     1      10.431   0.196  11.700  1.00  0.00     0.031 C 
ATOM     44  C   UNL     1       3.987   1.206  13.937  1.00  0.00     0.029 A 
ATOM     45  C   UNL     1       4.915   0.628  14.904  1.00  0.00     0.049 A 
ATOM     46  H   UNL     1       6.925   0.163  14.608  1.00  0.00     0.167 HD
ATOM     47  C   UNL     1      11.145  -0.675  13.908  1.00  0.00     0.037 A 
ATOM     48  C   UNL     1       4.606   0.294  16.173  1.00  0.00     0.037 A 
ATOM     49  C   UNL     1      10.918  -1.020  15.289  1.00  0.00     0.049 A 
ATOM     50  C   UNL     1       5.675  -0.258  17.074  1.00  0.00     0.074 A 
ATOM     51  C   UNL     1      11.830  -1.495  16.216  1.00  0.00     0.029 A 
ATOM     52  N   UNL     1       9.699  -0.926  15.943  1.00  0.00    -0.354 N 
ATOM     53  N   UNL     1       6.939  -0.484  16.808  1.00  0.00    -0.248 NA
ATOM     54  C   UNL     1       5.278  -0.595  18.448  1.00  0.00     0.031 C 
ATOM     55  C   UNL     1      11.155  -1.724  17.420  1.00  0.00     0.029 A 
ATOM     56  C   UNL     1       9.831  -1.349  17.256  1.00  0.00     0.049 A 
ATOM     57  H   UNL     1       8.863  -0.606  15.534  1.00  0.00     0.167 HD
ATOM     58  C   UNL     1       7.493  -0.974  17.986  1.00  0.00     0.074 A 
ATOM     59  C   UNL     1       6.431  -0.993  18.971  1.00  0.00     0.031 C 
ATOM     60  C   UNL     1       8.766  -1.374  18.227  1.00  0.00     0.037 A 
BRANCH  47  61
ATOM     61  C   UNL     1      12.530  -0.870  13.352  1.00  0.00     0.058 A 
ATOM     62  C   UNL     1      13.050  -2.159  13.153  1.00  0.00     0.135 A 
ATOM     63  C   UNL     1      13.369   0.223  13.078  1.00  0.00     0.135 A 
ATOM     64  F   UNL     1      12.291  -3.239  13.395  1.00  0.00    -0.206 F 
ATOM     65  C   UNL     1      14.355  -2.357  12.714  1.00  0.00     0.059 A 
ATOM     66  C   UNL     1      14.669   0.048  12.614  1.00  0.00     0.059 A 
ATOM     67  F   UNL     1      12.915   1.477  13.232  1.00  0.00    -0.206 F 
ATOM     68  C   UNL     1      15.158  -1.247  12.448  1.00  0.00     0.060 A 
BRANCH  68  69
ATOM     69  S   UNL     1      16.839  -1.521  11.846  1.00  0.00     0.124 S 
ATOM     70  O   UNL     1      17.505  -2.034  13.038  1.00  0.00    -0.237 OA
ATOM     71  O   UNL     1      16.626  -2.484  10.770  1.00  0.00    -0.237 OA
ATOM     72  O   UNL     1      17.262  -0.193  11.411  1.00  0.00    -0.744 OA
ENDBRANCH  68  69
ENDBRANCH  47  61
BRANCH  48  73
ATOM     73  C   UNL     1       3.225   0.520  16.676  1.00  0.00     0.058 A 
ATOM     74  C   UNL     1       2.148  -0.260  16.226  1.00  0.00     0.135 A 
ATOM     75  C   UNL     1       2.951   1.548  17.590  1.00  0.00     0.135 A 
ATOM     76  F   UNL     1       2.356  -1.250  15.345  1.00  0.00    -0.206 F 
ATOM     77  C   UNL     1       0.846  -0.010  16.644  1.00  0.00     0.059 A 
ATOM     78  C   UNL     1       1.659   1.802  18.041  1.00  0.00     0.059 A 
ATOM     79  F   UNL     1       3.951   2.311  18.058  1.00  0.00    -0.206 F 
ATOM     80  C   UNL     1       0.610   1.028  17.547  1.00  0.00     0.060 A 
BRANCH  80  81
ATOM     81  S   UNL     1      -1.091   1.351  18.059  1.00  0.00     0.124 S 
ATOM     82  O   UNL     1      -1.661   1.910  16.838  1.00  0.00    -0.237 OA
ATOM     83  O   UNL     1      -1.559   0.018  18.426  1.00  0.00    -0.237 OA
ATOM     84  O   UNL     1      -0.938   2.286  19.168  1.00  0.00    -0.744 OA
ENDBRANCH  80  81
ENDBRANCH  48  73
BRANCH  60  85
ATOM     85  C   UNL     1       9.088  -1.861  19.613  1.00  0.00     0.058 A 
ATOM     86  C   UNL     1       9.892  -1.094  20.472  1.00  0.00     0.135 A 
ATOM     87  C   UNL     1       8.636  -3.107  20.077  1.00  0.00     0.135 A 
ATOM     88  F   UNL     1      10.356   0.102  20.077  1.00  0.00    -0.206 F 
ATOM     89  C   UNL     1      10.241  -1.547  21.740  1.00  0.00     0.059 A 
ATOM     90  C   UNL     1       8.951  -3.568  21.352  1.00  0.00     0.059 A 
ATOM     91  F   UNL     1       7.856  -3.874  19.299  1.00  0.00    -0.206 F 
ATOM     92  C   UNL     1       9.764  -2.786  22.172  1.00  0.00     0.060 A 
BRANCH  92  93
ATOM     93  S   UNL     1      10.188  -3.341  23.837  1.00  0.00     0.124 S 
ATOM     94  O   UNL     1      11.590  -3.713  23.681  1.00  0.00    -0.237 OA
ATOM     95  O   UNL     1       9.933  -2.147  24.637  1.00  0.00    -0.237 OA
ATOM     96  O   UNL     1       9.266  -4.449  24.069  1.00  0.00    -0.744 OA
ENDBRANCH  92  93
ENDBRANCH  60  85
ENDBRANCH  34  35
ENDBRANCH  26  29
ENDBRANCH  24  25
ENDBRANCH   1  24
TORSDOF 17
