REMARK SMILES O=C(/C=C/c1cccs1)NCC(=O)NCCCNC(=O)c1ccc(-c2c3nc(c(-c4c(F)cc(S(=O)(=O)[O-])cc4F)c4ccc([nH]4)c(-c4c(F)cc(S(=O)(=O)[O-])cc4F)c4nc(c(-c5c(F)cc(S(=O)(=O)[O-])cc5F)c5ccc2[nH]5)C=C4)C=C3)cc1
REMARK SMILES IDX 16 1 15 2 14 3 12 4 13 5 11 7 10 8 1 9 2 10 3 12 4 13 5 14
REMARK SMILES IDX 6 15 9 16 7 17 8 18 17 19 18 20 19 21 20 23 21 24 22 25
REMARK SMILES IDX 86 26 23 27 85 28 24 29 25 30 26 31 79 32 27 33 84 34 78 35
REMARK SMILES IDX 80 36 28 37 83 38 77 39 76 40 29 42 63 43 42 44 62 45 43 46
REMARK SMILES IDX 46 47 61 48 81 49 44 50 45 51 60 53 82 54 47 55 30 56 31 57
REMARK SMILES IDX 40 58 32 59 33 60 39 61 41 62 34 63 35 64 36 65 37 66 38 67
REMARK SMILES IDX 64 68 65 69 74 70 66 71 67 72 73 73 75 74 68 75 69 76 70 77
REMARK SMILES IDX 71 78 72 79 48 80 49 81 58 82 50 83 51 84 57 85 59 86 52 87
REMARK SMILES IDX 53 88 54 89 55 90 56 91
REMARK H PARENT 14 6 10 11 18 22 80 41 46 52
REMARK Flexibility Score: inf
ROOT
ATOM      1  C   UNL     1       2.310   2.470   2.483  1.00  0.00     0.042 C 
ENDROOT
BRANCH   1   2
ATOM      2  C   UNL     1       1.419   2.973   1.349  1.00  0.00     0.117 C 
BRANCH   2   3
ATOM      3  N   UNL     1       2.157   3.768   0.385  1.00  0.00    -0.355 N 
ATOM      4  C   UNL     1       2.566   3.422  -0.872  1.00  0.00     0.239 C 
ATOM      5  O   UNL     1       3.187   4.250  -1.541  1.00  0.00    -0.273 OA
ATOM      6  H   UNL     1       2.395   4.678   0.675  1.00  0.00     0.163 HD
BRANCH   4   7
ATOM      7  C   UNL     1       2.235   2.038  -1.428  1.00  0.00     0.216 C 
BRANCH   7   8
ATOM      8  N   UNL     1       2.962   0.989  -0.732  1.00  0.00    -0.343 N 
ATOM      9  O   UNL     1       1.113  -0.281  -0.299  1.00  0.00    -0.270 OA
ATOM     10  C   UNL     1       2.326  -0.105  -0.219  1.00  0.00     0.244 C 
ATOM     11  H   UNL     1       3.938   1.069  -0.629  1.00  0.00     0.164 HD
BRANCH  10  12
ATOM     12  C   UNL     1       3.156  -1.128   0.463  1.00  0.00     0.072 C 
ATOM     13  C   UNL     1       4.468  -1.054   0.736  1.00  0.00     0.024 C 
BRANCH  13  14
ATOM     14  C   UNL     1       5.146  -2.112   1.413  1.00  0.00     0.027 A 
ATOM     15  C   UNL     1       4.828  -3.455   1.549  1.00  0.00     0.020 A 
ATOM     16  S   UNL     1       6.633  -1.771   2.219  1.00  0.00    -0.144 S 
ATOM     17  C   UNL     1       5.774  -4.181   2.329  1.00  0.00     0.012 A 
ATOM     18  C   UNL     1       6.800  -3.378   2.768  1.00  0.00     0.065 A 
ENDBRANCH  13  14
ENDBRANCH  10  12
ENDBRANCH   7   8
ENDBRANCH   4   7
ENDBRANCH   2   3
ENDBRANCH   1   2
BRANCH   1  19
ATOM     19  C   UNL     1       2.830   3.573   3.405  1.00  0.00     0.118 C 
BRANCH  19  20
ATOM     20  N   UNL     1       1.763   4.262   4.117  1.00  0.00    -0.352 N 
ATOM     21  C   UNL     1       1.577   4.469   5.460  1.00  0.00     0.251 C 
ATOM     22  H   UNL     1       1.061   4.641   3.540  1.00  0.00     0.163 HD
ATOM     23  O   UNL     1       0.503   4.931   5.848  1.00  0.00    -0.269 OA
BRANCH  21  24
ATOM     24  C   UNL     1       2.632   4.136   6.443  1.00  0.00     0.039 A 
ATOM     25  C   UNL     1       2.254   3.558   7.659  1.00  0.00     0.014 A 
ATOM     26  C   UNL     1       3.977   4.430   6.202  1.00  0.00     0.014 A 
ATOM     27  C   UNL     1       3.226   3.224   8.605  1.00  0.00     0.010 A 
ATOM     28  C   UNL     1       4.952   4.034   7.118  1.00  0.00     0.010 A 
ATOM     29  C   UNL     1       4.588   3.429   8.330  1.00  0.00    -0.014 A 
BRANCH  29  30
ATOM     30  C   UNL     1       5.637   3.004   9.293  1.00  0.00     0.031 A 
ATOM     31  C   UNL     1       6.529   4.022   9.951  1.00  0.00     0.074 A 
ATOM     32  C   UNL     1       5.824   1.690   9.531  1.00  0.00     0.049 A 
ATOM     33  N   UNL     1       7.531   3.834  10.773  1.00  0.00    -0.248 NA
ATOM     34  C   UNL     1       6.280   5.435   9.624  1.00  0.00     0.031 C 
ATOM     35  C   UNL     1       5.059   0.603   8.916  1.00  0.00     0.029 A 
ATOM     36  N   UNL     1       6.722   1.044  10.344  1.00  0.00    -0.354 N 
ATOM     37  C   UNL     1       8.039   5.098  11.049  1.00  0.00     0.074 A 
ATOM     38  C   UNL     1       7.265   6.042  10.270  1.00  0.00     0.031 C 
ATOM     39  C   UNL     1       5.507  -0.572   9.387  1.00  0.00     0.029 A 
ATOM     40  C   UNL     1       6.612  -0.326  10.309  1.00  0.00     0.049 A 
ATOM     41  H   UNL     1       7.382   1.517  10.900  1.00  0.00     0.167 HD
ATOM     42  C   UNL     1       9.044   5.444  11.889  1.00  0.00     0.037 A 
ATOM     43  C   UNL     1       7.325  -1.279  10.940  1.00  0.00     0.037 A 
ATOM     44  C   UNL     1       9.795   4.503  12.681  1.00  0.00     0.049 A 
ATOM     45  C   UNL     1       8.429  -0.871  11.877  1.00  0.00     0.074 A 
ATOM     46  C   UNL     1      10.790   4.759  13.609  1.00  0.00     0.029 A 
ATOM     47  N   UNL     1       9.637   3.125  12.637  1.00  0.00    -0.354 N 
ATOM     48  N   UNL     1       8.852   0.334  12.176  1.00  0.00    -0.248 NA
ATOM     49  C   UNL     1       9.147  -1.951  12.568  1.00  0.00     0.031 C 
ATOM     50  C   UNL     1      11.262   3.534  14.095  1.00  0.00     0.029 A 
ATOM     51  C   UNL     1      10.529   2.517  13.506  1.00  0.00     0.049 A 
ATOM     52  H   UNL     1       8.986   2.649  12.072  1.00  0.00     0.167 HD
ATOM     53  C   UNL     1       9.870   0.159  13.107  1.00  0.00     0.074 A 
ATOM     54  C   UNL     1       9.988  -1.267  13.333  1.00  0.00     0.031 C 
ATOM     55  C   UNL     1      10.636   1.095  13.721  1.00  0.00     0.037 A 
BRANCH  42  56
ATOM     56  C   UNL     1       9.392   6.904  11.999  1.00  0.00     0.058 A 
ATOM     57  C   UNL     1       8.534   7.821  12.629  1.00  0.00     0.135 A 
ATOM     58  C   UNL     1      10.612   7.389  11.500  1.00  0.00     0.135 A 
ATOM     59  F   UNL     1       7.349   7.415  13.113  1.00  0.00    -0.206 F 
ATOM     60  C   UNL     1       8.858   9.170  12.730  1.00  0.00     0.059 A 
ATOM     61  C   UNL     1      10.969   8.729  11.615  1.00  0.00     0.059 A 
ATOM     62  F   UNL     1      11.471   6.557  10.890  1.00  0.00    -0.206 F 
ATOM     63  C   UNL     1      10.077   9.615  12.218  1.00  0.00     0.060 A 
BRANCH  63  64
ATOM     64  S   UNL     1      10.482  11.369  12.357  1.00  0.00     0.124 S 
ATOM     65  O   UNL     1       9.601  11.951  11.349  1.00  0.00    -0.237 OA
ATOM     66  O   UNL     1      10.137  11.662  13.745  1.00  0.00    -0.237 OA
ATOM     67  O   UNL     1      11.907  11.415  12.046  1.00  0.00    -0.744 OA
ENDBRANCH  63  64
ENDBRANCH  42  56
BRANCH  43  68
ATOM     68  C   UNL     1       7.001  -2.714  10.720  1.00  0.00     0.058 A 
ATOM     69  C   UNL     1       6.395  -3.480  11.727  1.00  0.00     0.135 A 
ATOM     70  C   UNL     1       7.271  -3.341   9.493  1.00  0.00     0.135 A 
ATOM     71  F   UNL     1       6.123  -2.926  12.918  1.00  0.00    -0.206 F 
ATOM     72  C   UNL     1       6.082  -4.821  11.533  1.00  0.00     0.059 A 
ATOM     73  C   UNL     1       6.944  -4.674   9.267  1.00  0.00     0.059 A 
ATOM     74  F   UNL     1       7.833  -2.647   8.492  1.00  0.00    -0.206 F 
ATOM     75  C   UNL     1       6.358  -5.409  10.297  1.00  0.00     0.060 A 
BRANCH  75  76
ATOM     76  S   UNL     1       5.900  -7.136  10.036  1.00  0.00     0.124 S 
ATOM     77  O   UNL     1       6.920  -7.831  10.812  1.00  0.00    -0.237 OA
ATOM     78  O   UNL     1       4.545  -7.180  10.576  1.00  0.00    -0.237 OA
ATOM     79  O   UNL     1       5.994  -7.291   8.587  1.00  0.00    -0.744 OA
ENDBRANCH  75  76
ENDBRANCH  43  68
BRANCH  55  80
ATOM     80  C   UNL     1      11.652   0.609  14.718  1.00  0.00     0.058 A 
ATOM     81  C   UNL     1      12.824  -0.050  14.315  1.00  0.00     0.135 A 
ATOM     82  C   UNL     1      11.468   0.839  16.091  1.00  0.00     0.135 A 
ATOM     83  F   UNL     1      13.045  -0.301  13.015  1.00  0.00    -0.206 F 
ATOM     84  C   UNL     1      13.766  -0.487  15.241  1.00  0.00     0.059 A 
ATOM     85  C   UNL     1      12.409   0.434  17.032  1.00  0.00     0.059 A 
ATOM     86  F   UNL     1      10.369   1.474  16.529  1.00  0.00    -0.206 F 
ATOM     87  C   UNL     1      13.549  -0.241  16.598  1.00  0.00     0.060 A 
BRANCH  87  88
ATOM     88  S   UNL     1      14.789  -0.793  17.788  1.00  0.00     0.124 S 
ATOM     89  O   UNL     1      14.542  -2.231  17.823  1.00  0.00    -0.237 OA
ATOM     90  O   UNL     1      16.038  -0.380  17.154  1.00  0.00    -0.237 OA
ATOM     91  O   UNL     1      14.440  -0.065  19.004  1.00  0.00    -0.744 OA
ENDBRANCH  87  88
ENDBRANCH  55  80
ENDBRANCH  29  30
ENDBRANCH  21  24
ENDBRANCH  19  20
ENDBRANCH   1  19
TORSDOF 16
