REMARK SMILES Cc1cccc(O[C@H]2CC[C@@]([NH2+]C(C)C)(C(=O)NCCCNC(=O)c3ccc(-c4c5nc(c(-c6c(F)cc(S(=O)(=O)[O-])cc6F)c6ccc([nH]6)c(-c6c(F)cc(S(=O)(=O)[O-])cc6F)c6nc(c(-c7c(F)cc(S(=O)(=O)[O-])cc7F)c7ccc4[nH]7)C=C6)C=C5)cc3)C2)c1
REMARK SMILES IDX 20 1 19 2 18 3 16 4 17 5 11 7 8 8 9 9 91 10 10 11 7 12 6 13
REMARK SMILES IDX 1 14 2 15 3 16 92 17 4 18 5 19 12 20 13 23 14 24 15 25 21 26
REMARK SMILES IDX 22 27 23 28 24 30 25 31 26 32 90 33 27 34 89 35 28 36 29 37
REMARK SMILES IDX 30 38 83 39 31 40 88 41 82 42 84 43 32 44 87 45 81 46 80 47
REMARK SMILES IDX 33 49 67 50 46 51 66 52 47 53 50 54 65 55 85 56 48 57 49 58
REMARK SMILES IDX 64 60 86 61 51 62 34 63 35 64 44 65 36 66 37 67 43 68 45 69
REMARK SMILES IDX 38 70 39 71 40 72 41 73 42 74 68 75 69 76 78 77 70 78 71 79
REMARK SMILES IDX 77 80 79 81 72 82 73 83 74 84 75 85 76 86 52 87 53 88 62 89
REMARK SMILES IDX 54 90 55 91 61 92 63 93 56 94 57 95 58 96 59 97 60 98
REMARK H PARENT 18 6 12 21 12 22 22 29 84 48 50 59
REMARK Flexibility Score: inf
ROOT
ATOM      1  C   UNL     1       2.623   7.899  -0.218  1.00  0.00     0.042 C 
ENDROOT
BRANCH   1   2
ATOM      2  C   UNL     1       2.434   7.323   1.179  1.00  0.00     0.118 C 
BRANCH   2   3
ATOM      3  N   UNL     1       1.035   7.209   1.576  1.00  0.00    -0.351 N 
ATOM      4  C   UNL     1       0.212   6.114   1.645  1.00  0.00     0.281 C 
ATOM      5  O   UNL     1      -0.885   6.269   2.189  1.00  0.00    -0.268 OA
ATOM      6  H   UNL     1       0.612   8.058   1.839  1.00  0.00     0.163 HD
BRANCH   4   7
ATOM      7  C   UNL     1       0.657   4.724   1.077  1.00  0.00     0.179 C 
ATOM      8  C   UNL     1      -1.083   3.563  -0.241  1.00  0.00     0.180 C 
ATOM      9  C   UNL     1       0.143   3.741  -1.125  1.00  0.00     0.052 C 
ATOM     10  C   UNL     1      -0.467   3.649   1.159  1.00  0.00     0.124 C 
ATOM     11  C   UNL     1       0.905   4.870  -0.446  1.00  0.00     0.083 C 
BRANCH   8  12
ATOM     12  O   UNL     1      -2.011   4.636  -0.379  1.00  0.00    -0.490 OA
BRANCH  12  13
ATOM     13  C   UNL     1      -2.917   4.605  -1.400  1.00  0.00     0.119 A 
ATOM     14  C   UNL     1      -5.925   6.792  -2.250  1.00  0.00     0.044 C 
ATOM     15  C   UNL     1      -4.878   5.719  -2.326  1.00  0.00    -0.047 A 
ATOM     16  C   UNL     1      -4.847   4.843  -3.415  1.00  0.00     0.003 A 
ATOM     17  C   UNL     1      -3.900   5.597  -1.330  1.00  0.00     0.049 A 
ATOM     18  C   UNL     1      -3.873   3.848  -3.489  1.00  0.00     0.004 A 
ATOM     19  C   UNL     1      -2.915   3.722  -2.479  1.00  0.00     0.046 A 
ENDBRANCH  12  13
ENDBRANCH   8  12
BRANCH   7  20
ATOM     20  N   UNL     1       1.892   4.230   1.741  1.00  0.00    -0.332 N 
ATOM     21  H   UNL     1       2.671   4.792   1.397  1.00  0.00     0.347 HD
ATOM     22  H   UNL     1       1.939   3.238   1.508  1.00  0.00     0.347 HD
BRANCH  20  23
ATOM     23  C   UNL     1       1.928   4.276   3.208  1.00  0.00     0.176 C 
ATOM     24  C   UNL     1       1.258   3.070   3.864  1.00  0.00     0.075 C 
ATOM     25  C   UNL     1       3.405   4.321   3.617  1.00  0.00     0.075 C 
ENDBRANCH  20  23
ENDBRANCH   7  20
ENDBRANCH   4   7
ENDBRANCH   2   3
ENDBRANCH   1   2
BRANCH   1  26
ATOM     26  C   UNL     1       2.438   9.409  -0.271  1.00  0.00     0.118 C 
BRANCH  26  27
ATOM     27  N   UNL     1       3.653  10.100  -0.692  1.00  0.00    -0.352 N 
ATOM     28  C   UNL     1       3.778  11.392  -1.170  1.00  0.00     0.251 C 
ATOM     29  H   UNL     1       4.487   9.581  -0.626  1.00  0.00     0.163 HD
ATOM     30  O   UNL     1       4.790  11.807  -1.700  1.00  0.00    -0.269 OA
BRANCH  28  31
ATOM     31  C   UNL     1       2.651  12.299  -0.880  1.00  0.00     0.039 A 
ATOM     32  C   UNL     1       2.837  13.220   0.158  1.00  0.00     0.014 A 
ATOM     33  C   UNL     1       1.388  12.010  -1.384  1.00  0.00     0.014 A 
ATOM     34  C   UNL     1       1.726  13.724   0.823  1.00  0.00     0.010 A 
ATOM     35  C   UNL     1       0.292  12.440  -0.666  1.00  0.00     0.010 A 
ATOM     36  C   UNL     1       0.464  13.257   0.465  1.00  0.00    -0.014 A 
BRANCH  36  37
ATOM     37  C   UNL     1      -0.741  13.515   1.243  1.00  0.00     0.031 A 
ATOM     38  C   UNL     1      -1.750  14.465   0.726  1.00  0.00     0.074 A 
ATOM     39  C   UNL     1      -0.977  12.797   2.362  1.00  0.00     0.049 A 
ATOM     40  N   UNL     1      -2.718  14.967   1.412  1.00  0.00    -0.248 NA
ATOM     41  C   UNL     1      -1.698  14.970  -0.641  1.00  0.00     0.031 C 
ATOM     42  C   UNL     1      -2.249  12.642   3.059  1.00  0.00     0.029 A 
ATOM     43  N   UNL     1      -0.036  12.216   3.218  1.00  0.00    -0.354 N 
ATOM     44  C   UNL     1      -3.559  15.630   0.543  1.00  0.00     0.074 A 
ATOM     45  C   UNL     1      -2.846  15.649  -0.712  1.00  0.00     0.031 C 
ATOM     46  C   UNL     1      -2.010  12.247   4.319  1.00  0.00     0.029 A 
ATOM     47  C   UNL     1      -0.572  12.296   4.519  1.00  0.00     0.049 A 
ATOM     48  H   UNL     1       0.831  11.826   2.962  1.00  0.00     0.167 HD
ATOM     49  C   UNL     1      -4.814  15.969   0.963  1.00  0.00     0.037 A 
ATOM     50  C   UNL     1       0.043  13.040   5.486  1.00  0.00     0.037 A 
ATOM     51  C   UNL     1      -4.959  15.718   2.399  1.00  0.00     0.049 A 
ATOM     52  C   UNL     1      -0.795  14.190   5.996  1.00  0.00     0.074 A 
ATOM     53  C   UNL     1      -5.488  14.658   3.119  1.00  0.00     0.029 A 
ATOM     54  N   UNL     1      -4.224  16.479   3.305  1.00  0.00    -0.354 N 
ATOM     55  N   UNL     1      -1.830  14.677   5.365  1.00  0.00    -0.248 NA
ATOM     56  C   UNL     1      -0.538  14.880   7.257  1.00  0.00     0.031 C 
ATOM     57  C   UNL     1      -4.986  14.733   4.443  1.00  0.00     0.029 A 
ATOM     58  C   UNL     1      -4.180  15.855   4.539  1.00  0.00     0.049 A 
ATOM     59  H   UNL     1      -3.795  17.340   3.096  1.00  0.00     0.167 HD
ATOM     60  C   UNL     1      -2.359  15.718   6.083  1.00  0.00     0.074 A 
ATOM     61  C   UNL     1      -1.527  15.791   7.271  1.00  0.00     0.031 C 
ATOM     62  C   UNL     1      -3.435  16.438   5.647  1.00  0.00     0.037 A 
BRANCH  49  63
ATOM     63  C   UNL     1      -5.982  16.228   0.022  1.00  0.00     0.058 A 
ATOM     64  C   UNL     1      -7.306  15.923   0.415  1.00  0.00     0.135 A 
ATOM     65  C   UNL     1      -5.870  16.691  -1.305  1.00  0.00     0.135 A 
ATOM     66  F   UNL     1      -7.600  15.575   1.675  1.00  0.00    -0.206 F 
ATOM     67  C   UNL     1      -8.393  15.950  -0.465  1.00  0.00     0.059 A 
ATOM     68  C   UNL     1      -6.929  16.671  -2.221  1.00  0.00     0.059 A 
ATOM     69  F   UNL     1      -4.742  17.246  -1.760  1.00  0.00    -0.206 F 
ATOM     70  C   UNL     1      -8.189  16.285  -1.795  1.00  0.00     0.060 A 
BRANCH  70  71
ATOM     71  S   UNL     1      -9.580  16.233  -2.941  1.00  0.00     0.124 S 
ATOM     72  O   UNL     1     -10.054  14.860  -2.788  1.00  0.00    -0.237 OA
ATOM     73  O   UNL     1     -10.454  17.271  -2.407  1.00  0.00    -0.237 OA
ATOM     74  O   UNL     1      -8.969  16.534  -4.233  1.00  0.00    -0.744 OA
ENDBRANCH  70  71
ENDBRANCH  49  63
BRANCH  50  75
ATOM     75  C   UNL     1       1.530  13.011   5.386  1.00  0.00     0.058 A 
ATOM     76  C   UNL     1       2.170  11.782   5.643  1.00  0.00     0.135 A 
ATOM     77  C   UNL     1       2.233  13.961   4.632  1.00  0.00     0.135 A 
ATOM     78  F   UNL     1       1.552  10.846   6.381  1.00  0.00    -0.206 F 
ATOM     79  C   UNL     1       3.370  11.439   5.030  1.00  0.00     0.059 A 
ATOM     80  C   UNL     1       3.447  13.641   4.016  1.00  0.00     0.059 A 
ATOM     81  F   UNL     1       1.681  15.153   4.362  1.00  0.00    -0.206 F 
ATOM     82  C   UNL     1       3.963  12.351   4.160  1.00  0.00     0.060 A 
BRANCH  82  83
ATOM     83  S   UNL     1       5.298  11.752   3.095  1.00  0.00     0.124 S 
ATOM     84  O   UNL     1       6.301  11.336   4.069  1.00  0.00    -0.237 OA
ATOM     85  O   UNL     1       4.638  10.667   2.369  1.00  0.00    -0.237 OA
ATOM     86  O   UNL     1       5.641  12.922   2.296  1.00  0.00    -0.744 OA
ENDBRANCH  82  83
ENDBRANCH  50  75
BRANCH  62  87
ATOM     87  C   UNL     1      -3.947  17.708   6.283  1.00  0.00     0.058 A 
ATOM     88  C   UNL     1      -3.120  18.654   6.912  1.00  0.00     0.135 A 
ATOM     89  C   UNL     1      -5.307  18.077   6.149  1.00  0.00     0.135 A 
ATOM     90  F   UNL     1      -1.794  18.471   6.998  1.00  0.00    -0.206 F 
ATOM     91  C   UNL     1      -3.615  19.849   7.438  1.00  0.00     0.059 A 
ATOM     92  C   UNL     1      -5.812  19.287   6.618  1.00  0.00     0.059 A 
ATOM     93  F   UNL     1      -6.193  17.271   5.543  1.00  0.00    -0.206 F 
ATOM     94  C   UNL     1      -4.964  20.157   7.288  1.00  0.00     0.060 A 
BRANCH  94  95
ATOM     95  S   UNL     1      -5.606  21.720   7.913  1.00  0.00     0.124 S 
ATOM     96  O   UNL     1      -6.071  21.333   9.242  1.00  0.00    -0.237 OA
ATOM     97  O   UNL     1      -4.434  22.590   7.886  1.00  0.00    -0.237 OA
ATOM     98  O   UNL     1      -6.649  22.058   6.950  1.00  0.00    -0.744 OA
ENDBRANCH  94  95
ENDBRANCH  62  87
ENDBRANCH  36  37
ENDBRANCH  28  31
ENDBRANCH  26  27
ENDBRANCH   1  26
TORSDOF 17
