REMARK SMILES C[C@]1(CNC(=O)N2CCOC[C@H]2C(=O)NCCCNC(=O)c2ccc(-c3c4nc(c(-c5c(F)cc(S(=O)(=O)[O-])cc5F)c5ccc([nH]5)c(-c5c(F)cc(S(=O)(=O)[O-])cc5F)c5nc(c(-c6c(F)cc(S(=O)(=O)[O-])cc6F)c6ccc3[nH]6)C=C5)C=C4)cc2)CCCO1
REMARK SMILES IDX 17 1 16 2 15 3 13 4 14 5 12 7 7 8 8 9 9 10 11 11 10 12 5 13
REMARK SMILES IDX 4 14 6 16 3 17 2 18 1 19 88 20 91 21 89 22 90 23 18 24 19 25
REMARK SMILES IDX 20 26 21 28 22 29 23 30 87 31 24 32 86 33 25 34 26 35 27 36
REMARK SMILES IDX 80 37 28 38 85 39 79 40 81 41 29 42 84 43 78 44 77 45 30 47
REMARK SMILES IDX 64 48 43 49 63 50 44 51 47 52 62 53 82 54 45 55 46 56 61 58
REMARK SMILES IDX 83 59 48 60 31 61 32 62 41 63 33 64 34 65 40 66 42 67 35 68
REMARK SMILES IDX 36 69 37 70 38 71 39 72 65 73 66 74 75 75 67 76 68 77 74 78
REMARK SMILES IDX 76 79 69 80 70 81 71 82 72 83 73 84 49 85 50 86 59 87 51 88
REMARK SMILES IDX 52 89 58 90 60 91 53 92 54 93 55 94 56 95 57 96
REMARK H PARENT 15 6 4 15 19 27 81 46 47 57
REMARK Flexibility Score: inf
ROOT
ATOM      1  C   UNL     1       0.264   4.983   2.776  1.00  0.00     0.042 C 
ENDROOT
BRANCH   1   2
ATOM      2  C   UNL     1      -0.585   5.426   1.586  1.00  0.00     0.117 C 
BRANCH   2   3
ATOM      3  N   UNL     1       0.223   5.764   0.427  1.00  0.00    -0.354 N 
ATOM      4  C   UNL     1       0.527   5.131  -0.739  1.00  0.00     0.245 C 
ATOM      5  O   UNL     1       1.147   5.835  -1.550  1.00  0.00    -0.273 OA
ATOM      6  H   UNL     1       0.647   6.649   0.502  1.00  0.00     0.163 HD
BRANCH   4   7
ATOM      7  C   UNL     1       0.131   3.676  -1.137  1.00  0.00     0.202 C 
ATOM      8  N   UNL     1       0.786   2.547  -0.449  1.00  0.00    -0.308 N 
ATOM      9  C   UNL     1       0.174   2.207   0.815  1.00  0.00     0.151 C 
ATOM     10  C   UNL     1      -1.301   1.880   0.608  1.00  0.00     0.182 C 
ATOM     11  C   UNL     1      -1.387   3.429  -1.220  1.00  0.00     0.195 C 
ATOM     12  O   UNL     1      -1.992   2.995   0.011  1.00  0.00    -0.377 OA
BRANCH   8  13
ATOM     13  C   UNL     1       1.832   1.912  -1.042  1.00  0.00     0.318 C 
ATOM     14  N   UNL     1       2.165   0.644  -0.714  1.00  0.00    -0.335 N 
ATOM     15  H   UNL     1       3.091   0.417  -0.960  1.00  0.00     0.165 HD
ATOM     16  O   UNL     1       2.496   2.437  -1.937  1.00  0.00    -0.249 OA
BRANCH  14  17
ATOM     17  C   UNL     1       1.458  -0.464  -0.075  1.00  0.00     0.152 C 
BRANCH  17  18
ATOM     18  C   UNL     1       0.834  -1.522  -1.022  1.00  0.00     0.083 C 
ATOM     19  C   UNL     1       0.965  -1.184  -2.510  1.00  0.00     0.044 C 
ATOM     20  C   UNL     1       1.360  -2.917  -0.683  1.00  0.00     0.039 C 
ATOM     21  O   UNL     1      -0.595  -1.594  -0.759  1.00  0.00    -0.373 OA
ATOM     22  C   UNL     1       0.205  -3.818  -1.031  1.00  0.00     0.031 C 
ATOM     23  C   UNL     1      -0.992  -2.970  -0.661  1.00  0.00     0.161 C 
ENDBRANCH  17  18
ENDBRANCH  14  17
ENDBRANCH   8  13
ENDBRANCH   4   7
ENDBRANCH   2   3
ENDBRANCH   1   2
BRANCH   1  24
ATOM     24  C   UNL     1       0.554   6.089   3.767  1.00  0.00     0.118 C 
BRANCH  24  25
ATOM     25  N   UNL     1      -0.621   6.435   4.557  1.00  0.00    -0.352 N 
ATOM     26  C   UNL     1      -0.844   6.305   5.910  1.00  0.00     0.251 C 
ATOM     27  H   UNL     1      -1.369   6.819   4.046  1.00  0.00     0.163 HD
ATOM     28  O   UNL     1      -1.976   6.456   6.352  1.00  0.00    -0.269 OA
BRANCH  26  29
ATOM     29  C   UNL     1       0.273   5.960   6.819  1.00  0.00     0.039 A 
ATOM     30  C   UNL     1       0.044   5.080   7.882  1.00  0.00     0.014 A 
ATOM     31  C   UNL     1       1.545   6.499   6.626  1.00  0.00     0.014 A 
ATOM     32  C   UNL     1       1.108   4.691   8.701  1.00  0.00     0.010 A 
ATOM     33  C   UNL     1       2.620   6.021   7.364  1.00  0.00     0.010 A 
ATOM     34  C   UNL     1       2.413   5.127   8.424  1.00  0.00    -0.014 A 
BRANCH  34  35
ATOM     35  C   UNL     1       3.580   4.707   9.242  1.00  0.00     0.031 A 
ATOM     36  C   UNL     1       4.408   5.757   9.938  1.00  0.00     0.074 A 
ATOM     37  C   UNL     1       3.949   3.410   9.281  1.00  0.00     0.049 A 
ATOM     38  N   UNL     1       5.546   5.628  10.568  1.00  0.00    -0.248 NA
ATOM     39  C   UNL     1       3.911   7.144   9.884  1.00  0.00     0.031 C 
ATOM     40  C   UNL     1       3.256   2.310   8.605  1.00  0.00     0.029 A 
ATOM     41  N   UNL     1       5.014   2.799   9.895  1.00  0.00    -0.354 N 
ATOM     42  C   UNL     1       5.915   6.913  10.949  1.00  0.00     0.074 A 
ATOM     43  C   UNL     1       4.908   7.815  10.441  1.00  0.00     0.031 C 
ATOM     44  C   UNL     1       3.908   1.161   8.849  1.00  0.00     0.029 A 
ATOM     45  C   UNL     1       5.090   1.446   9.655  1.00  0.00     0.049 A 
ATOM     46  H   UNL     1       5.663   3.284  10.454  1.00  0.00     0.167 HD
ATOM     47  C   UNL     1       6.987   7.302  11.677  1.00  0.00     0.037 A 
ATOM     48  C   UNL     1       6.022   0.543  10.021  1.00  0.00     0.037 A 
ATOM     49  C   UNL     1       7.953   6.389  12.227  1.00  0.00     0.049 A 
ATOM     50  C   UNL     1       7.195   1.001  10.849  1.00  0.00     0.074 A 
ATOM     51  C   UNL     1       9.024   6.672  13.055  1.00  0.00     0.029 A 
ATOM     52  N   UNL     1       7.963   5.021  12.008  1.00  0.00    -0.354 N 
ATOM     53  N   UNL     1       7.485   2.211  11.267  1.00  0.00    -0.248 NA
ATOM     54  C   UNL     1       8.164  -0.024  11.262  1.00  0.00     0.031 C 
ATOM     55  C   UNL     1       9.717   5.482  13.290  1.00  0.00     0.029 A 
ATOM     56  C   UNL     1       9.039   4.448  12.663  1.00  0.00     0.049 A 
ATOM     57  H   UNL     1       7.304   4.529  11.466  1.00  0.00     0.167 HD
ATOM     58  C   UNL     1       8.648   2.085  12.019  1.00  0.00     0.074 A 
ATOM     59  C   UNL     1       9.003   0.681  12.007  1.00  0.00     0.031 C 
ATOM     60  C   UNL     1       9.359   3.043  12.662  1.00  0.00     0.037 A 
BRANCH  47  61
ATOM     61  C   UNL     1       7.178   8.771  11.937  1.00  0.00     0.058 A 
ATOM     62  C   UNL     1       6.336   9.486  12.804  1.00  0.00     0.135 A 
ATOM     63  C   UNL     1       8.269   9.454  11.374  1.00  0.00     0.135 A 
ATOM     64  F   UNL     1       5.267   8.889  13.354  1.00  0.00    -0.206 F 
ATOM     65  C   UNL     1       6.565  10.826  13.098  1.00  0.00     0.059 A 
ATOM     66  C   UNL     1       8.534  10.786  11.677  1.00  0.00     0.059 A 
ATOM     67  F   UNL     1       9.101   8.820  10.533  1.00  0.00    -0.206 F 
ATOM     68  C   UNL     1       7.673  11.464  12.538  1.00  0.00     0.060 A 
BRANCH  68  69
ATOM     69  S   UNL     1       7.984  13.188  12.975  1.00  0.00     0.124 S 
ATOM     70  O   UNL     1       6.898  13.867  12.275  1.00  0.00    -0.237 OA
ATOM     71  O   UNL     1       7.880  13.161  14.431  1.00  0.00    -0.237 OA
ATOM     72  O   UNL     1       9.322  13.437  12.449  1.00  0.00    -0.744 OA
ENDBRANCH  68  69
ENDBRANCH  47  61
BRANCH  48  73
ATOM     73  C   UNL     1       5.896  -0.882   9.604  1.00  0.00     0.058 A 
ATOM     74  C   UNL     1       5.661  -1.897  10.543  1.00  0.00     0.135 A 
ATOM     75  C   UNL     1       6.029  -1.260   8.258  1.00  0.00     0.135 A 
ATOM     76  F   UNL     1       5.528  -1.591  11.843  1.00  0.00    -0.206 F 
ATOM     77  C   UNL     1       5.599  -3.237  10.171  1.00  0.00     0.059 A 
ATOM     78  C   UNL     1       5.940  -2.589   7.857  1.00  0.00     0.059 A 
ATOM     79  F   UNL     1       6.234  -0.328   7.314  1.00  0.00    -0.206 F 
ATOM     80  C   UNL     1       5.743  -3.573   8.824  1.00  0.00     0.060 A 
BRANCH  80  81
ATOM     81  S   UNL     1       5.646  -5.312   8.348  1.00  0.00     0.124 S 
ATOM     82  O   UNL     1       6.916  -5.825   8.848  1.00  0.00    -0.237 OA
ATOM     83  O   UNL     1       4.452  -5.759   9.057  1.00  0.00    -0.237 OA
ATOM     84  O   UNL     1       5.517  -5.255   6.894  1.00  0.00    -0.744 OA
ENDBRANCH  80  81
ENDBRANCH  48  73
BRANCH  60  85
ATOM     85  C   UNL     1      10.560   2.612  13.456  1.00  0.00     0.058 A 
ATOM     86  C   UNL     1      11.752   2.207  12.838  1.00  0.00     0.135 A 
ATOM     87  C   UNL     1      10.541   2.694  14.859  1.00  0.00     0.135 A 
ATOM     88  F   UNL     1      11.819   2.106  11.501  1.00  0.00    -0.206 F 
ATOM     89  C   UNL     1      12.881   1.885  13.582  1.00  0.00     0.059 A 
ATOM     90  C   UNL     1      11.668   2.408  15.621  1.00  0.00     0.059 A 
ATOM     91  F   UNL     1       9.428   3.087  15.499  1.00  0.00    -0.206 F 
ATOM     92  C   UNL     1      12.832   1.998  14.974  1.00  0.00     0.060 A 
BRANCH  92  93
ATOM     93  S   UNL     1      14.324   1.635  15.923  1.00  0.00     0.124 S 
ATOM     94  O   UNL     1      14.405   0.183  15.801  1.00  0.00    -0.237 OA
ATOM     95  O   UNL     1      15.343   2.391  15.201  1.00  0.00    -0.237 OA
ATOM     96  O   UNL     1      14.008   2.136  17.258  1.00  0.00    -0.744 OA
ENDBRANCH  92  93
ENDBRANCH  60  85
ENDBRANCH  34  35
ENDBRANCH  26  29
ENDBRANCH  24  25
ENDBRANCH   1  24
TORSDOF 16
