REMARK SMILES O=C(NCCCNC(=O)[C@H]1[C@H]2CC[C@H](C2)[C@@H]1C(=O)N1CC[NH+](C2CCCCC2)CC1)c1ccc(-c2c3nc(c(-c4c(F)cc(S(=O)(=O)[O-])cc4F)c4ccc([nH]4)c(-c4c(F)cc(S(=O)(=O)[O-])cc4F)c4nc(c(-c5c(F)cc(S(=O)(=O)[O-])cc5F)c5ccc2[nH]5)C=C4)C=C3)cc1
REMARK SMILES IDX 4 1 3 2 1 3 2 4 31 6 32 7 96 8 33 9 95 10 34 11 35 12 36 13
REMARK SMILES IDX 89 14 37 15 94 16 88 17 90 18 38 19 93 20 87 21 86 22 39 24
REMARK SMILES IDX 73 25 52 26 72 27 53 28 56 29 71 30 91 31 54 32 55 33 70 35
REMARK SMILES IDX 92 36 57 37 40 38 41 39 50 40 42 41 43 42 49 43 51 44 44 45
REMARK SMILES IDX 45 46 46 47 47 48 48 49 74 50 75 51 84 52 76 53 77 54 83 55
REMARK SMILES IDX 85 56 78 57 79 58 80 59 81 60 82 61 58 62 59 63 68 64 60 65
REMARK SMILES IDX 61 66 67 67 69 68 62 69 63 70 64 71 65 72 66 73 5 74 6 75
REMARK SMILES IDX 7 76 8 77 9 79 10 80 11 81 16 82 12 83 15 84 14 85 13 86
REMARK SMILES IDX 17 87 18 88 19 89 20 90 30 91 21 92 29 93 22 94 23 96 24 97
REMARK SMILES IDX 28 98 25 99 27 100 26 101
REMARK H PARENT 3 5 90 23 56 34 7 78 22 95
REMARK Flexibility Score: inf
ROOT
ATOM      1  C   UNL     1       4.567  -3.539   1.033  1.00  0.00     0.118 C 
ENDROOT
BRANCH   1   2
ATOM      2  N   UNL     1       4.511  -2.151   1.467  1.00  0.00    -0.352 N 
ATOM      3  O   UNL     1       3.723  -0.324   2.512  1.00  0.00    -0.269 OA
ATOM      4  C   UNL     1       3.705  -1.544   2.405  1.00  0.00     0.251 C 
ATOM      5  H   UNL     1       5.150  -1.550   1.020  1.00  0.00     0.163 HD
BRANCH   4   6
ATOM      6  C   UNL     1       2.801  -2.353   3.258  1.00  0.00     0.039 A 
ATOM      7  C   UNL     1       3.214  -3.569   3.800  1.00  0.00     0.014 A 
ATOM      8  C   UNL     1       1.514  -1.875   3.531  1.00  0.00     0.014 A 
ATOM      9  C   UNL     1       2.295  -4.387   4.449  1.00  0.00     0.010 A 
ATOM     10  C   UNL     1       0.622  -2.653   4.278  1.00  0.00     0.010 A 
ATOM     11  C   UNL     1       0.989  -3.938   4.704  1.00  0.00    -0.014 A 
BRANCH  11  12
ATOM     12  C   UNL     1       0.050  -4.824   5.444  1.00  0.00     0.031 A 
ATOM     13  C   UNL     1      -1.214  -5.332   4.803  1.00  0.00     0.074 A 
ATOM     14  C   UNL     1       0.374  -5.212   6.694  1.00  0.00     0.049 A 
ATOM     15  N   UNL     1      -2.111  -6.153   5.289  1.00  0.00    -0.248 NA
ATOM     16  C   UNL     1      -1.521  -4.851   3.447  1.00  0.00     0.031 C 
ATOM     17  C   UNL     1       1.563  -4.772   7.431  1.00  0.00     0.029 A 
ATOM     18  N   UNL     1      -0.242  -6.084   7.556  1.00  0.00    -0.354 N 
ATOM     19  C   UNL     1      -3.099  -6.265   4.316  1.00  0.00     0.074 A 
ATOM     20  C   UNL     1      -2.703  -5.409   3.219  1.00  0.00     0.031 C 
ATOM     21  C   UNL     1       1.624  -5.424   8.601  1.00  0.00     0.029 A 
ATOM     22  C   UNL     1       0.451  -6.281   8.727  1.00  0.00     0.049 A 
ATOM     23  H   UNL     1      -1.099  -6.526   7.354  1.00  0.00     0.167 HD
ATOM     24  C   UNL     1      -4.227  -7.018   4.334  1.00  0.00     0.037 A 
ATOM     25  C   UNL     1       0.174  -7.061   9.789  1.00  0.00     0.037 A 
ATOM     26  C   UNL     1      -4.597  -7.895   5.416  1.00  0.00     0.049 A 
ATOM     27  C   UNL     1      -1.072  -7.897   9.775  1.00  0.00     0.074 A 
ATOM     28  C   UNL     1      -5.697  -8.732   5.508  1.00  0.00     0.029 A 
ATOM     29  N   UNL     1      -3.878  -8.053   6.593  1.00  0.00    -0.354 N 
ATOM     30  N   UNL     1      -1.978  -8.009   8.833  1.00  0.00    -0.248 NA
ATOM     31  C   UNL     1      -1.336  -8.711  10.968  1.00  0.00     0.031 C 
ATOM     32  C   UNL     1      -5.662  -9.367   6.756  1.00  0.00     0.029 A 
ATOM     33  C   UNL     1      -4.518  -8.959   7.423  1.00  0.00     0.049 A 
ATOM     34  H   UNL     1      -3.037  -7.588   6.806  1.00  0.00     0.167 HD
ATOM     35  C   UNL     1      -2.910  -8.922   9.311  1.00  0.00     0.074 A 
ATOM     36  C   UNL     1      -2.449  -9.343  10.619  1.00  0.00     0.031 C 
ATOM     37  C   UNL     1      -4.045  -9.370   8.721  1.00  0.00     0.037 A 
BRANCH  24  38
ATOM     38  C   UNL     1      -5.157  -6.914   3.155  1.00  0.00     0.058 A 
ATOM     39  C   UNL     1      -4.841  -7.475   1.907  1.00  0.00     0.135 A 
ATOM     40  C   UNL     1      -6.402  -6.277   3.287  1.00  0.00     0.135 A 
ATOM     41  F   UNL     1      -3.660  -8.085   1.721  1.00  0.00    -0.206 F 
ATOM     42  C   UNL     1      -5.712  -7.383   0.826  1.00  0.00     0.059 A 
ATOM     43  C   UNL     1      -7.299  -6.194   2.225  1.00  0.00     0.059 A 
ATOM     44  F   UNL     1      -6.758  -5.726   4.458  1.00  0.00    -0.206 F 
ATOM     45  C   UNL     1      -6.938  -6.737   0.993  1.00  0.00     0.060 A 
BRANCH  45  46
ATOM     46  S   UNL     1      -8.058  -6.621  -0.419  1.00  0.00     0.124 S 
ATOM     47  O   UNL     1      -7.409  -5.588  -1.221  1.00  0.00    -0.237 OA
ATOM     48  O   UNL     1      -8.010  -7.972  -0.970  1.00  0.00    -0.237 OA
ATOM     49  O   UNL     1      -9.330  -6.240   0.186  1.00  0.00    -0.744 OA
ENDBRANCH  45  46
ENDBRANCH  24  38
BRANCH  25  50
ATOM     50  C   UNL     1       1.109  -7.093  10.944  1.00  0.00     0.058 A 
ATOM     51  C   UNL     1       1.891  -8.227  11.209  1.00  0.00     0.135 A 
ATOM     52  C   UNL     1       1.262  -5.981  11.786  1.00  0.00     0.135 A 
ATOM     53  F   UNL     1       1.777  -9.316  10.433  1.00  0.00    -0.206 F 
ATOM     54  C   UNL     1       2.782  -8.263  12.275  1.00  0.00     0.059 A 
ATOM     55  C   UNL     1       2.166  -5.983  12.842  1.00  0.00     0.059 A 
ATOM     56  F   UNL     1       0.550  -4.865  11.562  1.00  0.00    -0.206 F 
ATOM     57  C   UNL     1       2.914  -7.133  13.086  1.00  0.00     0.060 A 
BRANCH  57  58
ATOM     58  S   UNL     1       4.113  -7.168  14.435  1.00  0.00     0.124 S 
ATOM     59  O   UNL     1       3.420  -7.987  15.422  1.00  0.00    -0.237 OA
ATOM     60  O   UNL     1       5.276  -7.780  13.800  1.00  0.00    -0.237 OA
ATOM     61  O   UNL     1       4.268  -5.757  14.780  1.00  0.00    -0.744 OA
ENDBRANCH  57  58
ENDBRANCH  25  50
BRANCH  37  62
ATOM     62  C   UNL     1      -4.846 -10.395   9.473  1.00  0.00     0.058 A 
ATOM     63  C   UNL     1      -5.607 -10.052  10.602  1.00  0.00     0.135 A 
ATOM     64  C   UNL     1      -4.868 -11.732   9.047  1.00  0.00     0.135 A 
ATOM     65  F   UNL     1      -5.614  -8.789  11.054  1.00  0.00    -0.206 F 
ATOM     66  C   UNL     1      -6.337 -11.008  11.301  1.00  0.00     0.059 A 
ATOM     67  C   UNL     1      -5.611 -12.699   9.716  1.00  0.00     0.059 A 
ATOM     68  F   UNL     1      -4.165 -12.109   7.967  1.00  0.00    -0.206 F 
ATOM     69  C   UNL     1      -6.329 -12.330  10.853  1.00  0.00     0.060 A 
BRANCH  69  70
ATOM     70  S   UNL     1      -7.288 -13.561  11.760  1.00  0.00     0.124 S 
ATOM     71  O   UNL     1      -6.435 -13.802  12.919  1.00  0.00    -0.237 OA
ATOM     72  O   UNL     1      -8.537 -12.854  12.028  1.00  0.00    -0.237 OA
ATOM     73  O   UNL     1      -7.395 -14.670  10.816  1.00  0.00    -0.744 OA
ENDBRANCH  69  70
ENDBRANCH  37  62
ENDBRANCH  11  12
ENDBRANCH   4   6
ENDBRANCH   1   2
BRANCH   1  74
ATOM     74  C   UNL     1       4.256  -3.723  -0.445  1.00  0.00     0.042 C 
BRANCH  74  75
ATOM     75  C   UNL     1       5.304  -3.147  -1.383  1.00  0.00     0.117 C 
BRANCH  75  76
ATOM     76  N   UNL     1       6.574  -3.831  -1.269  1.00  0.00    -0.356 N 
ATOM     77  C   UNL     1       7.203  -4.681  -2.119  1.00  0.00     0.224 C 
ATOM     78  H   UNL     1       7.064  -3.649  -0.434  1.00  0.00     0.163 HD
ATOM     79  O   UNL     1       8.364  -4.975  -1.826  1.00  0.00    -0.275 OA
BRANCH  77  80
ATOM     80  C   UNL     1       6.541  -5.149  -3.416  1.00  0.00     0.094 C 
ATOM     81  C   UNL     1       7.512  -6.043  -4.251  1.00  0.00     0.002 C 
ATOM     82  C   UNL     1       5.294  -6.063  -3.293  1.00  0.00     0.094 C 
ATOM     83  C   UNL     1       7.911  -7.351  -3.530  1.00  0.00     0.005 C 
ATOM     84  C   UNL     1       6.558  -6.602  -5.295  1.00  0.00     0.009 C 
ATOM     85  C   UNL     1       5.630  -7.235  -4.248  1.00  0.00     0.002 C 
ATOM     86  C   UNL     1       6.615  -8.170  -3.528  1.00  0.00     0.005 C 
BRANCH  82  87
ATOM     87  C   UNL     1       3.947  -5.374  -3.576  1.00  0.00     0.227 C 
ATOM     88  O   UNL     1       3.081  -5.337  -2.700  1.00  0.00    -0.275 OA
ATOM     89  N   UNL     1       3.774  -4.674  -4.755  1.00  0.00    -0.331 N 
ATOM     90  C   UNL     1       3.034  -3.411  -4.681  1.00  0.00     0.181 C 
ATOM     91  C   UNL     1       3.526  -5.385  -6.007  1.00  0.00     0.181 C 
ATOM     92  C   UNL     1       3.262  -2.526  -5.929  1.00  0.00     0.284 C 
ATOM     93  C   UNL     1       3.859  -4.487  -7.205  1.00  0.00     0.284 C 
ATOM     94  N   UNL     1       3.127  -3.208  -7.234  1.00  0.00    -0.330 N 
ATOM     95  H   UNL     1       3.589  -2.650  -7.951  1.00  0.00     0.348 HD
BRANCH  94  96
ATOM     96  C   UNL     1       1.759  -3.206  -7.802  1.00  0.00     0.184 C 
ATOM     97  C   UNL     1       1.671  -4.012  -9.118  1.00  0.00     0.065 C 
ATOM     98  C   UNL     1       0.607  -3.575  -6.842  1.00  0.00     0.065 C 
ATOM     99  C   UNL     1       0.284  -3.969  -9.750  1.00  0.00     0.006 C 
ATOM    100  C   UNL     1      -0.764  -3.591  -7.516  1.00  0.00     0.006 C 
ATOM    101  C   UNL     1      -0.767  -4.459  -8.765  1.00  0.00     0.000 C 
ENDBRANCH  94  96
ENDBRANCH  82  87
ENDBRANCH  77  80
ENDBRANCH  75  76
ENDBRANCH  74  75
ENDBRANCH   1  74
TORSDOF 15
