REMARK SMILES CN(Cc1ccncc1)C(=O)c1cccn1CC(=O)NCCCNC(=O)c1ccc(-c2c3nc(c(-c4c(F)cc(S(=O)(=O)[O-])cc4F)c4ccc([nH]4)c(-c4c(F)cc(S(=O)(=O)[O-])cc4F)c4nc(c(-c5c(F)cc(S(=O)(=O)[O-])cc5F)c5ccc2[nH]5)C=C4)C=C3)cc1
REMARK SMILES IDX 21 1 20 2 18 3 19 4 17 6 16 7 12 8 13 9 14 10 15 11 10 12
REMARK SMILES IDX 11 13 2 14 1 15 3 16 4 17 5 18 9 19 6 20 8 21 7 22 22 23
REMARK SMILES IDX 23 24 24 25 25 26 26 28 27 29 28 30 92 31 29 32 91 33 30 34
REMARK SMILES IDX 31 35 32 36 85 37 33 38 90 39 84 40 86 41 34 42 89 43 83 44
REMARK SMILES IDX 82 45 35 47 69 48 48 49 68 50 49 51 52 52 67 53 87 54 50 55
REMARK SMILES IDX 51 56 66 58 88 59 53 60 36 61 37 62 46 63 38 64 39 65 45 66
REMARK SMILES IDX 47 67 40 68 41 69 42 70 43 71 44 72 70 73 71 74 80 75 72 76
REMARK SMILES IDX 73 77 79 78 81 79 74 80 75 81 76 82 77 83 78 84 54 85 55 86
REMARK SMILES IDX 64 87 56 88 57 89 63 90 65 91 58 92 59 93 60 94 61 95 62 96
REMARK H PARENT 20 5 24 27 86 46 52 57
REMARK Flexibility Score: inf
ROOT
ATOM      1  C   UNL     1       2.837   4.135  -0.409  1.00  0.00     0.117 C 
ENDROOT
BRANCH   1   2
ATOM      2  N   UNL     1       3.449   5.132   0.443  1.00  0.00    -0.354 N 
ATOM      3  C   UNL     1       3.329   5.282   1.795  1.00  0.00     0.239 C 
ATOM      4  O   UNL     1       3.916   6.221   2.336  1.00  0.00    -0.273 OA
ATOM      5  H   UNL     1       4.027   5.787  -0.011  1.00  0.00     0.163 HD
BRANCH   3   6
ATOM      6  C   UNL     1       2.545   4.271   2.600  1.00  0.00     0.222 C 
BRANCH   6   7
ATOM      7  N   UNL     1       1.100   4.357   2.419  1.00  0.00    -0.334 N 
ATOM      8  C   UNL     1       0.232   3.302   2.173  1.00  0.00     0.107 A 
ATOM      9  C   UNL     1      -1.039   3.803   2.420  1.00  0.00     0.033 A 
ATOM     10  C   UNL     1      -0.952   5.201   2.593  1.00  0.00     0.020 A 
ATOM     11  C   UNL     1       0.383   5.520   2.580  1.00  0.00     0.087 A 
BRANCH   8  12
ATOM     12  C   UNL     1       0.623   1.935   1.863  1.00  0.00     0.270 C 
ATOM     13  O   UNL     1       1.446   1.343   2.562  1.00  0.00    -0.267 OA
BRANCH  12  14
ATOM     14  N   UNL     1       0.108   1.323   0.704  1.00  0.00    -0.336 N 
ATOM     15  C   UNL     1       0.652   0.016   0.372  1.00  0.00     0.147 C 
BRANCH  14  16
ATOM     16  C   UNL     1      -0.617   2.023  -0.357  1.00  0.00     0.155 C 
BRANCH  16  17
ATOM     17  C   UNL     1      -2.083   2.251  -0.115  1.00  0.00    -0.026 A 
ATOM     18  C   UNL     1      -2.627   3.521  -0.364  1.00  0.00     0.025 A 
ATOM     19  C   UNL     1      -2.924   1.255   0.380  1.00  0.00     0.025 A 
ATOM     20  C   UNL     1      -3.945   3.763  -0.023  1.00  0.00     0.111 A 
ATOM     21  C   UNL     1      -4.236   1.591   0.673  1.00  0.00     0.111 A 
ATOM     22  N   UNL     1      -4.762   2.823   0.495  1.00  0.00    -0.265 NA
ENDBRANCH  16  17
ENDBRANCH  14  16
ENDBRANCH  12  14
ENDBRANCH   8  12
ENDBRANCH   6   7
ENDBRANCH   3   6
ENDBRANCH   1   2
BRANCH   1  23
ATOM     23  C   UNL     1       1.685   4.720  -1.226  1.00  0.00     0.042 C 
BRANCH  23  24
ATOM     24  C   UNL     1       2.175   5.522  -2.417  1.00  0.00     0.118 C 
BRANCH  24  25
ATOM     25  N   UNL     1       2.732   4.611  -3.407  1.00  0.00    -0.352 N 
ATOM     26  C   UNL     1       3.033   4.815  -4.726  1.00  0.00     0.251 C 
ATOM     27  H   UNL     1       2.923   3.704  -3.075  1.00  0.00     0.163 HD
ATOM     28  O   UNL     1       3.161   3.841  -5.455  1.00  0.00    -0.269 OA
BRANCH  26  29
ATOM     29  C   UNL     1       3.184   6.180  -5.264  1.00  0.00     0.039 A 
ATOM     30  C   UNL     1       2.819   6.393  -6.598  1.00  0.00     0.014 A 
ATOM     31  C   UNL     1       3.738   7.215  -4.503  1.00  0.00     0.014 A 
ATOM     32  C   UNL     1       2.954   7.657  -7.151  1.00  0.00     0.010 A 
ATOM     33  C   UNL     1       3.843   8.488  -5.038  1.00  0.00     0.010 A 
ATOM     34  C   UNL     1       3.435   8.704  -6.356  1.00  0.00    -0.014 A 
BRANCH  34  35
ATOM     35  C   UNL     1       3.345  10.084  -6.864  1.00  0.00     0.031 A 
ATOM     36  C   UNL     1       1.906  10.637  -6.699  1.00  0.00     0.074 A 
ATOM     37  C   UNL     1       4.507  10.604  -7.367  1.00  0.00     0.049 A 
ATOM     38  N   UNL     1       1.281  11.558  -7.364  1.00  0.00    -0.248 NA
ATOM     39  C   UNL     1       0.993  10.018  -5.690  1.00  0.00     0.031 C 
ATOM     40  C   UNL     1       5.811   9.896  -7.385  1.00  0.00     0.029 A 
ATOM     41  N   UNL     1       4.855  11.805  -7.951  1.00  0.00    -0.354 N 
ATOM     42  C   UNL     1       0.040  11.794  -6.719  1.00  0.00     0.074 A 
ATOM     43  C   UNL     1      -0.136  10.727  -5.786  1.00  0.00     0.031 C 
ATOM     44  C   UNL     1       6.758  10.629  -8.011  1.00  0.00     0.029 A 
ATOM     45  C   UNL     1       6.190  11.889  -8.444  1.00  0.00     0.049 A 
ATOM     46  H   UNL     1       4.222  12.555  -8.022  1.00  0.00     0.167 HD
ATOM     47  C   UNL     1      -0.685  12.942  -6.897  1.00  0.00     0.037 A 
ATOM     48  C   UNL     1       6.776  12.887  -9.181  1.00  0.00     0.037 A 
ATOM     49  C   UNL     1       0.010  13.791  -7.804  1.00  0.00     0.049 A 
ATOM     50  C   UNL     1       5.791  13.976  -9.173  1.00  0.00     0.074 A 
ATOM     51  C   UNL     1       0.216  13.708  -9.155  1.00  0.00     0.029 A 
ATOM     52  N   UNL     1       0.912  14.669  -7.252  1.00  0.00    -0.354 N 
ATOM     53  N   UNL     1       5.520  14.713  -8.140  1.00  0.00    -0.248 NA
ATOM     54  C   UNL     1       4.970  14.193 -10.370  1.00  0.00     0.031 C 
ATOM     55  C   UNL     1       1.547  14.143  -9.293  1.00  0.00     0.029 A 
ATOM     56  C   UNL     1       1.993  14.714  -8.093  1.00  0.00     0.049 A 
ATOM     57  H   UNL     1       0.803  15.171  -6.411  1.00  0.00     0.167 HD
ATOM     58  C   UNL     1       4.284  15.214  -8.459  1.00  0.00     0.074 A 
ATOM     59  C   UNL     1       4.165  15.142  -9.901  1.00  0.00     0.031 C 
ATOM     60  C   UNL     1       3.274  15.113  -7.556  1.00  0.00     0.037 A 
BRANCH  47  61
ATOM     61  C   UNL     1      -1.852  13.572  -6.177  1.00  0.00     0.058 A 
ATOM     62  C   UNL     1      -2.542  14.617  -6.847  1.00  0.00     0.135 A 
ATOM     63  C   UNL     1      -2.060  13.486  -4.795  1.00  0.00     0.135 A 
ATOM     64  F   UNL     1      -2.485  14.731  -8.185  1.00  0.00    -0.206 F 
ATOM     65  C   UNL     1      -3.224  15.621  -6.171  1.00  0.00     0.059 A 
ATOM     66  C   UNL     1      -2.788  14.460  -4.099  1.00  0.00     0.059 A 
ATOM     67  F   UNL     1      -1.499  12.507  -4.072  1.00  0.00    -0.206 F 
ATOM     68  C   UNL     1      -3.302  15.559  -4.788  1.00  0.00     0.060 A 
BRANCH  68  69
ATOM     69  S   UNL     1      -4.036  16.958  -3.914  1.00  0.00     0.124 S 
ATOM     70  O   UNL     1      -2.979  17.958  -4.016  1.00  0.00    -0.237 OA
ATOM     71  O   UNL     1      -5.236  17.224  -4.703  1.00  0.00    -0.237 OA
ATOM     72  O   UNL     1      -4.281  16.425  -2.578  1.00  0.00    -0.744 OA
ENDBRANCH  68  69
ENDBRANCH  47  61
BRANCH  48  73
ATOM     73  C   UNL     1       8.012  13.118 -10.033  1.00  0.00     0.058 A 
ATOM     74  C   UNL     1       9.076  12.228 -10.221  1.00  0.00     0.135 A 
ATOM     75  C   UNL     1       8.070  14.271 -10.874  1.00  0.00     0.135 A 
ATOM     76  F   UNL     1       9.254  11.181  -9.408  1.00  0.00    -0.206 F 
ATOM     77  C   UNL     1      10.001  12.372 -11.276  1.00  0.00     0.059 A 
ATOM     78  C   UNL     1       8.933  14.407 -11.957  1.00  0.00     0.059 A 
ATOM     79  F   UNL     1       7.244  15.313 -10.706  1.00  0.00    -0.206 F 
ATOM     80  C   UNL     1       9.876  13.427 -12.180  1.00  0.00     0.060 A 
BRANCH  80  81
ATOM     81  S   UNL     1      10.822  13.455 -13.719  1.00  0.00     0.124 S 
ATOM     82  O   UNL     1      12.077  14.065 -13.297  1.00  0.00    -0.237 OA
ATOM     83  O   UNL     1      10.888  12.040 -14.073  1.00  0.00    -0.237 OA
ATOM     84  O   UNL     1       9.992  14.268 -14.606  1.00  0.00    -0.744 OA
ENDBRANCH  80  81
ENDBRANCH  48  73
BRANCH  60  85
ATOM     85  C   UNL     1       3.722  15.045  -6.100  1.00  0.00     0.058 A 
ATOM     86  C   UNL     1       4.499  16.085  -5.558  1.00  0.00     0.135 A 
ATOM     87  C   UNL     1       3.501  13.950  -5.245  1.00  0.00     0.135 A 
ATOM     88  F   UNL     1       4.748  17.183  -6.290  1.00  0.00    -0.206 F 
ATOM     89  C   UNL     1       5.037  16.031  -4.268  1.00  0.00     0.059 A 
ATOM     90  C   UNL     1       4.019  13.871  -3.947  1.00  0.00     0.059 A 
ATOM     91  F   UNL     1       2.771  12.911  -5.649  1.00  0.00    -0.206 F 
ATOM     92  C   UNL     1       4.795  14.917  -3.466  1.00  0.00     0.060 A 
BRANCH  92  93
ATOM     93  S   UNL     1       5.482  14.871  -1.794  1.00  0.00     0.124 S 
ATOM     94  O   UNL     1       6.919  14.930  -2.043  1.00  0.00    -0.237 OA
ATOM     95  O   UNL     1       4.897  16.063  -1.190  1.00  0.00    -0.237 OA
ATOM     96  O   UNL     1       5.000  13.601  -1.257  1.00  0.00    -0.744 OA
ENDBRANCH  92  93
ENDBRANCH  60  85
ENDBRANCH  34  35
ENDBRANCH  26  29
ENDBRANCH  24  25
ENDBRANCH  23  24
ENDBRANCH   1  23
TORSDOF 18
