REMARK SMILES CC(C)[NH+]1CCC(NC(=O)OC(C)(C)C)(C(=O)NCCCNC(=O)c2ccc(-c3c4nc(c(-c5c(F)cc(S(=O)(=O)[O-])cc5F)c5ccc([nH]5)c(-c5c(F)cc(S(=O)(=O)[O-])cc5F)c5nc(c(-c6c(F)cc(S(=O)(=O)[O-])cc6F)c6ccc3[nH]6)C=C5)C=C4)cc2)CC1
REMARK SMILES IDX 20 1 19 2 18 3 16 4 17 5 7 7 4 8 5 9 92 10 6 12 91 13 2 14
REMARK SMILES IDX 1 15 3 16 8 17 9 18 10 20 11 21 12 22 13 23 14 24 15 25
REMARK SMILES IDX 21 26 22 27 23 28 24 30 25 31 26 32 90 33 27 34 89 35 28 36
REMARK SMILES IDX 29 37 30 38 83 39 31 40 88 41 82 42 84 43 32 44 87 45 81 46
REMARK SMILES IDX 80 47 33 49 67 50 46 51 66 52 47 53 50 54 65 55 85 56 48 57
REMARK SMILES IDX 49 58 64 60 86 61 51 62 34 63 35 64 44 65 36 66 37 67 43 68
REMARK SMILES IDX 45 69 38 70 39 71 40 72 41 73 42 74 68 75 69 76 78 77 70 78
REMARK SMILES IDX 71 79 77 80 79 81 72 82 73 83 74 84 75 85 76 86 52 87 53 88
REMARK SMILES IDX 62 89 54 90 55 91 61 92 63 93 56 94 57 95 58 96 59 97 60 98
REMARK H PARENT 18 6 4 11 8 19 22 29 84 48 50 59
REMARK Flexibility Score: inf
ROOT
ATOM      1  C   UNL     1      -3.707   5.316  -3.398  1.00  0.00     0.042 C 
ENDROOT
BRANCH   1   2
ATOM      2  C   UNL     1      -4.325   3.950  -3.218  1.00  0.00     0.117 C 
BRANCH   2   3
ATOM      3  N   UNL     1      -3.409   2.902  -3.616  1.00  0.00    -0.354 N 
ATOM      4  C   UNL     1      -3.147   1.712  -3.013  1.00  0.00     0.246 C 
ATOM      5  O   UNL     1      -2.526   0.883  -3.685  1.00  0.00    -0.272 OA
ATOM      6  H   UNL     1      -2.903   3.077  -4.442  1.00  0.00     0.163 HD
BRANCH   4   7
ATOM      7  C   UNL     1      -3.601   1.439  -1.548  1.00  0.00     0.132 C 
ATOM      8  N   UNL     1      -0.911   1.235  -0.267  1.00  0.00    -0.333 N 
ATOM      9  C   UNL     1      -1.484   2.522  -0.665  1.00  0.00     0.265 C 
ATOM     10  C   UNL     1      -1.479   0.096  -1.004  1.00  0.00     0.265 C 
ATOM     11  H   UNL     1      -1.187   1.053   0.698  1.00  0.00     0.348 HD
ATOM     12  C   UNL     1      -3.005   2.500  -0.589  1.00  0.00     0.100 C 
ATOM     13  C   UNL     1      -3.024   0.092  -1.069  1.00  0.00     0.100 C 
BRANCH   8  14
ATOM     14  C   UNL     1       0.575   1.296  -0.267  1.00  0.00     0.177 C 
ATOM     15  C   UNL     1       1.219  -0.010   0.214  1.00  0.00     0.075 C 
ATOM     16  C   UNL     1       1.225   1.725  -1.595  1.00  0.00     0.075 C 
ENDBRANCH   8  14
BRANCH   7  17
ATOM     17  N   UNL     1      -5.088   1.449  -1.405  1.00  0.00    -0.306 N 
ATOM     18  C   UNL     1      -6.083   1.202  -2.315  1.00  0.00     0.408 C 
ATOM     19  H   UNL     1      -5.409   1.672  -0.501  1.00  0.00     0.168 HD
ATOM     20  O   UNL     1      -7.247   1.093  -1.944  1.00  0.00    -0.225 OA
BRANCH  18  21
ATOM     21  O   UNL     1      -5.678   1.207  -3.601  1.00  0.00    -0.444 OA
BRANCH  21  22
ATOM     22  C   UNL     1      -6.598   1.234  -4.731  1.00  0.00     0.106 C 
ATOM     23  C   UNL     1      -7.390  -0.070  -4.821  1.00  0.00     0.056 C 
ATOM     24  C   UNL     1      -7.542   2.446  -4.711  1.00  0.00     0.056 C 
ATOM     25  C   UNL     1      -5.693   1.355  -5.971  1.00  0.00     0.056 C 
ENDBRANCH  21  22
ENDBRANCH  18  21
ENDBRANCH   7  17
ENDBRANCH   4   7
ENDBRANCH   2   3
ENDBRANCH   1   2
BRANCH   1  26
ATOM     26  C   UNL     1      -3.434   5.626  -4.861  1.00  0.00     0.118 C 
BRANCH  26  27
ATOM     27  N   UNL     1      -4.654   5.655  -5.664  1.00  0.00    -0.352 N 
ATOM     28  C   UNL     1      -5.183   6.691  -6.393  1.00  0.00     0.251 C 
ATOM     29  H   UNL     1      -5.169   4.816  -5.684  1.00  0.00     0.163 HD
ATOM     30  O   UNL     1      -6.324   6.619  -6.838  1.00  0.00    -0.269 OA
BRANCH  28  31
ATOM     31  C   UNL     1      -4.359   7.893  -6.611  1.00  0.00     0.039 A 
ATOM     32  C   UNL     1      -4.915   9.154  -6.401  1.00  0.00     0.014 A 
ATOM     33  C   UNL     1      -3.012   7.755  -6.958  1.00  0.00     0.014 A 
ATOM     34  C   UNL     1      -4.093  10.278  -6.467  1.00  0.00     0.010 A 
ATOM     35  C   UNL     1      -2.177   8.860  -6.909  1.00  0.00     0.010 A 
ATOM     36  C   UNL     1      -2.710  10.135  -6.676  1.00  0.00    -0.014 A 
BRANCH  36  37
ATOM     37  C   UNL     1      -1.799  11.305  -6.669  1.00  0.00     0.031 A 
ATOM     38  C   UNL     1      -0.996  11.629  -7.900  1.00  0.00     0.074 A 
ATOM     39  C   UNL     1      -1.647  12.026  -5.541  1.00  0.00     0.049 A 
ATOM     40  N   UNL     1      -0.089  12.554  -8.072  1.00  0.00    -0.248 NA
ATOM     41  C   UNL     1      -1.218  10.781  -9.085  1.00  0.00     0.031 C 
ATOM     42  C   UNL     1      -2.330  11.769  -4.270  1.00  0.00     0.029 A 
ATOM     43  N   UNL     1      -0.860  13.118  -5.275  1.00  0.00    -0.354 N 
ATOM     44  C   UNL     1       0.372  12.393  -9.373  1.00  0.00     0.074 A 
ATOM     45  C   UNL     1      -0.302  11.240  -9.925  1.00  0.00     0.031 C 
ATOM     46  C   UNL     1      -1.955  12.694  -3.372  1.00  0.00     0.029 A 
ATOM     47  C   UNL     1      -0.972  13.581  -3.985  1.00  0.00     0.049 A 
ATOM     48  H   UNL     1      -0.270  13.532  -5.946  1.00  0.00     0.167 HD
ATOM     49  C   UNL     1       1.254  13.158 -10.058  1.00  0.00     0.037 A 
ATOM     50  C   UNL     1      -0.345  14.599  -3.365  1.00  0.00     0.037 A 
ATOM     51  C   UNL     1       1.898  14.320  -9.508  1.00  0.00     0.049 A 
ATOM     52  C   UNL     1       0.642  15.426  -4.146  1.00  0.00     0.074 A 
ATOM     53  C   UNL     1       2.768  15.196 -10.132  1.00  0.00     0.029 A 
ATOM     54  N   UNL     1       1.744  14.770  -8.204  1.00  0.00    -0.354 N 
ATOM     55  N   UNL     1       1.015  15.301  -5.398  1.00  0.00    -0.248 NA
ATOM     56  C   UNL     1       1.288  16.538  -3.435  1.00  0.00     0.031 C 
ATOM     57  C   UNL     1       3.180  16.145  -9.192  1.00  0.00     0.029 A 
ATOM     58  C   UNL     1       2.520  15.898  -7.999  1.00  0.00     0.049 A 
ATOM     59  H   UNL     1       1.167  14.349  -7.526  1.00  0.00     0.167 HD
ATOM     60  C   UNL     1       1.914  16.336  -5.632  1.00  0.00     0.074 A 
ATOM     61  C   UNL     1       2.015  17.087  -4.397  1.00  0.00     0.031 C 
ATOM     62  C   UNL     1       2.595  16.639  -6.765  1.00  0.00     0.037 A 
BRANCH  49  63
ATOM     63  C   UNL     1       1.562  12.774 -11.479  1.00  0.00     0.058 A 
ATOM     64  C   UNL     1       0.608  12.906 -12.502  1.00  0.00     0.135 A 
ATOM     65  C   UNL     1       2.843  12.320 -11.835  1.00  0.00     0.135 A 
ATOM     66  F   UNL     1      -0.638  13.315 -12.216  1.00  0.00    -0.206 F 
ATOM     67  C   UNL     1       0.907  12.585 -13.821  1.00  0.00     0.059 A 
ATOM     68  C   UNL     1       3.173  12.024 -13.154  1.00  0.00     0.059 A 
ATOM     69  F   UNL     1       3.791  12.169 -10.897  1.00  0.00    -0.206 F 
ATOM     70  C   UNL     1       2.195  12.152 -14.139  1.00  0.00     0.060 A 
BRANCH  70  71
ATOM     71  S   UNL     1       2.572  11.774 -15.863  1.00  0.00     0.124 S 
ATOM     72  O   UNL     1       1.805  10.549 -16.067  1.00  0.00    -0.237 OA
ATOM     73  O   UNL     1       2.072  12.957 -16.556  1.00  0.00    -0.237 OA
ATOM     74  O   UNL     1       4.022  11.613 -15.867  1.00  0.00    -0.744 OA
ENDBRANCH  70  71
ENDBRANCH  49  63
BRANCH  50  75
ATOM     75  C   UNL     1      -0.633  14.902  -1.936  1.00  0.00     0.058 A 
ATOM     76  C   UNL     1      -1.280  16.090  -1.564  1.00  0.00     0.135 A 
ATOM     77  C   UNL     1      -0.255  14.019  -0.912  1.00  0.00     0.135 A 
ATOM     78  F   UNL     1      -1.659  16.970  -2.504  1.00  0.00    -0.206 F 
ATOM     79  C   UNL     1      -1.513  16.408  -0.230  1.00  0.00     0.059 A 
ATOM     80  C   UNL     1      -0.505  14.300   0.427  1.00  0.00     0.059 A 
ATOM     81  F   UNL     1       0.348  12.858  -1.213  1.00  0.00    -0.206 F 
ATOM     82  C   UNL     1      -1.120  15.506   0.759  1.00  0.00     0.060 A 
BRANCH  82  83
ATOM     83  S   UNL     1      -1.443  15.919   2.487  1.00  0.00     0.124 S 
ATOM     84  O   UNL     1      -0.472  16.982   2.721  1.00  0.00    -0.237 OA
ATOM     85  O   UNL     1      -2.843  16.329   2.447  1.00  0.00    -0.237 OA
ATOM     86  O   UNL     1      -1.185  14.664   3.186  1.00  0.00    -0.744 OA
ENDBRANCH  82  83
ENDBRANCH  50  75
BRANCH  62  87
ATOM     87  C   UNL     1       3.477  17.858  -6.739  1.00  0.00     0.058 A 
ATOM     88  C   UNL     1       4.678  17.888  -6.014  1.00  0.00     0.135 A 
ATOM     89  C   UNL     1       3.139  18.991  -7.497  1.00  0.00     0.135 A 
ATOM     90  F   UNL     1       5.045  16.833  -5.269  1.00  0.00    -0.206 F 
ATOM     91  C   UNL     1       5.500  19.010  -6.019  1.00  0.00     0.059 A 
ATOM     92  C   UNL     1       3.963  20.110  -7.544  1.00  0.00     0.059 A 
ATOM     93  F   UNL     1       2.007  19.010  -8.218  1.00  0.00    -0.206 F 
ATOM     94  C   UNL     1       5.136  20.115  -6.791  1.00  0.00     0.060 A 
BRANCH  94  95
ATOM     95  S   UNL     1       6.231  21.549  -6.815  1.00  0.00     0.124 S 
ATOM     96  O   UNL     1       6.020  22.102  -5.482  1.00  0.00    -0.237 OA
ATOM     97  O   UNL     1       7.536  20.940  -7.051  1.00  0.00    -0.237 OA
ATOM     98  O   UNL     1       5.713  22.354  -7.918  1.00  0.00    -0.744 OA
ENDBRANCH  94  95
ENDBRANCH  62  87
ENDBRANCH  36  37
ENDBRANCH  28  31
ENDBRANCH  26  27
ENDBRANCH   1  26
TORSDOF 17
