REMARK SMILES COCCCNC(=O)/C(C#N)=C/c1ccc(C(=O)NCCCNC(=O)c2ccc(-c3c4nc(c(-c5c(F)cc(S(=O)(=O)[O-])cc5F)c5ccc([nH]5)c(-c5c(F)cc(S(=O)(=O)[O-])cc5F)c5nc(c(-c6c(F)cc(S(=O)(=O)[O-])cc6F)c6ccc3[nH]6)C=C5)C=C4)cc2)cc1
REMARK SMILES IDX 17 1 18 2 19 3 16 5 13 6 14 7 93 8 15 9 92 10 12 11 9 12
REMARK SMILES IDX 7 13 6 14 8 16 5 17 4 18 3 19 2 20 1 21 10 22 11 23 20 24
REMARK SMILES IDX 21 25 22 26 23 27 24 28 25 30 26 31 27 32 91 33 28 34 90 35
REMARK SMILES IDX 29 36 30 37 31 38 84 39 32 40 89 41 83 42 85 43 33 44 88 45
REMARK SMILES IDX 82 46 81 47 34 49 68 50 47 51 67 52 48 53 51 54 66 55 86 56
REMARK SMILES IDX 49 57 50 58 65 60 87 61 52 62 35 63 36 64 45 65 37 66 38 67
REMARK SMILES IDX 44 68 46 69 39 70 40 71 41 72 42 73 43 74 69 75 70 76 79 77
REMARK SMILES IDX 71 78 72 79 78 80 80 81 73 82 74 83 75 84 76 85 77 86 53 87
REMARK SMILES IDX 54 88 63 89 55 90 56 91 62 92 64 93 57 94 58 95 59 96 60 97
REMARK SMILES IDX 61 98
REMARK H PARENT 19 4 6 15 23 29 85 48 51 59
REMARK Flexibility Score: inf
ROOT
ATOM      1  C   UNL     1       0.481   3.129 -10.498  1.00  0.00     0.251 C 
ATOM      2  O   UNL     1       0.980   2.921 -11.603  1.00  0.00    -0.269 OA
ATOM      3  N   UNL     1      -0.771   3.688 -10.443  1.00  0.00    -0.352 N 
ATOM      4  H   UNL     1      -1.130   3.960 -11.319  1.00  0.00     0.163 HD
ENDROOT
BRANCH   1   5
ATOM      5  C   UNL     1       1.221   2.707  -9.280  1.00  0.00     0.039 A 
ATOM      6  C   UNL     1       2.545   1.701  -7.018  1.00  0.00    -0.024 A 
ATOM      7  C   UNL     1       2.701   1.072  -8.256  1.00  0.00     0.009 A 
ATOM      8  C   UNL     1       1.806   2.883  -6.935  1.00  0.00     0.009 A 
ATOM      9  C   UNL     1       2.038   1.573  -9.380  1.00  0.00     0.014 A 
ATOM     10  C   UNL     1       1.164   3.391  -8.064  1.00  0.00     0.014 A 
BRANCH   6  11
ATOM     11  C   UNL     1       3.127   1.107  -5.816  1.00  0.00     0.033 C 
ATOM     12  C   UNL     1       2.390   0.619  -4.801  1.00  0.00     0.117 C 
BRANCH  12  13
ATOM     13  C   UNL     1       3.092  -0.030  -3.634  1.00  0.00     0.261 C 
ATOM     14  N   UNL     1       2.435  -0.746  -2.664  1.00  0.00    -0.351 N 
ATOM     15  H   UNL     1       3.031  -1.144  -1.989  1.00  0.00     0.163 HD
ATOM     16  O   UNL     1       4.318   0.056  -3.524  1.00  0.00    -0.268 OA
BRANCH  14  17
ATOM     17  C   UNL     1       1.018  -1.029  -2.446  1.00  0.00     0.118 C 
BRANCH  17  18
ATOM     18  C   UNL     1       0.699  -2.259  -1.601  1.00  0.00     0.050 C 
BRANCH  18  19
ATOM     19  C   UNL     1       1.241  -2.301  -0.180  1.00  0.00     0.161 C 
BRANCH  19  20
ATOM     20  O   UNL     1       0.517  -1.487   0.733  1.00  0.00    -0.385 OA
ATOM     21  C   UNL     1       0.922  -0.127   0.765  1.00  0.00     0.194 C 
ENDBRANCH  19  20
ENDBRANCH  18  19
ENDBRANCH  17  18
ENDBRANCH  14  17
ENDBRANCH  12  13
BRANCH  12  22
ATOM     22  C   UNL     1       0.870   0.619  -4.801  1.00  0.00     0.105 C 
ATOM     23  N   UNL     1      -0.391   0.619  -4.801  1.00  0.00    -0.192 NA
ENDBRANCH  12  22
ENDBRANCH   6  11
ENDBRANCH   1   5
BRANCH   3  24
ATOM     24  C   UNL     1      -1.665   3.951  -9.326  1.00  0.00     0.118 C 
BRANCH  24  25
ATOM     25  C   UNL     1      -1.671   5.433  -8.953  1.00  0.00     0.042 C 
BRANCH  25  26
ATOM     26  C   UNL     1      -2.392   6.313  -9.970  1.00  0.00     0.118 C 
BRANCH  26  27
ATOM     27  N   UNL     1      -3.829   6.080  -9.972  1.00  0.00    -0.352 N 
ATOM     28  C   UNL     1      -4.860   6.929  -9.653  1.00  0.00     0.251 C 
ATOM     29  H   UNL     1      -4.104   5.174 -10.244  1.00  0.00     0.163 HD
ATOM     30  O   UNL     1      -5.988   6.473  -9.493  1.00  0.00    -0.269 OA
BRANCH  28  31
ATOM     31  C   UNL     1      -4.617   8.379  -9.489  1.00  0.00     0.039 A 
ATOM     32  C   UNL     1      -5.237   9.053  -8.434  1.00  0.00     0.014 A 
ATOM     33  C   UNL     1      -3.807   9.081 -10.387  1.00  0.00     0.014 A 
ATOM     34  C   UNL     1      -4.991  10.414  -8.238  1.00  0.00     0.010 A 
ATOM     35  C   UNL     1      -3.507  10.421 -10.150  1.00  0.00     0.010 A 
ATOM     36  C   UNL     1      -4.093  11.101  -9.071  1.00  0.00    -0.014 A 
BRANCH  36  37
ATOM     37  C   UNL     1      -3.731  12.519  -8.815  1.00  0.00     0.031 A 
ATOM     38  C   UNL     1      -4.071  13.585  -9.820  1.00  0.00     0.074 A 
ATOM     39  C   UNL     1      -3.026  12.830  -7.709  1.00  0.00     0.049 A 
ATOM     40  N   UNL     1      -3.758  14.855  -9.814  1.00  0.00    -0.248 NA
ATOM     41  C   UNL     1      -4.846  13.164 -10.998  1.00  0.00     0.031 C 
ATOM     42  C   UNL     1      -2.601  11.876  -6.682  1.00  0.00     0.029 A 
ATOM     43  N   UNL     1      -2.527  14.031  -7.271  1.00  0.00    -0.354 N 
ATOM     44  C   UNL     1      -4.285  15.383 -10.987  1.00  0.00     0.074 A 
ATOM     45  C   UNL     1      -4.897  14.285 -11.704  1.00  0.00     0.031 C 
ATOM     46  C   UNL     1      -1.920  12.530  -5.728  1.00  0.00     0.029 A 
ATOM     47  C   UNL     1      -1.819  13.939  -6.095  1.00  0.00     0.049 A 
ATOM     48  H   UNL     1      -2.663  14.879  -7.752  1.00  0.00     0.167 HD
ATOM     49  C   UNL     1      -4.274  16.668 -11.417  1.00  0.00     0.037 A 
ATOM     50  C   UNL     1      -1.148  14.878  -5.399  1.00  0.00     0.037 A 
ATOM     51  C   UNL     1      -3.674  17.756 -10.688  1.00  0.00     0.049 A 
ATOM     52  C   UNL     1      -1.132  16.293  -5.909  1.00  0.00     0.074 A 
ATOM     53  C   UNL     1      -3.661  19.102 -11.010  1.00  0.00     0.029 A 
ATOM     54  N   UNL     1      -2.974  17.624  -9.497  1.00  0.00    -0.354 N 
ATOM     55  N   UNL     1      -1.692  16.787  -6.988  1.00  0.00    -0.248 NA
ATOM     56  C   UNL     1      -0.395  17.280  -5.108  1.00  0.00     0.031 C 
ATOM     57  C   UNL     1      -2.909  19.776 -10.042  1.00  0.00     0.029 A 
ATOM     58  C   UNL     1      -2.499  18.860  -9.087  1.00  0.00     0.049 A 
ATOM     59  H   UNL     1      -2.835  16.777  -9.015  1.00  0.00     0.167 HD
ATOM     60  C   UNL     1      -1.392  18.145  -6.984  1.00  0.00     0.074 A 
ATOM     61  C   UNL     1      -0.617  18.397  -5.787  1.00  0.00     0.031 C 
ATOM     62  C   UNL     1      -1.727  19.096  -7.891  1.00  0.00     0.037 A 
BRANCH  49  63
ATOM     63  C   UNL     1      -4.930  16.969 -12.738  1.00  0.00     0.058 A 
ATOM     64  C   UNL     1      -6.323  16.906 -12.902  1.00  0.00     0.135 A 
ATOM     65  C   UNL     1      -4.160  17.367 -13.844  1.00  0.00     0.135 A 
ATOM     66  F   UNL     1      -7.107  16.519 -11.883  1.00  0.00    -0.206 F 
ATOM     67  C   UNL     1      -6.927  17.197 -14.121  1.00  0.00     0.059 A 
ATOM     68  C   UNL     1      -4.746  17.691 -15.065  1.00  0.00     0.059 A 
ATOM     69  F   UNL     1      -2.824  17.446 -13.744  1.00  0.00    -0.206 F 
ATOM     70  C   UNL     1      -6.130  17.588 -15.197  1.00  0.00     0.060 A 
BRANCH  70  71
ATOM     71  S   UNL     1      -6.931  17.967 -16.770  1.00  0.00     0.124 S 
ATOM     72  O   UNL     1      -7.327  16.637 -17.222  1.00  0.00    -0.237 OA
ATOM     73  O   UNL     1      -8.021  18.847 -16.360  1.00  0.00    -0.237 OA
ATOM     74  O   UNL     1      -5.873  18.604 -17.547  1.00  0.00    -0.744 OA
ENDBRANCH  70  71
ENDBRANCH  49  63
BRANCH  50  75
ATOM     75  C   UNL     1      -0.443  14.509  -4.143  1.00  0.00     0.058 A 
ATOM     76  C   UNL     1      -0.907  14.954  -2.897  1.00  0.00     0.135 A 
ATOM     77  C   UNL     1       0.700  13.692  -4.160  1.00  0.00     0.135 A 
ATOM     78  F   UNL     1      -1.991  15.742  -2.828  1.00  0.00    -0.206 F 
ATOM     79  C   UNL     1      -0.258  14.616  -1.713  1.00  0.00     0.059 A 
ATOM     80  C   UNL     1       1.350  13.319  -2.989  1.00  0.00     0.059 A 
ATOM     81  F   UNL     1       1.176  13.226  -5.325  1.00  0.00    -0.206 F 
ATOM     82  C   UNL     1       0.869  13.794  -1.770  1.00  0.00     0.060 A 
BRANCH  82  83
ATOM     83  S   UNL     1       1.673  13.319  -0.224  1.00  0.00     0.124 S 
ATOM     84  O   UNL     1       2.321  14.565   0.166  1.00  0.00    -0.237 OA
ATOM     85  O   UNL     1       0.538  12.904   0.596  1.00  0.00    -0.237 OA
ATOM     86  O   UNL     1       2.569  12.240  -0.630  1.00  0.00    -0.744 OA
ENDBRANCH  82  83
ENDBRANCH  50  75
BRANCH  62  87
ATOM     87  C   UNL     1      -1.275  20.504  -7.615  1.00  0.00     0.058 A 
ATOM     88  C   UNL     1       0.071  20.883  -7.739  1.00  0.00     0.135 A 
ATOM     89  C   UNL     1      -2.207  21.497  -7.273  1.00  0.00     0.135 A 
ATOM     90  F   UNL     1       1.004  19.971  -8.056  1.00  0.00    -0.206 F 
ATOM     91  C   UNL     1       0.480  22.193  -7.512  1.00  0.00     0.059 A 
ATOM     92  C   UNL     1      -1.824  22.819  -7.069  1.00  0.00     0.059 A 
ATOM     93  F   UNL     1      -3.508  21.190  -7.150  1.00  0.00    -0.206 F 
ATOM     94  C   UNL     1      -0.476  23.155  -7.180  1.00  0.00     0.060 A 
BRANCH  94  95
ATOM     95  S   UNL     1       0.065  24.858  -6.924  1.00  0.00     0.124 S 
ATOM     96  O   UNL     1       0.741  24.762  -5.635  1.00  0.00    -0.237 OA
ATOM     97  O   UNL     1       0.928  25.088  -8.078  1.00  0.00    -0.237 OA
ATOM     98  O   UNL     1      -1.184  25.615  -6.923  1.00  0.00    -0.744 OA
ENDBRANCH  94  95
ENDBRANCH  62  87
ENDBRANCH  36  37
ENDBRANCH  28  31
ENDBRANCH  26  27
ENDBRANCH  25  26
ENDBRANCH  24  25
ENDBRANCH   3  24
TORSDOF 20
