REMARK SMILES COc1cc(-c2ccc(NC(=O)CCC(=O)NCCCNC(=O)c3ccc(-c4c5nc(c(-c6c(F)cc(S(=O)(=O)[O-])cc6F)c6ccc([nH]6)c(-c6c(F)cc(S(=O)(=O)[O-])cc6F)c6nc(c(-c7c(F)cc(S(=O)(=O)[O-])cc7F)c7ccc4[nH]7)C=C6)C=C5)cc3)c(OC)c2)ccc1N
REMARK SMILES IDX 18 1 17 2 15 3 16 4 14 6 13 7 11 8 10 9 12 11 9 12 6 13 7 14
REMARK SMILES IDX 93 15 8 16 90 17 5 18 3 19 4 20 96 21 95 22 94 23 2 24 1 25
REMARK SMILES IDX 97 26 91 29 92 30 19 31 20 32 21 33 22 34 23 36 24 37 25 38
REMARK SMILES IDX 89 39 26 40 88 41 27 42 28 43 29 44 82 45 30 46 87 47 81 48
REMARK SMILES IDX 83 49 31 50 86 51 80 52 79 53 32 55 66 56 45 57 65 58 46 59
REMARK SMILES IDX 49 60 64 61 84 62 47 63 48 64 63 66 85 67 50 68 33 69 34 70
REMARK SMILES IDX 43 71 35 72 36 73 42 74 44 75 37 76 38 77 39 78 40 79 41 80
REMARK SMILES IDX 67 81 68 82 77 83 69 84 70 85 76 86 78 87 71 88 72 89 73 90
REMARK SMILES IDX 74 91 75 92 51 93 52 94 61 95 53 96 54 97 60 98 62 99 55 100
REMARK SMILES IDX 56 101 57 102 58 103 59 104
REMARK H PARENT 17 5 10 10 97 27 97 28 21 35 83 54 49 65
REMARK Flexibility Score: inf
ROOT
ATOM      1  C   UNL     1      -4.678  -6.917  -4.093  1.00  0.00     0.117 C 
ENDROOT
BRANCH   1   2
ATOM      2  N   UNL     1      -4.314  -5.521  -3.726  1.00  0.00    -0.356 N 
ATOM      3  C   UNL     1      -4.517  -4.229  -4.171  1.00  0.00     0.220 C 
ATOM      4  O   UNL     1      -4.221  -3.357  -3.336  1.00  0.00    -0.275 OA
ATOM      5  H   UNL     1      -3.757  -5.517  -2.915  1.00  0.00     0.163 HD
BRANCH   3   6
ATOM      6  C   UNL     1      -5.026  -3.736  -5.564  1.00  0.00     0.110 C 
BRANCH   6   7
ATOM      7  C   UNL     1      -3.991  -2.905  -6.435  1.00  0.00     0.110 C 
BRANCH   7   8
ATOM      8  C   UNL     1      -3.563  -3.310  -7.902  1.00  0.00     0.224 C 
ATOM      9  N   UNL     1      -2.393  -4.012  -8.194  1.00  0.00    -0.323 N 
ATOM     10  H   UNL     1      -2.117  -4.047  -9.139  1.00  0.00     0.170 HD
ATOM     11  O   UNL     1      -4.259  -2.951  -8.860  1.00  0.00    -0.275 OA
BRANCH   9  12
ATOM     12  C   UNL     1      -1.576  -4.670  -7.268  1.00  0.00     0.083 A 
ATOM     13  C   UNL     1      -0.079  -4.375  -4.979  1.00  0.00    -0.014 A 
ATOM     14  C   UNL     1       0.535  -4.702  -6.206  1.00  0.00     0.011 A 
ATOM     15  C   UNL     1      -1.425  -4.757  -4.919  1.00  0.00     0.057 A 
ATOM     16  C   UNL     1      -0.214  -4.791  -7.386  1.00  0.00     0.031 A 
ATOM     17  C   UNL     1      -2.124  -5.088  -6.098  1.00  0.00     0.142 A 
BRANCH  13  18
ATOM     18  C   UNL     1       0.662  -3.583  -3.924  1.00  0.00    -0.014 A 
ATOM     19  C   UNL     1       0.853  -2.232  -1.841  1.00  0.00     0.142 A 
ATOM     20  C   UNL     1       0.109  -3.072  -2.725  1.00  0.00     0.057 A 
ATOM     21  C   UNL     1       2.205  -1.948  -2.092  1.00  0.00     0.074 A 
ATOM     22  C   UNL     1       2.724  -2.354  -3.313  1.00  0.00     0.030 A 
ATOM     23  C   UNL     1       1.978  -3.149  -4.189  1.00  0.00     0.011 A 
BRANCH  19  24
ATOM     24  O   UNL     1       0.181  -1.780  -0.723  1.00  0.00    -0.495 OA
ATOM     25  C   UNL     1       0.332  -0.379  -0.461  1.00  0.00     0.278 C 
ENDBRANCH  19  24
BRANCH  21  26
ATOM     26  N   UNL     1       3.025  -1.204  -1.245  1.00  0.00    -0.396 N 
ATOM     27  H   UNL     1       2.685  -0.902  -0.371  1.00  0.00     0.156 HD
ATOM     28  H   UNL     1       3.943  -0.982  -1.519  1.00  0.00     0.156 HD
ENDBRANCH  21  26
ENDBRANCH  13  18
BRANCH  17  29
ATOM     29  O   UNL     1      -3.367  -5.643  -6.107  1.00  0.00    -0.495 OA
ATOM     30  C   UNL     1      -4.010  -6.142  -7.308  1.00  0.00     0.278 C 
ENDBRANCH  17  29
ENDBRANCH   9  12
ENDBRANCH   7   8
ENDBRANCH   6   7
ENDBRANCH   3   6
ENDBRANCH   1   2
BRANCH   1  31
ATOM     31  C   UNL     1      -3.734  -7.997  -4.777  1.00  0.00     0.042 C 
BRANCH  31  32
ATOM     32  C   UNL     1      -2.228  -8.179  -4.491  1.00  0.00     0.118 C 
BRANCH  32  33
ATOM     33  N   UNL     1      -1.951  -9.563  -4.080  1.00  0.00    -0.352 N 
ATOM     34  C   UNL     1      -1.522 -10.714  -4.704  1.00  0.00     0.251 C 
ATOM     35  H   UNL     1      -2.112  -9.703  -3.119  1.00  0.00     0.163 HD
ATOM     36  O   UNL     1      -1.785 -11.768  -4.115  1.00  0.00    -0.269 OA
BRANCH  34  37
ATOM     37  C   UNL     1      -0.751 -10.816  -5.985  1.00  0.00     0.039 A 
ATOM     38  C   UNL     1      -0.870 -12.018  -6.714  1.00  0.00     0.014 A 
ATOM     39  C   UNL     1       0.225  -9.907  -6.396  1.00  0.00     0.014 A 
ATOM     40  C   UNL     1      -0.047 -12.301  -7.821  1.00  0.00     0.010 A 
ATOM     41  C   UNL     1       1.037 -10.183  -7.528  1.00  0.00     0.010 A 
ATOM     42  C   UNL     1       0.920 -11.384  -8.255  1.00  0.00    -0.014 A 
BRANCH  42  43
ATOM     43  C   UNL     1       1.778 -11.687  -9.454  1.00  0.00     0.031 A 
ATOM     44  C   UNL     1       3.267 -11.930  -9.329  1.00  0.00     0.074 A 
ATOM     45  C   UNL     1       1.227 -11.752 -10.687  1.00  0.00     0.049 A 
ATOM     46  N   UNL     1       4.152 -12.175 -10.267  1.00  0.00    -0.248 NA
ATOM     47  C   UNL     1       3.835 -11.887  -7.975  1.00  0.00     0.031 C 
ATOM     48  C   UNL     1      -0.190 -11.547 -10.985  1.00  0.00     0.029 A 
ATOM     49  N   UNL     1       1.789 -12.001 -11.920  1.00  0.00    -0.354 N 
ATOM     50  C   UNL     1       5.380 -12.303  -9.623  1.00  0.00     0.074 A 
ATOM     51  C   UNL     1       5.127 -12.078  -8.214  1.00  0.00     0.031 C 
ATOM     52  C   UNL     1      -0.388 -11.684 -12.307  1.00  0.00     0.029 A 
ATOM     53  C   UNL     1       0.890 -11.953 -12.963  1.00  0.00     0.049 A 
ATOM     54  H   UNL     1       2.746 -12.196 -12.045  1.00  0.00     0.167 HD
ATOM     55  C   UNL     1       6.601 -12.591 -10.146  1.00  0.00     0.037 A 
ATOM     56  C   UNL     1       1.062 -12.094 -14.294  1.00  0.00     0.037 A 
ATOM     57  C   UNL     1       6.867 -12.839 -11.543  1.00  0.00     0.049 A 
ATOM     58  C   UNL     1       2.429 -12.382 -14.856  1.00  0.00     0.074 A 
ATOM     59  C   UNL     1       8.069 -13.183 -12.143  1.00  0.00     0.029 A 
ATOM     60  N   UNL     1       5.928 -12.767 -12.561  1.00  0.00    -0.354 N 
ATOM     61  N   UNL     1       3.565 -12.536 -14.220  1.00  0.00    -0.248 NA
ATOM     62  C   UNL     1       2.538 -12.517 -16.318  1.00  0.00     0.031 C 
ATOM     63  C   UNL     1       7.867 -13.275 -13.525  1.00  0.00     0.029 A 
ATOM     64  C   UNL     1       6.528 -13.034 -13.783  1.00  0.00     0.049 A 
ATOM     65  H   UNL     1       4.974 -12.557 -12.434  1.00  0.00     0.167 HD
ATOM     66  C   UNL     1       4.516 -12.810 -15.200  1.00  0.00     0.074 A 
ATOM     67  C   UNL     1       3.822 -12.812 -16.470  1.00  0.00     0.031 C 
ATOM     68  C   UNL     1       5.843 -13.042 -15.052  1.00  0.00     0.037 A 
BRANCH  55  69
ATOM     69  C   UNL     1       7.774 -12.649  -9.199  1.00  0.00     0.058 A 
ATOM     70  C   UNL     1       7.942 -13.711  -8.297  1.00  0.00     0.135 A 
ATOM     71  C   UNL     1       8.773 -11.661  -9.237  1.00  0.00     0.135 A 
ATOM     72  F   UNL     1       7.019 -14.682  -8.217  1.00  0.00    -0.206 F 
ATOM     73  C   UNL     1       9.039 -13.773  -7.441  1.00  0.00     0.059 A 
ATOM     74  C   UNL     1       9.892 -11.717  -8.409  1.00  0.00     0.059 A 
ATOM     75  F   UNL     1       8.672 -10.629 -10.089  1.00  0.00    -0.206 F 
ATOM     76  C   UNL     1      10.007 -12.768  -7.501  1.00  0.00     0.060 A 
BRANCH  76  77
ATOM     77  S   UNL     1      11.417 -12.856  -6.376  1.00  0.00     0.124 S 
ATOM     78  O   UNL     1      10.799 -12.480  -5.108  1.00  0.00    -0.237 OA
ATOM     79  O   UNL     1      11.825 -14.253  -6.491  1.00  0.00    -0.237 OA
ATOM     80  O   UNL     1      12.355 -11.884  -6.929  1.00  0.00    -0.744 OA
ENDBRANCH  76  77
ENDBRANCH  55  69
BRANCH  56  81
ATOM     81  C   UNL     1      -0.108 -11.964 -15.208  1.00  0.00     0.058 A 
ATOM     82  C   UNL     1      -0.633 -13.080 -15.876  1.00  0.00     0.135 A 
ATOM     83  C   UNL     1      -0.724 -10.722 -15.427  1.00  0.00     0.135 A 
ATOM     84  F   UNL     1      -0.068 -14.286 -15.713  1.00  0.00    -0.206 F 
ATOM     85  C   UNL     1      -1.722 -12.970 -16.735  1.00  0.00     0.059 A 
ATOM     86  C   UNL     1      -1.829 -10.591 -16.261  1.00  0.00     0.059 A 
ATOM     87  F   UNL     1      -0.264  -9.624 -14.805  1.00  0.00    -0.206 F 
ATOM     88  C   UNL     1      -2.317 -11.720 -16.917  1.00  0.00     0.060 A 
BRANCH  88  89
ATOM     89  S   UNL     1      -3.761 -11.598 -17.996  1.00  0.00     0.124 S 
ATOM     90  O   UNL     1      -3.173 -11.708 -19.302  1.00  0.00    -0.237 OA
ATOM     91  O   UNL     1      -4.572 -12.738 -17.546  1.00  0.00    -0.237 OA
ATOM     92  O   UNL     1      -4.322 -10.285 -17.647  1.00  0.00    -0.744 OA
ENDBRANCH  88  89
ENDBRANCH  56  81
BRANCH  68  93
ATOM     93  C   UNL     1       6.645 -13.346 -16.290  1.00  0.00     0.058 A 
ATOM     94  C   UNL     1       6.971 -12.348 -17.223  1.00  0.00     0.135 A 
ATOM     95  C   UNL     1       7.138 -14.641 -16.522  1.00  0.00     0.135 A 
ATOM     96  F   UNL     1       6.519 -11.095 -17.057  1.00  0.00    -0.206 F 
ATOM     97  C   UNL     1       7.742 -12.626 -18.349  1.00  0.00     0.059 A 
ATOM     98  C   UNL     1       7.931 -14.936 -17.628  1.00  0.00     0.059 A 
ATOM     99  F   UNL     1       6.864 -15.632 -15.659  1.00  0.00    -0.206 F 
ATOM    100  C   UNL     1       8.220 -13.924 -18.542  1.00  0.00     0.060 A 
BRANCH 100 101
ATOM    101  S   UNL     1       9.253 -14.263 -19.984  1.00  0.00     0.124 S 
ATOM    102  O   UNL     1       8.267 -14.268 -21.059  1.00  0.00    -0.237 OA
ATOM    103  O   UNL     1      10.179 -13.135 -19.979  1.00  0.00    -0.237 OA
ATOM    104  O   UNL     1       9.853 -15.558 -19.676  1.00  0.00    -0.744 OA
ENDBRANCH 100 101
ENDBRANCH  68  93
ENDBRANCH  42  43
ENDBRANCH  34  37
ENDBRANCH  32  33
ENDBRANCH  31  32
ENDBRANCH   1  31
TORSDOF 20
