REMARK SMILES Cc1cccc(CC(=O)N2CCCC[C@@H]2C(=O)NCCCNC(=O)c2ccc(-c3c4nc(c(-c5c(F)cc(S(=O)(=O)[O-])cc5F)c5ccc([nH]5)c(-c5c(F)cc(S(=O)(=O)[O-])cc5F)c5nc(c(-c6c(F)cc(S(=O)(=O)[O-])cc6F)c6ccc3[nH]6)C=C5)C=C4)cc2)c1
REMARK SMILES IDX 20 1 19 2 18 3 16 4 17 5 15 7 10 8 11 9 12 10 14 11 13 12
REMARK SMILES IDX 8 13 9 14 7 15 6 16 1 17 2 18 3 19 91 20 4 21 5 22 21 23
REMARK SMILES IDX 22 24 23 25 24 27 25 28 26 29 90 30 27 31 89 32 28 33 29 34
REMARK SMILES IDX 30 35 83 36 31 37 88 38 82 39 84 40 32 41 87 42 81 43 80 44
REMARK SMILES IDX 33 46 67 47 46 48 66 49 47 50 50 51 65 52 85 53 48 54 49 55
REMARK SMILES IDX 64 57 86 58 51 59 34 60 35 61 44 62 36 63 37 64 43 65 45 66
REMARK SMILES IDX 38 67 39 68 40 69 41 70 42 71 68 72 69 73 78 74 70 75 71 76
REMARK SMILES IDX 77 77 79 78 72 79 73 80 74 81 75 82 76 83 52 84 53 85 62 86
REMARK SMILES IDX 54 87 55 88 61 89 63 90 56 91 57 92 58 93 59 94 60 95
REMARK H PARENT 18 6 22 26 84 45 50 56
REMARK Flexibility Score: inf
ROOT
ATOM      1  C   UNL     1      -3.877  -1.154  -3.264  1.00  0.00     0.042 C 
ENDROOT
BRANCH   1   2
ATOM      2  C   UNL     1      -3.192  -0.003  -2.548  1.00  0.00     0.117 C 
BRANCH   2   3
ATOM      3  N   UNL     1      -1.772  -0.257  -2.357  1.00  0.00    -0.354 N 
ATOM      4  C   UNL     1      -0.704   0.530  -2.667  1.00  0.00     0.242 C 
ATOM      5  O   UNL     1       0.422   0.023  -2.679  1.00  0.00    -0.273 OA
ATOM      6  H   UNL     1      -1.551  -1.123  -1.944  1.00  0.00     0.163 HD
BRANCH   4   7
ATOM      7  C   UNL     1      -0.932   1.918  -3.277  1.00  0.00     0.174 C 
ATOM      8  N   UNL     1      -2.049   2.731  -2.725  1.00  0.00    -0.330 N 
ATOM      9  C   UNL     1      -2.663   3.684  -3.649  1.00  0.00     0.120 C 
ATOM     10  C   UNL     1      -3.094   3.056  -4.959  1.00  0.00     0.022 C 
ATOM     11  C   UNL     1      -1.145   1.506  -4.774  1.00  0.00     0.035 C 
ATOM     12  C   UNL     1      -1.883   2.482  -5.667  1.00  0.00     0.004 C 
BRANCH   8  13
ATOM     13  C   UNL     1      -2.409   2.905  -1.384  1.00  0.00     0.227 C 
ATOM     14  O   UNL     1      -3.558   3.294  -1.121  1.00  0.00    -0.275 OA
BRANCH  13  15
ATOM     15  C   UNL     1      -1.411   2.867  -0.234  1.00  0.00     0.135 C 
BRANCH  15  16
ATOM     16  C   UNL     1      -0.740   1.584   0.157  1.00  0.00    -0.038 A 
ATOM     17  C   UNL     1       2.803   0.173   0.168  1.00  0.00     0.044 C 
ATOM     18  C   UNL     1       1.325   0.292   0.375  1.00  0.00    -0.051 A 
ATOM     19  C   UNL     1       0.575  -0.821   0.758  1.00  0.00     0.003 A 
ATOM     20  C   UNL     1       0.659   1.488   0.081  1.00  0.00     0.007 A 
ATOM     21  C   UNL     1      -0.808  -0.716   0.892  1.00  0.00     0.001 A 
ATOM     22  C   UNL     1      -1.465   0.485   0.628  1.00  0.00     0.004 A 
ENDBRANCH  15  16
ENDBRANCH  13  15
ENDBRANCH   8  13
ENDBRANCH   4   7
ENDBRANCH   2   3
ENDBRANCH   1   2
BRANCH   1  23
ATOM     23  C   UNL     1      -3.644  -2.479  -2.579  1.00  0.00     0.118 C 
BRANCH  23  24
ATOM     24  N   UNL     1      -3.837  -2.342  -1.161  1.00  0.00    -0.352 N 
ATOM     25  C   UNL     1      -4.542  -3.092  -0.276  1.00  0.00     0.251 C 
ATOM     26  H   UNL     1      -3.376  -1.569  -0.761  1.00  0.00     0.163 HD
ATOM     27  O   UNL     1      -4.535  -2.689   0.887  1.00  0.00    -0.269 OA
BRANCH  25  28
ATOM     28  C   UNL     1      -5.018  -4.496  -0.660  1.00  0.00     0.039 A 
ATOM     29  C   UNL     1      -5.537  -5.097   0.492  1.00  0.00     0.014 A 
ATOM     30  C   UNL     1      -3.958  -5.174  -1.266  1.00  0.00     0.014 A 
ATOM     31  C   UNL     1      -4.618  -5.634   1.381  1.00  0.00     0.010 A 
ATOM     32  C   UNL     1      -2.975  -5.589  -0.412  1.00  0.00     0.010 A 
ATOM     33  C   UNL     1      -3.300  -5.691   0.943  1.00  0.00    -0.014 A 
BRANCH  33  34
ATOM     34  C   UNL     1      -2.159  -5.791   1.816  1.00  0.00     0.031 A 
ATOM     35  C   UNL     1      -1.590  -7.130   1.948  1.00  0.00     0.074 A 
ATOM     36  C   UNL     1      -1.633  -4.637   2.278  1.00  0.00     0.049 A 
ATOM     37  N   UNL     1      -0.760  -7.500   2.847  1.00  0.00    -0.248 NA
ATOM     38  C   UNL     1      -2.027  -8.222   1.077  1.00  0.00     0.031 C 
ATOM     39  C   UNL     1      -0.328  -4.389   2.879  1.00  0.00     0.029 A 
ATOM     40  N   UNL     1      -2.314  -3.431   2.466  1.00  0.00    -0.354 N 
ATOM     41  C   UNL     1      -0.314  -8.757   2.490  1.00  0.00     0.074 A 
ATOM     42  C   UNL     1      -1.244  -9.213   1.495  1.00  0.00     0.031 C 
ATOM     43  C   UNL     1      -0.411  -3.270   3.626  1.00  0.00     0.029 A 
ATOM     44  C   UNL     1      -1.818  -2.875   3.646  1.00  0.00     0.049 A 
ATOM     45  H   UNL     1      -3.007  -3.049   1.881  1.00  0.00     0.167 HD
ATOM     46  C   UNL     1       0.901  -9.154   2.961  1.00  0.00     0.037 A 
ATOM     47  C   UNL     1      -2.583  -2.774   4.773  1.00  0.00     0.037 A 
ATOM     48  C   UNL     1       1.338  -8.200   3.992  1.00  0.00     0.049 A 
ATOM     49  C   UNL     1      -1.994  -3.675   5.850  1.00  0.00     0.074 A 
ATOM     50  C   UNL     1       2.170  -7.092   3.941  1.00  0.00     0.029 A 
ATOM     51  N   UNL     1       0.555  -8.043   5.139  1.00  0.00    -0.354 N 
ATOM     52  N   UNL     1      -1.331  -4.782   5.611  1.00  0.00    -0.248 NA
ATOM     53  C   UNL     1      -2.017  -3.330   7.268  1.00  0.00     0.031 C 
ATOM     54  C   UNL     1       1.771  -6.201   4.980  1.00  0.00     0.029 A 
ATOM     55  C   UNL     1       0.726  -6.780   5.686  1.00  0.00     0.049 A 
ATOM     56  H   UNL     1      -0.039  -8.735   5.509  1.00  0.00     0.167 HD
ATOM     57  C   UNL     1      -0.812  -5.264   6.785  1.00  0.00     0.074 A 
ATOM     58  C   UNL     1      -1.283  -4.327   7.793  1.00  0.00     0.031 C 
ATOM     59  C   UNL     1      -0.018  -6.375   6.876  1.00  0.00     0.037 A 
BRANCH  46  60
ATOM     60  C   UNL     1       1.800 -10.171   2.267  1.00  0.00     0.058 A 
ATOM     61  C   UNL     1       3.183 -10.199   2.551  1.00  0.00     0.135 A 
ATOM     62  C   UNL     1       1.412 -11.080   1.253  1.00  0.00     0.135 A 
ATOM     63  F   UNL     1       3.708  -9.432   3.517  1.00  0.00    -0.206 F 
ATOM     64  C   UNL     1       4.097 -11.004   1.855  1.00  0.00     0.059 A 
ATOM     65  C   UNL     1       2.306 -11.870   0.526  1.00  0.00     0.059 A 
ATOM     66  F   UNL     1       0.140 -11.292   0.920  1.00  0.00    -0.206 F 
ATOM     67  C   UNL     1       3.651 -11.826   0.830  1.00  0.00     0.060 A 
BRANCH  67  68
ATOM     68  S   UNL     1       4.824 -12.856  -0.068  1.00  0.00     0.124 S 
ATOM     69  O   UNL     1       5.723 -11.863  -0.647  1.00  0.00    -0.237 OA
ATOM     70  O   UNL     1       5.384 -13.679   0.999  1.00  0.00    -0.237 OA
ATOM     71  O   UNL     1       3.988 -13.570  -1.030  1.00  0.00    -0.744 OA
ENDBRANCH  67  68
ENDBRANCH  46  60
BRANCH  47  72
ATOM     72  C   UNL     1      -4.043  -2.523   4.520  1.00  0.00     0.058 A 
ATOM     73  C   UNL     1      -4.433  -1.295   3.937  1.00  0.00     0.135 A 
ATOM     74  C   UNL     1      -4.989  -3.556   4.484  1.00  0.00     0.135 A 
ATOM     75  F   UNL     1      -3.587  -0.250   3.957  1.00  0.00    -0.206 F 
ATOM     76  C   UNL     1      -5.637  -1.141   3.238  1.00  0.00     0.059 A 
ATOM     77  C   UNL     1      -6.203  -3.424   3.791  1.00  0.00     0.059 A 
ATOM     78  F   UNL     1      -4.698  -4.754   5.011  1.00  0.00    -0.206 F 
ATOM     79  C   UNL     1      -6.495  -2.232   3.122  1.00  0.00     0.060 A 
BRANCH  79  80
ATOM     80  S   UNL     1      -7.894  -2.139   1.958  1.00  0.00     0.124 S 
ATOM     81  O   UNL     1      -8.788  -1.203   2.632  1.00  0.00    -0.237 OA
ATOM     82  O   UNL     1      -7.295  -1.645   0.722  1.00  0.00    -0.237 OA
ATOM     83  O   UNL     1      -8.374  -3.518   1.892  1.00  0.00    -0.744 OA
ENDBRANCH  79  80
ENDBRANCH  47  72
BRANCH  59  84
ATOM     84  C   UNL     1       0.189  -7.153   8.156  1.00  0.00     0.058 A 
ATOM     85  C   UNL     1      -0.761  -7.197   9.192  1.00  0.00     0.135 A 
ATOM     86  C   UNL     1       1.283  -8.043   8.294  1.00  0.00     0.135 A 
ATOM     87  F   UNL     1      -1.903  -6.497   9.128  1.00  0.00    -0.206 F 
ATOM     88  C   UNL     1      -0.603  -8.000  10.318  1.00  0.00     0.059 A 
ATOM     89  C   UNL     1       1.420  -8.909   9.374  1.00  0.00     0.059 A 
ATOM     90  F   UNL     1       2.249  -8.120   7.367  1.00  0.00    -0.206 F 
ATOM     91  C   UNL     1       0.490  -8.856  10.399  1.00  0.00     0.060 A 
BRANCH  91  92
ATOM     92  S   UNL     1       0.663  -9.928  11.832  1.00  0.00     0.124 S 
ATOM     93  O   UNL     1       1.354  -9.048  12.767  1.00  0.00    -0.237 OA
ATOM     94  O   UNL     1      -0.720 -10.247  12.166  1.00  0.00    -0.237 OA
ATOM     95  O   UNL     1       1.450 -11.049  11.318  1.00  0.00    -0.744 OA
ENDBRANCH  91  92
ENDBRANCH  59  84
ENDBRANCH  33  34
ENDBRANCH  25  28
ENDBRANCH  23  24
ENDBRANCH   1  23
TORSDOF 16
