REMARK SMILES CCOCCS(=O)(=O)NCC(=O)NCCCNC(=O)c1ccc(-c2c3nc(c(-c4c(F)cc(S(=O)(=O)[O-])cc4F)c4ccc([nH]4)c(-c4c(F)cc(S(=O)(=O)[O-])cc4F)c4nc(c(-c5c(F)cc(S(=O)(=O)[O-])cc5F)c5ccc2[nH]5)C=C4)C=C3)cc1
REMARK SMILES IDX 11 1 12 2 13 3 10 5 9 6 6 8 7 9 8 10 5 11 4 12 3 13 2 14
REMARK SMILES IDX 1 15 14 16 15 17 16 18 17 19 18 20 19 22 20 23 21 24 85 25
REMARK SMILES IDX 22 26 84 27 23 28 24 29 25 30 78 31 26 32 83 33 77 34 79 35
REMARK SMILES IDX 27 36 82 37 76 38 75 39 28 41 62 42 41 43 61 44 42 45 45 46
REMARK SMILES IDX 60 47 80 48 43 49 44 50 59 52 81 53 46 54 29 55 30 56 39 57
REMARK SMILES IDX 31 58 32 59 38 60 40 61 33 62 34 63 35 64 36 65 37 66 63 67
REMARK SMILES IDX 64 68 73 69 65 70 66 71 72 72 74 73 67 74 68 75 69 76 70 77
REMARK SMILES IDX 71 78 47 79 48 80 57 81 49 82 50 83 56 84 58 85 51 86 52 87
REMARK SMILES IDX 53 88 54 89 55 90
REMARK H PARENT 13 4 9 7 17 21 79 40 45 51
REMARK Flexibility Score: inf
ROOT
ATOM      1  C   UNL     1       0.439  -0.723   1.677  1.00  0.00     0.235 C 
ATOM      2  O   UNL     1      -0.265  -1.653   2.102  1.00  0.00    -0.274 OA
ATOM      3  N   UNL     1       1.653  -1.106   1.219  1.00  0.00    -0.355 N 
ATOM      4  H   UNL     1       1.832  -2.073   1.274  1.00  0.00     0.163 HD
ENDROOT
BRANCH   1   5
ATOM      5  C   UNL     1      -0.194   0.641   1.548  1.00  0.00     0.198 C 
BRANCH   5   6
ATOM      6  N   UNL     1       0.181   2.054   1.392  1.00  0.00    -0.206 NA
ATOM      7  H   UNL     1       0.229   2.199   0.383  1.00  0.00     0.141 HD
BRANCH   6   8
ATOM      8  S   UNL     1       1.514   2.827   1.987  1.00  0.00     0.214 S 
ATOM      9  O   UNL     1       2.405   1.858   2.573  1.00  0.00    -0.212 OA
ATOM     10  O   UNL     1       0.963   3.884   2.802  1.00  0.00    -0.212 OA
BRANCH   8  11
ATOM     11  C   UNL     1       2.280   3.627   0.570  1.00  0.00     0.182 C 
BRANCH  11  12
ATOM     12  C   UNL     1       2.402   2.917  -0.772  1.00  0.00     0.177 C 
BRANCH  12  13
ATOM     13  O   UNL     1       1.360   3.187  -1.709  1.00  0.00    -0.381 OA
BRANCH  13  14
ATOM     14  C   UNL     1       0.262   2.284  -1.781  1.00  0.00     0.156 C 
ATOM     15  C   UNL     1       0.621   0.849  -2.130  1.00  0.00     0.035 C 
ENDBRANCH  13  14
ENDBRANCH  12  13
ENDBRANCH  11  12
ENDBRANCH   8  11
ENDBRANCH   6   8
ENDBRANCH   5   6
ENDBRANCH   1   5
BRANCH   3  16
ATOM     16  C   UNL     1       2.719  -0.325   0.665  1.00  0.00     0.117 C 
BRANCH  16  17
ATOM     17  C   UNL     1       3.935  -0.255   1.564  1.00  0.00     0.042 C 
BRANCH  17  18
ATOM     18  C   UNL     1       4.806  -1.481   1.444  1.00  0.00     0.118 C 
BRANCH  18  19
ATOM     19  N   UNL     1       5.729  -1.405   0.318  1.00  0.00    -0.352 N 
ATOM     20  C   UNL     1       7.106  -1.354   0.326  1.00  0.00     0.251 C 
ATOM     21  H   UNL     1       5.309  -1.386  -0.573  1.00  0.00     0.163 HD
ATOM     22  O   UNL     1       7.713  -1.107  -0.712  1.00  0.00    -0.269 OA
BRANCH  20  23
ATOM     23  C   UNL     1       7.839  -1.558   1.597  1.00  0.00     0.039 A 
ATOM     24  C   UNL     1       8.943  -0.758   1.895  1.00  0.00     0.014 A 
ATOM     25  C   UNL     1       7.398  -2.505   2.522  1.00  0.00     0.014 A 
ATOM     26  C   UNL     1       9.545  -0.857   3.154  1.00  0.00     0.010 A 
ATOM     27  C   UNL     1       7.886  -2.481   3.820  1.00  0.00     0.010 A 
ATOM     28  C   UNL     1       8.991  -1.685   4.145  1.00  0.00    -0.014 A 
BRANCH  28  29
ATOM     29  C   UNL     1       9.575  -1.784   5.509  1.00  0.00     0.031 A 
ATOM     30  C   UNL     1      10.011  -3.131   6.035  1.00  0.00     0.074 A 
ATOM     31  C   UNL     1       9.656  -0.690   6.293  1.00  0.00     0.049 A 
ATOM     32  N   UNL     1      10.472  -3.447   7.217  1.00  0.00    -0.248 NA
ATOM     33  C   UNL     1       9.869  -4.284   5.127  1.00  0.00     0.031 C 
ATOM     34  C   UNL     1       9.201   0.654   5.927  1.00  0.00     0.029 A 
ATOM     35  N   UNL     1      10.147  -0.534   7.565  1.00  0.00    -0.354 N 
ATOM     36  C   UNL     1      10.651  -4.827   7.196  1.00  0.00     0.074 A 
ATOM     37  C   UNL     1      10.168  -5.299   5.920  1.00  0.00     0.031 C 
ATOM     38  C   UNL     1       9.473   1.502   6.932  1.00  0.00     0.029 A 
ATOM     39  C   UNL     1      10.078   0.758   8.032  1.00  0.00     0.049 A 
ATOM     40  H   UNL     1      10.514  -1.278   8.095  1.00  0.00     0.167 HD
ATOM     41  C   UNL     1      11.209  -5.626   8.135  1.00  0.00     0.037 A 
ATOM     42  C   UNL     1      10.457   1.283   9.214  1.00  0.00     0.037 A 
ATOM     43  C   UNL     1      11.726  -5.142   9.386  1.00  0.00     0.049 A 
ATOM     44  C   UNL     1      11.083   0.377  10.241  1.00  0.00     0.074 A 
ATOM     45  C   UNL     1      12.367  -5.852  10.384  1.00  0.00     0.029 A 
ATOM     46  N   UNL     1      11.666  -3.821   9.807  1.00  0.00    -0.354 N 
ATOM     47  N   UNL     1      11.312  -0.914  10.174  1.00  0.00    -0.248 NA
ATOM     48  C   UNL     1      11.512   0.998  11.501  1.00  0.00     0.031 C 
ATOM     49  C   UNL     1      12.649  -4.970  11.432  1.00  0.00     0.029 A 
ATOM     50  C   UNL     1      12.240  -3.699  11.061  1.00  0.00     0.049 A 
ATOM     51  H   UNL     1      11.273  -3.081   9.291  1.00  0.00     0.167 HD
ATOM     52  C   UNL     1      11.937  -1.253  11.369  1.00  0.00     0.074 A 
ATOM     53  C   UNL     1      12.066  -0.029  12.132  1.00  0.00     0.031 C 
ATOM     54  C   UNL     1      12.367  -2.466  11.798  1.00  0.00     0.037 A 
BRANCH  41  55
ATOM     55  C   UNL     1      11.304  -7.098   7.833  1.00  0.00     0.058 A 
ATOM     56  C   UNL     1      12.145  -7.593   6.822  1.00  0.00     0.135 A 
ATOM     57  C   UNL     1      10.562  -8.031   8.577  1.00  0.00     0.135 A 
ATOM     58  F   UNL     1      12.863  -6.748   6.065  1.00  0.00    -0.206 F 
ATOM     59  C   UNL     1      12.222  -8.952   6.537  1.00  0.00     0.059 A 
ATOM     60  C   UNL     1      10.650  -9.399   8.332  1.00  0.00     0.059 A 
ATOM     61  F   UNL     1       9.739  -7.617   9.553  1.00  0.00    -0.206 F 
ATOM     62  C   UNL     1      11.472  -9.848   7.299  1.00  0.00     0.060 A 
BRANCH  62  63
ATOM     63  S   UNL     1      11.594 -11.608   6.921  1.00  0.00     0.124 S 
ATOM     64  O   UNL     1      10.884 -11.683   5.648  1.00  0.00    -0.237 OA
ATOM     65  O   UNL     1      13.038 -11.812   6.854  1.00  0.00    -0.237 OA
ATOM     66  O   UNL     1      10.925 -12.247   8.050  1.00  0.00    -0.744 OA
ENDBRANCH  62  63
ENDBRANCH  41  55
BRANCH  42  67
ATOM     67  C   UNL     1      10.281   2.737   9.480  1.00  0.00     0.058 A 
ATOM     68  C   UNL     1      11.388   3.593   9.591  1.00  0.00     0.135 A 
ATOM     69  C   UNL     1       9.005   3.305   9.623  1.00  0.00     0.135 A 
ATOM     70  F   UNL     1      12.631   3.101   9.466  1.00  0.00    -0.206 F 
ATOM     71  C   UNL     1      11.240   4.950   9.857  1.00  0.00     0.059 A 
ATOM     72  C   UNL     1       8.829   4.665   9.860  1.00  0.00     0.059 A 
ATOM     73  F   UNL     1       7.911   2.536   9.509  1.00  0.00    -0.206 F 
ATOM     74  C   UNL     1       9.954   5.478   9.989  1.00  0.00     0.060 A 
BRANCH  74  75
ATOM     75  S   UNL     1       9.773   7.248  10.298  1.00  0.00     0.124 S 
ATOM     76  O   UNL     1      10.235   7.355  11.677  1.00  0.00    -0.237 OA
ATOM     77  O   UNL     1      10.650   7.827   9.284  1.00  0.00    -0.237 OA
ATOM     78  O   UNL     1       8.348   7.482  10.090  1.00  0.00    -0.744 OA
ENDBRANCH  74  75
ENDBRANCH  42  67
BRANCH  54  79
ATOM     79  C   UNL     1      13.053  -2.526  13.134  1.00  0.00     0.058 A 
ATOM     80  C   UNL     1      12.350  -2.357  14.337  1.00  0.00     0.135 A 
ATOM     81  C   UNL     1      14.427  -2.812  13.212  1.00  0.00     0.135 A 
ATOM     82  F   UNL     1      11.037  -2.077  14.319  1.00  0.00    -0.206 F 
ATOM     83  C   UNL     1      12.990  -2.441  15.569  1.00  0.00     0.059 A 
ATOM     84  C   UNL     1      15.079  -2.935  14.433  1.00  0.00     0.059 A 
ATOM     85  F   UNL     1      15.144  -2.997  12.092  1.00  0.00    -0.206 F 
ATOM     86  C   UNL     1      14.354  -2.734  15.607  1.00  0.00     0.060 A 
BRANCH  86  87
ATOM     87  S   UNL     1      15.164  -2.872  17.213  1.00  0.00     0.124 S 
ATOM     88  O   UNL     1      15.207  -1.477  17.642  1.00  0.00    -0.237 OA
ATOM     89  O   UNL     1      14.246  -3.734  17.952  1.00  0.00    -0.237 OA
ATOM     90  O   UNL     1      16.457  -3.470  16.893  1.00  0.00    -0.744 OA
ENDBRANCH  86  87
ENDBRANCH  54  79
ENDBRANCH  28  29
ENDBRANCH  20  23
ENDBRANCH  18  19
ENDBRANCH  17  18
ENDBRANCH  16  17
ENDBRANCH   3  16
TORSDOF 19
