REMARK SMILES Cc1ccc(NC(=O)C[C@H]([NH2+]Cc2cccnc2)C(=O)NCCCNC(=O)c2ccc(-c3c4nc(c(-c5c(F)cc(S(=O)(=O)[O-])cc5F)c5ccc([nH]5)c(-c5c(F)cc(S(=O)(=O)[O-])cc5F)c5nc(c(-c6c(F)cc(S(=O)(=O)[O-])cc6F)c6ccc3[nH]6)C=C5)C=C4)cc2)cc1Cl
REMARK SMILES IDX 23 1 22 2 21 3 19 4 20 5 10 7 9 8 7 9 6 10 8 12 5 13 1 14
REMARK SMILES IDX 2 15 3 16 95 17 4 18 94 19 96 20 11 21 12 24 13 25 14 26
REMARK SMILES IDX 18 27 15 28 17 29 16 30 24 31 25 32 26 33 27 35 28 36 29 37
REMARK SMILES IDX 93 38 30 39 92 40 31 41 32 42 33 43 86 44 34 45 91 46 85 47
REMARK SMILES IDX 87 48 35 49 90 50 84 51 83 52 36 54 70 55 49 56 69 57 50 58
REMARK SMILES IDX 53 59 68 60 88 61 51 62 52 63 67 65 89 66 54 67 37 68 38 69
REMARK SMILES IDX 47 70 39 71 40 72 46 73 48 74 41 75 42 76 43 77 44 78 45 79
REMARK SMILES IDX 71 80 72 81 81 82 73 83 74 84 80 85 82 86 75 87 76 88 77 89
REMARK SMILES IDX 78 90 79 91 55 92 56 93 65 94 57 95 58 96 64 97 66 98 59 99
REMARK SMILES IDX 60 100 61 101 62 102 63 103
REMARK H PARENT 21 6 6 11 11 22 11 23 25 34 87 53 53 64
REMARK Flexibility Score: inf
ROOT
ATOM      1  C   UNL     1       2.840  -2.585   1.406  1.00  0.00     0.042 C 
ENDROOT
BRANCH   1   2
ATOM      2  C   UNL     1       2.601  -1.966   0.027  1.00  0.00     0.118 C 
BRANCH   2   3
ATOM      3  N   UNL     1       2.182  -2.960  -0.971  1.00  0.00    -0.351 N 
ATOM      4  C   UNL     1       1.027  -3.346  -1.579  1.00  0.00     0.278 C 
ATOM      5  O   UNL     1       1.153  -4.291  -2.377  1.00  0.00    -0.268 OA
ATOM      6  H   UNL     1       2.947  -3.492  -1.288  1.00  0.00     0.163 HD
BRANCH   4   7
ATOM      7  C   UNL     1      -0.419  -2.784  -1.341  1.00  0.00     0.282 C 
BRANCH   7   8
ATOM      8  C   UNL     1      -0.518  -1.385  -0.780  1.00  0.00     0.175 C 
BRANCH   8   9
ATOM      9  C   UNL     1      -0.690  -0.906   0.654  1.00  0.00     0.230 C 
ATOM     10  N   UNL     1      -0.617  -1.514   1.853  1.00  0.00    -0.326 N 
ATOM     11  H   UNL     1      -0.802  -0.861   2.567  1.00  0.00     0.169 HD
ATOM     12  O   UNL     1      -0.941   0.315   0.753  1.00  0.00    -0.274 OA
BRANCH  10  13
ATOM     13  C   UNL     1      -0.362  -2.773   2.422  1.00  0.00     0.042 A 
ATOM     14  C   UNL     1       0.256  -6.585   4.421  1.00  0.00     0.046 C 
ATOM     15  C   UNL     1       0.076  -5.266   3.735  1.00  0.00    -0.032 A 
ATOM     16  C   UNL     1      -0.306  -4.127   4.455  1.00  0.00     0.007 A 
ATOM     17  C   UNL     1       0.258  -5.133   2.364  1.00  0.00     0.046 A 
ATOM     18  C   UNL     1      -0.525  -2.901   3.805  1.00  0.00     0.026 A 
ATOM     19  C   UNL     1       0.071  -3.895   1.747  1.00  0.00     0.047 A 
ATOM     20  Cl  UNL     1       0.741  -6.459   1.363  1.00  0.00    -0.084 Cl
ENDBRANCH  10  13
ENDBRANCH   8   9
ENDBRANCH   7   8
BRANCH   7  21
ATOM     21  N   UNL     1      -1.281  -3.847  -0.795  1.00  0.00    -0.332 N 
ATOM     22  H   UNL     1      -0.884  -4.120   0.104  1.00  0.00     0.347 HD
ATOM     23  H   UNL     1      -1.287  -4.554  -1.530  1.00  0.00     0.347 HD
BRANCH  21  24
ATOM     24  C   UNL     1      -2.693  -3.577  -0.569  1.00  0.00     0.299 C 
BRANCH  24  25
ATOM     25  C   UNL     1      -3.158  -4.218   0.719  1.00  0.00     0.024 A 
ATOM     26  C   UNL     1      -3.096  -5.599   0.935  1.00  0.00     0.013 A 
ATOM     27  C   UNL     1      -3.612  -3.440   1.783  1.00  0.00     0.120 A 
ATOM     28  C   UNL     1      -3.439  -6.127   2.180  1.00  0.00     0.021 A 
ATOM     29  N   UNL     1      -3.970  -3.924   2.996  1.00  0.00    -0.264 NA
ATOM     30  C   UNL     1      -3.855  -5.256   3.172  1.00  0.00     0.111 A 
ENDBRANCH  24  25
ENDBRANCH  21  24
ENDBRANCH   7  21
ENDBRANCH   4   7
ENDBRANCH   2   3
ENDBRANCH   1   2
BRANCH   1  31
ATOM     31  C   UNL     1       4.259  -2.567   1.953  1.00  0.00     0.118 C 
BRANCH  31  32
ATOM     32  N   UNL     1       4.655  -1.273   2.475  1.00  0.00    -0.352 N 
ATOM     33  C   UNL     1       5.000  -0.848   3.738  1.00  0.00     0.251 C 
ATOM     34  H   UNL     1       4.683  -0.561   1.795  1.00  0.00     0.163 HD
ATOM     35  O   UNL     1       5.150   0.364   3.898  1.00  0.00    -0.269 OA
BRANCH  33  36
ATOM     36  C   UNL     1       5.188  -1.760   4.907  1.00  0.00     0.039 A 
ATOM     37  C   UNL     1       5.021  -1.217   6.191  1.00  0.00     0.014 A 
ATOM     38  C   UNL     1       5.605  -3.088   4.805  1.00  0.00     0.014 A 
ATOM     39  C   UNL     1       5.247  -1.993   7.337  1.00  0.00     0.010 A 
ATOM     40  C   UNL     1       5.726  -3.893   5.946  1.00  0.00     0.010 A 
ATOM     41  C   UNL     1       5.583  -3.351   7.229  1.00  0.00    -0.014 A 
BRANCH  41  42
ATOM     42  C   UNL     1       5.830  -4.183   8.444  1.00  0.00     0.031 A 
ATOM     43  C   UNL     1       7.179  -4.827   8.678  1.00  0.00     0.074 A 
ATOM     44  C   UNL     1       4.839  -4.383   9.338  1.00  0.00     0.049 A 
ATOM     45  N   UNL     1       7.577  -5.581   9.673  1.00  0.00    -0.248 NA
ATOM     46  C   UNL     1       8.206  -4.621   7.644  1.00  0.00     0.031 C 
ATOM     47  C   UNL     1       3.471  -3.874   9.211  1.00  0.00     0.029 A 
ATOM     48  N   UNL     1       4.827  -5.063  10.531  1.00  0.00    -0.354 N 
ATOM     49  C   UNL     1       8.886  -5.950   9.376  1.00  0.00     0.074 A 
ATOM     50  C   UNL     1       9.194  -5.388   8.080  1.00  0.00     0.031 C 
ATOM     51  C   UNL     1       2.767  -4.225  10.299  1.00  0.00     0.029 A 
ATOM     52  C   UNL     1       3.619  -5.010  11.188  1.00  0.00     0.049 A 
ATOM     53  H   UNL     1       5.610  -5.545  10.884  1.00  0.00     0.167 HD
ATOM     54  C   UNL     1       9.764  -6.665  10.122  1.00  0.00     0.037 A 
ATOM     55  C   UNL     1       3.239  -5.524  12.374  1.00  0.00     0.037 A 
ATOM     56  C   UNL     1       9.471  -7.192  11.431  1.00  0.00     0.049 A 
ATOM     57  C   UNL     1       4.242  -6.277  13.206  1.00  0.00     0.074 A 
ATOM     58  C   UNL     1      10.311  -7.880  12.291  1.00  0.00     0.029 A 
ATOM     59  N   UNL     1       8.246  -7.085  12.072  1.00  0.00    -0.354 N 
ATOM     60  N   UNL     1       5.493  -6.563  12.931  1.00  0.00    -0.248 NA
ATOM     61  C   UNL     1       3.787  -6.763  14.516  1.00  0.00     0.031 C 
ATOM     62  C   UNL     1       9.582  -8.220  13.438  1.00  0.00     0.029 A 
ATOM     63  C   UNL     1       8.304  -7.702  13.312  1.00  0.00     0.049 A 
ATOM     64  H   UNL     1       7.452  -6.637  11.701  1.00  0.00     0.167 HD
ATOM     65  C   UNL     1       5.981  -7.238  14.045  1.00  0.00     0.074 A 
ATOM     66  C   UNL     1       4.896  -7.301  15.003  1.00  0.00     0.031 C 
ATOM     67  C   UNL     1       7.217  -7.757  14.257  1.00  0.00     0.037 A 
BRANCH  54  68
ATOM     68  C   UNL     1      11.136  -6.909   9.547  1.00  0.00     0.058 A 
ATOM     69  C   UNL     1      12.068  -5.869   9.396  1.00  0.00     0.135 A 
ATOM     70  C   UNL     1      11.537  -8.202   9.172  1.00  0.00     0.135 A 
ATOM     71  F   UNL     1      11.737  -4.610   9.724  1.00  0.00    -0.206 F 
ATOM     72  C   UNL     1      13.333  -6.095   8.862  1.00  0.00     0.059 A 
ATOM     73  C   UNL     1      12.809  -8.456   8.664  1.00  0.00     0.059 A 
ATOM     74  F   UNL     1      10.690  -9.236   9.297  1.00  0.00    -0.206 F 
ATOM     75  C   UNL     1      13.694  -7.392   8.497  1.00  0.00     0.060 A 
BRANCH  75  76
ATOM     76  S   UNL     1      15.339  -7.672   7.807  1.00  0.00     0.124 S 
ATOM     77  O   UNL     1      15.193  -7.099   6.470  1.00  0.00    -0.237 OA
ATOM     78  O   UNL     1      16.194  -6.920   8.725  1.00  0.00    -0.237 OA
ATOM     79  O   UNL     1      15.491  -9.117   7.857  1.00  0.00    -0.744 OA
ENDBRANCH  75  76
ENDBRANCH  54  68
BRANCH  55  80
ATOM     80  C   UNL     1       1.852  -5.304  12.870  1.00  0.00     0.058 A 
ATOM     81  C   UNL     1       1.599  -4.449  13.953  1.00  0.00     0.135 A 
ATOM     82  C   UNL     1       0.754  -5.935  12.266  1.00  0.00     0.135 A 
ATOM     83  F   UNL     1       2.616  -3.827  14.568  1.00  0.00    -0.206 F 
ATOM     84  C   UNL     1       0.309  -4.239  14.431  1.00  0.00     0.059 A 
ATOM     85  C   UNL     1      -0.547  -5.721  12.709  1.00  0.00     0.059 A 
ATOM     86  F   UNL     1       0.940  -6.749  11.215  1.00  0.00    -0.206 F 
ATOM     87  C   UNL     1      -0.758  -4.879  13.800  1.00  0.00     0.060 A 
BRANCH  87  88
ATOM     88  S   UNL     1      -2.434  -4.561  14.395  1.00  0.00     0.124 S 
ATOM     89  O   UNL     1      -2.456  -5.328  15.635  1.00  0.00    -0.237 OA
ATOM     90  O   UNL     1      -2.438  -3.109  14.541  1.00  0.00    -0.237 OA
ATOM     91  O   UNL     1      -3.274  -5.077  13.318  1.00  0.00    -0.744 OA
ENDBRANCH  87  88
ENDBRANCH  55  80
BRANCH  67  92
ATOM     92  C   UNL     1       7.469  -8.405  15.591  1.00  0.00     0.058 A 
ATOM     93  C   UNL     1       6.889  -9.636  15.938  1.00  0.00     0.135 A 
ATOM     94  C   UNL     1       8.310  -7.790  16.532  1.00  0.00     0.135 A 
ATOM     95  F   UNL     1       6.076 -10.267  15.076  1.00  0.00    -0.206 F 
ATOM     96  C   UNL     1       7.097 -10.210  17.188  1.00  0.00     0.059 A 
ATOM     97  C   UNL     1       8.556  -8.360  17.777  1.00  0.00     0.059 A 
ATOM     98  F   UNL     1       8.903  -6.620  16.246  1.00  0.00    -0.206 F 
ATOM     99  C   UNL     1       7.926  -9.560  18.104  1.00  0.00     0.060 A 
BRANCH  99 100
ATOM    100  S   UNL     1       8.181 -10.308  19.727  1.00  0.00     0.124 S 
ATOM    101  O   UNL     1       6.923  -9.991  20.395  1.00  0.00    -0.237 OA
ATOM    102  O   UNL     1       8.387 -11.715  19.398  1.00  0.00    -0.237 OA
ATOM    103  O   UNL     1       9.357  -9.612  20.240  1.00  0.00    -0.744 OA
ENDBRANCH  99 100
ENDBRANCH  67  92
ENDBRANCH  41  42
ENDBRANCH  33  36
ENDBRANCH  31  32
ENDBRANCH   1  31
TORSDOF 19
