REMARK SMILES COCCCC(=O)Nc1nc2ccc(C(=O)NCCCNC(=O)c3ccc(-c4c5nc(c(-c6c(F)cc(S(=O)(=O)[O-])cc6F)c6ccc([nH]6)c(-c6c(F)cc(S(=O)(=O)[O-])cc6F)c6nc(c(-c7c(F)cc(S(=O)(=O)[O-])cc7F)c7ccc4[nH]7)C=C6)C=C5)cc3)cc2s1
REMARK SMILES IDX 18 1 17 2 15 3 16 4 14 6 9 7 10 8 92 9 11 10 91 11 12 12
REMARK SMILES IDX 90 13 13 14 8 15 6 16 7 17 5 19 4 20 3 21 2 22 1 23 19 24
REMARK SMILES IDX 20 25 21 26 22 27 23 29 24 30 25 31 89 32 26 33 88 34 27 35
REMARK SMILES IDX 28 36 29 37 82 38 30 39 87 40 81 41 83 42 31 43 86 44 80 45
REMARK SMILES IDX 79 46 32 48 66 49 45 50 65 51 46 52 49 53 64 54 84 55 47 56
REMARK SMILES IDX 48 57 63 59 85 60 50 61 33 62 34 63 43 64 35 65 36 66 42 67
REMARK SMILES IDX 44 68 37 69 38 70 39 71 40 72 41 73 67 74 68 75 77 76 69 77
REMARK SMILES IDX 70 78 76 79 78 80 71 81 72 82 73 83 74 84 75 85 51 86 52 87
REMARK SMILES IDX 61 88 53 89 54 90 60 91 62 92 55 93 56 94 57 95 58 96 59 97
REMARK H PARENT 17 5 8 18 21 28 83 47 49 58
REMARK Flexibility Score: inf
ROOT
ATOM      1  C   UNL     1       1.106   6.299   4.213  1.00  0.00     0.118 C 
ENDROOT
BRANCH   1   2
ATOM      2  N   UNL     1       0.061   5.322   4.455  1.00  0.00    -0.352 N 
ATOM      3  C   UNL     1       0.006   3.984   4.170  1.00  0.00     0.251 C 
ATOM      4  O   UNL     1      -0.921   3.320   4.633  1.00  0.00    -0.269 OA
ATOM      5  H   UNL     1      -0.742   5.680   4.898  1.00  0.00     0.163 HD
BRANCH   3   6
ATOM      6  C   UNL     1       1.034   3.298   3.345  1.00  0.00     0.041 A 
ATOM      7  C   UNL     1       3.222  -0.363   1.405  1.00  0.00     0.190 A 
ATOM      8  N   UNL     1       3.322   0.819   0.852  1.00  0.00    -0.220 NA
ATOM      9  S   UNL     1       2.820  -0.363   3.067  1.00  0.00    -0.097 S 
ATOM     10  C   UNL     1       2.681   1.748   1.664  1.00  0.00     0.084 A 
ATOM     11  C   UNL     1       2.213   1.244   2.881  1.00  0.00     0.057 A 
ATOM     12  C   UNL     1       2.400   3.091   1.341  1.00  0.00     0.031 A 
ATOM     13  C   UNL     1       1.385   1.994   3.732  1.00  0.00     0.035 A 
ATOM     14  C   UNL     1       1.552   3.844   2.169  1.00  0.00     0.016 A 
BRANCH   7  15
ATOM     15  N   UNL     1       3.720  -1.531   0.925  1.00  0.00    -0.302 N 
ATOM     16  C   UNL     1       3.064  -2.475   0.199  1.00  0.00     0.226 C 
ATOM     17  O   UNL     1       3.711  -3.482  -0.119  1.00  0.00    -0.275 OA
ATOM     18  H   UNL     1       4.666  -1.716   1.125  1.00  0.00     0.172 HD
BRANCH  16  19
ATOM     19  C   UNL     1       1.630  -2.329  -0.304  1.00  0.00     0.103 C 
BRANCH  19  20
ATOM     20  C   UNL     1       0.467  -2.657   0.636  1.00  0.00     0.038 C 
BRANCH  20  21
ATOM     21  C   UNL     1      -0.187  -1.525   1.429  1.00  0.00     0.160 C 
BRANCH  21  22
ATOM     22  O   UNL     1      -0.952  -0.601   0.667  1.00  0.00    -0.385 OA
ATOM     23  C   UNL     1      -0.216   0.284  -0.159  1.00  0.00     0.194 C 
ENDBRANCH  21  22
ENDBRANCH  20  21
ENDBRANCH  19  20
ENDBRANCH  16  19
ENDBRANCH   7  15
ENDBRANCH   3   6
ENDBRANCH   1   2
BRANCH   1  24
ATOM     24  C   UNL     1       0.665   7.355   3.203  1.00  0.00     0.042 C 
BRANCH  24  25
ATOM     25  C   UNL     1      -0.310   8.381   3.778  1.00  0.00     0.118 C 
BRANCH  25  26
ATOM     26  N   UNL     1       0.321   9.237   4.778  1.00  0.00    -0.352 N 
ATOM     27  C   UNL     1       0.619  10.574   4.732  1.00  0.00     0.251 C 
ATOM     28  H   UNL     1       0.571   8.783   5.615  1.00  0.00     0.163 HD
ATOM     29  O   UNL     1       1.383  11.053   5.577  1.00  0.00    -0.269 OA
BRANCH  27  30
ATOM     30  C   UNL     1       0.048  11.439   3.680  1.00  0.00     0.039 A 
ATOM     31  C   UNL     1       0.868  12.380   3.049  1.00  0.00     0.014 A 
ATOM     32  C   UNL     1      -1.300  11.338   3.328  1.00  0.00     0.014 A 
ATOM     33  C   UNL     1       0.357  13.157   2.007  1.00  0.00     0.010 A 
ATOM     34  C   UNL     1      -1.790  12.063   2.245  1.00  0.00     0.010 A 
ATOM     35  C   UNL     1      -0.963  12.969   1.565  1.00  0.00    -0.014 A 
BRANCH  35  36
ATOM     36  C   UNL     1      -1.488  13.666   0.363  1.00  0.00     0.031 A 
ATOM     37  C   UNL     1      -2.638  14.626   0.480  1.00  0.00     0.074 A 
ATOM     38  C   UNL     1      -0.985  13.356  -0.849  1.00  0.00     0.049 A 
ATOM     39  N   UNL     1      -3.304  15.236  -0.466  1.00  0.00    -0.248 NA
ATOM     40  C   UNL     1      -3.117  14.920   1.840  1.00  0.00     0.031 C 
ATOM     41  C   UNL     1       0.111  12.415  -1.092  1.00  0.00     0.029 A 
ATOM     42  N   UNL     1      -1.339  13.782  -2.104  1.00  0.00    -0.354 N 
ATOM     43  C   UNL     1      -4.285  15.980   0.180  1.00  0.00     0.074 A 
ATOM     44  C   UNL     1      -4.159  15.702   1.595  1.00  0.00     0.031 C 
ATOM     45  C   UNL     1       0.352  12.350  -2.410  1.00  0.00     0.029 A 
ATOM     46  C   UNL     1      -0.604  13.202  -3.111  1.00  0.00     0.049 A 
ATOM     47  H   UNL     1      -2.051  14.441  -2.269  1.00  0.00     0.167 HD
ATOM     48  C   UNL     1      -5.194  16.829  -0.357  1.00  0.00     0.037 A 
ATOM     49  C   UNL     1      -0.700  13.325  -4.449  1.00  0.00     0.037 A 
ATOM     50  C   UNL     1      -5.309  17.097  -1.768  1.00  0.00     0.049 A 
ATOM     51  C   UNL     1      -1.752  14.229  -5.027  1.00  0.00     0.074 A 
ATOM     52  C   UNL     1      -6.164  17.975  -2.410  1.00  0.00     0.029 A 
ATOM     53  N   UNL     1      -4.555  16.480  -2.757  1.00  0.00    -0.354 N 
ATOM     54  N   UNL     1      -2.634  14.971  -4.399  1.00  0.00    -0.248 NA
ATOM     55  C   UNL     1      -1.830  14.310  -6.491  1.00  0.00     0.031 C 
ATOM     56  C   UNL     1      -5.965  17.849  -3.790  1.00  0.00     0.029 A 
ATOM     57  C   UNL     1      -4.948  16.932  -4.006  1.00  0.00     0.049 A 
ATOM     58  H   UNL     1      -3.845  15.818  -2.594  1.00  0.00     0.167 HD
ATOM     59  C   UNL     1      -3.357  15.623  -5.391  1.00  0.00     0.074 A 
ATOM     60  C   UNL     1      -2.801  15.197  -6.660  1.00  0.00     0.031 C 
ATOM     61  C   UNL     1      -4.387  16.496  -5.262  1.00  0.00     0.037 A 
BRANCH  48  62
ATOM     62  C   UNL     1      -6.140  17.522   0.588  1.00  0.00     0.058 A 
ATOM     63  C   UNL     1      -5.694  18.498   1.494  1.00  0.00     0.135 A 
ATOM     64  C   UNL     1      -7.512  17.218   0.581  1.00  0.00     0.135 A 
ATOM     65  F   UNL     1      -4.393  18.822   1.553  1.00  0.00    -0.206 F 
ATOM     66  C   UNL     1      -6.563  19.113   2.389  1.00  0.00     0.059 A 
ATOM     67  C   UNL     1      -8.405  17.844   1.446  1.00  0.00     0.059 A 
ATOM     68  F   UNL     1      -7.996  16.297  -0.267  1.00  0.00    -0.206 F 
ATOM     69  C   UNL     1      -7.917  18.775   2.361  1.00  0.00     0.060 A 
BRANCH  69  70
ATOM     70  S   UNL     1      -9.026  19.564   3.548  1.00  0.00     0.124 S 
ATOM     71  O   UNL     1      -8.634  18.908   4.792  1.00  0.00    -0.237 OA
ATOM     72  O   UNL     1      -8.658  20.971   3.432  1.00  0.00    -0.237 OA
ATOM     73  O   UNL     1     -10.355  19.223   3.051  1.00  0.00    -0.744 OA
ENDBRANCH  69  70
ENDBRANCH  48  62
BRANCH  49  74
ATOM     74  C   UNL     1       0.242  12.581  -5.329  1.00  0.00     0.058 A 
ATOM     75  C   UNL     1       1.241  13.258  -6.042  1.00  0.00     0.135 A 
ATOM     76  C   UNL     1       0.188  11.183  -5.446  1.00  0.00     0.135 A 
ATOM     77  F   UNL     1       1.327  14.595  -5.969  1.00  0.00    -0.206 F 
ATOM     78  C   UNL     1       2.153  12.579  -6.843  1.00  0.00     0.059 A 
ATOM     79  C   UNL     1       1.105  10.478  -6.220  1.00  0.00     0.059 A 
ATOM     80  F   UNL     1      -0.740  10.486  -4.771  1.00  0.00    -0.206 F 
ATOM     81  C   UNL     1       2.081  11.187  -6.919  1.00  0.00     0.060 A 
BRANCH  81  82
ATOM     82  S   UNL     1       3.315  10.311  -7.905  1.00  0.00     0.124 S 
ATOM     83  O   UNL     1       2.908  10.657  -9.261  1.00  0.00    -0.237 OA
ATOM     84  O   UNL     1       4.560  10.912  -7.438  1.00  0.00    -0.237 OA
ATOM     85  O   UNL     1       3.121   8.915  -7.523  1.00  0.00    -0.744 OA
ENDBRANCH  81  82
ENDBRANCH  49  74
BRANCH  61  86
ATOM     86  C   UNL     1      -4.977  17.065  -6.523  1.00  0.00     0.058 A 
ATOM     87  C   UNL     1      -5.788  16.293  -7.369  1.00  0.00     0.135 A 
ATOM     88  C   UNL     1      -4.790  18.418  -6.850  1.00  0.00     0.135 A 
ATOM     89  F   UNL     1      -5.989  14.991  -7.109  1.00  0.00    -0.206 F 
ATOM     90  C   UNL     1      -6.388  16.840  -8.498  1.00  0.00     0.059 A 
ATOM     91  C   UNL     1      -5.402  18.993  -7.959  1.00  0.00     0.059 A 
ATOM     92  F   UNL     1      -4.027  19.203  -6.072  1.00  0.00    -0.206 F 
ATOM     93  C   UNL     1      -6.196  18.194  -8.780  1.00  0.00     0.060 A 
BRANCH  93  94
ATOM     94  S   UNL     1      -7.033  18.904 -10.214  1.00  0.00     0.124 S 
ATOM     95  O   UNL     1      -6.280  18.316 -11.316  1.00  0.00    -0.237 OA
ATOM     96  O   UNL     1      -8.399  18.418 -10.048  1.00  0.00    -0.237 OA
ATOM     97  O   UNL     1      -6.860  20.342 -10.032  1.00  0.00    -0.744 OA
ENDBRANCH  93  94
ENDBRANCH  61  86
ENDBRANCH  35  36
ENDBRANCH  27  30
ENDBRANCH  25  26
ENDBRANCH  24  25
ENDBRANCH   1  24
TORSDOF 18
