REMARK SMILES C[C@](Nc1ccc(S(N)(=O)=O)cc1)(C(=O)NCCCNC(=O)c1ccc(-c2c3nc(c(-c4c(F)cc(S(=O)(=O)[O-])cc4F)c4ccc([nH]4)c(-c4c(F)cc(S(=O)(=O)[O-])cc4F)c4nc(c(-c5c(F)cc(S(=O)(=O)[O-])cc5F)c5ccc2[nH]5)C=C4)C=C3)cc1)C(F)(F)F
REMARK SMILES IDX 17 1 16 2 14 3 15 4 2 6 1 7 89 8 90 9 91 10 92 11 3 12 4 14
REMARK SMILES IDX 5 15 13 16 6 17 12 18 7 19 8 20 10 21 11 22 9 23 18 26 19 27
REMARK SMILES IDX 20 28 21 29 22 31 23 32 24 33 88 34 25 35 87 36 26 37 27 38
REMARK SMILES IDX 28 39 81 40 29 41 86 42 80 43 82 44 30 45 85 46 79 47 78 48
REMARK SMILES IDX 31 50 65 51 44 52 64 53 45 54 48 55 63 56 83 57 46 58 47 59
REMARK SMILES IDX 62 61 84 62 49 63 32 64 33 65 42 66 34 67 35 68 41 69 43 70
REMARK SMILES IDX 36 71 37 72 38 73 39 74 40 75 66 76 67 77 76 78 68 79 69 80
REMARK SMILES IDX 75 81 77 82 70 83 71 84 72 85 73 86 74 87 50 88 51 89 60 90
REMARK SMILES IDX 52 91 53 92 59 93 61 94 54 95 55 96 56 97 57 98 58 99
REMARK H PARENT 16 5 3 13 9 24 9 25 20 30 82 49 48 60
REMARK Flexibility Score: inf
ROOT
ATOM      1  C   UNL     1      -1.179  -2.213  -0.894  1.00  0.00     0.117 C 
ENDROOT
BRANCH   1   2
ATOM      2  N   UNL     1      -1.649  -0.859  -1.139  1.00  0.00    -0.354 N 
ATOM      3  C   UNL     1      -0.950   0.303  -1.349  1.00  0.00     0.254 C 
ATOM      4  O   UNL     1      -1.626   1.324  -1.485  1.00  0.00    -0.272 OA
ATOM      5  H   UNL     1      -2.629  -0.760  -1.158  1.00  0.00     0.163 HD
BRANCH   3   6
ATOM      6  C   UNL     1       0.601   0.292  -1.417  1.00  0.00     0.210 C 
ATOM      7  C   UNL     1       1.003  -0.557  -2.643  1.00  0.00     0.055 C 
BRANCH   6   8
ATOM      8  C   UNL     1       1.040   1.754  -1.669  1.00  0.00     0.420 C 
ATOM      9  F   UNL     1       0.688   2.593  -0.668  1.00  0.00    -0.168 F 
ATOM     10  F   UNL     1       2.396   1.834  -1.777  1.00  0.00    -0.168 F 
ATOM     11  F   UNL     1       0.550   2.250  -2.831  1.00  0.00    -0.168 F 
ENDBRANCH   6   8
BRANCH   6  12
ATOM     12  N   UNL     1       1.101  -0.223  -0.095  1.00  0.00    -0.364 N 
ATOM     13  H   UNL     1       0.610   0.097   0.697  1.00  0.00     0.161 HD
BRANCH  12  14
ATOM     14  C   UNL     1       2.147  -1.078   0.164  1.00  0.00     0.035 A 
ATOM     15  C   UNL     1       2.006  -2.000   1.215  1.00  0.00     0.027 A 
ATOM     16  C   UNL     1       3.282  -1.180  -0.643  1.00  0.00     0.027 A 
ATOM     17  C   UNL     1       2.901  -3.058   1.384  1.00  0.00     0.024 A 
ATOM     18  C   UNL     1       4.198  -2.224  -0.478  1.00  0.00     0.024 A 
ATOM     19  C   UNL     1       3.982  -3.178   0.516  1.00  0.00     0.082 A 
BRANCH  19  20
ATOM     20  S   UNL     1       5.033  -4.594   0.626  1.00  0.00     0.238 S 
ATOM     21  O   UNL     1       4.198  -5.777   0.660  1.00  0.00    -0.207 OA
ATOM     22  O   UNL     1       6.124  -4.448  -0.304  1.00  0.00    -0.207 OA
BRANCH  20  23
ATOM     23  N   UNL     1       5.705  -4.433   2.151  1.00  0.00    -0.225 NA
ATOM     24  H   UNL     1       4.973  -4.528   2.856  1.00  0.00     0.137 HD
ATOM     25  H   UNL     1       6.141  -3.515   2.236  1.00  0.00     0.137 HD
ENDBRANCH  20  23
ENDBRANCH  19  20
ENDBRANCH  12  14
ENDBRANCH   6  12
ENDBRANCH   3   6
ENDBRANCH   1   2
BRANCH   1  26
ATOM     26  C   UNL     1      -1.470  -2.670   0.527  1.00  0.00     0.042 C 
BRANCH  26  27
ATOM     27  C   UNL     1      -2.947  -2.905   0.805  1.00  0.00     0.118 C 
BRANCH  27  28
ATOM     28  N   UNL     1      -3.502  -3.981  -0.002  1.00  0.00    -0.352 N 
ATOM     29  C   UNL     1      -4.088  -5.162   0.379  1.00  0.00     0.251 C 
ATOM     30  H   UNL     1      -3.448  -3.840  -0.975  1.00  0.00     0.163 HD
ATOM     31  O   UNL     1      -4.308  -6.022  -0.470  1.00  0.00    -0.269 OA
BRANCH  29  32
ATOM     32  C   UNL     1      -4.438  -5.407   1.795  1.00  0.00     0.039 A 
ATOM     33  C   UNL     1      -4.241  -6.685   2.326  1.00  0.00     0.014 A 
ATOM     34  C   UNL     1      -4.983  -4.398   2.592  1.00  0.00     0.014 A 
ATOM     35  C   UNL     1      -4.537  -6.930   3.668  1.00  0.00     0.010 A 
ATOM     36  C   UNL     1      -5.189  -4.618   3.950  1.00  0.00     0.010 A 
ATOM     37  C   UNL     1      -4.981  -5.890   4.501  1.00  0.00    -0.014 A 
BRANCH  37  38
ATOM     38  C   UNL     1      -5.246  -6.119   5.945  1.00  0.00     0.031 A 
ATOM     39  C   UNL     1      -6.631  -5.921   6.502  1.00  0.00     0.074 A 
ATOM     40  C   UNL     1      -4.227  -6.450   6.764  1.00  0.00     0.049 A 
ATOM     41  N   UNL     1      -7.045  -6.019   7.739  1.00  0.00    -0.248 NA
ATOM     42  C   UNL     1      -7.684  -5.536   5.548  1.00  0.00     0.031 C 
ATOM     43  C   UNL     1      -2.831  -6.619   6.352  1.00  0.00     0.029 A 
ATOM     44  N   UNL     1      -4.205  -6.697   8.113  1.00  0.00    -0.354 N 
ATOM     45  C   UNL     1      -8.397  -5.696   7.714  1.00  0.00     0.074 A 
ATOM     46  C   UNL     1      -8.720  -5.340   6.350  1.00  0.00     0.031 C 
ATOM     47  C   UNL     1      -2.096  -6.969   7.420  1.00  0.00     0.029 A 
ATOM     48  C   UNL     1      -2.957  -7.009   8.598  1.00  0.00     0.049 A 
ATOM     49  H   UNL     1      -5.008  -6.654   8.682  1.00  0.00     0.167 HD
ATOM     50  C   UNL     1      -9.294  -5.719   8.729  1.00  0.00     0.037 A 
ATOM     51  C   UNL     1      -2.549  -7.290   9.851  1.00  0.00     0.037 A 
ATOM     52  C   UNL     1      -8.969  -6.098  10.080  1.00  0.00     0.049 A 
ATOM     53  C   UNL     1      -3.564  -7.311  10.962  1.00  0.00     0.074 A 
ATOM     54  C   UNL     1      -9.815  -6.208  11.170  1.00  0.00     0.029 A 
ATOM     55  N   UNL     1      -7.697  -6.427  10.527  1.00  0.00    -0.354 N 
ATOM     56  N   UNL     1      -4.851  -7.064  10.907  1.00  0.00    -0.248 NA
ATOM     57  C   UNL     1      -3.073  -7.658  12.302  1.00  0.00     0.031 C 
ATOM     58  C   UNL     1      -9.047  -6.555  12.286  1.00  0.00     0.029 A 
ATOM     59  C   UNL     1      -7.732  -6.720  11.881  1.00  0.00     0.049 A 
ATOM     60  H   UNL     1      -6.889  -6.450   9.965  1.00  0.00     0.167 HD
ATOM     61  C   UNL     1      -5.330  -7.255  12.199  1.00  0.00     0.074 A 
ATOM     62  C   UNL     1      -4.195  -7.652  13.008  1.00  0.00     0.031 C 
ATOM     63  C   UNL     1      -6.594  -7.118  12.672  1.00  0.00     0.037 A 
BRANCH  50  64
ATOM     64  C   UNL     1     -10.714  -5.328   8.417  1.00  0.00     0.058 A 
ATOM     65  C   UNL     1     -11.544  -6.134   7.620  1.00  0.00     0.135 A 
ATOM     66  C   UNL     1     -11.265  -4.152   8.950  1.00  0.00     0.135 A 
ATOM     67  F   UNL     1     -11.066  -7.262   7.070  1.00  0.00    -0.206 F 
ATOM     68  C   UNL     1     -12.857  -5.772   7.336  1.00  0.00     0.059 A 
ATOM     69  C   UNL     1     -12.586  -3.786   8.706  1.00  0.00     0.059 A 
ATOM     70  F   UNL     1     -10.519  -3.343   9.719  1.00  0.00    -0.206 F 
ATOM     71  C   UNL     1     -13.369  -4.595   7.885  1.00  0.00     0.060 A 
BRANCH  71  72
ATOM     72  S   UNL     1     -15.077  -4.145   7.513  1.00  0.00     0.124 S 
ATOM     73  O   UNL     1     -14.973  -3.744   6.113  1.00  0.00    -0.237 OA
ATOM     74  O   UNL     1     -15.790  -5.393   7.763  1.00  0.00    -0.237 OA
ATOM     75  O   UNL     1     -15.358  -3.066   8.454  1.00  0.00    -0.744 OA
ENDBRANCH  71  72
ENDBRANCH  50  64
BRANCH  51  76
ATOM     76  C   UNL     1      -1.117  -7.598  10.115  1.00  0.00     0.058 A 
ATOM     77  C   UNL     1      -0.709  -8.893  10.468  1.00  0.00     0.135 A 
ATOM     78  C   UNL     1      -0.128  -6.608  10.009  1.00  0.00     0.135 A 
ATOM     79  F   UNL     1      -1.618  -9.873  10.588  1.00  0.00    -0.206 F 
ATOM     80  C   UNL     1       0.625  -9.193  10.725  1.00  0.00     0.059 A 
ATOM     81  C   UNL     1       1.216  -6.890  10.233  1.00  0.00     0.059 A 
ATOM     82  F   UNL     1      -0.462  -5.357   9.655  1.00  0.00    -0.206 F 
ATOM     83  C   UNL     1       1.581  -8.184  10.602  1.00  0.00     0.060 A 
BRANCH  83  84
ATOM     84  S   UNL     1       3.316  -8.594  10.889  1.00  0.00     0.124 S 
ATOM     85  O   UNL     1       3.344  -8.757  12.337  1.00  0.00    -0.237 OA
ATOM     86  O   UNL     1       3.476  -9.815  10.104  1.00  0.00    -0.237 OA
ATOM     87  O   UNL     1       4.026  -7.428  10.369  1.00  0.00    -0.744 OA
ENDBRANCH  83  84
ENDBRANCH  51  76
BRANCH  63  88
ATOM     88  C   UNL     1      -6.826  -7.437  14.124  1.00  0.00     0.058 A 
ATOM     89  C   UNL     1      -6.353  -6.606  15.152  1.00  0.00     0.135 A 
ATOM     90  C   UNL     1      -7.566  -8.574  14.490  1.00  0.00     0.135 A 
ATOM     91  F   UNL     1      -5.636  -5.510  14.858  1.00  0.00    -0.206 F 
ATOM     92  C   UNL     1      -6.576  -6.908  16.491  1.00  0.00     0.059 A 
ATOM     93  C   UNL     1      -7.829  -8.877  15.822  1.00  0.00     0.059 A 
ATOM     94  F   UNL     1      -8.053  -9.396  13.547  1.00  0.00    -0.206 F 
ATOM     95  C   UNL     1      -7.316  -8.047  16.816  1.00  0.00     0.060 A 
BRANCH  95  96
ATOM     96  S   UNL     1      -7.614  -8.417  18.557  1.00  0.00     0.124 S 
ATOM     97  O   UNL     1      -6.300  -8.883  18.987  1.00  0.00    -0.237 OA
ATOM     98  O   UNL     1      -8.031  -7.122  19.085  1.00  0.00    -0.237 OA
ATOM     99  O   UNL     1      -8.659  -9.436  18.515  1.00  0.00    -0.744 OA
ENDBRANCH  95  96
ENDBRANCH  63  88
ENDBRANCH  37  38
ENDBRANCH  29  32
ENDBRANCH  27  28
ENDBRANCH  26  27
ENDBRANCH   1  26
TORSDOF 18
