REMARK SMILES CC(=O)Nc1ccc(/C=N/c2ccccc2C(=O)NCCCNC(=O)c2ccc(-c3c4nc(c(-c5c(F)cc(S(=O)(=O)[O-])cc5F)c5ccc([nH]5)c(-c5c(F)cc(S(=O)(=O)[O-])cc5F)c5nc(c(-c6c(F)cc(S(=O)(=O)[O-])cc6F)c6ccc3[nH]6)C=C5)C=C4)cc2)cc1
REMARK SMILES IDX 21 1 20 2 19 3 17 4 18 5 16 7 11 8 12 9 13 10 15 11 14 12
REMARK SMILES IDX 10 13 9 14 8 15 5 16 6 17 93 18 7 19 92 20 4 21 1 22 2 23
REMARK SMILES IDX 3 24 22 26 23 27 24 28 25 30 26 31 27 32 91 33 28 34 90 35
REMARK SMILES IDX 29 36 30 37 31 38 84 39 32 40 89 41 83 42 85 43 33 44 88 45
REMARK SMILES IDX 82 46 81 47 34 49 68 50 47 51 67 52 48 53 51 54 66 55 86 56
REMARK SMILES IDX 49 57 50 58 65 60 87 61 52 62 35 63 36 64 45 65 37 66 38 67
REMARK SMILES IDX 44 68 46 69 39 70 40 71 41 72 42 73 43 74 69 75 70 76 79 77
REMARK SMILES IDX 71 78 72 79 78 80 80 81 73 82 74 83 75 84 76 85 77 86 53 87
REMARK SMILES IDX 54 88 63 89 55 90 56 91 62 92 64 93 57 94 58 95 59 96 60 97
REMARK SMILES IDX 61 98
REMARK H PARENT 19 6 4 25 23 29 85 48 51 59
REMARK Flexibility Score: inf
ROOT
ATOM      1  C   UNL     1       4.905   5.770  -0.951  1.00  0.00     0.042 C 
ENDROOT
BRANCH   1   2
ATOM      2  C   UNL     1       5.113   5.650   0.543  1.00  0.00     0.118 C 
BRANCH   2   3
ATOM      3  N   UNL     1       6.458   5.409   1.006  1.00  0.00    -0.352 N 
ATOM      4  C   UNL     1       6.992   5.632   2.253  1.00  0.00     0.253 C 
ATOM      5  O   UNL     1       8.093   5.126   2.490  1.00  0.00    -0.269 OA
ATOM      6  H   UNL     1       7.078   5.035   0.338  1.00  0.00     0.163 HD
BRANCH   4   7
ATOM      7  C   UNL     1       6.387   6.522   3.291  1.00  0.00     0.065 A 
ATOM      8  C   UNL     1       5.037   6.604   3.697  1.00  0.00     0.076 A 
ATOM      9  C   UNL     1       4.683   7.561   4.665  1.00  0.00     0.029 A 
ATOM     10  C   UNL     1       5.630   8.392   5.264  1.00  0.00     0.002 A 
ATOM     11  C   UNL     1       7.338   7.351   3.933  1.00  0.00     0.016 A 
ATOM     12  C   UNL     1       6.965   8.278   4.906  1.00  0.00     0.001 A 
BRANCH   8  13
ATOM     13  N   UNL     1       3.958   5.904   3.137  1.00  0.00    -0.255 NA
ATOM     14  C   UNL     1       3.856   4.626   3.305  1.00  0.00     0.119 C 
BRANCH  14  15
ATOM     15  C   UNL     1       2.832   3.870   2.544  1.00  0.00    -0.007 A 
ATOM     16  C   UNL     1       1.139   2.436   0.805  1.00  0.00     0.041 A 
ATOM     17  C   UNL     1       0.967   3.814   0.998  1.00  0.00     0.027 A 
ATOM     18  C   UNL     1       2.187   1.800   1.473  1.00  0.00     0.027 A 
ATOM     19  C   UNL     1       1.806   4.530   1.860  1.00  0.00     0.012 A 
ATOM     20  C   UNL     1       3.024   2.506   2.349  1.00  0.00     0.012 A 
BRANCH  16  21
ATOM     21  N   UNL     1       0.260   1.819  -0.103  1.00  0.00    -0.326 N 
ATOM     22  C   UNL     1       0.711  -0.625   0.203  1.00  0.00     0.114 C 
ATOM     23  C   UNL     1       0.057   0.529  -0.495  1.00  0.00     0.221 C 
ATOM     24  O   UNL     1      -0.726   0.325  -1.429  1.00  0.00    -0.275 OA
ATOM     25  H   UNL     1      -0.338   2.458  -0.554  1.00  0.00     0.169 HD
ENDBRANCH  16  21
ENDBRANCH  14  15
ENDBRANCH   8  13
ENDBRANCH   4   7
ENDBRANCH   2   3
ENDBRANCH   1   2
BRANCH   1  26
ATOM     26  C   UNL     1       5.323   4.557  -1.767  1.00  0.00     0.118 C 
BRANCH  26  27
ATOM     27  N   UNL     1       4.658   3.303  -1.419  1.00  0.00    -0.352 N 
ATOM     28  C   UNL     1       3.662   2.583  -2.038  1.00  0.00     0.251 C 
ATOM     29  H   UNL     1       4.985   2.896  -0.584  1.00  0.00     0.163 HD
ATOM     30  O   UNL     1       3.300   1.510  -1.552  1.00  0.00    -0.269 OA
BRANCH  28  31
ATOM     31  C   UNL     1       2.991   3.099  -3.249  1.00  0.00     0.039 A 
ATOM     32  C   UNL     1       1.598   3.012  -3.355  1.00  0.00     0.014 A 
ATOM     33  C   UNL     1       3.725   3.655  -4.292  1.00  0.00     0.014 A 
ATOM     34  C   UNL     1       0.941   3.571  -4.454  1.00  0.00     0.010 A 
ATOM     35  C   UNL     1       3.071   4.314  -5.324  1.00  0.00     0.010 A 
ATOM     36  C   UNL     1       1.673   4.262  -5.427  1.00  0.00    -0.014 A 
BRANCH  36  37
ATOM     37  C   UNL     1       1.038   4.849  -6.632  1.00  0.00     0.031 A 
ATOM     38  C   UNL     1       1.471   4.344  -7.983  1.00  0.00     0.074 A 
ATOM     39  C   UNL     1       0.171   5.873  -6.520  1.00  0.00     0.049 A 
ATOM     40  N   UNL     1       1.265   4.854  -9.166  1.00  0.00    -0.248 NA
ATOM     41  C   UNL     1       2.302   3.126  -7.991  1.00  0.00     0.031 C 
ATOM     42  C   UNL     1      -0.305   6.451  -5.261  1.00  0.00     0.029 A 
ATOM     43  N   UNL     1      -0.449   6.628  -7.484  1.00  0.00    -0.354 N 
ATOM     44  C   UNL     1       1.986   4.056 -10.048  1.00  0.00     0.074 A 
ATOM     45  C   UNL     1       2.674   3.061  -9.259  1.00  0.00     0.031 C 
ATOM     46  C   UNL     1      -1.153   7.457  -5.530  1.00  0.00     0.029 A 
ATOM     47  C   UNL     1      -1.236   7.635  -6.976  1.00  0.00     0.049 A 
ATOM     48  H   UNL     1      -0.340   6.464  -8.448  1.00  0.00     0.167 HD
ATOM     49  C   UNL     1       2.050   4.137 -11.398  1.00  0.00     0.037 A 
ATOM     50  C   UNL     1      -1.924   8.604  -7.610  1.00  0.00     0.037 A 
ATOM     51  C   UNL     1       1.298   5.096 -12.163  1.00  0.00     0.049 A 
ATOM     52  C   UNL     1      -1.869   8.654  -9.114  1.00  0.00     0.074 A 
ATOM     53  C   UNL     1       1.230   5.241 -13.536  1.00  0.00     0.029 A 
ATOM     54  N   UNL     1       0.467   6.063 -11.613  1.00  0.00    -0.354 N 
ATOM     55  N   UNL     1      -1.192   7.888  -9.940  1.00  0.00    -0.248 NA
ATOM     56  C   UNL     1      -2.666   9.694  -9.776  1.00  0.00     0.031 C 
ATOM     57  C   UNL     1       0.386   6.321 -13.815  1.00  0.00     0.029 A 
ATOM     58  C   UNL     1      -0.112   6.816 -12.619  1.00  0.00     0.049 A 
ATOM     59  H   UNL     1       0.312   6.194 -10.650  1.00  0.00     0.167 HD
ATOM     60  C   UNL     1      -1.499   8.339 -11.218  1.00  0.00     0.074 A 
ATOM     61  C   UNL     1      -2.435   9.434 -11.056  1.00  0.00     0.031 C 
ATOM     62  C   UNL     1      -1.050   7.894 -12.418  1.00  0.00     0.037 A 
BRANCH  49  63
ATOM     63  C   UNL     1       2.958   3.175 -12.116  1.00  0.00     0.058 A 
ATOM     64  C   UNL     1       2.698   1.795 -12.160  1.00  0.00     0.135 A 
ATOM     65  C   UNL     1       4.110   3.640 -12.772  1.00  0.00     0.135 A 
ATOM     66  F   UNL     1       1.623   1.289 -11.534  1.00  0.00    -0.206 F 
ATOM     67  C   UNL     1       3.565   0.908 -12.791  1.00  0.00     0.059 A 
ATOM     68  C   UNL     1       4.973   2.775 -13.440  1.00  0.00     0.059 A 
ATOM     69  F   UNL     1       4.413   4.947 -12.761  1.00  0.00    -0.206 F 
ATOM     70  C   UNL     1       4.701   1.408 -13.428  1.00  0.00     0.060 A 
BRANCH  70  71
ATOM     71  S   UNL     1       5.816   0.245 -14.243  1.00  0.00     0.124 S 
ATOM     72  O   UNL     1       6.457  -0.395 -13.098  1.00  0.00    -0.237 OA
ATOM     73  O   UNL     1       4.892  -0.593 -15.002  1.00  0.00    -0.237 OA
ATOM     74  O   UNL     1       6.679   1.106 -15.044  1.00  0.00    -0.744 OA
ENDBRANCH  70  71
ENDBRANCH  49  63
BRANCH  50  75
ATOM     75  C   UNL     1      -2.722   9.590  -6.830  1.00  0.00     0.058 A 
ATOM     76  C   UNL     1      -4.124   9.576  -6.866  1.00  0.00     0.135 A 
ATOM     77  C   UNL     1      -2.103  10.548  -6.010  1.00  0.00     0.135 A 
ATOM     78  F   UNL     1      -4.766   8.686  -7.638  1.00  0.00    -0.206 F 
ATOM     79  C   UNL     1      -4.885  10.480  -6.129  1.00  0.00     0.059 A 
ATOM     80  C   UNL     1      -2.842  11.445  -5.243  1.00  0.00     0.059 A 
ATOM     81  F   UNL     1      -0.765  10.597  -5.924  1.00  0.00    -0.206 F 
ATOM     82  C   UNL     1      -4.234  11.408  -5.315  1.00  0.00     0.060 A 
BRANCH  82  83
ATOM     83  S   UNL     1      -5.231  12.536  -4.316  1.00  0.00     0.124 S 
ATOM     84  O   UNL     1      -5.753  13.445  -5.330  1.00  0.00    -0.237 OA
ATOM     85  O   UNL     1      -6.202  11.631  -3.709  1.00  0.00    -0.237 OA
ATOM     86  O   UNL     1      -4.260  13.113  -3.391  1.00  0.00    -0.744 OA
ENDBRANCH  82  83
ENDBRANCH  50  75
BRANCH  62  87
ATOM     87  C   UNL     1      -1.596   8.564 -13.646  1.00  0.00     0.058 A 
ATOM     88  C   UNL     1      -1.198   9.857 -14.019  1.00  0.00     0.135 A 
ATOM     89  C   UNL     1      -2.482   7.877 -14.491  1.00  0.00     0.135 A 
ATOM     90  F   UNL     1      -0.356  10.556 -13.242  1.00  0.00    -0.206 F 
ATOM     91  C   UNL     1      -1.680  10.456 -15.177  1.00  0.00     0.059 A 
ATOM     92  C   UNL     1      -2.954   8.445 -15.669  1.00  0.00     0.059 A 
ATOM     93  F   UNL     1      -2.882   6.633 -14.185  1.00  0.00    -0.206 F 
ATOM     94  C   UNL     1      -2.556   9.741 -15.997  1.00  0.00     0.060 A 
BRANCH  94  95
ATOM     95  S   UNL     1      -3.147  10.517 -17.515  1.00  0.00     0.124 S 
ATOM     96  O   UNL     1      -4.099  11.492 -16.993  1.00  0.00    -0.237 OA
ATOM     97  O   UNL     1      -1.920  11.069 -18.081  1.00  0.00    -0.237 OA
ATOM     98  O   UNL     1      -3.730   9.406 -18.261  1.00  0.00    -0.744 OA
ENDBRANCH  94  95
ENDBRANCH  62  87
ENDBRANCH  36  37
ENDBRANCH  28  31
ENDBRANCH  26  27
ENDBRANCH   1  26
TORSDOF 16
