REMARK SMILES Cc1cccc(C(=O)NCCCNC(=O)c2ccc(-c3c4nc(c(-c5c(F)cc(S(=O)(=O)[O-])cc5F)c5ccc([nH]5)c(-c5c(F)cc(S(=O)(=O)[O-])cc5F)c5nc(c(-c6c(F)cc(S(=O)(=O)[O-])cc6F)c6ccc3[nH]6)C=C5)C=C4)cc2)c1OC[C@@H]1C[C@H]2CC[C@@H]1C2
REMARK SMILES IDX 11 1 10 2 9 3 7 4 8 5 6 7 1 8 2 9 3 10 82 11 4 12 5 13 83 14
REMARK SMILES IDX 84 15 85 16 86 17 90 18 87 19 89 20 91 21 88 22 12 23 13 24
REMARK SMILES IDX 14 25 15 27 16 28 17 29 81 30 18 31 80 32 19 33 20 34 21 35
REMARK SMILES IDX 74 36 22 37 79 38 73 39 75 40 23 41 78 42 72 43 71 44 24 46
REMARK SMILES IDX 58 47 37 48 57 49 38 50 41 51 56 52 76 53 39 54 40 55 55 57
REMARK SMILES IDX 77 58 42 59 25 60 26 61 35 62 27 63 28 64 34 65 36 66 29 67
REMARK SMILES IDX 30 68 31 69 32 70 33 71 59 72 60 73 69 74 61 75 62 76 68 77
REMARK SMILES IDX 70 78 63 79 64 80 65 81 66 82 67 83 43 84 44 85 53 86 45 87
REMARK SMILES IDX 46 88 52 89 54 90 47 91 48 92 49 93 50 94 51 95
REMARK H PARENT 9 6 13 26 75 45 41 56
REMARK Flexibility Score: inf
ROOT
ATOM      1  C   UNL     1       0.970   4.435  -0.731  1.00  0.00     0.042 C 
ENDROOT
BRANCH   1   2
ATOM      2  C   UNL     1       0.367   4.089   0.624  1.00  0.00     0.118 C 
BRANCH   2   3
ATOM      3  N   UNL     1      -0.981   3.591   0.448  1.00  0.00    -0.352 N 
ATOM      4  C   UNL     1      -1.506   2.354   0.202  1.00  0.00     0.255 C 
ATOM      5  O   UNL     1      -2.730   2.346   0.011  1.00  0.00    -0.269 OA
ATOM      6  H   UNL     1      -1.666   4.294   0.521  1.00  0.00     0.163 HD
BRANCH   4   7
ATOM      7  C   UNL     1      -0.799   1.024   0.175  1.00  0.00     0.082 A 
ATOM      8  C   UNL     1       1.915  -1.136  -1.469  1.00  0.00     0.048 C 
ATOM      9  C   UNL     1       0.782  -0.670  -0.592  1.00  0.00    -0.008 A 
ATOM     10  C   UNL     1      -0.114  -1.682  -0.200  1.00  0.00     0.007 A 
ATOM     11  C   UNL     1       0.494   0.687  -0.296  1.00  0.00     0.134 A 
ATOM     12  C   UNL     1      -1.328  -1.368   0.381  1.00  0.00     0.001 A 
ATOM     13  C   UNL     1      -1.675  -0.032   0.531  1.00  0.00     0.018 A 
BRANCH  11  14
ATOM     14  O   UNL     1       1.388   1.675  -0.575  1.00  0.00    -0.492 OA
BRANCH  14  15
ATOM     15  C   UNL     1       2.746   1.601  -0.083  1.00  0.00     0.233 C 
BRANCH  15  16
ATOM     16  C   UNL     1       2.954   1.168   1.382  1.00  0.00     0.030 C 
ATOM     17  C   UNL     1       3.837   2.170   2.185  1.00  0.00     0.011 C 
ATOM     18  C   UNL     1       3.827  -0.114   1.454  1.00  0.00    -0.004 C 
ATOM     19  C   UNL     1       5.046   1.325   2.625  1.00  0.00    -0.010 C 
ATOM     20  C   UNL     1       3.758  -0.687   2.877  1.00  0.00     0.004 C 
ATOM     21  C   UNL     1       5.255   0.434   1.407  1.00  0.00     0.007 C 
ATOM     22  C   UNL     1       4.595   0.310   3.687  1.00  0.00     0.004 C 
ENDBRANCH  15  16
ENDBRANCH  14  15
ENDBRANCH  11  14
ENDBRANCH   4   7
ENDBRANCH   2   3
ENDBRANCH   1   2
BRANCH   1  23
ATOM     23  C   UNL     1       1.023   5.916  -1.041  1.00  0.00     0.118 C 
BRANCH  23  24
ATOM     24  N   UNL     1       2.409   6.392  -1.052  1.00  0.00    -0.352 N 
ATOM     25  C   UNL     1       2.951   7.452  -1.760  1.00  0.00     0.251 C 
ATOM     26  H   UNL     1       3.037   5.892  -0.481  1.00  0.00     0.163 HD
ATOM     27  O   UNL     1       4.138   7.644  -1.877  1.00  0.00    -0.269 OA
BRANCH  25  28
ATOM     28  C   UNL     1       1.962   8.420  -2.267  1.00  0.00     0.039 A 
ATOM     29  C   UNL     1       1.690   9.499  -1.418  1.00  0.00     0.014 A 
ATOM     30  C   UNL     1       1.063   7.995  -3.239  1.00  0.00     0.014 A 
ATOM     31  C   UNL     1       0.410  10.034  -1.400  1.00  0.00     0.010 A 
ATOM     32  C   UNL     1      -0.232   8.461  -3.146  1.00  0.00     0.010 A 
ATOM     33  C   UNL     1      -0.567   9.440  -2.192  1.00  0.00    -0.014 A 
BRANCH  33  34
ATOM     34  C   UNL     1      -1.985   9.758  -2.087  1.00  0.00     0.031 A 
ATOM     35  C   UNL     1      -2.606  10.539  -3.178  1.00  0.00     0.074 A 
ATOM     36  C   UNL     1      -2.729   9.272  -1.071  1.00  0.00     0.049 A 
ATOM     37  N   UNL     1      -3.767  11.094  -3.128  1.00  0.00    -0.248 NA
ATOM     38  C   UNL     1      -1.900  10.807  -4.426  1.00  0.00     0.031 C 
ATOM     39  C   UNL     1      -4.185   9.193  -1.008  1.00  0.00     0.029 A 
ATOM     40  N   UNL     1      -2.306   8.943   0.223  1.00  0.00    -0.354 N 
ATOM     41  C   UNL     1      -4.073  11.554  -4.392  1.00  0.00     0.074 A 
ATOM     42  C   UNL     1      -2.855  11.395  -5.147  1.00  0.00     0.031 C 
ATOM     43  C   UNL     1      -4.562   9.097   0.276  1.00  0.00     0.029 A 
ATOM     44  C   UNL     1      -3.371   9.275   1.087  1.00  0.00     0.049 A 
ATOM     45  H   UNL     1      -1.437   8.556   0.479  1.00  0.00     0.167 HD
ATOM     46  C   UNL     1      -5.362  11.900  -4.674  1.00  0.00     0.037 A 
ATOM     47  C   UNL     1      -3.232  10.238   2.046  1.00  0.00     0.037 A 
ATOM     48  C   UNL     1      -6.164  11.925  -3.450  1.00  0.00     0.049 A 
ATOM     49  C   UNL     1      -4.166  11.415   1.873  1.00  0.00     0.074 A 
ATOM     50  C   UNL     1      -7.006  10.999  -2.854  1.00  0.00     0.029 A 
ATOM     51  N   UNL     1      -5.892  12.886  -2.481  1.00  0.00    -0.354 N 
ATOM     52  N   UNL     1      -4.791  11.694   0.760  1.00  0.00    -0.248 NA
ATOM     53  C   UNL     1      -4.474  12.370   2.934  1.00  0.00     0.031 C 
ATOM     54  C   UNL     1      -7.165  11.363  -1.492  1.00  0.00     0.029 A 
ATOM     55  C   UNL     1      -6.449  12.527  -1.268  1.00  0.00     0.049 A 
ATOM     56  H   UNL     1      -5.374  13.709  -2.638  1.00  0.00     0.167 HD
ATOM     57  C   UNL     1      -5.544  12.829   0.924  1.00  0.00     0.074 A 
ATOM     58  C   UNL     1      -5.329  13.201   2.311  1.00  0.00     0.031 C 
ATOM     59  C   UNL     1      -6.279  13.371  -0.093  1.00  0.00     0.037 A 
BRANCH  46  60
ATOM     60  C   UNL     1      -5.941  11.915  -6.079  1.00  0.00     0.058 A 
ATOM     61  C   UNL     1      -7.304  11.611  -6.296  1.00  0.00     0.135 A 
ATOM     62  C   UNL     1      -5.202  12.124  -7.261  1.00  0.00     0.135 A 
ATOM     63  F   UNL     1      -8.164  11.484  -5.277  1.00  0.00    -0.206 F 
ATOM     64  C   UNL     1      -7.851  11.412  -7.569  1.00  0.00     0.059 A 
ATOM     65  C   UNL     1      -5.707  11.871  -8.541  1.00  0.00     0.059 A 
ATOM     66  F   UNL     1      -3.973  12.648  -7.236  1.00  0.00    -0.206 F 
ATOM     67  C   UNL     1      -7.034  11.504  -8.686  1.00  0.00     0.060 A 
BRANCH  67  68
ATOM     68  S   UNL     1      -7.727  11.165 -10.315  1.00  0.00     0.124 S 
ATOM     69  O   UNL     1      -8.294   9.832 -10.138  1.00  0.00    -0.237 OA
ATOM     70  O   UNL     1      -8.690  12.251 -10.467  1.00  0.00    -0.237 OA
ATOM     71  O   UNL     1      -6.566  11.230 -11.200  1.00  0.00    -0.744 OA
ENDBRANCH  67  68
ENDBRANCH  46  60
BRANCH  47  72
ATOM     72  C   UNL     1      -1.865  10.274   2.639  1.00  0.00     0.058 A 
ATOM     73  C   UNL     1      -1.465   9.158   3.401  1.00  0.00     0.135 A 
ATOM     74  C   UNL     1      -0.857  11.088   2.106  1.00  0.00     0.135 A 
ATOM     75  F   UNL     1      -2.390   8.357   3.955  1.00  0.00    -0.206 F 
ATOM     76  C   UNL     1      -0.134   8.761   3.476  1.00  0.00     0.059 A 
ATOM     77  C   UNL     1       0.489  10.714   2.180  1.00  0.00     0.059 A 
ATOM     78  F   UNL     1      -1.175  12.170   1.380  1.00  0.00    -0.206 F 
ATOM     79  C   UNL     1       0.827   9.509   2.800  1.00  0.00     0.060 A 
BRANCH  79  80
ATOM     80  S   UNL     1       2.466   8.773   2.586  1.00  0.00     0.124 S 
ATOM     81  O   UNL     1       2.932   8.663   3.964  1.00  0.00    -0.237 OA
ATOM     82  O   UNL     1       2.145   7.505   1.929  1.00  0.00    -0.237 OA
ATOM     83  O   UNL     1       3.167   9.746   1.758  1.00  0.00    -0.744 OA
ENDBRANCH  79  80
ENDBRANCH  47  72
BRANCH  59  84
ATOM     84  C   UNL     1      -6.977  14.712  -0.063  1.00  0.00     0.058 A 
ATOM     85  C   UNL     1      -6.509  15.825   0.654  1.00  0.00     0.135 A 
ATOM     86  C   UNL     1      -8.087  14.954  -0.910  1.00  0.00     0.135 A 
ATOM     87  F   UNL     1      -5.404  15.753   1.410  1.00  0.00    -0.206 F 
ATOM     88  C   UNL     1      -7.130  17.075   0.585  1.00  0.00     0.059 A 
ATOM     89  C   UNL     1      -8.686  16.205  -1.037  1.00  0.00     0.059 A 
ATOM     90  F   UNL     1      -8.622  13.977  -1.658  1.00  0.00    -0.206 F 
ATOM     91  C   UNL     1      -8.215  17.257  -0.267  1.00  0.00     0.060 A 
BRANCH  91  92
ATOM     92  S   UNL     1      -8.976  18.883  -0.427  1.00  0.00     0.124 S 
ATOM     93  O   UNL     1     -10.059  18.795   0.547  1.00  0.00    -0.237 OA
ATOM     94  O   UNL     1      -7.887  19.791  -0.077  1.00  0.00    -0.237 OA
ATOM     95  O   UNL     1      -9.384  18.920  -1.828  1.00  0.00    -0.744 OA
ENDBRANCH  91  92
ENDBRANCH  59  84
ENDBRANCH  33  34
ENDBRANCH  25  28
ENDBRANCH  23  24
ENDBRANCH   1  23
TORSDOF 16
