REMARK SMILES Cc1c(Cc2nc(C(C)(C)C)cs2)cccc1C(=O)NCCCNC(=O)c1ccc(-c2c3nc(c(-c4c(F)cc(S(=O)(=O)[O-])cc4F)c4ccc([nH]4)c(-c4c(F)cc(S(=O)(=O)[O-])cc4F)c4nc(c(-c5c(F)cc(S(=O)(=O)[O-])cc5F)c5ccc2[nH]5)C=C4)C=C3)cc1
REMARK SMILES IDX 22 1 21 2 20 3 18 4 19 5 17 7 1 8 2 9 3 10 14 11 16 12 15 13
REMARK SMILES IDX 4 14 5 15 6 16 13 17 7 18 12 19 8 20 9 21 10 22 11 23 23 24
REMARK SMILES IDX 24 25 25 26 26 28 27 29 28 30 92 31 29 32 91 33 30 34 31 35
REMARK SMILES IDX 32 36 85 37 33 38 90 39 84 40 86 41 34 42 89 43 83 44 82 45
REMARK SMILES IDX 35 47 69 48 48 49 68 50 49 51 52 52 67 53 87 54 50 55 51 56
REMARK SMILES IDX 66 58 88 59 53 60 36 61 37 62 46 63 38 64 39 65 45 66 47 67
REMARK SMILES IDX 40 68 41 69 42 70 43 71 44 72 70 73 71 74 80 75 72 76 73 77
REMARK SMILES IDX 79 78 81 79 74 80 75 81 76 82 77 83 78 84 54 85 55 86 64 87
REMARK SMILES IDX 56 88 57 89 63 90 65 91 58 92 59 93 60 94 61 95 62 96
REMARK H PARENT 20 6 24 27 86 46 52 57
REMARK Flexibility Score: inf
ROOT
ATOM      1  C   UNL     1       4.462  -0.079   0.316  1.00  0.00     0.042 C 
ENDROOT
BRANCH   1   2
ATOM      2  C   UNL     1       3.121   0.557   0.998  1.00  0.00     0.118 C 
BRANCH   2   3
ATOM      3  N   UNL     1       2.342   1.596   0.273  1.00  0.00    -0.352 N 
ATOM      4  C   UNL     1       1.038   1.792  -0.144  1.00  0.00     0.251 C 
ATOM      5  O   UNL     1       0.612   2.898  -0.477  1.00  0.00    -0.269 OA
ATOM      6  H   UNL     1       2.914   2.356   0.018  1.00  0.00     0.163 HD
BRANCH   4   7
ATOM      7  C   UNL     1       0.085   0.668  -0.197  1.00  0.00     0.043 A 
ATOM      8  C   UNL     1       1.677  -0.753  -1.549  1.00  0.00     0.045 C 
ATOM      9  C   UNL     1       0.488  -0.593  -0.642  1.00  0.00    -0.035 A 
ATOM     10  C   UNL     1      -0.300  -1.696  -0.295  1.00  0.00    -0.037 A 
ATOM     11  C   UNL     1      -1.630  -1.480   0.119  1.00  0.00     0.004 A 
ATOM     12  C   UNL     1      -1.251   0.886   0.180  1.00  0.00     0.014 A 
ATOM     13  C   UNL     1      -2.126  -0.191   0.289  1.00  0.00     0.001 A 
BRANCH  10  14
ATOM     14  C   UNL     1       0.303  -3.087  -0.259  1.00  0.00     0.103 C 
BRANCH  14  15
ATOM     15  C   UNL     1       0.177  -3.692   1.111  1.00  0.00     0.097 A 
ATOM     16  N   UNL     1      -0.927  -4.265   1.530  1.00  0.00    -0.245 NA
ATOM     17  S   UNL     1       1.432  -3.593   2.279  1.00  0.00    -0.127 S 
ATOM     18  C   UNL     1      -0.867  -4.519   2.886  1.00  0.00     0.057 A 
ATOM     19  C   UNL     1       0.375  -4.280   3.448  1.00  0.00     0.091 A 
BRANCH  18  20
ATOM     20  C   UNL     1      -2.131  -5.019   3.556  1.00  0.00     0.005 C 
ATOM     21  C   UNL     1      -1.985  -6.511   3.896  1.00  0.00     0.017 C 
ATOM     22  C   UNL     1      -2.428  -4.218   4.837  1.00  0.00     0.017 C 
ATOM     23  C   UNL     1      -3.345  -4.848   2.610  1.00  0.00     0.017 C 
ENDBRANCH  18  20
ENDBRANCH  14  15
ENDBRANCH  10  14
ENDBRANCH   4   7
ENDBRANCH   2   3
ENDBRANCH   1   2
BRANCH   1  24
ATOM     24  C   UNL     1       5.871   0.544   0.740  1.00  0.00     0.118 C 
BRANCH  24  25
ATOM     25  N   UNL     1       7.287   0.242   0.096  1.00  0.00    -0.352 N 
ATOM     26  C   UNL     1       8.523   0.960  -0.230  1.00  0.00     0.251 C 
ATOM     27  H   UNL     1       7.358  -0.706  -0.160  1.00  0.00     0.163 HD
ATOM     28  O   UNL     1       9.512   0.524   0.390  1.00  0.00    -0.269 OA
BRANCH  26  29
ATOM     29  C   UNL     1       8.905   2.120  -1.248  1.00  0.00     0.039 A 
ATOM     30  C   UNL     1       9.865   3.131  -0.907  1.00  0.00     0.014 A 
ATOM     31  C   UNL     1       8.335   2.347  -2.493  1.00  0.00     0.014 A 
ATOM     32  C   UNL     1       9.757   4.485  -1.435  1.00  0.00     0.010 A 
ATOM     33  C   UNL     1       8.219   3.678  -3.013  1.00  0.00     0.010 A 
ATOM     34  C   UNL     1       8.717   4.797  -2.327  1.00  0.00    -0.014 A 
BRANCH  34  35
ATOM     35  C   UNL     1       7.946   6.125  -2.357  1.00  0.00     0.031 A 
ATOM     36  C   UNL     1       8.152   7.087  -3.435  1.00  0.00     0.074 A 
ATOM     37  C   UNL     1       6.898   6.548  -1.575  1.00  0.00     0.049 A 
ATOM     38  N   UNL     1       8.351   8.355  -3.269  1.00  0.00    -0.248 NA
ATOM     39  C   UNL     1       8.017   6.662  -4.814  1.00  0.00     0.031 C 
ATOM     40  C   UNL     1       5.976   7.700  -1.635  1.00  0.00     0.029 A 
ATOM     41  N   UNL     1       6.329   5.912  -0.495  1.00  0.00    -0.354 N 
ATOM     42  C   UNL     1       8.040   8.932  -4.482  1.00  0.00     0.074 A 
ATOM     43  C   UNL     1       8.059   7.840  -5.438  1.00  0.00     0.031 C 
ATOM     44  C   UNL     1       5.312   7.822  -0.458  1.00  0.00     0.029 A 
ATOM     45  C   UNL     1       5.802   6.795   0.439  1.00  0.00     0.049 A 
ATOM     46  H   UNL     1       6.299   4.934  -0.394  1.00  0.00     0.167 HD
ATOM     47  C   UNL     1       7.494  10.185  -4.569  1.00  0.00     0.037 A 
ATOM     48  C   UNL     1       6.388   6.878   1.680  1.00  0.00     0.037 A 
ATOM     49  C   UNL     1       7.040  10.689  -3.256  1.00  0.00     0.049 A 
ATOM     50  C   UNL     1       7.157   8.171   1.771  1.00  0.00     0.074 A 
ATOM     51  C   UNL     1       5.791  10.951  -2.705  1.00  0.00     0.029 A 
ATOM     52  N   UNL     1       7.914  10.725  -2.182  1.00  0.00    -0.354 N 
ATOM     53  N   UNL     1       6.962   9.165   0.956  1.00  0.00    -0.248 NA
ATOM     54  C   UNL     1       8.259   8.425   2.696  1.00  0.00     0.031 C 
ATOM     55  C   UNL     1       5.940  11.162  -1.301  1.00  0.00     0.029 A 
ATOM     56  C   UNL     1       7.282  11.051  -0.993  1.00  0.00     0.049 A 
ATOM     57  H   UNL     1       8.879  10.540  -2.256  1.00  0.00     0.167 HD
ATOM     58  C   UNL     1       7.957  10.081   1.096  1.00  0.00     0.074 A 
ATOM     59  C   UNL     1       8.717   9.606   2.241  1.00  0.00     0.031 C 
ATOM     60  C   UNL     1       8.086  11.123   0.223  1.00  0.00     0.037 A 
BRANCH  47  61
ATOM     61  C   UNL     1       7.091  10.815  -5.898  1.00  0.00     0.058 A 
ATOM     62  C   UNL     1       6.181  11.890  -5.973  1.00  0.00     0.135 A 
ATOM     63  C   UNL     1       7.630  10.431  -7.148  1.00  0.00     0.135 A 
ATOM     64  F   UNL     1       5.701  12.483  -4.873  1.00  0.00    -0.206 F 
ATOM     65  C   UNL     1       5.754  12.446  -7.184  1.00  0.00     0.059 A 
ATOM     66  C   UNL     1       7.161  10.911  -8.373  1.00  0.00     0.059 A 
ATOM     67  F   UNL     1       8.705   9.633  -7.231  1.00  0.00    -0.206 F 
ATOM     68  C   UNL     1       6.226  11.930  -8.383  1.00  0.00     0.060 A 
BRANCH  68  69
ATOM     69  S   UNL     1       5.694  12.676  -9.934  1.00  0.00     0.124 S 
ATOM     70  O   UNL     1       4.241  12.571  -9.850  1.00  0.00    -0.237 OA
ATOM     71  O   UNL     1       6.242  14.024  -9.824  1.00  0.00    -0.237 OA
ATOM     72  O   UNL     1       6.317  11.832 -10.951  1.00  0.00    -0.744 OA
ENDBRANCH  68  69
ENDBRANCH  47  61
BRANCH  48  73
ATOM     73  C   UNL     1       6.855   5.541   2.318  1.00  0.00     0.058 A 
ATOM     74  C   UNL     1       5.800   4.655   2.609  1.00  0.00     0.135 A 
ATOM     75  C   UNL     1       7.871   4.940   1.599  1.00  0.00     0.135 A 
ATOM     76  F   UNL     1       5.110   4.796   3.748  1.00  0.00    -0.206 F 
ATOM     77  C   UNL     1       5.393   3.681   1.694  1.00  0.00     0.059 A 
ATOM     78  C   UNL     1       7.464   3.994   0.654  1.00  0.00     0.059 A 
ATOM     79  F   UNL     1       9.034   5.587   1.405  1.00  0.00    -0.206 F 
ATOM     80  C   UNL     1       6.173   3.515   0.565  1.00  0.00     0.060 A 
BRANCH  80  81
ATOM     81  S   UNL     1       5.322   3.071  -1.177  1.00  0.00     0.124 S 
ATOM     82  O   UNL     1       3.942   3.040  -0.733  1.00  0.00    -0.237 OA
ATOM     83  O   UNL     1       5.575   4.166  -2.073  1.00  0.00    -0.237 OA
ATOM     84  O   UNL     1       5.847   1.786  -1.617  1.00  0.00    -0.744 OA
ENDBRANCH  80  81
ENDBRANCH  48  73
BRANCH  60  85
ATOM     85  C   UNL     1       9.027  12.277   0.428  1.00  0.00     0.058 A 
ATOM     86  C   UNL     1       9.356  12.766   1.704  1.00  0.00     0.135 A 
ATOM     87  C   UNL     1       9.530  13.029  -0.659  1.00  0.00     0.135 A 
ATOM     88  F   UNL     1       8.806  12.246   2.812  1.00  0.00    -0.206 F 
ATOM     89  C   UNL     1      10.227  13.836   1.888  1.00  0.00     0.059 A 
ATOM     90  C   UNL     1      10.361  14.127  -0.500  1.00  0.00     0.059 A 
ATOM     91  F   UNL     1       9.238  12.736  -1.932  1.00  0.00    -0.206 F 
ATOM     92  C   UNL     1      10.739  14.500   0.777  1.00  0.00     0.060 A 
BRANCH  92  93
ATOM     93  S   UNL     1      11.872  15.872   1.014  1.00  0.00     0.124 S 
ATOM     94  O   UNL     1      11.231  16.624   2.088  1.00  0.00    -0.237 OA
ATOM     95  O   UNL     1      13.100  15.172   1.377  1.00  0.00    -0.237 OA
ATOM     96  O   UNL     1      11.886  16.534  -0.287  1.00  0.00    -0.744 OA
ENDBRANCH  92  93
ENDBRANCH  60  85
ENDBRANCH  34  35
ENDBRANCH  26  29
ENDBRANCH  24  25
ENDBRANCH   1  24
TORSDOF 16
