REMARK SMILES CCOC(=O)[C@H]1CCCN(c2cc(C(=O)NCCCNC(=O)c3ccc(-c4c5nc(c(-c6c(F)cc(S(=O)(=O)[O-])cc6F)c6ccc([nH]6)c(-c6c(F)cc(S(=O)(=O)[O-])cc6F)c6nc(c(-c7c(F)cc(S(=O)(=O)[O-])cc7F)c7ccc4[nH]7)C=C6)C=C5)cc3)c3cc(NC(=O)c4ccc(Cl)cc4)ccc3n2)C1
REMARK SMILES IDX 17 1 16 2 14 3 15 4 13 6 11 7 12 8 105 9 104 10 89 11 103 12
REMARK SMILES IDX 90 13 102 14 91 15 10 16 6 17 7 18 106 19 8 20 9 21 4 22
REMARK SMILES IDX 5 23 3 24 2 25 1 26 92 27 93 28 94 30 95 31 96 32 101 33
REMARK SMILES IDX 97 34 100 35 98 36 99 37 18 38 19 39 20 40 21 41 22 43 23 44
REMARK SMILES IDX 24 45 88 46 25 47 87 48 26 49 27 50 28 51 81 52 29 53 86 54
REMARK SMILES IDX 80 55 82 56 30 57 85 58 79 59 78 60 31 62 65 63 44 64 64 65
REMARK SMILES IDX 45 66 48 67 63 68 83 69 46 70 47 71 62 73 84 74 49 75 32 76
REMARK SMILES IDX 33 77 42 78 34 79 35 80 41 81 43 82 36 83 37 84 38 85 39 86
REMARK SMILES IDX 40 87 66 88 67 89 76 90 68 91 69 92 75 93 77 94 70 95 71 96
REMARK SMILES IDX 72 97 73 98 74 99 50 100 51 101 60 102 52 103 53 104 59 105
REMARK SMILES IDX 61 106 54 107 55 108 56 109 57 110 58 111
REMARK H PARENT 16 5 92 29 20 42 82 61 48 72
REMARK Flexibility Score: inf
ROOT
ATOM      1  C   UNL     1       6.348   5.063  -1.810  1.00  0.00     0.118 C 
ENDROOT
BRANCH   1   2
ATOM      2  N   UNL     1       5.030   4.452  -1.714  1.00  0.00    -0.352 N 
ATOM      3  C   UNL     1       4.602   3.159  -1.516  1.00  0.00     0.252 C 
ATOM      4  O   UNL     1       3.384   2.995  -1.404  1.00  0.00    -0.269 OA
ATOM      5  H   UNL     1       4.292   5.097  -1.810  1.00  0.00     0.163 HD
BRANCH   3   6
ATOM      6  C   UNL     1       5.473   1.942  -1.475  1.00  0.00     0.052 A 
ATOM      7  C   UNL     1       5.526  -0.439  -1.902  1.00  0.00     0.130 A 
ATOM      8  C   UNL     1       4.887   0.788  -2.009  1.00  0.00     0.061 A 
ATOM      9  N   UNL     1       6.779  -0.523  -1.417  1.00  0.00    -0.231 NA
ATOM     10  C   UNL     1       7.366   0.567  -0.905  1.00  0.00     0.074 A 
ATOM     11  C   UNL     1       6.710   1.804  -0.818  1.00  0.00     0.015 A 
ATOM     12  C   UNL     1       8.646   0.448  -0.372  1.00  0.00     0.031 A 
ATOM     13  C   UNL     1       7.285   2.780   0.009  1.00  0.00     0.037 A 
ATOM     14  C   UNL     1       9.239   1.476   0.371  1.00  0.00     0.028 A 
ATOM     15  C   UNL     1       8.507   2.620   0.649  1.00  0.00     0.042 A 
BRANCH   7  16
ATOM     16  N   UNL     1       4.840  -1.603  -2.173  1.00  0.00    -0.356 N 
ATOM     17  C   UNL     1       2.763  -2.424  -3.139  1.00  0.00     0.118 C 
ATOM     18  C   UNL     1       2.941  -3.715  -2.320  1.00  0.00     0.019 C 
ATOM     19  C   UNL     1       4.119  -1.777  -3.426  1.00  0.00     0.133 C 
ATOM     20  C   UNL     1       3.777  -3.471  -1.060  1.00  0.00     0.022 C 
ATOM     21  C   UNL     1       5.115  -2.797  -1.386  1.00  0.00     0.118 C 
BRANCH  17  22
ATOM     22  C   UNL     1       2.065  -2.602  -4.470  1.00  0.00     0.310 C 
ATOM     23  O   UNL     1       1.867  -1.678  -5.249  1.00  0.00    -0.252 OA
BRANCH  22  24
ATOM     24  O   UNL     1       1.699  -3.891  -4.700  1.00  0.00    -0.466 OA
BRANCH  24  25
ATOM     25  C   UNL     1       1.078  -4.141  -5.969  1.00  0.00     0.229 C 
ATOM     26  C   UNL     1      -0.405  -3.832  -5.900  1.00  0.00     0.049 C 
ENDBRANCH  24  25
ENDBRANCH  22  24
ENDBRANCH  17  22
ENDBRANCH   7  16
BRANCH  15  27
ATOM     27  N   UNL     1       9.020   3.553   1.566  1.00  0.00    -0.322 N 
ATOM     28  C   UNL     1       8.406   4.555   2.299  1.00  0.00     0.255 C 
ATOM     29  H   UNL     1       9.990   3.482   1.715  1.00  0.00     0.170 HD
ATOM     30  O   UNL     1       9.102   5.391   2.872  1.00  0.00    -0.269 OA
BRANCH  28  31
ATOM     31  C   UNL     1       6.927   4.631   2.457  1.00  0.00     0.040 A 
ATOM     32  C   UNL     1       6.313   5.881   2.342  1.00  0.00     0.015 A 
ATOM     33  C   UNL     1       6.131   3.494   2.660  1.00  0.00     0.015 A 
ATOM     34  C   UNL     1       4.918   5.983   2.301  1.00  0.00     0.021 A 
ATOM     35  C   UNL     1       4.738   3.590   2.569  1.00  0.00     0.021 A 
ATOM     36  C   UNL     1       4.139   4.832   2.369  1.00  0.00     0.041 A 
ATOM     37  Cl  UNL     1       2.432   4.942   2.188  1.00  0.00    -0.084 Cl
ENDBRANCH  28  31
ENDBRANCH  15  27
ENDBRANCH   3   6
ENDBRANCH   1   2
BRANCH   1  38
ATOM     38  C   UNL     1       6.405   6.377  -2.576  1.00  0.00     0.042 C 
BRANCH  38  39
ATOM     39  C   UNL     1       5.545   7.501  -2.000  1.00  0.00     0.118 C 
BRANCH  39  40
ATOM     40  N   UNL     1       5.804   7.832  -0.596  1.00  0.00    -0.352 N 
ATOM     41  C   UNL     1       6.546   8.829  -0.001  1.00  0.00     0.251 C 
ATOM     42  H   UNL     1       5.365   7.226   0.043  1.00  0.00     0.163 HD
ATOM     43  O   UNL     1       6.625   8.909   1.222  1.00  0.00    -0.269 OA
BRANCH  41  44
ATOM     44  C   UNL     1       7.267   9.799  -0.831  1.00  0.00     0.039 A 
ATOM     45  C   UNL     1       8.628  10.050  -0.616  1.00  0.00     0.014 A 
ATOM     46  C   UNL     1       6.582  10.430  -1.859  1.00  0.00     0.014 A 
ATOM     47  C   UNL     1       9.333  10.835  -1.531  1.00  0.00     0.010 A 
ATOM     48  C   UNL     1       7.302  11.094  -2.828  1.00  0.00     0.010 A 
ATOM     49  C   UNL     1       8.686  11.299  -2.683  1.00  0.00    -0.014 A 
BRANCH  49  50
ATOM     50  C   UNL     1       9.354  12.013  -3.798  1.00  0.00     0.031 A 
ATOM     51  C   UNL     1       8.746  13.313  -4.245  1.00  0.00     0.074 A 
ATOM     52  C   UNL     1      10.285  11.384  -4.540  1.00  0.00     0.049 A 
ATOM     53  N   UNL     1       8.752  13.870  -5.424  1.00  0.00    -0.248 NA
ATOM     54  C   UNL     1       7.915  14.012  -3.248  1.00  0.00     0.031 C 
ATOM     55  C   UNL     1      10.910  10.098  -4.223  1.00  0.00     0.029 A 
ATOM     56  N   UNL     1      10.822  11.720  -5.756  1.00  0.00    -0.354 N 
ATOM     57  C   UNL     1       7.848  14.924  -5.338  1.00  0.00     0.074 A 
ATOM     58  C   UNL     1       7.290  14.901  -4.005  1.00  0.00     0.031 C 
ATOM     59  C   UNL     1      11.743   9.752  -5.219  1.00  0.00     0.029 A 
ATOM     60  C   UNL     1      11.661  10.758  -6.271  1.00  0.00     0.049 A 
ATOM     61  H   UNL     1      10.627  12.568  -6.217  1.00  0.00     0.167 HD
ATOM     62  C   UNL     1       7.526  15.826  -6.294  1.00  0.00     0.037 A 
ATOM     63  C   UNL     1      12.265  10.686  -7.472  1.00  0.00     0.037 A 
ATOM     64  C   UNL     1       8.186  15.874  -7.571  1.00  0.00     0.049 A 
ATOM     65  C   UNL     1      12.004  11.782  -8.469  1.00  0.00     0.074 A 
ATOM     66  C   UNL     1       8.040  16.800  -8.587  1.00  0.00     0.029 A 
ATOM     67  N   UNL     1       9.155  14.969  -7.985  1.00  0.00    -0.354 N 
ATOM     68  N   UNL     1      11.160  12.784  -8.383  1.00  0.00    -0.248 NA
ATOM     69  C   UNL     1      12.770  11.745  -9.721  1.00  0.00     0.031 C 
ATOM     70  C   UNL     1       8.920  16.453  -9.617  1.00  0.00     0.029 A 
ATOM     71  C   UNL     1       9.634  15.327  -9.230  1.00  0.00     0.049 A 
ATOM     72  H   UNL     1       9.456  14.187  -7.468  1.00  0.00     0.167 HD
ATOM     73  C   UNL     1      11.318  13.517  -9.552  1.00  0.00     0.074 A 
ATOM     74  C   UNL     1      12.338  12.841 -10.331  1.00  0.00     0.031 C 
ATOM     75  C   UNL     1      10.681  14.645  -9.950  1.00  0.00     0.037 A 
BRANCH  62  76
ATOM     76  C   UNL     1       6.449  16.831  -5.981  1.00  0.00     0.058 A 
ATOM     77  C   UNL     1       6.618  17.815  -4.994  1.00  0.00     0.135 A 
ATOM     78  C   UNL     1       5.228  16.813  -6.677  1.00  0.00     0.135 A 
ATOM     79  F   UNL     1       7.758  17.875  -4.288  1.00  0.00    -0.206 F 
ATOM     80  C   UNL     1       5.602  18.709  -4.671  1.00  0.00     0.059 A 
ATOM     81  C   UNL     1       4.210  17.722  -6.396  1.00  0.00     0.059 A 
ATOM     82  F   UNL     1       5.006  15.898  -7.635  1.00  0.00    -0.206 F 
ATOM     83  C   UNL     1       4.399  18.652  -5.375  1.00  0.00     0.060 A 
BRANCH  83  84
ATOM     84  S   UNL     1       3.091  19.817  -4.940  1.00  0.00     0.124 S 
ATOM     85  O   UNL     1       2.575  19.227  -3.709  1.00  0.00    -0.237 OA
ATOM     86  O   UNL     1       3.823  21.070  -4.783  1.00  0.00    -0.237 OA
ATOM     87  O   UNL     1       2.192  19.761  -6.089  1.00  0.00    -0.744 OA
ENDBRANCH  83  84
ENDBRANCH  62  76
BRANCH  63  88
ATOM     88  C   UNL     1      13.205   9.572  -7.769  1.00  0.00     0.058 A 
ATOM     89  C   UNL     1      14.589   9.802  -7.781  1.00  0.00     0.135 A 
ATOM     90  C   UNL     1      12.761   8.259  -7.992  1.00  0.00     0.135 A 
ATOM     91  F   UNL     1      15.062  11.040  -7.572  1.00  0.00    -0.206 F 
ATOM     92  C   UNL     1      15.499   8.777  -8.015  1.00  0.00     0.059 A 
ATOM     93  C   UNL     1      13.654   7.212  -8.209  1.00  0.00     0.059 A 
ATOM     94  F   UNL     1      11.448   7.979  -7.966  1.00  0.00    -0.206 F 
ATOM     95  C   UNL     1      15.022   7.482  -8.224  1.00  0.00     0.060 A 
BRANCH  95  96
ATOM     96  S   UNL     1      16.220   6.150  -8.463  1.00  0.00     0.124 S 
ATOM     97  O   UNL     1      16.689   6.416  -9.818  1.00  0.00    -0.237 OA
ATOM     98  O   UNL     1      17.180   6.405  -7.394  1.00  0.00    -0.237 OA
ATOM     99  O   UNL     1      15.415   4.943  -8.297  1.00  0.00    -0.744 OA
ENDBRANCH  95  96
ENDBRANCH  63  88
BRANCH  75 100
ATOM    100  C   UNL     1      11.110  15.258 -11.249  1.00  0.00     0.058 A 
ATOM    101  C   UNL     1      10.678  14.746 -12.480  1.00  0.00     0.135 A 
ATOM    102  C   UNL     1      11.870  16.439 -11.249  1.00  0.00     0.135 A 
ATOM    103  F   UNL     1       9.955  13.616 -12.526  1.00  0.00    -0.206 F 
ATOM    104  C   UNL     1      10.981  15.390 -13.673  1.00  0.00     0.059 A 
ATOM    105  C   UNL     1      12.168  17.109 -12.428  1.00  0.00     0.059 A 
ATOM    106  F   UNL     1      12.299  16.967 -10.091  1.00  0.00    -0.206 F 
ATOM    107  C   UNL     1      11.718  16.576 -13.636  1.00  0.00     0.060 A 
BRANCH 107 108
ATOM    108  S   UNL     1      12.031  17.448 -15.185  1.00  0.00     0.124 S 
ATOM    109  O   UNL     1      13.071  16.619 -15.784  1.00  0.00    -0.237 OA
ATOM    110  O   UNL     1      10.726  17.400 -15.839  1.00  0.00    -0.237 OA
ATOM    111  O   UNL     1      12.457  18.774 -14.748  1.00  0.00    -0.744 OA
ENDBRANCH 107 108
ENDBRANCH  75 100
ENDBRANCH  49  50
ENDBRANCH  41  44
ENDBRANCH  39  40
ENDBRANCH  38  39
ENDBRANCH   1  38
TORSDOF 19
