REMARK SMILES CC(C)OC(=O)c1c(NC(=O)[C@H]2[C@@H](C(=O)NCCCNC(=O)c3ccc(-c4c5nc(c(-c6c(F)cc(S(=O)(=O)[O-])cc6F)c6ccc([nH]6)c(-c6c(F)cc(S(=O)(=O)[O-])cc6F)c6nc(c(-c7c(F)cc(S(=O)(=O)[O-])cc7F)c7ccc4[nH]7)C=C6)C=C5)cc3)[C@@H]3C=C[C@H]2CC3)sc2c1CCC2
REMARK SMILES IDX 17 1 16 2 14 3 15 4 13 6 12 7 92 8 89 9 91 10 93 11 90 12
REMARK SMILES IDX 94 13 10 14 9 15 11 17 8 18 7 19 97 20 95 21 96 22 98 23
REMARK SMILES IDX 100 24 99 25 5 26 6 27 4 28 2 29 1 30 3 31 18 32 19 33 20 34
REMARK SMILES IDX 21 35 22 37 23 38 24 39 88 40 25 41 87 42 26 43 27 44 28 45
REMARK SMILES IDX 81 46 29 47 86 48 80 49 82 50 30 51 85 52 79 53 78 54 31 56
REMARK SMILES IDX 65 57 44 58 64 59 45 60 48 61 63 62 83 63 46 64 47 65 62 67
REMARK SMILES IDX 84 68 49 69 32 70 33 71 42 72 34 73 35 74 41 75 43 76 36 77
REMARK SMILES IDX 37 78 38 79 39 80 40 81 66 82 67 83 76 84 68 85 69 86 75 87
REMARK SMILES IDX 77 88 70 89 71 90 72 91 73 92 74 93 50 94 51 95 60 96 52 97
REMARK SMILES IDX 53 98 59 99 61 100 54 101 55 102 56 103 57 104 58 105
REMARK H PARENT 16 5 9 16 20 36 82 55 48 66
REMARK Flexibility Score: inf
ROOT
ATOM      1  C   UNL     1      -9.578   2.160   2.894  1.00  0.00     0.117 C 
ENDROOT
BRANCH   1   2
ATOM      2  N   UNL     1      -8.574   1.767   1.925  1.00  0.00    -0.356 N 
ATOM      3  C   UNL     1      -7.420   1.066   1.994  1.00  0.00     0.224 C 
ATOM      4  O   UNL     1      -6.691   1.145   0.998  1.00  0.00    -0.275 OA
ATOM      5  H   UNL     1      -8.778   2.080   1.014  1.00  0.00     0.163 HD
BRANCH   3   6
ATOM      6  C   UNL     1      -6.912   0.336   3.233  1.00  0.00     0.098 C 
ATOM      7  C   UNL     1      -6.187  -1.016   2.908  1.00  0.00     0.099 C 
ATOM      8  C   UNL     1      -6.748  -2.163   3.807  1.00  0.00     0.025 C 
ATOM      9  C   UNL     1      -7.807   0.100   4.470  1.00  0.00     0.025 C 
ATOM     10  C   UNL     1      -6.457  -1.754   5.234  1.00  0.00    -0.027 C 
ATOM     11  C   UNL     1      -8.285  -2.247   3.677  1.00  0.00     0.009 C 
ATOM     12  C   UNL     1      -6.978  -0.564   5.568  1.00  0.00    -0.027 C 
ATOM     13  C   UNL     1      -8.916  -0.907   4.090  1.00  0.00     0.009 C 
BRANCH   7  14
ATOM     14  C   UNL     1      -6.090  -1.558   1.486  1.00  0.00     0.229 C 
ATOM     15  N   UNL     1      -4.906  -2.055   0.990  1.00  0.00    -0.317 N 
ATOM     16  H   UNL     1      -4.941  -2.277   0.031  1.00  0.00     0.170 HD
ATOM     17  O   UNL     1      -7.098  -1.640   0.776  1.00  0.00    -0.274 OA
BRANCH  15  18
ATOM     18  C   UNL     1      -3.669  -2.307   1.577  1.00  0.00     0.110 A 
ATOM     19  C   UNL     1      -2.470  -2.638   0.932  1.00  0.00     0.098 A 
ATOM     20  C   UNL     1      -1.394  -2.607   1.877  1.00  0.00    -0.017 A 
ATOM     21  S   UNL     1      -3.473  -2.404   3.281  1.00  0.00    -0.122 S 
ATOM     22  C   UNL     1      -1.834  -2.335   3.139  1.00  0.00     0.011 A 
ATOM     23  C   UNL     1       0.088  -2.716   1.875  1.00  0.00     0.038 C 
ATOM     24  C   UNL     1      -0.779  -2.123   4.145  1.00  0.00     0.047 C 
ATOM     25  C   UNL     1       0.419  -2.777   3.410  1.00  0.00     0.010 C 
BRANCH  19  26
ATOM     26  C   UNL     1      -2.385  -2.906  -0.493  1.00  0.00     0.341 C 
ATOM     27  O   UNL     1      -3.135  -2.372  -1.313  1.00  0.00    -0.246 OA
BRANCH  26  28
ATOM     28  O   UNL     1      -1.486  -3.884  -0.778  1.00  0.00    -0.459 OA
BRANCH  28  29
ATOM     29  C   UNL     1      -1.367  -4.387  -2.127  1.00  0.00     0.170 C 
ATOM     30  C   UNL     1      -2.686  -4.861  -2.738  1.00  0.00     0.052 C 
ATOM     31  C   UNL     1      -0.619  -3.397  -3.008  1.00  0.00     0.052 C 
ENDBRANCH  28  29
ENDBRANCH  26  28
ENDBRANCH  19  26
ENDBRANCH  15  18
ENDBRANCH   7  14
ENDBRANCH   3   6
ENDBRANCH   1   2
BRANCH   1  32
ATOM     32  C   UNL     1      -9.331   3.560   3.452  1.00  0.00     0.042 C 
BRANCH  32  33
ATOM     33  C   UNL     1      -9.998   4.600   2.572  1.00  0.00     0.118 C 
BRANCH  33  34
ATOM     34  N   UNL     1     -11.458   4.437   2.576  1.00  0.00    -0.352 N 
ATOM     35  C   UNL     1     -12.403   5.052   1.786  1.00  0.00     0.251 C 
ATOM     36  H   UNL     1     -11.810   3.798   3.238  1.00  0.00     0.163 HD
ATOM     37  O   UNL     1     -13.588   5.036   2.100  1.00  0.00    -0.269 OA
BRANCH  35  38
ATOM     38  C   UNL     1     -11.952   5.732   0.566  1.00  0.00     0.039 A 
ATOM     39  C   UNL     1     -12.419   7.005   0.239  1.00  0.00     0.014 A 
ATOM     40  C   UNL     1     -10.979   5.098  -0.202  1.00  0.00     0.014 A 
ATOM     41  C   UNL     1     -11.822   7.674  -0.822  1.00  0.00     0.010 A 
ATOM     42  C   UNL     1     -10.270   5.826  -1.119  1.00  0.00     0.010 A 
ATOM     43  C   UNL     1     -10.723   7.089  -1.475  1.00  0.00    -0.014 A 
BRANCH  43  44
ATOM     44  C   UNL     1      -9.937   7.850  -2.436  1.00  0.00     0.031 A 
ATOM     45  C   UNL     1      -9.455   9.152  -1.903  1.00  0.00     0.074 A 
ATOM     46  C   UNL     1      -9.511   7.338  -3.611  1.00  0.00     0.049 A 
ATOM     47  N   UNL     1      -9.917  10.323  -2.189  1.00  0.00    -0.248 NA
ATOM     48  C   UNL     1      -8.511   9.152  -0.772  1.00  0.00     0.031 C 
ATOM     49  C   UNL     1      -9.648   5.967  -4.113  1.00  0.00     0.029 A 
ATOM     50  N   UNL     1      -8.757   7.926  -4.577  1.00  0.00    -0.354 N 
ATOM     51  C   UNL     1      -9.119  11.222  -1.491  1.00  0.00     0.074 A 
ATOM     52  C   UNL     1      -8.463  10.453  -0.468  1.00  0.00     0.031 C 
ATOM     53  C   UNL     1      -8.801   5.774  -5.147  1.00  0.00     0.029 A 
ATOM     54  C   UNL     1      -8.184   7.041  -5.490  1.00  0.00     0.049 A 
ATOM     55  H   UNL     1      -8.626   8.900  -4.629  1.00  0.00     0.167 HD
ATOM     56  C   UNL     1      -8.851  12.455  -2.008  1.00  0.00     0.037 A 
ATOM     57  C   UNL     1      -7.242   7.338  -6.425  1.00  0.00     0.037 A 
ATOM     58  C   UNL     1      -9.750  12.753  -3.102  1.00  0.00     0.049 A 
ATOM     59  C   UNL     1      -7.303   8.813  -6.638  1.00  0.00     0.074 A 
ATOM     60  C   UNL     1     -11.126  12.783  -3.240  1.00  0.00     0.029 A 
ATOM     61  N   UNL     1      -9.249  12.653  -4.380  1.00  0.00    -0.354 N 
ATOM     62  N   UNL     1      -8.326   9.419  -7.180  1.00  0.00    -0.248 NA
ATOM     63  C   UNL     1      -6.471   9.648  -5.783  1.00  0.00     0.031 C 
ATOM     64  C   UNL     1     -11.377  12.186  -4.511  1.00  0.00     0.029 A 
ATOM     65  C   UNL     1     -10.148  11.930  -5.120  1.00  0.00     0.049 A 
ATOM     66  H   UNL     1      -8.400  13.033  -4.703  1.00  0.00     0.167 HD
ATOM     67  C   UNL     1      -8.529  10.545  -6.394  1.00  0.00     0.074 A 
ATOM     68  C   UNL     1      -7.311  10.670  -5.592  1.00  0.00     0.031 C 
ATOM     69  C   UNL     1      -9.773  11.091  -6.237  1.00  0.00     0.037 A 
BRANCH  56  70
ATOM     70  C   UNL     1      -7.552  13.208  -1.819  1.00  0.00     0.058 A 
ATOM     71  C   UNL     1      -7.448  14.520  -2.330  1.00  0.00     0.135 A 
ATOM     72  C   UNL     1      -6.332  12.615  -1.425  1.00  0.00     0.135 A 
ATOM     73  F   UNL     1      -8.542  15.186  -2.734  1.00  0.00    -0.206 F 
ATOM     74  C   UNL     1      -6.221  15.155  -2.519  1.00  0.00     0.059 A 
ATOM     75  C   UNL     1      -5.104  13.252  -1.554  1.00  0.00     0.059 A 
ATOM     76  F   UNL     1      -6.250  11.356  -0.982  1.00  0.00    -0.206 F 
ATOM     77  C   UNL     1      -5.053  14.504  -2.140  1.00  0.00     0.060 A 
BRANCH  77  78
ATOM     78  S   UNL     1      -3.463  15.287  -2.456  1.00  0.00     0.124 S 
ATOM     79  O   UNL     1      -3.399  15.239  -3.911  1.00  0.00    -0.237 OA
ATOM     80  O   UNL     1      -3.658  16.607  -1.865  1.00  0.00    -0.237 OA
ATOM     81  O   UNL     1      -2.520  14.424  -1.751  1.00  0.00    -0.744 OA
ENDBRANCH  77  78
ENDBRANCH  56  70
BRANCH  57  82
ATOM     82  C   UNL     1      -6.091   6.501  -6.872  1.00  0.00     0.058 A 
ATOM     83  C   UNL     1      -5.291   6.877  -7.968  1.00  0.00     0.135 A 
ATOM     84  C   UNL     1      -5.575   5.465  -6.066  1.00  0.00     0.135 A 
ATOM     85  F   UNL     1      -5.689   7.865  -8.785  1.00  0.00    -0.206 F 
ATOM     86  C   UNL     1      -4.036   6.303  -8.215  1.00  0.00     0.059 A 
ATOM     87  C   UNL     1      -4.334   4.870  -6.298  1.00  0.00     0.059 A 
ATOM     88  F   UNL     1      -6.221   5.056  -4.964  1.00  0.00    -0.206 F 
ATOM     89  C   UNL     1      -3.554   5.314  -7.358  1.00  0.00     0.060 A 
BRANCH  89  90
ATOM     90  S   UNL     1      -1.860   4.707  -7.550  1.00  0.00     0.124 S 
ATOM     91  O   UNL     1      -1.948   3.942  -8.789  1.00  0.00    -0.237 OA
ATOM     92  O   UNL     1      -1.092   5.945  -7.620  1.00  0.00    -0.237 OA
ATOM     93  O   UNL     1      -1.643   3.914  -6.342  1.00  0.00    -0.744 OA
ENDBRANCH  89  90
ENDBRANCH  57  82
BRANCH  69  94
ATOM     94  C   UNL     1     -10.883  10.658  -7.162  1.00  0.00     0.058 A 
ATOM     95  C   UNL     1     -11.354   9.341  -7.309  1.00  0.00     0.135 A 
ATOM     96  C   UNL     1     -11.594  11.665  -7.835  1.00  0.00     0.135 A 
ATOM     97  F   UNL     1     -10.817   8.331  -6.611  1.00  0.00    -0.206 F 
ATOM     98  C   UNL     1     -12.437   9.034  -8.139  1.00  0.00     0.059 A 
ATOM     99  C   UNL     1     -12.698  11.389  -8.634  1.00  0.00     0.059 A 
ATOM    100  F   UNL     1     -11.242  12.953  -7.686  1.00  0.00    -0.206 F 
ATOM    101  C   UNL     1     -13.098  10.067  -8.804  1.00  0.00     0.060 A 
BRANCH 101 102
ATOM    102  S   UNL     1     -14.504   9.682  -9.869  1.00  0.00     0.124 S 
ATOM    103  O   UNL     1     -13.864   8.987 -10.981  1.00  0.00    -0.237 OA
ATOM    104  O   UNL     1     -15.343   8.857  -9.004  1.00  0.00    -0.237 OA
ATOM    105  O   UNL     1     -15.059  10.995 -10.192  1.00  0.00    -0.744 OA
ENDBRANCH 101 102
ENDBRANCH  69  94
ENDBRANCH  43  44
ENDBRANCH  35  38
ENDBRANCH  33  34
ENDBRANCH  32  33
ENDBRANCH   1  32
TORSDOF 18
