REMARK SMILES CC(C)(CNC(=O)[C@H]1CCC[C@H](C(=O)NCCCNC(=O)c2ccc(-c3c4nc(c(-c5c(F)cc(S(=O)(=O)[O-])cc5F)c5ccc([nH]5)c(-c5c(F)cc(S(=O)(=O)[O-])cc5F)c5nc(c(-c6c(F)cc(S(=O)(=O)[O-])cc6F)c6ccc3[nH]6)C=C5)C=C4)cc2)C1)S(C)(=O)=O
REMARK SMILES IDX 16 1 15 2 13 3 14 4 12 6 8 7 9 8 88 9 10 10 11 11 6 12 5 13
REMARK SMILES IDX 7 15 4 16 2 17 1 18 3 19 89 20 90 21 91 22 92 23 17 24 18 25
REMARK SMILES IDX 19 26 20 27 21 29 22 30 23 31 87 32 24 33 86 34 25 35 26 36
REMARK SMILES IDX 27 37 80 38 28 39 85 40 79 41 81 42 29 43 84 44 78 45 77 46
REMARK SMILES IDX 30 48 64 49 43 50 63 51 44 52 47 53 62 54 82 55 45 56 46 57
REMARK SMILES IDX 61 59 83 60 48 61 31 62 32 63 41 64 33 65 34 66 40 67 42 68
REMARK SMILES IDX 35 69 36 70 37 71 38 72 39 73 65 74 66 75 75 76 67 77 68 78
REMARK SMILES IDX 74 79 76 80 69 81 70 82 71 83 72 84 73 85 49 86 50 87 59 88
REMARK SMILES IDX 51 89 52 90 58 91 60 92 53 93 54 94 55 95 56 96 57 97
REMARK H PARENT 15 5 5 14 19 28 81 47 47 58
REMARK Flexibility Score: inf
ROOT
ATOM      1  C   UNL     1      -2.845   4.159   5.971  1.00  0.00     0.117 C 
ENDROOT
BRANCH   1   2
ATOM      2  N   UNL     1      -4.236   4.513   5.725  1.00  0.00    -0.356 N 
ATOM      3  C   UNL     1      -4.911   4.744   4.564  1.00  0.00     0.223 C 
ATOM      4  O   UNL     1      -6.106   5.037   4.644  1.00  0.00    -0.275 OA
ATOM      5  H   UNL     1      -4.783   4.602   6.538  1.00  0.00     0.163 HD
BRANCH   3   6
ATOM      6  C   UNL     1      -4.228   4.611   3.206  1.00  0.00     0.079 C 
ATOM      7  C   UNL     1      -2.749   2.923   1.912  1.00  0.00     0.079 C 
ATOM      8  C   UNL     1      -1.613   3.940   2.015  1.00  0.00     0.013 C 
ATOM      9  C   UNL     1      -3.835   3.146   2.963  1.00  0.00     0.027 C 
ATOM     10  C   UNL     1      -2.135   5.367   1.920  1.00  0.00     0.002 C 
ATOM     11  C   UNL     1      -3.131   5.669   3.027  1.00  0.00     0.013 C 
BRANCH   7  12
ATOM     12  C   UNL     1      -3.320   2.934   0.499  1.00  0.00     0.223 C 
ATOM     13  N   UNL     1      -2.669   2.248  -0.486  1.00  0.00    -0.354 N 
ATOM     14  H   UNL     1      -3.031   2.363  -1.395  1.00  0.00     0.163 HD
ATOM     15  O   UNL     1      -4.339   3.548   0.189  1.00  0.00    -0.275 OA
BRANCH  13  16
ATOM     16  C   UNL     1      -1.517   1.373  -0.376  1.00  0.00     0.138 C 
BRANCH  16  17
ATOM     17  C   UNL     1      -1.765  -0.078  -0.828  1.00  0.00     0.084 C 
ATOM     18  C   UNL     1      -2.220  -0.139  -2.292  1.00  0.00     0.030 C 
ATOM     19  C   UNL     1      -0.420  -0.830  -0.703  1.00  0.00     0.030 C 
BRANCH  17  20
ATOM     20  S   UNL     1      -2.953  -0.943   0.263  1.00  0.00     0.154 S 
ATOM     21  C   UNL     1      -4.565  -0.221   0.028  1.00  0.00     0.158 C 
ATOM     22  O   UNL     1      -3.055  -2.313  -0.218  1.00  0.00    -0.229 OA
ATOM     23  O   UNL     1      -2.567  -0.695   1.638  1.00  0.00    -0.229 OA
ENDBRANCH  17  20
ENDBRANCH  16  17
ENDBRANCH  13  16
ENDBRANCH   7  12
ENDBRANCH   3   6
ENDBRANCH   1   2
BRANCH   1  24
ATOM     24  C   UNL     1      -2.065   5.290   6.626  1.00  0.00     0.042 C 
BRANCH  24  25
ATOM     25  C   UNL     1      -2.567   5.652   8.012  1.00  0.00     0.118 C 
BRANCH  25  26
ATOM     26  N   UNL     1      -2.383   4.571   8.968  1.00  0.00    -0.352 N 
ATOM     27  C   UNL     1      -1.625   4.533  10.112  1.00  0.00     0.251 C 
ATOM     28  H   UNL     1      -2.876   3.743   8.764  1.00  0.00     0.163 HD
ATOM     29  O   UNL     1      -1.429   3.457  10.671  1.00  0.00    -0.269 OA
BRANCH  27  30
ATOM     30  C   UNL     1      -1.034   5.776  10.655  1.00  0.00     0.039 A 
ATOM     31  C   UNL     1       0.254   5.736  11.194  1.00  0.00     0.014 A 
ATOM     32  C   UNL     1      -1.753   6.974  10.652  1.00  0.00     0.014 A 
ATOM     33  C   UNL     1       0.834   6.908  11.685  1.00  0.00     0.010 A 
ATOM     34  C   UNL     1      -1.135   8.156  11.039  1.00  0.00     0.010 A 
ATOM     35  C   UNL     1       0.155   8.133  11.587  1.00  0.00    -0.014 A 
BRANCH  35  36
ATOM     36  C   UNL     1       0.750   9.394  12.100  1.00  0.00     0.031 A 
ATOM     37  C   UNL     1       0.060  10.147  13.209  1.00  0.00     0.074 A 
ATOM     38  C   UNL     1       1.871   9.887  11.539  1.00  0.00     0.049 A 
ATOM     39  N   UNL     1       0.376  11.296  13.749  1.00  0.00    -0.248 NA
ATOM     40  C   UNL     1      -1.166   9.546  13.760  1.00  0.00     0.031 C 
ATOM     41  C   UNL     1       2.603   9.275  10.427  1.00  0.00     0.029 A 
ATOM     42  N   UNL     1       2.588  11.022  11.821  1.00  0.00    -0.354 N 
ATOM     43  C   UNL     1      -0.618  11.560  14.686  1.00  0.00     0.074 A 
ATOM     44  C   UNL     1      -1.582  10.487  14.593  1.00  0.00     0.031 C 
ATOM     45  C   UNL     1       3.679  10.025  10.143  1.00  0.00     0.029 A 
ATOM     46  C   UNL     1       3.693  11.191  11.020  1.00  0.00     0.049 A 
ATOM     47  H   UNL     1       2.336  11.655  12.531  1.00  0.00     0.167 HD
ATOM     48  C   UNL     1      -0.705  12.586  15.565  1.00  0.00     0.037 A 
ATOM     49  C   UNL     1       4.611  12.178  10.994  1.00  0.00     0.037 A 
ATOM     50  C   UNL     1       0.275  13.635  15.670  1.00  0.00     0.049 A 
ATOM     51  C   UNL     1       4.498  13.305  11.986  1.00  0.00     0.074 A 
ATOM     52  C   UNL     1       0.310  14.695  16.558  1.00  0.00     0.029 A 
ATOM     53  N   UNL     1       1.397  13.755  14.861  1.00  0.00    -0.354 N 
ATOM     54  N   UNL     1       3.580  13.511  12.901  1.00  0.00    -0.248 NA
ATOM     55  C   UNL     1       5.552  14.327  11.951  1.00  0.00     0.031 C 
ATOM     56  C   UNL     1       1.425  15.482  16.255  1.00  0.00     0.029 A 
ATOM     57  C   UNL     1       2.121  14.879  15.220  1.00  0.00     0.049 A 
ATOM     58  H   UNL     1       1.641  13.132  14.138  1.00  0.00     0.167 HD
ATOM     59  C   UNL     1       3.970  14.662  13.578  1.00  0.00     0.074 A 
ATOM     60  C   UNL     1       5.208  15.102  12.969  1.00  0.00     0.031 C 
ATOM     61  C   UNL     1       3.362  15.294  14.613  1.00  0.00     0.037 A 
BRANCH  48  62
ATOM     62  C   UNL     1      -1.897  12.620  16.484  1.00  0.00     0.058 A 
ATOM     63  C   UNL     1      -2.075  11.668  17.502  1.00  0.00     0.135 A 
ATOM     64  C   UNL     1      -2.863  13.633  16.363  1.00  0.00     0.135 A 
ATOM     65  F   UNL     1      -1.194  10.666  17.654  1.00  0.00    -0.206 F 
ATOM     66  C   UNL     1      -3.182  11.699  18.344  1.00  0.00     0.059 A 
ATOM     67  C   UNL     1      -3.961  13.703  17.216  1.00  0.00     0.059 A 
ATOM     68  F   UNL     1      -2.746  14.568  15.408  1.00  0.00    -0.206 F 
ATOM     69  C   UNL     1      -4.119  12.722  18.194  1.00  0.00     0.060 A 
BRANCH  69  70
ATOM     70  S   UNL     1      -5.545  12.751  19.300  1.00  0.00     0.124 S 
ATOM     71  O   UNL     1      -6.322  11.619  18.805  1.00  0.00    -0.237 OA
ATOM     72  O   UNL     1      -4.927  12.571  20.610  1.00  0.00    -0.237 OA
ATOM     73  O   UNL     1      -6.133  14.066  19.064  1.00  0.00    -0.744 OA
ENDBRANCH  69  70
ENDBRANCH  48  62
BRANCH  49  74
ATOM     74  C   UNL     1       5.733  12.126  10.018  1.00  0.00     0.058 A 
ATOM     75  C   UNL     1       7.051  11.902  10.443  1.00  0.00     0.135 A 
ATOM     76  C   UNL     1       5.511  12.291   8.642  1.00  0.00     0.135 A 
ATOM     77  F   UNL     1       7.317  11.742  11.749  1.00  0.00    -0.206 F 
ATOM     78  C   UNL     1       8.113  11.866   9.544  1.00  0.00     0.059 A 
ATOM     79  C   UNL     1       6.552  12.230   7.720  1.00  0.00     0.059 A 
ATOM     80  F   UNL     1       4.267  12.489   8.180  1.00  0.00    -0.206 F 
ATOM     81  C   UNL     1       7.852  12.029   8.183  1.00  0.00     0.060 A 
BRANCH  81  82
ATOM     82  S   UNL     1       9.231  11.936   7.020  1.00  0.00     0.124 S 
ATOM     83  O   UNL     1       9.926  13.189   7.289  1.00  0.00    -0.237 OA
ATOM     84  O   UNL     1       9.913  10.720   7.452  1.00  0.00    -0.237 OA
ATOM     85  O   UNL     1       8.569  11.847   5.722  1.00  0.00    -0.744 OA
ENDBRANCH  81  82
ENDBRANCH  49  74
BRANCH  61  86
ATOM     86  C   UNL     1       4.058  16.493  15.198  1.00  0.00     0.058 A 
ATOM     87  C   UNL     1       4.155  17.712  14.509  1.00  0.00     0.135 A 
ATOM     88  C   UNL     1       4.607  16.426  16.491  1.00  0.00     0.135 A 
ATOM     89  F   UNL     1       3.650  17.830  13.271  1.00  0.00    -0.206 F 
ATOM     90  C   UNL     1       4.806  18.810  15.064  1.00  0.00     0.059 A 
ATOM     91  C   UNL     1       5.231  17.521  17.078  1.00  0.00     0.059 A 
ATOM     92  F   UNL     1       4.529  15.290  17.201  1.00  0.00    -0.206 F 
ATOM     93  C   UNL     1       5.342  18.704  16.349  1.00  0.00     0.060 A 
BRANCH  93  94
ATOM     94  S   UNL     1       6.175  20.138  17.061  1.00  0.00     0.124 S 
ATOM     95  O   UNL     1       7.422  20.159  16.303  1.00  0.00    -0.237 OA
ATOM     96  O   UNL     1       5.238  21.219  16.770  1.00  0.00    -0.237 OA
ATOM     97  O   UNL     1       6.303  19.791  18.473  1.00  0.00    -0.744 OA
ENDBRANCH  93  94
ENDBRANCH  61  86
ENDBRANCH  35  36
ENDBRANCH  27  30
ENDBRANCH  25  26
ENDBRANCH  24  25
ENDBRANCH   1  24
TORSDOF 17
