REMARK SMILES CC(C)(C)OC(=O)N1CCC(n2c(=S)[nH]c3cc(C(=O)NCCCNC(=O)c4ccc(-c5c6nc(c(-c7c(F)cc(S(=O)(=O)[O-])cc7F)c7ccc([nH]7)c(-c7c(F)cc(S(=O)(=O)[O-])cc7F)c7nc(c(-c8c(F)cc(S(=O)(=O)[O-])cc8F)c8ccc5[nH]8)C=C7)C=C6)cc4)ccc3c2=O)CC1
REMARK SMILES IDX 23 1 22 2 21 3 19 4 20 5 18 7 12 8 13 9 97 10 14 11 15 12
REMARK SMILES IDX 96 13 98 14 16 15 95 17 17 18 94 19 11 20 6 21 7 22 8 23
REMARK SMILES IDX 9 24 100 25 10 26 99 27 5 28 2 29 1 30 3 31 4 32 24 33 25 34
REMARK SMILES IDX 26 35 27 37 28 38 29 39 93 40 30 41 92 42 31 43 32 44 33 45
REMARK SMILES IDX 86 46 34 47 91 48 85 49 87 50 35 51 90 52 84 53 83 54 36 56
REMARK SMILES IDX 70 57 49 58 69 59 50 60 53 61 68 62 88 63 51 64 52 65 67 67
REMARK SMILES IDX 89 68 54 69 37 70 38 71 47 72 39 73 40 74 46 75 48 76 41 77
REMARK SMILES IDX 42 78 43 79 44 80 45 81 71 82 72 83 81 84 73 85 74 86 80 87
REMARK SMILES IDX 82 88 75 89 76 90 77 91 78 92 79 93 55 94 56 95 65 96 57 97
REMARK SMILES IDX 58 98 64 99 66 100 59 101 60 102 61 103 62 104 63 105
REMARK H PARENT 21 6 15 16 25 36 87 55 53 66
REMARK Flexibility Score: inf
ROOT
ATOM      1  C   UNL     1       4.873   5.943 -13.026  1.00  0.00     0.042 C 
ENDROOT
BRANCH   1   2
ATOM      2  C   UNL     1       5.051   7.340 -12.436  1.00  0.00     0.118 C 
BRANCH   2   3
ATOM      3  N   UNL     1       3.831   8.119 -12.574  1.00  0.00    -0.352 N 
ATOM      4  C   UNL     1       2.772   8.340 -11.730  1.00  0.00     0.251 C 
ATOM      5  O   UNL     1       1.879   9.092 -12.121  1.00  0.00    -0.269 OA
ATOM      6  H   UNL     1       3.749   8.577 -13.441  1.00  0.00     0.163 HD
BRANCH   4   7
ATOM      7  C   UNL     1       2.690   7.779 -10.351  1.00  0.00     0.041 A 
ATOM      8  N   UNL     1       1.598   7.112  -5.472  1.00  0.00    -0.282 N 
ATOM      9  C   UNL     1       0.830   8.219  -5.874  1.00  0.00     0.180 A 
ATOM     10  C   UNL     1       2.657   6.660  -6.258  1.00  0.00     0.262 A 
ATOM     11  S   UNL     1      -0.283   9.076  -4.951  1.00  0.00    -0.040 S 
ATOM     12  N   UNL     1       0.991   8.656  -7.168  1.00  0.00    -0.332 N 
ATOM     13  C   UNL     1       2.618   6.989  -7.680  1.00  0.00     0.064 A 
ATOM     14  O   UNL     1       3.659   6.073  -5.858  1.00  0.00    -0.269 OA
ATOM     15  C   UNL     1       1.824   8.039  -8.097  1.00  0.00     0.054 A 
ATOM     16  H   UNL     1       0.488   9.453  -7.454  1.00  0.00     0.169 HD
ATOM     17  C   UNL     1       3.374   6.261  -8.590  1.00  0.00     0.017 A 
ATOM     18  C   UNL     1       1.871   8.458  -9.427  1.00  0.00     0.040 A 
ATOM     19  C   UNL     1       3.368   6.631  -9.930  1.00  0.00     0.015 A 
BRANCH   8  20
ATOM     20  C   UNL     1       1.286   6.373  -4.207  1.00  0.00     0.097 C 
ATOM     21  C   UNL     1       0.331   2.688  -2.721  1.00  0.00     0.410 C 
ATOM     22  O   UNL     1      -0.495   2.225  -3.491  1.00  0.00    -0.224 OA
ATOM     23  N   UNL     1       0.585   4.044  -2.640  1.00  0.00    -0.308 N 
ATOM     24  C   UNL     1      -0.441   4.953  -3.098  1.00  0.00     0.125 C 
ATOM     25  C   UNL     1       1.899   4.618  -2.406  1.00  0.00     0.125 C 
ATOM     26  C   UNL     1      -0.024   5.581  -4.409  1.00  0.00     0.047 C 
ATOM     27  C   UNL     1       2.360   5.388  -3.655  1.00  0.00     0.047 C 
BRANCH  21  28
ATOM     28  O   UNL     1       0.976   1.983  -1.753  1.00  0.00    -0.444 OA
BRANCH  28  29
ATOM     29  C   UNL     1       0.519   0.631  -1.463  1.00  0.00     0.106 C 
ATOM     30  C   UNL     1       1.163   0.261  -0.117  1.00  0.00     0.056 C 
ATOM     31  C   UNL     1       1.011  -0.341  -2.537  1.00  0.00     0.056 C 
ATOM     32  C   UNL     1      -1.008   0.547  -1.271  1.00  0.00     0.056 C 
ENDBRANCH  28  29
ENDBRANCH  21  28
ENDBRANCH   8  20
ENDBRANCH   4   7
ENDBRANCH   2   3
ENDBRANCH   1   2
BRANCH   1  33
ATOM     33  C   UNL     1       4.945   5.938 -14.546  1.00  0.00     0.118 C 
BRANCH  33  34
ATOM     34  N   UNL     1       6.296   6.197 -15.033  1.00  0.00    -0.352 N 
ATOM     35  C   UNL     1       7.080   5.433 -15.866  1.00  0.00     0.251 C 
ATOM     36  H   UNL     1       6.704   7.037 -14.722  1.00  0.00     0.163 HD
ATOM     37  O   UNL     1       8.266   5.705 -16.019  1.00  0.00    -0.269 OA
BRANCH  35  38
ATOM     38  C   UNL     1       6.481   4.264 -16.540  1.00  0.00     0.039 A 
ATOM     39  C   UNL     1       5.228   4.379 -17.145  1.00  0.00     0.014 A 
ATOM     40  C   UNL     1       7.137   3.032 -16.496  1.00  0.00     0.014 A 
ATOM     41  C   UNL     1       4.544   3.231 -17.516  1.00  0.00     0.010 A 
ATOM     42  C   UNL     1       6.484   1.891 -16.967  1.00  0.00     0.010 A 
ATOM     43  C   UNL     1       5.157   1.971 -17.419  1.00  0.00    -0.014 A 
BRANCH  43  44
ATOM     44  C   UNL     1       4.373   0.752 -17.750  1.00  0.00     0.031 A 
ATOM     45  C   UNL     1       4.090  -0.284 -16.691  1.00  0.00     0.074 A 
ATOM     46  C   UNL     1       3.859   0.613 -18.988  1.00  0.00     0.049 A 
ATOM     47  N   UNL     1       3.443  -1.417 -16.799  1.00  0.00    -0.248 NA
ATOM     48  C   UNL     1       4.597  -0.018 -15.333  1.00  0.00     0.031 C 
ATOM     49  C   UNL     1       4.040   1.565 -20.088  1.00  0.00     0.029 A 
ATOM     50  N   UNL     1       3.063  -0.365 -19.527  1.00  0.00    -0.354 N 
ATOM     51  C   UNL     1       3.482  -2.003 -15.538  1.00  0.00     0.074 A 
ATOM     52  C   UNL     1       4.243  -1.119 -14.684  1.00  0.00     0.031 C 
ATOM     53  C   UNL     1       3.339   1.148 -21.152  1.00  0.00     0.029 A 
ATOM     54  C   UNL     1       2.723  -0.136 -20.840  1.00  0.00     0.049 A 
ATOM     55  H   UNL     1       2.764  -1.156 -19.023  1.00  0.00     0.167 HD
ATOM     56  C   UNL     1       2.918  -3.164 -15.128  1.00  0.00     0.037 A 
ATOM     57  C   UNL     1       2.017  -0.888 -21.706  1.00  0.00     0.037 A 
ATOM     58  C   UNL     1       2.133  -4.023 -15.978  1.00  0.00     0.049 A 
ATOM     59  C   UNL     1       1.460  -2.204 -21.239  1.00  0.00     0.074 A 
ATOM     60  C   UNL     1       1.505  -5.212 -15.650  1.00  0.00     0.029 A 
ATOM     61  N   UNL     1       1.861  -3.784 -17.317  1.00  0.00    -0.354 N 
ATOM     62  N   UNL     1       1.510  -2.742 -20.044  1.00  0.00    -0.248 NA
ATOM     63  C   UNL     1       0.762  -3.021 -22.240  1.00  0.00     0.031 C 
ATOM     64  C   UNL     1       0.898  -5.718 -16.803  1.00  0.00     0.029 A 
ATOM     65  C   UNL     1       1.098  -4.817 -17.835  1.00  0.00     0.049 A 
ATOM     66  H   UNL     1       2.166  -2.997 -17.824  1.00  0.00     0.167 HD
ATOM     67  C   UNL     1       0.836  -3.954 -20.146  1.00  0.00     0.074 A 
ATOM     68  C   UNL     1       0.365  -4.056 -21.511  1.00  0.00     0.031 C 
ATOM     69  C   UNL     1       0.633  -4.901 -19.197  1.00  0.00     0.037 A 
BRANCH  56  70
ATOM     70  C   UNL     1       3.118  -3.592 -13.699  1.00  0.00     0.058 A 
ATOM     71  C   UNL     1       2.455  -2.953 -12.639  1.00  0.00     0.135 A 
ATOM     72  C   UNL     1       3.899  -4.720 -13.396  1.00  0.00     0.135 A 
ATOM     73  F   UNL     1       1.712  -1.858 -12.868  1.00  0.00    -0.206 F 
ATOM     74  C   UNL     1       2.559  -3.417 -11.332  1.00  0.00     0.059 A 
ATOM     75  C   UNL     1       3.997  -5.217 -12.100  1.00  0.00     0.059 A 
ATOM     76  F   UNL     1       4.558  -5.366 -14.371  1.00  0.00    -0.206 F 
ATOM     77  C   UNL     1       3.323  -4.558 -11.074  1.00  0.00     0.060 A 
BRANCH  77  78
ATOM     78  S   UNL     1       3.402  -5.173  -9.378  1.00  0.00     0.124 S 
ATOM     79  O   UNL     1       4.148  -4.107  -8.715  1.00  0.00    -0.237 OA
ATOM     80  O   UNL     1       1.991  -5.276  -9.021  1.00  0.00    -0.237 OA
ATOM     81  O   UNL     1       4.109  -6.443  -9.507  1.00  0.00    -0.744 OA
ENDBRANCH  77  78
ENDBRANCH  56  70
BRANCH  57  82
ATOM     82  C   UNL     1       1.824  -0.428 -23.107  1.00  0.00     0.058 A 
ATOM     83  C   UNL     1       0.551  -0.096 -23.592  1.00  0.00     0.135 A 
ATOM     84  C   UNL     1       2.909  -0.314 -23.992  1.00  0.00     0.135 A 
ATOM     85  F   UNL     1      -0.519  -0.194 -22.789  1.00  0.00    -0.206 F 
ATOM     86  C   UNL     1       0.356   0.311 -24.908  1.00  0.00     0.059 A 
ATOM     87  C   UNL     1       2.745   0.123 -25.301  1.00  0.00     0.059 A 
ATOM     88  F   UNL     1       4.152  -0.605 -23.575  1.00  0.00    -0.206 F 
ATOM     89  C   UNL     1       1.461   0.419 -25.755  1.00  0.00     0.060 A 
BRANCH  89  90
ATOM     90  S   UNL     1       1.198   0.970 -27.453  1.00  0.00     0.124 S 
ATOM     91  O   UNL     1       0.501  -0.174 -28.028  1.00  0.00    -0.237 OA
ATOM     92  O   UNL     1       0.398   2.176 -27.261  1.00  0.00    -0.237 OA
ATOM     93  O   UNL     1       2.553   1.197 -27.947  1.00  0.00    -0.744 OA
ENDBRANCH  89  90
ENDBRANCH  57  82
BRANCH  69  94
ATOM     94  C   UNL     1      -0.143  -6.125 -19.595  1.00  0.00     0.058 A 
ATOM     95  C   UNL     1       0.409  -7.101 -20.440  1.00  0.00     0.135 A 
ATOM     96  C   UNL     1      -1.429  -6.356 -19.078  1.00  0.00     0.135 A 
ATOM     97  F   UNL     1       1.631  -6.925 -20.967  1.00  0.00    -0.206 F 
ATOM     98  C   UNL     1      -0.295  -8.252 -20.776  1.00  0.00     0.059 A 
ATOM     99  C   UNL     1      -2.137  -7.515 -19.374  1.00  0.00     0.059 A 
ATOM    100  F   UNL     1      -1.998  -5.460 -18.256  1.00  0.00    -0.206 F 
ATOM    101  C   UNL     1      -1.565  -8.453 -20.233  1.00  0.00     0.060 A 
BRANCH 101 102
ATOM    102  S   UNL     1      -2.448  -9.970 -20.652  1.00  0.00     0.124 S 
ATOM    103  O   UNL     1      -2.760  -9.750 -22.061  1.00  0.00    -0.237 OA
ATOM    104  O   UNL     1      -1.448 -10.996 -20.377  1.00  0.00    -0.237 OA
ATOM    105  O   UNL     1      -3.594  -9.959 -19.747  1.00  0.00    -0.744 OA
ENDBRANCH 101 102
ENDBRANCH  69  94
ENDBRANCH  43  44
ENDBRANCH  35  38
ENDBRANCH  33  34
ENDBRANCH   1  33
TORSDOF 16
