REMARK SMILES COCc1cc(OCC(=O)NCCCNC(=O)c2ccc(-c3c4nc(c(-c5c(F)cc(S(=O)(=O)[O-])cc5F)c5ccc([nH]5)c(-c5c(F)cc(S(=O)(=O)[O-])cc5F)c5nc(c(-c6c(F)cc(S(=O)(=O)[O-])cc6F)c6ccc3[nH]6)C=C5)C=C4)cc2)nc(Nc2cccc(C)c2C)n1
REMARK SMILES IDX 12 1 11 2 9 3 10 4 8 6 7 7 6 8 4 9 5 10 95 11 85 12 84 13
REMARK SMILES IDX 3 14 2 15 1 16 86 17 87 19 88 20 93 21 89 22 91 23 94 24
REMARK SMILES IDX 90 25 92 26 13 27 14 28 15 29 16 30 17 32 18 33 19 34 83 35
REMARK SMILES IDX 20 36 82 37 21 38 22 39 23 40 76 41 24 42 81 43 75 44 77 45
REMARK SMILES IDX 25 46 80 47 74 48 73 49 26 51 60 52 39 53 59 54 40 55 43 56
REMARK SMILES IDX 58 57 78 58 41 59 42 60 57 62 79 63 44 64 27 65 28 66 37 67
REMARK SMILES IDX 29 68 30 69 36 70 38 71 31 72 32 73 33 74 34 75 35 76 61 77
REMARK SMILES IDX 62 78 71 79 63 80 64 81 70 82 72 83 65 84 66 85 67 86 68 87
REMARK SMILES IDX 69 88 45 89 46 90 55 91 47 92 48 93 54 94 56 95 49 96 50 97
REMARK SMILES IDX 51 98 52 99 53 100
REMARK H PARENT 11 5 86 18 15 31 77 50 43 61
REMARK Flexibility Score: inf
ROOT
ATOM      1  C   UNL     1      -1.908  -3.398   3.248  1.00  0.00     0.117 C 
ENDROOT
BRANCH   1   2
ATOM      2  N   UNL     1      -1.184  -3.099   2.025  1.00  0.00    -0.353 N 
ATOM      3  C   UNL     1       0.128  -2.757   1.880  1.00  0.00     0.258 C 
ATOM      4  O   UNL     1       0.593  -2.635   0.744  1.00  0.00    -0.271 OA
ATOM      5  H   UNL     1      -1.708  -3.149   1.193  1.00  0.00     0.163 HD
BRANCH   3   6
ATOM      6  C   UNL     1       1.011  -2.553   3.118  1.00  0.00     0.331 C 
BRANCH   6   7
ATOM      7  O   UNL     1       0.616  -1.550   4.035  1.00  0.00    -0.467 OA
BRANCH   7   8
ATOM      8  C   UNL     1       0.592  -0.252   3.608  1.00  0.00     0.218 A 
ATOM      9  C   UNL     1       0.864   1.524   2.106  1.00  0.00     0.076 A 
ATOM     10  C   UNL     1       1.077   0.196   2.402  1.00  0.00     0.095 A 
ATOM     11  N   UNL     1       0.276   2.353   2.987  1.00  0.00    -0.215 NA
ATOM     12  C   UNL     1      -0.113   1.857   4.171  1.00  0.00     0.230 A 
ATOM     13  N   UNL     1       0.028   0.569   4.508  1.00  0.00    -0.177 NA
BRANCH   9  14
ATOM     14  C   UNL     1       1.322   2.121   0.793  1.00  0.00     0.216 C 
BRANCH  14  15
ATOM     15  O   UNL     1       0.543   1.742  -0.346  1.00  0.00    -0.378 OA
ATOM     16  C   UNL     1       0.801   0.431  -0.827  1.00  0.00     0.195 C 
ENDBRANCH  14  15
ENDBRANCH   9  14
BRANCH  12  17
ATOM     17  N   UNL     1      -0.647   2.701   5.139  1.00  0.00    -0.324 N 
ATOM     18  H   UNL     1      -0.824   2.284   6.013  1.00  0.00     0.170 HD
BRANCH  17  19
ATOM     19  C   UNL     1      -0.967   4.063   5.044  1.00  0.00     0.044 A 
ATOM     20  C   UNL     1      -0.324   4.947   5.926  1.00  0.00     0.026 A 
ATOM     21  C   UNL     1      -1.860   4.580   4.074  1.00  0.00    -0.025 A 
ATOM     22  C   UNL     1      -0.518   6.322   5.834  1.00  0.00     0.002 A 
ATOM     23  C   UNL     1      -2.034   5.981   3.965  1.00  0.00    -0.046 A 
ATOM     24  C   UNL     1      -2.649   3.655   3.179  1.00  0.00     0.047 C 
ATOM     25  C   UNL     1      -1.360   6.835   4.854  1.00  0.00     0.004 A 
ATOM     26  C   UNL     1      -2.940   6.625   2.947  1.00  0.00     0.044 C 
ENDBRANCH  17  19
ENDBRANCH  12  17
ENDBRANCH   7   8
ENDBRANCH   6   7
ENDBRANCH   3   6
ENDBRANCH   1   2
BRANCH   1  27
ATOM     27  C   UNL     1      -2.953  -2.345   3.601  1.00  0.00     0.042 C 
BRANCH  27  28
ATOM     28  C   UNL     1      -4.073  -2.172   2.575  1.00  0.00     0.118 C 
BRANCH  28  29
ATOM     29  N   UNL     1      -4.827  -3.395   2.332  1.00  0.00    -0.352 N 
ATOM     30  C   UNL     1      -6.154  -3.695   2.521  1.00  0.00     0.251 C 
ATOM     31  H   UNL     1      -4.291  -4.136   1.968  1.00  0.00     0.163 HD
ATOM     32  O   UNL     1      -6.520  -4.860   2.381  1.00  0.00    -0.269 OA
BRANCH  30  33
ATOM     33  C   UNL     1      -7.139  -2.658   2.910  1.00  0.00     0.039 A 
ATOM     34  C   UNL     1      -8.131  -2.997   3.837  1.00  0.00     0.014 A 
ATOM     35  C   UNL     1      -7.132  -1.380   2.346  1.00  0.00     0.014 A 
ATOM     36  C   UNL     1      -9.060  -2.037   4.252  1.00  0.00     0.010 A 
ATOM     37  C   UNL     1      -8.012  -0.403   2.814  1.00  0.00     0.010 A 
ATOM     38  C   UNL     1      -8.982  -0.718   3.777  1.00  0.00    -0.014 A 
BRANCH  38  39
ATOM     39  C   UNL     1      -9.881   0.342   4.310  1.00  0.00     0.031 A 
ATOM     40  C   UNL     1     -10.868   1.042   3.414  1.00  0.00     0.074 A 
ATOM     41  C   UNL     1      -9.767   0.714   5.601  1.00  0.00     0.049 A 
ATOM     42  N   UNL     1     -11.697   2.014   3.699  1.00  0.00    -0.248 NA
ATOM     43  C   UNL     1     -10.915   0.609   2.008  1.00  0.00     0.031 C 
ATOM     44  C   UNL     1      -8.812   0.153   6.561  1.00  0.00     0.029 A 
ATOM     45  N   UNL     1     -10.450   1.657   6.329  1.00  0.00    -0.354 N 
ATOM     46  C   UNL     1     -12.355   2.316   2.513  1.00  0.00     0.074 A 
ATOM     47  C   UNL     1     -11.795   1.456   1.492  1.00  0.00     0.031 C 
ATOM     48  C   UNL     1      -8.986   0.745   7.753  1.00  0.00     0.029 A 
ATOM     49  C   UNL     1     -10.035   1.752   7.638  1.00  0.00     0.049 A 
ATOM     50  H   UNL     1     -11.168   2.213   5.951  1.00  0.00     0.167 HD
ATOM     51  C   UNL     1     -13.349   3.212   2.297  1.00  0.00     0.037 A 
ATOM     52  C   UNL     1     -10.446   2.563   8.632  1.00  0.00     0.037 A 
ATOM     53  C   UNL     1     -13.918   4.054   3.320  1.00  0.00     0.049 A 
ATOM     54  C   UNL     1     -11.551   3.549   8.368  1.00  0.00     0.074 A 
ATOM     55  C   UNL     1     -14.969   4.948   3.213  1.00  0.00     0.029 A 
ATOM     56  N   UNL     1     -13.481   4.110   4.636  1.00  0.00    -0.354 N 
ATOM     57  N   UNL     1     -12.210   3.770   7.255  1.00  0.00    -0.248 NA
ATOM     58  C   UNL     1     -11.974   4.390   9.496  1.00  0.00     0.031 C 
ATOM     59  C   UNL     1     -15.139   5.578   4.451  1.00  0.00     0.029 A 
ATOM     60  C   UNL     1     -14.226   5.041   5.344  1.00  0.00     0.049 A 
ATOM     61  H   UNL     1     -12.749   3.569   5.012  1.00  0.00     0.167 HD
ATOM     62  C   UNL     1     -13.138   4.761   7.554  1.00  0.00     0.074 A 
ATOM     63  C   UNL     1     -12.969   5.081   8.957  1.00  0.00     0.031 C 
ATOM     64  C   UNL     1     -14.046   5.354   6.740  1.00  0.00     0.037 A 
BRANCH  51  65
ATOM     65  C   UNL     1     -13.896   3.327   0.899  1.00  0.00     0.058 A 
ATOM     66  C   UNL     1     -14.677   2.310   0.328  1.00  0.00     0.135 A 
ATOM     67  C   UNL     1     -13.676   4.487   0.138  1.00  0.00     0.135 A 
ATOM     68  F   UNL     1     -14.909   1.175   1.006  1.00  0.00    -0.206 F 
ATOM     69  C   UNL     1     -15.198   2.425  -0.957  1.00  0.00     0.059 A 
ATOM     70  C   UNL     1     -14.210   4.636  -1.140  1.00  0.00     0.059 A 
ATOM     71  F   UNL     1     -12.938   5.492   0.634  1.00  0.00    -0.206 F 
ATOM     72  C   UNL     1     -14.958   3.593  -1.684  1.00  0.00     0.060 A 
BRANCH  72  73
ATOM     73  S   UNL     1     -15.648   3.729  -3.347  1.00  0.00     0.124 S 
ATOM     74  O   UNL     1     -14.791   2.814  -4.094  1.00  0.00    -0.237 OA
ATOM     75  O   UNL     1     -17.026   3.289  -3.151  1.00  0.00    -0.237 OA
ATOM     76  O   UNL     1     -15.486   5.144  -3.668  1.00  0.00    -0.744 OA
ENDBRANCH  72  73
ENDBRANCH  51  65
BRANCH  52  77
ATOM     77  C   UNL     1      -9.820   2.464   9.978  1.00  0.00     0.058 A 
ATOM     78  C   UNL     1     -10.533   1.942  11.068  1.00  0.00     0.135 A 
ATOM     79  C   UNL     1      -8.497   2.877  10.200  1.00  0.00     0.135 A 
ATOM     80  F   UNL     1     -11.803   1.540  10.908  1.00  0.00    -0.206 F 
ATOM     81  C   UNL     1      -9.964   1.850  12.334  1.00  0.00     0.059 A 
ATOM     82  C   UNL     1      -7.897   2.770  11.450  1.00  0.00     0.059 A 
ATOM     83  F   UNL     1      -7.767   3.368   9.186  1.00  0.00    -0.206 F 
ATOM     84  C   UNL     1      -8.643   2.265  12.515  1.00  0.00     0.060 A 
BRANCH  84  85
ATOM     85  S   UNL     1      -7.898   2.096  14.151  1.00  0.00     0.124 S 
ATOM     86  O   UNL     1      -8.547   3.179  14.882  1.00  0.00    -0.237 OA
ATOM     87  O   UNL     1      -8.292   0.743  14.530  1.00  0.00    -0.237 OA
ATOM     88  O   UNL     1      -6.473   2.275  13.890  1.00  0.00    -0.744 OA
ENDBRANCH  84  85
ENDBRANCH  52  77
BRANCH  64  89
ATOM     89  C   UNL     1     -14.944   6.394   7.353  1.00  0.00     0.058 A 
ATOM     90  C   UNL     1     -14.461   7.660   7.721  1.00  0.00     0.135 A 
ATOM     91  C   UNL     1     -16.309   6.131   7.551  1.00  0.00     0.135 A 
ATOM     92  F   UNL     1     -13.163   7.961   7.559  1.00  0.00    -0.206 F 
ATOM     93  C   UNL     1     -15.293   8.617   8.294  1.00  0.00     0.059 A 
ATOM     94  C   UNL     1     -17.165   7.083   8.096  1.00  0.00     0.059 A 
ATOM     95  F   UNL     1     -16.826   4.940   7.207  1.00  0.00    -0.206 F 
ATOM     96  C   UNL     1     -16.644   8.318   8.480  1.00  0.00     0.060 A 
BRANCH  96  97
ATOM     97  S   UNL     1     -17.717   9.572   9.211  1.00  0.00     0.124 S 
ATOM     98  O   UNL     1     -17.320   9.517  10.614  1.00  0.00    -0.237 OA
ATOM     99  O   UNL     1     -17.326  10.779   8.489  1.00  0.00    -0.237 OA
ATOM    100  O   UNL     1     -19.061   9.083   8.918  1.00  0.00    -0.744 OA
ENDBRANCH  96  97
ENDBRANCH  64  89
ENDBRANCH  38  39
ENDBRANCH  30  33
ENDBRANCH  28  29
ENDBRANCH  27  28
ENDBRANCH   1  27
TORSDOF 19
