REMARK SMILES CC[C@H](C)[C@@H](C(=O)NCCCNC(=O)c1ccc(-c2c3nc(c(-c4c(F)cc(S(=O)(=O)[O-])cc4F)c4ccc([nH]4)c(-c4c(F)cc(S(=O)(=O)[O-])cc4F)c4nc(c(-c5c(F)cc(S(=O)(=O)[O-])cc5F)c5ccc2[nH]5)C=C4)C=C3)cc1)N1C(=O)/C(=C/c2ccccc2OC)SC1=S
REMARK SMILES IDX 10 1 9 2 8 3 6 4 7 5 5 7 3 8 4 9 2 10 1 11 81 12 82 13 95 14
REMARK SMILES IDX 83 15 84 16 94 17 96 18 85 19 86 20 87 21 91 22 88 23 90 24
REMARK SMILES IDX 89 25 92 26 93 27 11 28 12 29 13 30 14 32 15 33 16 34 80 35
REMARK SMILES IDX 17 36 79 37 18 38 19 39 20 40 73 41 21 42 78 43 72 44 74 45
REMARK SMILES IDX 22 46 77 47 71 48 70 49 23 51 57 52 36 53 56 54 37 55 40 56
REMARK SMILES IDX 55 57 75 58 38 59 39 60 54 62 76 63 41 64 24 65 25 66 34 67
REMARK SMILES IDX 26 68 27 69 33 70 35 71 28 72 29 73 30 74 31 75 32 76 58 77
REMARK SMILES IDX 59 78 68 79 60 80 61 81 67 82 69 83 62 84 63 85 64 86 65 87
REMARK SMILES IDX 66 88 42 89 43 90 52 91 44 92 45 93 51 94 53 95 46 96 47 97
REMARK SMILES IDX 48 98 49 99 50 100
REMARK H PARENT 8 6 12 31 74 50 40 61
REMARK Flexibility Score: inf
ROOT
ATOM      1  C   UNL     1      -0.033  -0.624  -3.103  1.00  0.00     0.042 C 
ENDROOT
BRANCH   1   2
ATOM      2  C   UNL     1      -0.446  -2.049  -2.720  1.00  0.00     0.117 C 
BRANCH   2   3
ATOM      3  N   UNL     1       0.693  -2.933  -2.493  1.00  0.00    -0.354 N 
ATOM      4  C   UNL     1       1.123  -3.599  -1.376  1.00  0.00     0.243 C 
ATOM      5  O   UNL     1       2.078  -4.369  -1.522  1.00  0.00    -0.273 OA
ATOM      6  H   UNL     1       1.255  -3.078  -3.288  1.00  0.00     0.163 HD
BRANCH   4   7
ATOM      7  C   UNL     1       0.433  -3.410   0.001  1.00  0.00     0.184 C 
BRANCH   7   8
ATOM      8  C   UNL     1       0.978  -2.191   0.818  1.00  0.00     0.018 C 
ATOM      9  C   UNL     1       0.908  -0.862   0.084  1.00  0.00     0.010 C 
BRANCH   8  10
ATOM     10  C   UNL     1       0.272  -2.076   2.188  1.00  0.00     0.002 C 
ATOM     11  C   UNL     1       1.017  -1.163   3.154  1.00  0.00     0.004 C 
ENDBRANCH   8  10
ENDBRANCH   7   8
BRANCH   7  12
ATOM     12  N   UNL     1       0.577  -4.713   0.731  1.00  0.00    -0.280 N 
ATOM     13  C   UNL     1       1.660  -4.942   1.556  1.00  0.00     0.266 C 
ATOM     14  C   UNL     1      -0.242  -5.812   0.539  1.00  0.00     0.149 C 
ATOM     15  O   UNL     1       2.647  -4.229   1.721  1.00  0.00    -0.268 OA
ATOM     16  C   UNL     1       1.544  -6.242   2.246  1.00  0.00     0.081 C 
ATOM     17  S   UNL     1       0.250  -7.142   1.602  1.00  0.00    -0.054 SA
ATOM     18  S   UNL     1      -1.537  -5.962  -0.505  1.00  0.00    -0.052 S 
ATOM     19  C   UNL     1       2.481  -6.560   3.146  1.00  0.00     0.033 C 
BRANCH  19  20
ATOM     20  C   UNL     1       2.771  -7.863   3.734  1.00  0.00     0.018 A 
ATOM     21  C   UNL     1       2.417  -8.037   5.086  1.00  0.00     0.012 A 
ATOM     22  C   UNL     1       3.475  -8.879   3.066  1.00  0.00     0.126 A 
ATOM     23  C   UNL     1       2.748  -9.208   5.768  1.00  0.00     0.001 A 
ATOM     24  C   UNL     1       3.778 -10.057   3.763  1.00  0.00     0.047 A 
ATOM     25  C   UNL     1       3.430 -10.220   5.104  1.00  0.00     0.004 A 
BRANCH  22  26
ATOM     26  O   UNL     1       3.937  -8.915   1.778  1.00  0.00    -0.496 OA
ATOM     27  C   UNL     1       4.167  -7.714   1.055  1.00  0.00     0.278 C 
ENDBRANCH  22  26
ENDBRANCH  19  20
ENDBRANCH   7  12
ENDBRANCH   4   7
ENDBRANCH   2   3
ENDBRANCH   1   2
BRANCH   1  28
ATOM     28  C   UNL     1       0.624  -0.497  -4.470  1.00  0.00     0.118 C 
BRANCH  28  29
ATOM     29  N   UNL     1      -0.358  -0.243  -5.508  1.00  0.00    -0.352 N 
ATOM     30  C   UNL     1      -0.649   0.924  -6.176  1.00  0.00     0.251 C 
ATOM     31  H   UNL     1      -0.896  -1.023  -5.775  1.00  0.00     0.163 HD
ATOM     32  O   UNL     1      -1.706   0.999  -6.799  1.00  0.00    -0.269 OA
BRANCH  30  33
ATOM     33  C   UNL     1       0.275   2.088  -6.147  1.00  0.00     0.039 A 
ATOM     34  C   UNL     1      -0.268   3.378  -6.139  1.00  0.00     0.014 A 
ATOM     35  C   UNL     1       1.663   1.932  -6.200  1.00  0.00     0.014 A 
ATOM     36  C   UNL     1       0.574   4.496  -6.144  1.00  0.00     0.010 A 
ATOM     37  C   UNL     1       2.502   3.046  -6.117  1.00  0.00     0.010 A 
ATOM     38  C   UNL     1       1.969   4.343  -6.108  1.00  0.00    -0.014 A 
BRANCH  38  39
ATOM     39  C   UNL     1       2.878   5.524  -6.093  1.00  0.00     0.031 A 
ATOM     40  C   UNL     1       3.845   5.753  -7.229  1.00  0.00     0.074 A 
ATOM     41  C   UNL     1       2.864   6.371  -5.044  1.00  0.00     0.049 A 
ATOM     42  N   UNL     1       4.753   6.685  -7.367  1.00  0.00    -0.248 NA
ATOM     43  C   UNL     1       3.801   4.795  -8.347  1.00  0.00     0.031 C 
ATOM     44  C   UNL     1       2.005   6.244  -3.864  1.00  0.00     0.029 A 
ATOM     45  N   UNL     1       3.599   7.505  -4.794  1.00  0.00    -0.354 N 
ATOM     46  C   UNL     1       5.391   6.422  -8.575  1.00  0.00     0.074 A 
ATOM     47  C   UNL     1       4.806   5.210  -9.104  1.00  0.00     0.031 C 
ATOM     48  C   UNL     1       2.245   7.268  -3.030  1.00  0.00     0.029 A 
ATOM     49  C   UNL     1       3.303   8.104  -3.590  1.00  0.00     0.049 A 
ATOM     50  H   UNL     1       4.274   7.857  -5.418  1.00  0.00     0.167 HD
ATOM     51  C   UNL     1       6.356   7.138  -9.201  1.00  0.00     0.037 A 
ATOM     52  C   UNL     1       3.829   9.195  -2.999  1.00  0.00     0.037 A 
ATOM     53  C   UNL     1       6.918   8.361  -8.686  1.00  0.00     0.049 A 
ATOM     54  C   UNL     1       4.914   9.963  -3.708  1.00  0.00     0.074 A 
ATOM     55  C   UNL     1       7.867   9.183  -9.268  1.00  0.00     0.029 A 
ATOM     56  N   UNL     1       6.581   8.938  -7.471  1.00  0.00    -0.354 N 
ATOM     57  N   UNL     1       5.464   9.727  -4.876  1.00  0.00    -0.248 NA
ATOM     58  C   UNL     1       5.446  11.150  -3.024  1.00  0.00     0.031 C 
ATOM     59  C   UNL     1       8.137  10.233  -8.386  1.00  0.00     0.029 A 
ATOM     60  C   UNL     1       7.317  10.096  -7.278  1.00  0.00     0.049 A 
ATOM     61  H   UNL     1       5.917   8.579  -6.839  1.00  0.00     0.167 HD
ATOM     62  C   UNL     1       6.382  10.752  -5.078  1.00  0.00     0.074 A 
ATOM     63  C   UNL     1       6.303  11.618  -3.921  1.00  0.00     0.031 C 
ATOM     64  C   UNL     1       7.217  10.958  -6.127  1.00  0.00     0.037 A 
BRANCH  51  65
ATOM     65  C   UNL     1       6.862   6.633 -10.526  1.00  0.00     0.058 A 
ATOM     66  C   UNL     1       6.067   6.680 -11.683  1.00  0.00     0.135 A 
ATOM     67  C   UNL     1       8.177   6.156 -10.657  1.00  0.00     0.135 A 
ATOM     68  F   UNL     1       4.798   7.112 -11.614  1.00  0.00    -0.206 F 
ATOM     69  C   UNL     1       6.551   6.257 -12.917  1.00  0.00     0.059 A 
ATOM     70  C   UNL     1       8.691   5.755 -11.887  1.00  0.00     0.059 A 
ATOM     71  F   UNL     1       8.981   6.088  -9.584  1.00  0.00    -0.206 F 
ATOM     72  C   UNL     1       7.867   5.801 -13.010  1.00  0.00     0.060 A 
BRANCH  72  73
ATOM     73  S   UNL     1       8.485   5.284 -14.626  1.00  0.00     0.124 S 
ATOM     74  O   UNL     1       7.757   4.035 -14.830  1.00  0.00    -0.237 OA
ATOM     75  O   UNL     1       8.086   6.397 -15.481  1.00  0.00    -0.237 OA
ATOM     76  O   UNL     1       9.922   5.143 -14.412  1.00  0.00    -0.744 OA
ENDBRANCH  72  73
ENDBRANCH  51  65
BRANCH  52  77
ATOM     77  C   UNL     1       3.340   9.637  -1.664  1.00  0.00     0.058 A 
ATOM     78  C   UNL     1       2.632  10.839  -1.514  1.00  0.00     0.135 A 
ATOM     79  C   UNL     1       3.587   8.879  -0.509  1.00  0.00     0.135 A 
ATOM     80  F   UNL     1       2.374  11.604  -2.586  1.00  0.00    -0.206 F 
ATOM     81  C   UNL     1       2.215  11.291  -0.266  1.00  0.00     0.059 A 
ATOM     82  C   UNL     1       3.155   9.294   0.747  1.00  0.00     0.059 A 
ATOM     83  F   UNL     1       4.244   7.712  -0.598  1.00  0.00    -0.206 F 
ATOM     84  C   UNL     1       2.484  10.511   0.860  1.00  0.00     0.060 A 
BRANCH  84  85
ATOM     85  S   UNL     1       1.923  11.095   2.474  1.00  0.00     0.124 S 
ATOM     86  O   UNL     1       2.859  12.183   2.734  1.00  0.00    -0.237 OA
ATOM     87  O   UNL     1       0.546  11.490   2.196  1.00  0.00    -0.237 OA
ATOM     88  O   UNL     1       2.070   9.918   3.326  1.00  0.00    -0.744 OA
ENDBRANCH  84  85
ENDBRANCH  52  77
BRANCH  64  89
ATOM     89  C   UNL     1       8.082  12.188  -6.096  1.00  0.00     0.058 A 
ATOM     90  C   UNL     1       9.176  12.302  -5.226  1.00  0.00     0.135 A 
ATOM     91  C   UNL     1       7.840  13.247  -6.988  1.00  0.00     0.135 A 
ATOM     92  F   UNL     1       9.448  11.322  -4.349  1.00  0.00    -0.206 F 
ATOM     93  C   UNL     1       9.986  13.433  -5.222  1.00  0.00     0.059 A 
ATOM     94  C   UNL     1       8.656  14.374  -7.023  1.00  0.00     0.059 A 
ATOM     95  F   UNL     1       6.813  13.185  -7.850  1.00  0.00    -0.206 F 
ATOM     96  C   UNL     1       9.720  14.463  -6.127  1.00  0.00     0.060 A 
BRANCH  96  97
ATOM     97  S   UNL     1      10.799  15.910  -6.133  1.00  0.00     0.124 S 
ATOM     98  O   UNL     1      10.395  16.585  -4.904  1.00  0.00    -0.237 OA
ATOM     99  O   UNL     1      12.129  15.307  -6.117  1.00  0.00    -0.237 OA
ATOM    100  O   UNL     1      10.443  16.595  -7.372  1.00  0.00    -0.744 OA
ENDBRANCH  96  97
ENDBRANCH  64  89
ENDBRANCH  38  39
ENDBRANCH  30  33
ENDBRANCH  28  29
ENDBRANCH   1  28
TORSDOF 18
