REMARK SMILES O=C(NCCCNC(=O)c1ccc2c(c1)C(=O)O[C@H]2c1ccc(F)cc1)c1ccc(-c2c3nc(c(-c4c(F)cc(S(=O)(=O)[O-])cc4F)c4ccc([nH]4)c(-c4c(F)cc(S(=O)(=O)[O-])cc4F)c4nc(c(-c5c(F)cc(S(=O)(=O)[O-])cc5F)c5ccc2[nH]5)C=C4)C=C3)cc1
REMARK SMILES IDX 4 1 3 2 1 3 2 4 27 6 28 7 92 8 29 9 91 10 30 11 31 12 32 13
REMARK SMILES IDX 85 14 33 15 90 16 84 17 86 18 34 19 89 20 83 21 82 22 35 24
REMARK SMILES IDX 69 25 48 26 68 27 49 28 52 29 67 30 87 31 50 32 51 33 66 35
REMARK SMILES IDX 88 36 53 37 36 38 37 39 46 40 38 41 39 42 45 43 47 44 40 45
REMARK SMILES IDX 41 46 42 47 43 48 44 49 70 50 71 51 80 52 72 53 73 54 79 55
REMARK SMILES IDX 81 56 74 57 75 58 76 59 77 60 78 61 54 62 55 63 64 64 56 65
REMARK SMILES IDX 57 66 63 67 65 68 58 69 59 70 60 71 61 72 62 73 5 74 6 75
REMARK SMILES IDX 7 76 8 77 9 79 10 80 11 81 15 82 12 83 14 84 13 85 16 86
REMARK SMILES IDX 19 87 17 88 18 89 20 90 21 91 26 92 22 93 25 94 23 95 24 96
REMARK H PARENT 3 5 86 23 52 34 7 78
REMARK Flexibility Score: inf
ROOT
ATOM      1  C   UNL     1       4.471  -0.511  -1.198  1.00  0.00     0.118 C 
ENDROOT
BRANCH   1   2
ATOM      2  N   UNL     1       3.036  -0.306  -1.036  1.00  0.00    -0.352 N 
ATOM      3  O   UNL     1       1.082   0.015   0.033  1.00  0.00    -0.269 OA
ATOM      4  C   UNL     1       2.308   0.069   0.068  1.00  0.00     0.251 C 
ATOM      5  H   UNL     1       2.503  -0.461  -1.849  1.00  0.00     0.163 HD
BRANCH   4   6
ATOM      6  C   UNL     1       2.999   0.505   1.300  1.00  0.00     0.039 A 
ATOM      7  C   UNL     1       4.128   1.319   1.228  1.00  0.00     0.014 A 
ATOM      8  C   UNL     1       2.516   0.094   2.546  1.00  0.00     0.014 A 
ATOM      9  C   UNL     1       4.890   1.543   2.365  1.00  0.00     0.010 A 
ATOM     10  C   UNL     1       3.213   0.436   3.709  1.00  0.00     0.010 A 
ATOM     11  C   UNL     1       4.431   1.128   3.625  1.00  0.00    -0.014 A 
BRANCH  11  12
ATOM     12  C   UNL     1       5.218   1.493   4.831  1.00  0.00     0.031 A 
ATOM     13  C   UNL     1       5.809   0.443   5.730  1.00  0.00     0.074 A 
ATOM     14  C   UNL     1       5.444   2.800   5.076  1.00  0.00     0.049 A 
ATOM     15  N   UNL     1       6.555   0.599   6.795  1.00  0.00    -0.248 NA
ATOM     16  C   UNL     1       5.526  -0.963   5.402  1.00  0.00     0.031 C 
ATOM     17  C   UNL     1       4.921   3.907   4.270  1.00  0.00     0.029 A 
ATOM     18  N   UNL     1       6.193   3.421   6.041  1.00  0.00    -0.354 N 
ATOM     19  C   UNL     1       6.824  -0.680   7.267  1.00  0.00     0.074 A 
ATOM     20  C   UNL     1       6.126  -1.602   6.397  1.00  0.00     0.031 C 
ATOM     21  C   UNL     1       5.423   5.061   4.727  1.00  0.00     0.029 A 
ATOM     22  C   UNL     1       6.233   4.789   5.908  1.00  0.00     0.049 A 
ATOM     23  H   UNL     1       6.658   2.935   6.761  1.00  0.00     0.167 HD
ATOM     24  C   UNL     1       7.596  -1.049   8.318  1.00  0.00     0.037 A 
ATOM     25  C   UNL     1       6.840   5.728   6.657  1.00  0.00     0.037 A 
ATOM     26  C   UNL     1       8.285  -0.118   9.178  1.00  0.00     0.049 A 
ATOM     27  C   UNL     1       7.641   5.298   7.849  1.00  0.00     0.074 A 
ATOM     28  C   UNL     1       9.093  -0.391  10.269  1.00  0.00     0.029 A 
ATOM     29  N   UNL     1       8.247   1.264   9.049  1.00  0.00    -0.354 N 
ATOM     30  N   UNL     1       7.887   4.083   8.278  1.00  0.00    -0.248 NA
ATOM     31  C   UNL     1       8.242   6.361   8.662  1.00  0.00     0.031 C 
ATOM     32  C   UNL     1       9.498   0.824  10.830  1.00  0.00     0.029 A 
ATOM     33  C   UNL     1       8.998   1.857  10.053  1.00  0.00     0.049 A 
ATOM     34  H   UNL     1       7.758   1.752   8.348  1.00  0.00     0.167 HD
ATOM     35  C   UNL     1       8.684   4.234   9.405  1.00  0.00     0.074 A 
ATOM     36  C   UNL     1       8.894   5.658   9.579  1.00  0.00     0.031 C 
ATOM     37  C   UNL     1       9.195   3.278  10.220  1.00  0.00     0.037 A 
BRANCH  24  38
ATOM     38  C   UNL     1       7.733  -2.522   8.608  1.00  0.00     0.058 A 
ATOM     39  C   UNL     1       7.183  -3.078   9.775  1.00  0.00     0.135 A 
ATOM     40  C   UNL     1       8.448  -3.379   7.754  1.00  0.00     0.135 A 
ATOM     41  F   UNL     1       6.489  -2.310  10.629  1.00  0.00    -0.206 F 
ATOM     42  C   UNL     1       7.342  -4.425  10.088  1.00  0.00     0.059 A 
ATOM     43  C   UNL     1       8.594  -4.736   8.032  1.00  0.00     0.059 A 
ATOM     44  F   UNL     1       8.980  -2.908   6.615  1.00  0.00    -0.206 F 
ATOM     45  C   UNL     1       8.045  -5.248   9.207  1.00  0.00     0.060 A 
BRANCH  45  46
ATOM     46  S   UNL     1       8.191  -7.005   9.597  1.00  0.00     0.124 S 
ATOM     47  O   UNL     1       9.086  -6.986  10.748  1.00  0.00    -0.237 OA
ATOM     48  O   UNL     1       6.805  -7.372   9.872  1.00  0.00    -0.237 OA
ATOM     49  O   UNL     1       8.749  -7.577   8.375  1.00  0.00    -0.744 OA
ENDBRANCH  45  46
ENDBRANCH  24  38
BRANCH  25  50
ATOM     50  C   UNL     1       6.711   7.158   6.272  1.00  0.00     0.058 A 
ATOM     51  C   UNL     1       5.474   7.820   6.338  1.00  0.00     0.135 A 
ATOM     52  C   UNL     1       7.804   7.865   5.750  1.00  0.00     0.135 A 
ATOM     53  F   UNL     1       4.394   7.183   6.815  1.00  0.00    -0.206 F 
ATOM     54  C   UNL     1       5.315   9.115   5.859  1.00  0.00     0.059 A 
ATOM     55  C   UNL     1       7.677   9.173   5.293  1.00  0.00     0.059 A 
ATOM     56  F   UNL     1       9.008   7.277   5.676  1.00  0.00    -0.206 F 
ATOM     57  C   UNL     1       6.422   9.780   5.330  1.00  0.00     0.060 A 
BRANCH  57  58
ATOM     58  S   UNL     1       6.183  11.445   4.675  1.00  0.00     0.124 S 
ATOM     59  O   UNL     1       5.339  11.182   3.513  1.00  0.00    -0.237 OA
ATOM     60  O   UNL     1       5.533  12.121   5.793  1.00  0.00    -0.237 OA
ATOM     61  O   UNL     1       7.540  11.889   4.377  1.00  0.00    -0.744 OA
ENDBRANCH  57  58
ENDBRANCH  25  50
BRANCH  37  62
ATOM     62  C   UNL     1      10.051   3.733  11.370  1.00  0.00     0.058 A 
ATOM     63  C   UNL     1      11.429   3.461  11.381  1.00  0.00     0.135 A 
ATOM     64  C   UNL     1       9.503   4.379  12.489  1.00  0.00     0.135 A 
ATOM     65  F   UNL     1      12.006   2.842  10.338  1.00  0.00    -0.206 F 
ATOM     66  C   UNL     1      12.229   3.798  12.467  1.00  0.00     0.059 A 
ATOM     67  C   UNL     1      10.290   4.754  13.574  1.00  0.00     0.059 A 
ATOM     68  F   UNL     1       8.193   4.674  12.524  1.00  0.00    -0.206 F 
ATOM     69  C   UNL     1      11.650   4.444  13.560  1.00  0.00     0.060 A 
BRANCH  69  70
ATOM     70  S   UNL     1      12.709   4.888  14.953  1.00  0.00     0.124 S 
ATOM     71  O   UNL     1      13.028   3.580  15.515  1.00  0.00    -0.237 OA
ATOM     72  O   UNL     1      13.810   5.582  14.292  1.00  0.00    -0.237 OA
ATOM     73  O   UNL     1      11.849   5.733  15.776  1.00  0.00    -0.744 OA
ENDBRANCH  69  70
ENDBRANCH  37  62
ENDBRANCH  11  12
ENDBRANCH   4   6
ENDBRANCH   1   2
BRANCH   1  74
ATOM     74  C   UNL     1       4.839  -1.969  -1.405  1.00  0.00     0.042 C 
BRANCH  74  75
ATOM     75  C   UNL     1       4.272  -2.559  -2.684  1.00  0.00     0.118 C 
BRANCH  75  76
ATOM     76  N   UNL     1       4.788  -1.898  -3.877  1.00  0.00    -0.352 N 
ATOM     77  C   UNL     1       5.668  -2.356  -4.824  1.00  0.00     0.251 C 
ATOM     78  H   UNL     1       4.454  -0.984  -4.026  1.00  0.00     0.163 HD
ATOM     79  O   UNL     1       6.135  -1.594  -5.664  1.00  0.00    -0.269 OA
BRANCH  77  80
ATOM     80  C   UNL     1       6.064  -3.776  -4.825  1.00  0.00     0.040 A 
ATOM     81  C   UNL     1       7.430  -4.101  -4.942  1.00  0.00     0.014 A 
ATOM     82  C   UNL     1       5.096  -4.776  -4.722  1.00  0.00     0.030 A 
ATOM     83  C   UNL     1       7.845  -5.436  -4.890  1.00  0.00     0.009 A 
ATOM     84  C   UNL     1       5.543  -6.075  -4.620  1.00  0.00     0.068 A 
ATOM     85  C   UNL     1       6.877  -6.413  -4.712  1.00  0.00     0.012 A 
ATOM     86  C   UNL     1       4.755  -7.278  -4.410  1.00  0.00     0.339 C 
ATOM     87  C   UNL     1       6.993  -7.891  -4.636  1.00  0.00     0.238 C 
ATOM     88  O   UNL     1       3.550  -7.329  -4.264  1.00  0.00    -0.246 OA
ATOM     89  O   UNL     1       5.630  -8.323  -4.406  1.00  0.00    -0.449 OA
BRANCH  87  90
ATOM     90  C   UNL     1       7.504  -8.526  -5.911  1.00  0.00    -0.003 A 
ATOM     91  C   UNL     1       6.842  -8.326  -7.139  1.00  0.00     0.011 A 
ATOM     92  C   UNL     1       8.668  -9.310  -5.889  1.00  0.00     0.011 A 
ATOM     93  C   UNL     1       7.342  -8.880  -8.316  1.00  0.00     0.039 A 
ATOM     94  C   UNL     1       9.162  -9.869  -7.069  1.00  0.00     0.039 A 
ATOM     95  C   UNL     1       8.499  -9.645  -8.270  1.00  0.00     0.123 A 
ATOM     96  F   UNL     1       8.983 -10.175  -9.400  1.00  0.00    -0.207 F 
ENDBRANCH  87  90
ENDBRANCH  77  80
ENDBRANCH  75  76
ENDBRANCH  74  75
ENDBRANCH   1  74
TORSDOF 14
