REMARK SMILES COc1ccc(-c2cc(CC3(C(=O)NCCCNC(=O)c4ccc(-c5c6nc(c(-c7c(F)cc(S(=O)(=O)[O-])cc7F)c7ccc([nH]7)c(-c7c(F)cc(S(=O)(=O)[O-])cc7F)c7nc(c(-c8c(F)cc(S(=O)(=O)[O-])cc8F)c8ccc5[nH]8)C=C7)C=C6)cc4)CCN(C(=O)C4CCCC4)CC3)on2)cc1
REMARK SMILES IDX 15 1 14 2 12 3 13 4 11 6 87 7 98 8 88 9 97 10 89 11 90 12
REMARK SMILES IDX 91 13 10 14 9 15 7 16 8 17 100 18 99 19 6 20 3 21 4 22
REMARK SMILES IDX 102 23 5 24 101 25 2 26 1 27 92 28 93 29 96 30 94 31 95 32
REMARK SMILES IDX 16 33 17 34 18 35 19 36 20 38 21 39 22 40 86 41 23 42 85 43
REMARK SMILES IDX 24 44 25 45 26 46 79 47 27 48 84 49 78 50 80 51 28 52 83 53
REMARK SMILES IDX 77 54 76 55 29 57 63 58 42 59 62 60 43 61 46 62 61 63 81 64
REMARK SMILES IDX 44 65 45 66 60 68 82 69 47 70 30 71 31 72 40 73 32 74 33 75
REMARK SMILES IDX 39 76 41 77 34 78 35 79 36 80 37 81 38 82 64 83 65 84 74 85
REMARK SMILES IDX 66 86 67 87 73 88 75 89 68 90 69 91 70 92 71 93 72 94 48 95
REMARK SMILES IDX 49 96 58 97 50 98 51 99 57 100 59 101 52 102 53 103 54 104
REMARK SMILES IDX 55 105 56 106
REMARK H PARENT 14 5 18 37 80 56 46 67
REMARK Flexibility Score: inf
ROOT
ATOM      1  C   UNL     1       3.055   6.111 -11.974  1.00  0.00     0.117 C 
ENDROOT
BRANCH   1   2
ATOM      2  N   UNL     1       4.381   5.815 -11.444  1.00  0.00    -0.356 N 
ATOM      3  C   UNL     1       4.802   5.399 -10.216  1.00  0.00     0.226 C 
ATOM      4  O   UNL     1       6.017   5.223 -10.088  1.00  0.00    -0.274 OA
ATOM      5  H   UNL     1       5.109   5.938 -12.096  1.00  0.00     0.163 HD
BRANCH   3   6
ATOM      6  C   UNL     1       3.817   5.127  -9.052  1.00  0.00     0.060 C 
ATOM      7  C   UNL     1       3.084   6.452  -8.712  1.00  0.00     0.039 C 
ATOM      8  C   UNL     1       2.893   3.959  -9.485  1.00  0.00     0.039 C 
ATOM      9  C   UNL     1       1.632   6.343  -8.260  1.00  0.00     0.120 C 
ATOM     10  C   UNL     1       1.507   3.973  -8.859  1.00  0.00     0.120 C 
ATOM     11  N   UNL     1       0.884   5.284  -8.928  1.00  0.00    -0.342 N 
ATOM     12  C   UNL     1      -0.433   5.554  -9.277  1.00  0.00     0.225 C 
ATOM     13  O   UNL     1      -0.912   6.684  -9.136  1.00  0.00    -0.275 OA
BRANCH   6  14
ATOM     14  C   UNL     1       4.693   4.679  -7.832  1.00  0.00     0.095 C 
BRANCH  14  15
ATOM     15  C   UNL     1       3.918   4.224  -6.652  1.00  0.00     0.138 A 
ATOM     16  C   UNL     1       2.732   3.279  -5.055  1.00  0.00     0.114 A 
ATOM     17  C   UNL     1       3.584   2.991  -6.148  1.00  0.00     0.077 A 
ATOM     18  N   UNL     1       2.596   4.601  -4.889  1.00  0.00    -0.080 NA
ATOM     19  O   UNL     1       3.374   5.188  -5.867  1.00  0.00    -0.361 OA
BRANCH  16  20
ATOM     20  C   UNL     1       2.111   2.337  -4.149  1.00  0.00     0.004 A 
ATOM     21  C   UNL     1       0.967   0.593  -2.293  1.00  0.00     0.118 A 
ATOM     22  C   UNL     1       0.169   1.195  -3.268  1.00  0.00     0.047 A 
ATOM     23  C   UNL     1       2.344   0.819  -2.280  1.00  0.00     0.047 A 
ATOM     24  C   UNL     1       0.736   2.081  -4.190  1.00  0.00     0.014 A 
ATOM     25  C   UNL     1       2.913   1.692  -3.204  1.00  0.00     0.014 A 
BRANCH  21  26
ATOM     26  O   UNL     1       0.336  -0.240  -1.409  1.00  0.00    -0.497 OA
ATOM     27  C   UNL     1       0.765  -0.057  -0.060  1.00  0.00     0.278 C 
ENDBRANCH  21  26
ENDBRANCH  16  20
ENDBRANCH  14  15
ENDBRANCH   6  14
BRANCH  12  28
ATOM     28  C   UNL     1      -1.342   4.472  -9.852  1.00  0.00     0.078 C 
ATOM     29  C   UNL     1      -0.855   3.854 -11.156  1.00  0.00     0.013 C 
ATOM     30  C   UNL     1      -1.657   3.320  -8.901  1.00  0.00     0.013 C 
ATOM     31  C   UNL     1      -1.527   2.492 -11.213  1.00  0.00     0.001 C 
ATOM     32  C   UNL     1      -1.821   2.081  -9.774  1.00  0.00     0.001 C 
ENDBRANCH  12  28
ENDBRANCH   3   6
ENDBRANCH   1   2
BRANCH   1  33
ATOM     33  C   UNL     1       2.883   7.578 -12.339  1.00  0.00     0.042 C 
BRANCH  33  34
ATOM     34  C   UNL     1       3.780   8.043 -13.475  1.00  0.00     0.118 C 
BRANCH  34  35
ATOM     35  N   UNL     1       3.454   7.406 -14.743  1.00  0.00    -0.352 N 
ATOM     36  C   UNL     1       2.996   7.963 -15.915  1.00  0.00     0.251 C 
ATOM     37  H   UNL     1       3.581   6.430 -14.766  1.00  0.00     0.163 HD
ATOM     38  O   UNL     1       2.593   7.232 -16.813  1.00  0.00    -0.269 OA
BRANCH  36  39
ATOM     39  C   UNL     1       2.971   9.434 -16.079  1.00  0.00     0.039 A 
ATOM     40  C   UNL     1       1.861  10.030 -16.682  1.00  0.00     0.014 A 
ATOM     41  C   UNL     1       4.036  10.224 -15.642  1.00  0.00     0.014 A 
ATOM     42  C   UNL     1       1.789  11.422 -16.778  1.00  0.00     0.010 A 
ATOM     43  C   UNL     1       3.920  11.610 -15.649  1.00  0.00     0.010 A 
ATOM     44  C   UNL     1       2.799  12.227 -16.223  1.00  0.00    -0.014 A 
BRANCH  44  45
ATOM     45  C   UNL     1       2.705  13.711 -16.233  1.00  0.00     0.031 A 
ATOM     46  C   UNL     1       3.752  14.527 -16.944  1.00  0.00     0.074 A 
ATOM     47  C   UNL     1       1.722  14.324 -15.544  1.00  0.00     0.049 A 
ATOM     48  N   UNL     1       3.891  15.827 -16.998  1.00  0.00    -0.248 NA
ATOM     49  C   UNL     1       4.800  13.785 -17.666  1.00  0.00     0.031 C 
ATOM     50  C   UNL     1       0.677  13.645 -14.774  1.00  0.00     0.029 A 
ATOM     51  N   UNL     1       1.445  15.657 -15.368  1.00  0.00    -0.354 N 
ATOM     52  C   UNL     1       5.043  16.056 -17.741  1.00  0.00     0.074 A 
ATOM     53  C   UNL     1       5.599  14.762 -18.068  1.00  0.00     0.031 C 
ATOM     54  C   UNL     1      -0.139  14.562 -14.232  1.00  0.00     0.029 A 
ATOM     55  C   UNL     1       0.348  15.895 -14.573  1.00  0.00     0.049 A 
ATOM     56  H   UNL     1       1.982  16.376 -15.774  1.00  0.00     0.167 HD
ATOM     57  C   UNL     1       5.575  17.236 -18.138  1.00  0.00     0.037 A 
ATOM     58  C   UNL     1      -0.198  17.054 -14.155  1.00  0.00     0.037 A 
ATOM     59  C   UNL     1       5.001  18.520 -17.828  1.00  0.00     0.049 A 
ATOM     60  C   UNL     1       0.417  18.355 -14.599  1.00  0.00     0.074 A 
ATOM     61  C   UNL     1       5.431  19.772 -18.229  1.00  0.00     0.029 A 
ATOM     62  N   UNL     1       3.877  18.716 -17.039  1.00  0.00    -0.354 N 
ATOM     63  N   UNL     1       1.470  18.552 -15.358  1.00  0.00    -0.248 NA
ATOM     64  C   UNL     1      -0.231  19.591 -14.139  1.00  0.00     0.031 C 
ATOM     65  C   UNL     1       4.600  20.729 -17.638  1.00  0.00     0.029 A 
ATOM     66  C   UNL     1       3.612  20.071 -16.923  1.00  0.00     0.049 A 
ATOM     67  H   UNL     1       3.345  17.999 -16.623  1.00  0.00     0.167 HD
ATOM     68  C   UNL     1       1.586  19.931 -15.497  1.00  0.00     0.074 A 
ATOM     69  C   UNL     1       0.497  20.519 -14.746  1.00  0.00     0.031 C 
ATOM     70  C   UNL     1       2.509  20.643 -16.189  1.00  0.00     0.037 A 
BRANCH  57  71
ATOM     71  C   UNL     1       6.840  17.198 -18.953  1.00  0.00     0.058 A 
ATOM     72  C   UNL     1       6.857  16.707 -20.269  1.00  0.00     0.135 A 
ATOM     73  C   UNL     1       8.043  17.699 -18.429  1.00  0.00     0.135 A 
ATOM     74  F   UNL     1       5.740  16.203 -20.818  1.00  0.00    -0.206 F 
ATOM     75  C   UNL     1       8.025  16.683 -21.023  1.00  0.00     0.059 A 
ATOM     76  C   UNL     1       9.217  17.716 -19.177  1.00  0.00     0.059 A 
ATOM     77  F   UNL     1       8.086  18.182 -17.177  1.00  0.00    -0.206 F 
ATOM     78  C   UNL     1       9.201  17.192 -20.469  1.00  0.00     0.060 A 
BRANCH  78  79
ATOM     79  S   UNL     1      10.706  17.160 -21.465  1.00  0.00     0.124 S 
ATOM     80  O   UNL     1      11.015  15.733 -21.480  1.00  0.00    -0.237 OA
ATOM     81  O   UNL     1      10.252  17.722 -22.733  1.00  0.00    -0.237 OA
ATOM     82  O   UNL     1      11.634  17.994 -20.708  1.00  0.00    -0.744 OA
ENDBRANCH  78  79
ENDBRANCH  57  71
BRANCH  58  83
ATOM     83  C   UNL     1      -1.405  17.037 -13.285  1.00  0.00     0.058 A 
ATOM     84  C   UNL     1      -2.649  17.472 -13.767  1.00  0.00     0.135 A 
ATOM     85  C   UNL     1      -1.345  16.574 -11.961  1.00  0.00     0.135 A 
ATOM     86  F   UNL     1      -2.759  17.929 -15.023  1.00  0.00    -0.206 F 
ATOM     87  C   UNL     1      -3.785  17.468 -12.963  1.00  0.00     0.059 A 
ATOM     88  C   UNL     1      -2.473  16.534 -11.147  1.00  0.00     0.059 A 
ATOM     89  F   UNL     1      -0.183  16.131 -11.455  1.00  0.00    -0.206 F 
ATOM     90  C   UNL     1      -3.687  16.994 -11.654  1.00  0.00     0.060 A 
BRANCH  90  91
ATOM     91  S   UNL     1      -5.178  16.959 -10.634  1.00  0.00     0.124 S 
ATOM     92  O   UNL     1      -5.393  18.379 -10.381  1.00  0.00    -0.237 OA
ATOM     93  O   UNL     1      -6.140  16.315 -11.523  1.00  0.00    -0.237 OA
ATOM     94  O   UNL     1      -4.774  16.166  -9.477  1.00  0.00    -0.744 OA
ENDBRANCH  90  91
ENDBRANCH  58  83
BRANCH  70  95
ATOM     95  C   UNL     1       2.360  22.139 -16.225  1.00  0.00     0.058 A 
ATOM     96  C   UNL     1       2.642  22.942 -15.111  1.00  0.00     0.135 A 
ATOM     97  C   UNL     1       2.010  22.782 -17.425  1.00  0.00     0.135 A 
ATOM     98  F   UNL     1       2.973  22.379 -13.938  1.00  0.00    -0.206 F 
ATOM     99  C   UNL     1       2.575  24.330 -15.181  1.00  0.00     0.059 A 
ATOM    100  C   UNL     1       1.966  24.168 -17.526  1.00  0.00     0.059 A 
ATOM    101  F   UNL     1       1.738  22.060 -18.524  1.00  0.00    -0.206 F 
ATOM    102  C   UNL     1       2.244  24.934 -16.396  1.00  0.00     0.060 A 
BRANCH 102 103
ATOM    103  S   UNL     1       2.224  26.737 -16.488  1.00  0.00     0.124 S 
ATOM    104  O   UNL     1       1.023  27.058 -15.724  1.00  0.00    -0.237 OA
ATOM    105  O   UNL     1       3.491  27.095 -15.859  1.00  0.00    -0.237 OA
ATOM    106  O   UNL     1       2.145  27.004 -17.921  1.00  0.00    -0.744 OA
ENDBRANCH 102 103
ENDBRANCH  70  95
ENDBRANCH  44  45
ENDBRANCH  36  39
ENDBRANCH  34  35
ENDBRANCH  33  34
ENDBRANCH   1  33
TORSDOF 18
