REMARK SMILES [NH3+]C[C@@]1([C@@H](O)C(=O)NCCCNC(=O)c2ccc(-c3c4nc(c(-c5c(F)cc(S(=O)(=O)[O-])cc5F)c5ccc([nH]5)c(-c5c(F)cc(S(=O)(=O)[O-])cc5F)c5nc(c(-c6c(F)cc(S(=O)(=O)[O-])cc6F)c6ccc3[nH]6)C=C5)C=C4)cc2)CCOc2ccccc21
REMARK SMILES IDX 10 1 9 2 8 3 6 4 7 5 4 7 3 8 81 9 89 10 82 11 84 12 88 13
REMARK SMILES IDX 83 14 85 15 87 16 86 17 2 18 1 19 5 23 11 25 12 26 13 27
REMARK SMILES IDX 14 29 15 30 16 31 80 32 17 33 79 34 18 35 19 36 20 37 73 38
REMARK SMILES IDX 21 39 78 40 72 41 74 42 22 43 77 44 71 45 70 46 23 48 57 49
REMARK SMILES IDX 36 50 56 51 37 52 40 53 55 54 75 55 38 56 39 57 54 59 76 60
REMARK SMILES IDX 41 61 24 62 25 63 34 64 26 65 27 66 33 67 35 68 28 69 29 70
REMARK SMILES IDX 30 71 31 72 32 73 58 74 59 75 68 76 60 77 61 78 67 79 69 80
REMARK SMILES IDX 62 81 63 82 64 83 65 84 66 85 42 86 43 87 52 88 44 89 45 90
REMARK SMILES IDX 51 91 53 92 46 93 47 94 48 95 49 96 50 97
REMARK H PARENT 8 6 1 20 1 21 1 22 5 24 12 28 74 47 40 58
REMARK Flexibility Score: inf
ROOT
ATOM      1  C   UNL     1       1.978  -4.711   2.261  1.00  0.00     0.042 C 
ENDROOT
BRANCH   1   2
ATOM      2  C   UNL     1       1.744  -4.192   0.844  1.00  0.00     0.117 C 
BRANCH   2   3
ATOM      3  N   UNL     1       0.491  -3.445   0.803  1.00  0.00    -0.354 N 
ATOM      4  C   UNL     1       0.148  -2.139   0.904  1.00  0.00     0.250 C 
ATOM      5  O   UNL     1      -1.073  -1.913   0.936  1.00  0.00    -0.272 OA
ATOM      6  H   UNL     1      -0.290  -4.030   0.670  1.00  0.00     0.163 HD
BRANCH   4   7
ATOM      7  C   UNL     1       1.129  -0.931   0.961  1.00  0.00     0.219 C 
BRANCH   7   8
ATOM      8  C   UNL     1       1.499  -0.308   2.378  1.00  0.00     0.086 C 
ATOM      9  C   UNL     1       1.341   1.240   2.261  1.00  0.00     0.062 C 
ATOM     10  C   UNL     1       2.958  -0.494   2.834  1.00  0.00     0.009 A 
ATOM     11  C   UNL     1       1.748   1.944   3.550  1.00  0.00     0.231 C 
ATOM     12  C   UNL     1       3.617   0.480   3.599  1.00  0.00     0.123 A 
ATOM     13  C   UNL     1       3.695  -1.637   2.511  1.00  0.00     0.008 A 
ATOM     14  O   UNL     1       3.096   1.701   3.925  1.00  0.00    -0.493 OA
ATOM     15  C   UNL     1       4.931   0.279   4.047  1.00  0.00     0.047 A 
ATOM     16  C   UNL     1       5.001  -1.849   2.953  1.00  0.00     0.001 A 
ATOM     17  C   UNL     1       5.620  -0.889   3.735  1.00  0.00     0.004 A 
BRANCH   8  18
ATOM     18  C   UNL     1       0.563  -0.861   3.513  1.00  0.00     0.274 C 
BRANCH  18  19
ATOM     19  N   UNL     1      -0.861  -0.528   3.425  1.00  0.00    -0.357 N 
ATOM     20  H   UNL     1      -1.356  -0.943   4.214  1.00  0.00     0.344 HD
ATOM     21  H   UNL     1      -1.242  -0.895   2.553  1.00  0.00     0.344 HD
ATOM     22  H   UNL     1      -0.975   0.485   3.446  1.00  0.00     0.344 HD
ENDBRANCH  18  19
ENDBRANCH   8  18
ENDBRANCH   7   8
BRANCH   7  23
ATOM     23  O   UNL     1       2.224  -1.020   0.055  1.00  0.00    -0.382 OA
ATOM     24  H   UNL     1       2.836  -1.710   0.355  1.00  0.00     0.211 HD
ENDBRANCH   7  23
ENDBRANCH   4   7
ENDBRANCH   2   3
ENDBRANCH   1   2
BRANCH   1  25
ATOM     25  C   UNL     1       2.939  -5.883   2.439  1.00  0.00     0.118 C 
BRANCH  25  26
ATOM     26  N   UNL     1       4.250  -5.763   1.834  1.00  0.00    -0.352 N 
ATOM     27  C   UNL     1       5.512  -6.110   2.280  1.00  0.00     0.251 C 
ATOM     28  H   UNL     1       4.241  -5.359   0.936  1.00  0.00     0.163 HD
ATOM     29  O   UNL     1       6.434  -6.016   1.475  1.00  0.00    -0.269 OA
BRANCH  27  30
ATOM     30  C   UNL     1       5.819  -6.521   3.686  1.00  0.00     0.039 A 
ATOM     31  C   UNL     1       7.109  -6.250   4.173  1.00  0.00     0.014 A 
ATOM     32  C   UNL     1       4.925  -7.166   4.537  1.00  0.00     0.014 A 
ATOM     33  C   UNL     1       7.456  -6.535   5.504  1.00  0.00     0.010 A 
ATOM     34  C   UNL     1       5.231  -7.347   5.891  1.00  0.00     0.010 A 
ATOM     35  C   UNL     1       6.500  -7.035   6.398  1.00  0.00    -0.014 A 
BRANCH  35  36
ATOM     36  C   UNL     1       6.797  -7.250   7.846  1.00  0.00     0.031 A 
ATOM     37  C   UNL     1       6.606  -8.612   8.470  1.00  0.00     0.074 A 
ATOM     38  C   UNL     1       7.150  -6.210   8.631  1.00  0.00     0.049 A 
ATOM     39  N   UNL     1       6.647  -8.962   9.732  1.00  0.00    -0.248 NA
ATOM     40  C   UNL     1       6.287  -9.721   7.556  1.00  0.00     0.031 C 
ATOM     41  C   UNL     1       7.324  -4.827   8.181  1.00  0.00     0.029 A 
ATOM     42  N   UNL     1       7.407  -6.148   9.981  1.00  0.00    -0.354 N 
ATOM     43  C   UNL     1       6.313 -10.312   9.766  1.00  0.00     0.074 A 
ATOM     44  C   UNL     1       6.035 -10.709   8.402  1.00  0.00     0.031 C 
ATOM     45  C   UNL     1       7.674  -4.061   9.226  1.00  0.00     0.029 A 
ATOM     46  C   UNL     1       7.705  -4.883  10.432  1.00  0.00     0.049 A 
ATOM     47  H   UNL     1       7.379  -6.937  10.570  1.00  0.00     0.167 HD
ATOM     48  C   UNL     1       6.263 -11.153  10.829  1.00  0.00     0.037 A 
ATOM     49  C   UNL     1       7.957  -4.426  11.675  1.00  0.00     0.037 A 
ATOM     50  C   UNL     1       6.604 -10.776  12.176  1.00  0.00     0.049 A 
ATOM     51  C   UNL     1       7.941  -5.385  12.834  1.00  0.00     0.074 A 
ATOM     52  C   UNL     1       6.663 -11.576  13.304  1.00  0.00     0.029 A 
ATOM     53  N   UNL     1       6.955  -9.496  12.576  1.00  0.00    -0.354 N 
ATOM     54  N   UNL     1       7.668  -6.667  12.837  1.00  0.00    -0.248 NA
ATOM     55  C   UNL     1       8.270  -4.837  14.158  1.00  0.00     0.031 C 
ATOM     56  C   UNL     1       7.021 -10.774  14.393  1.00  0.00     0.029 A 
ATOM     57  C   UNL     1       7.222  -9.481  13.936  1.00  0.00     0.049 A 
ATOM     58  H   UNL     1       7.006  -8.712  11.982  1.00  0.00     0.167 HD
ATOM     59  C   UNL     1       7.809  -7.083  14.157  1.00  0.00     0.074 A 
ATOM     60  C   UNL     1       8.206  -5.919  14.922  1.00  0.00     0.031 C 
ATOM     61  C   UNL     1       7.625  -8.318  14.685  1.00  0.00     0.037 A 
BRANCH  48  62
ATOM     62  C   UNL     1       5.829 -12.572  10.575  1.00  0.00     0.058 A 
ATOM     63  C   UNL     1       6.643 -13.481   9.880  1.00  0.00     0.135 A 
ATOM     64  C   UNL     1       4.592 -13.037  11.053  1.00  0.00     0.135 A 
ATOM     65  F   UNL     1       7.830 -13.088   9.391  1.00  0.00    -0.206 F 
ATOM     66  C   UNL     1       6.229 -14.786   9.630  1.00  0.00     0.059 A 
ATOM     67  C   UNL     1       4.171 -14.347  10.840  1.00  0.00     0.059 A 
ATOM     68  F   UNL     1       3.776 -12.214  11.730  1.00  0.00    -0.206 F 
ATOM     69  C   UNL     1       4.988 -15.208  10.109  1.00  0.00     0.060 A 
BRANCH  69  70
ATOM     70  S   UNL     1       4.459 -16.899   9.764  1.00  0.00     0.124 S 
ATOM     71  O   UNL     1       4.078 -16.801   8.358  1.00  0.00    -0.237 OA
ATOM     72  O   UNL     1       5.666 -17.670  10.040  1.00  0.00    -0.237 OA
ATOM     73  O   UNL     1       3.357 -17.108  10.699  1.00  0.00    -0.744 OA
ENDBRANCH  69  70
ENDBRANCH  48  62
BRANCH  49  74
ATOM     74  C   UNL     1       8.264  -2.985  11.886  1.00  0.00     0.058 A 
ATOM     75  C   UNL     1       9.567  -2.564  12.190  1.00  0.00     0.135 A 
ATOM     76  C   UNL     1       7.271  -2.000  11.764  1.00  0.00     0.135 A 
ATOM     77  F   UNL     1      10.548  -3.469  12.327  1.00  0.00    -0.206 F 
ATOM     78  C   UNL     1       9.875  -1.220  12.374  1.00  0.00     0.059 A 
ATOM     79  C   UNL     1       7.559  -0.648  11.921  1.00  0.00     0.059 A 
ATOM     80  F   UNL     1       6.011  -2.350  11.461  1.00  0.00    -0.206 F 
ATOM     81  C   UNL     1       8.864  -0.268  12.233  1.00  0.00     0.060 A 
BRANCH  81  82
ATOM     82  S   UNL     1       9.288   1.479  12.412  1.00  0.00     0.124 S 
ATOM     83  O   UNL     1       9.438   1.599  13.857  1.00  0.00    -0.237 OA
ATOM     84  O   UNL     1      10.518   1.579  11.632  1.00  0.00    -0.237 OA
ATOM     85  O   UNL     1       8.134   2.164  11.836  1.00  0.00    -0.744 OA
ENDBRANCH  81  82
ENDBRANCH  49  74
BRANCH  61  86
ATOM     86  C   UNL     1       7.876  -8.487  16.157  1.00  0.00     0.058 A 
ATOM     87  C   UNL     1       6.968  -8.016  17.117  1.00  0.00     0.135 A 
ATOM     88  C   UNL     1       9.010  -9.182  16.609  1.00  0.00     0.135 A 
ATOM     89  F   UNL     1       5.873  -7.340  16.737  1.00  0.00    -0.206 F 
ATOM     90  C   UNL     1       7.183  -8.214  18.478  1.00  0.00     0.059 A 
ATOM     91  C   UNL     1       9.233  -9.411  17.963  1.00  0.00     0.059 A 
ATOM     92  F   UNL     1       9.905  -9.661  15.730  1.00  0.00    -0.206 F 
ATOM     93  C   UNL     1       8.317  -8.916  18.891  1.00  0.00     0.060 A 
BRANCH  93  94
ATOM     94  S   UNL     1       8.563  -9.205  20.656  1.00  0.00     0.124 S 
ATOM     95  O   UNL     1       9.009  -7.893  21.110  1.00  0.00    -0.237 OA
ATOM     96  O   UNL     1       7.231  -9.610  21.097  1.00  0.00    -0.237 OA
ATOM     97  O   UNL     1       9.573 -10.259  20.690  1.00  0.00    -0.744 OA
ENDBRANCH  93  94
ENDBRANCH  61  86
ENDBRANCH  35  36
ENDBRANCH  27  30
ENDBRANCH  25  26
ENDBRANCH   1  25
TORSDOF 17
