REMARK SMILES CN1C(=O)C[C@@H](C(=O)NCCCNC(=O)c2ccc(-c3c4nc(c(-c5c(F)cc(S(=O)(=O)[O-])cc5F)c5ccc([nH]5)c(-c5c(F)cc(S(=O)(=O)[O-])cc5F)c5nc(c(-c6c(F)cc(S(=O)(=O)[O-])cc6F)c6ccc3[nH]6)C=C5)C=C4)cc2)C12CCN(C(=O)c1cccc3ccccc13)CC2
REMARK SMILES IDX 12 1 11 2 10 3 9 4 7 5 8 6 6 8 1 9 2 10 3 11 82 12 4 13 5 14
REMARK SMILES IDX 83 15 99 16 84 17 98 18 85 19 86 20 87 21 88 22 89 23 97 24
REMARK SMILES IDX 90 25 92 26 96 27 91 28 93 29 95 30 94 31 13 32 14 33 15 35
REMARK SMILES IDX 16 36 17 37 81 38 18 39 80 40 19 41 20 42 21 43 74 44 22 45
REMARK SMILES IDX 79 46 73 47 75 48 23 49 78 50 72 51 71 52 24 54 58 55 37 56
REMARK SMILES IDX 57 57 38 58 41 59 56 60 76 61 39 62 40 63 55 65 77 66 42 67
REMARK SMILES IDX 25 68 26 69 35 70 27 71 28 72 34 73 36 74 29 75 30 76 31 77
REMARK SMILES IDX 32 78 33 79 59 80 60 81 69 82 61 83 62 84 68 85 70 86 63 87
REMARK SMILES IDX 64 88 65 89 66 90 67 91 43 92 44 93 53 94 45 95 46 96 52 97
REMARK SMILES IDX 54 98 47 99 48 100 49 101 50 102 51 103
REMARK H PARENT 9 7 13 34 75 53 41 64
REMARK Flexibility Score: inf
ROOT
ATOM      1  C   UNL     1       2.049   1.951  -4.938  1.00  0.00     0.118 C 
ENDROOT
BRANCH   1   2
ATOM      2  C   UNL     1       1.296   1.533  -3.682  1.00  0.00     0.042 C 
BRANCH   2   3
ATOM      3  C   UNL     1       0.061   0.678  -3.968  1.00  0.00     0.117 C 
BRANCH   3   4
ATOM      4  N   UNL     1       0.337  -0.583  -4.646  1.00  0.00    -0.356 N 
ATOM      5  C   UNL     1       0.282  -1.887  -4.279  1.00  0.00     0.226 C 
ATOM      6  O   UNL     1       0.492  -2.712  -5.176  1.00  0.00    -0.275 OA
ATOM      7  H   UNL     1       0.628  -0.460  -5.579  1.00  0.00     0.163 HD
BRANCH   5   8
ATOM      8  C   UNL     1       0.040  -2.401  -2.859  1.00  0.00     0.113 C 
ATOM      9  C   UNL     1       1.012  -0.106  -0.052  1.00  0.00     0.147 C 
ATOM     10  N   UNL     1       0.416  -0.920  -1.096  1.00  0.00    -0.339 N 
ATOM     11  C   UNL     1      -0.968  -0.952  -1.249  1.00  0.00     0.223 C 
ATOM     12  C   UNL     1       1.092  -2.029  -1.789  1.00  0.00     0.058 C 
ATOM     13  O   UNL     1      -1.784  -0.269  -0.656  1.00  0.00    -0.275 OA
ATOM     14  C   UNL     1      -1.312  -1.969  -2.300  1.00  0.00     0.116 C 
ATOM     15  C   UNL     1       2.464  -1.662  -2.398  1.00  0.00     0.051 C 
ATOM     16  C   UNL     1       1.313  -3.184  -0.763  1.00  0.00     0.051 C 
ATOM     17  C   UNL     1       3.198  -2.869  -2.982  1.00  0.00     0.122 C 
ATOM     18  C   UNL     1       2.202  -4.316  -1.286  1.00  0.00     0.122 C 
ATOM     19  N   UNL     1       3.425  -3.803  -1.903  1.00  0.00    -0.338 N 
ATOM     20  C   UNL     1       4.665  -4.154  -1.380  1.00  0.00     0.254 C 
ATOM     21  O   UNL     1       4.768  -4.812  -0.343  1.00  0.00    -0.269 OA
BRANCH  20  22
ATOM     22  C   UNL     1       5.937  -3.896  -2.116  1.00  0.00     0.047 A 
ATOM     23  C   UNL     1       6.553  -5.072  -2.580  1.00  0.00     0.014 A 
ATOM     24  C   UNL     1       6.631  -2.650  -2.166  1.00  0.00    -0.006 A 
ATOM     25  C   UNL     1       7.870  -5.055  -3.024  1.00  0.00     0.001 A 
ATOM     26  C   UNL     1       7.989  -2.667  -2.581  1.00  0.00    -0.018 A 
ATOM     27  C   UNL     1       6.088  -1.384  -1.843  1.00  0.00     0.009 A 
ATOM     28  C   UNL     1       8.592  -3.867  -2.982  1.00  0.00     0.009 A 
ATOM     29  C   UNL     1       8.748  -1.484  -2.592  1.00  0.00     0.009 A 
ATOM     30  C   UNL     1       6.820  -0.199  -1.973  1.00  0.00     0.001 A 
ATOM     31  C   UNL     1       8.162  -0.253  -2.316  1.00  0.00     0.001 A 
ENDBRANCH  20  22
ENDBRANCH   5   8
ENDBRANCH   3   4
ENDBRANCH   2   3
ENDBRANCH   1   2
BRANCH   1  32
ATOM     32  N   UNL     1       1.289   2.934  -5.696  1.00  0.00    -0.352 N 
ATOM     33  C   UNL     1       1.500   4.286  -5.814  1.00  0.00     0.251 C 
ATOM     34  H   UNL     1       0.516   2.581  -6.192  1.00  0.00     0.163 HD
ATOM     35  O   UNL     1       0.582   5.011  -6.185  1.00  0.00    -0.269 OA
BRANCH  33  36
ATOM     36  C   UNL     1       2.826   4.862  -5.499  1.00  0.00     0.039 A 
ATOM     37  C   UNL     1       2.900   6.101  -4.857  1.00  0.00     0.014 A 
ATOM     38  C   UNL     1       3.998   4.201  -5.878  1.00  0.00     0.014 A 
ATOM     39  C   UNL     1       4.148   6.652  -4.558  1.00  0.00     0.010 A 
ATOM     40  C   UNL     1       5.237   4.706  -5.497  1.00  0.00     0.010 A 
ATOM     41  C   UNL     1       5.328   5.947  -4.850  1.00  0.00    -0.014 A 
BRANCH  41  42
ATOM     42  C   UNL     1       6.666   6.500  -4.515  1.00  0.00     0.031 A 
ATOM     43  C   UNL     1       7.660   6.784  -5.611  1.00  0.00     0.074 A 
ATOM     44  C   UNL     1       7.007   6.688  -3.224  1.00  0.00     0.049 A 
ATOM     45  N   UNL     1       8.898   7.196  -5.516  1.00  0.00    -0.248 NA
ATOM     46  C   UNL     1       7.215   6.543  -6.994  1.00  0.00     0.031 C 
ATOM     47  C   UNL     1       6.147   6.406  -2.072  1.00  0.00     0.029 A 
ATOM     48  N   UNL     1       8.169   7.154  -2.663  1.00  0.00    -0.354 N 
ATOM     49  C   UNL     1       9.381   7.249  -6.819  1.00  0.00     0.074 A 
ATOM     50  C   UNL     1       8.325   6.766  -7.681  1.00  0.00     0.031 C 
ATOM     51  C   UNL     1       6.801   6.730  -0.945  1.00  0.00     0.029 A 
ATOM     52  C   UNL     1       8.139   7.200  -1.288  1.00  0.00     0.049 A 
ATOM     53  H   UNL     1       8.951   7.429  -3.193  1.00  0.00     0.167 HD
ATOM     54  C   UNL     1      10.585   7.686  -7.261  1.00  0.00     0.037 A 
ATOM     55  C   UNL     1       9.086   7.569  -0.404  1.00  0.00     0.037 A 
ATOM     56  C   UNL     1      11.620   8.191  -6.397  1.00  0.00     0.049 A 
ATOM     57  C   UNL     1      10.419   8.044  -0.917  1.00  0.00     0.074 A 
ATOM     58  C   UNL     1      12.854   8.711  -6.747  1.00  0.00     0.029 A 
ATOM     59  N   UNL     1      11.545   8.237  -5.012  1.00  0.00    -0.354 N 
ATOM     60  N   UNL     1      10.836   8.146  -2.157  1.00  0.00    -0.248 NA
ATOM     61  C   UNL     1      11.408   8.461   0.086  1.00  0.00     0.031 C 
ATOM     62  C   UNL     1      13.546   9.020  -5.572  1.00  0.00     0.029 A 
ATOM     63  C   UNL     1      12.720   8.753  -4.492  1.00  0.00     0.049 A 
ATOM     64  H   UNL     1      10.771   7.946  -4.479  1.00  0.00     0.167 HD
ATOM     65  C   UNL     1      12.123   8.669  -2.084  1.00  0.00     0.074 A 
ATOM     66  C   UNL     1      12.410   8.872  -0.679  1.00  0.00     0.031 C 
ATOM     67  C   UNL     1      12.987   8.956  -3.089  1.00  0.00     0.037 A 
BRANCH  54  68
ATOM     68  C   UNL     1      10.848   7.640  -8.743  1.00  0.00     0.058 A 
ATOM     69  C   UNL     1      10.168   8.480  -9.642  1.00  0.00     0.135 A 
ATOM     70  C   UNL     1      11.819   6.773  -9.270  1.00  0.00     0.135 A 
ATOM     71  F   UNL     1       9.218   9.319  -9.198  1.00  0.00    -0.206 F 
ATOM     72  C   UNL     1      10.418   8.438 -11.009  1.00  0.00     0.059 A 
ATOM     73  C   UNL     1      12.109   6.738 -10.631  1.00  0.00     0.059 A 
ATOM     74  F   UNL     1      12.499   5.947  -8.459  1.00  0.00    -0.206 F 
ATOM     75  C   UNL     1      11.392   7.564 -11.495  1.00  0.00     0.060 A 
BRANCH  75  76
ATOM     76  S   UNL     1      11.708   7.530 -13.271  1.00  0.00     0.124 S 
ATOM     77  O   UNL     1      10.497   6.884 -13.770  1.00  0.00    -0.237 OA
ATOM     78  O   UNL     1      11.847   8.947 -13.590  1.00  0.00    -0.237 OA
ATOM     79  O   UNL     1      12.931   6.741 -13.385  1.00  0.00    -0.744 OA
ENDBRANCH  75  76
ENDBRANCH  54  68
BRANCH  55  80
ATOM     80  C   UNL     1       8.800   7.523   1.056  1.00  0.00     0.058 A 
ATOM     81  C   UNL     1       8.682   8.702   1.808  1.00  0.00     0.135 A 
ATOM     82  C   UNL     1       8.625   6.302   1.726  1.00  0.00     0.135 A 
ATOM     83  F   UNL     1       8.846   9.894   1.215  1.00  0.00    -0.206 F 
ATOM     84  C   UNL     1       8.423   8.673   3.174  1.00  0.00     0.059 A 
ATOM     85  C   UNL     1       8.335   6.248   3.086  1.00  0.00     0.059 A 
ATOM     86  F   UNL     1       8.708   5.145   1.050  1.00  0.00    -0.206 F 
ATOM     87  C   UNL     1       8.247   7.440   3.804  1.00  0.00     0.060 A 
BRANCH  87  88
ATOM     88  S   UNL     1       7.865   7.417   5.569  1.00  0.00     0.124 S 
ATOM     89  O   UNL     1       9.140   7.818   6.151  1.00  0.00    -0.237 OA
ATOM     90  O   UNL     1       6.785   8.394   5.659  1.00  0.00    -0.237 OA
ATOM     91  O   UNL     1       7.468   6.032   5.807  1.00  0.00    -0.744 OA
ENDBRANCH  87  88
ENDBRANCH  55  80
BRANCH  67  92
ATOM     92  C   UNL     1      14.313   9.560  -2.713  1.00  0.00     0.058 A 
ATOM     93  C   UNL     1      15.315   8.812  -2.076  1.00  0.00     0.135 A 
ATOM     94  C   UNL     1      14.604  10.894  -3.047  1.00  0.00     0.135 A 
ATOM     95  F   UNL     1      15.088   7.535  -1.729  1.00  0.00    -0.206 F 
ATOM     96  C   UNL     1      16.549   9.371  -1.760  1.00  0.00     0.059 A 
ATOM     97  C   UNL     1      15.842  11.463  -2.770  1.00  0.00     0.059 A 
ATOM     98  F   UNL     1      13.685  11.651  -3.667  1.00  0.00    -0.206 F 
ATOM     99  C   UNL     1      16.804  10.697  -2.115  1.00  0.00     0.060 A 
BRANCH  99 100
ATOM    100  S   UNL     1      18.423  11.398  -1.731  1.00  0.00     0.124 S 
ATOM    101  O   UNL     1      18.342  11.549  -0.282  1.00  0.00    -0.237 OA
ATOM    102  O   UNL     1      19.332  10.362  -2.212  1.00  0.00    -0.237 OA
ATOM    103  O   UNL     1      18.443  12.644  -2.491  1.00  0.00    -0.744 OA
ENDBRANCH  99 100
ENDBRANCH  67  92
ENDBRANCH  41  42
ENDBRANCH  33  36
ENDBRANCH   1  32
TORSDOF 14
