REMARK SMILES CN(CCCC(=O)NCCCNC(=O)c1ccc(-c2c3nc(c(-c4c(F)cc(S(=O)(=O)[O-])cc4F)c4ccc([nH]4)c(-c4c(F)cc(S(=O)(=O)[O-])cc4F)c4nc(c(-c5c(F)cc(S(=O)(=O)[O-])cc5F)c5ccc2[nH]5)C=C4)C=C3)cc1)C(=O)c1ccc(Br)o1
REMARK SMILES IDX 9 1 8 2 6 3 7 4 5 6 4 7 3 8 2 9 1 10 81 11 82 12 83 13 84 14
REMARK SMILES IDX 88 15 85 16 86 17 87 18 10 19 11 20 12 21 13 22 14 24 15 25
REMARK SMILES IDX 16 26 80 27 17 28 79 29 18 30 19 31 20 32 73 33 21 34 78 35
REMARK SMILES IDX 72 36 74 37 22 38 77 39 71 40 70 41 23 43 57 44 36 45 56 46
REMARK SMILES IDX 37 47 40 48 55 49 75 50 38 51 39 52 54 54 76 55 41 56 24 57
REMARK SMILES IDX 25 58 34 59 26 60 27 61 33 62 35 63 28 64 29 65 30 66 31 67
REMARK SMILES IDX 32 68 58 69 59 70 68 71 60 72 61 73 67 74 69 75 62 76 63 77
REMARK SMILES IDX 64 78 65 79 66 80 42 81 43 82 52 83 44 84 45 85 51 86 53 87
REMARK SMILES IDX 46 88 47 89 48 90 49 91 50 92
REMARK H PARENT 8 5 12 23 74 42 40 53
REMARK Flexibility Score: inf
ROOT
ATOM      1  C   UNL     1       1.052   1.643   3.756  1.00  0.00     0.117 C 
ENDROOT
BRANCH   1   2
ATOM      2  N   UNL     1      -0.110   2.112   4.476  1.00  0.00    -0.356 N 
ATOM      3  C   UNL     1      -1.433   1.853   4.386  1.00  0.00     0.220 C 
ATOM      4  O   UNL     1      -2.141   2.415   5.233  1.00  0.00    -0.275 OA
ATOM      5  H   UNL     1       0.109   2.759   5.185  1.00  0.00     0.163 HD
BRANCH   3   6
ATOM      6  C   UNL     1      -2.085   0.850   3.448  1.00  0.00     0.102 C 
BRANCH   6   7
ATOM      7  C   UNL     1      -1.940   0.841   1.943  1.00  0.00     0.031 C 
BRANCH   7   8
ATOM      8  C   UNL     1      -0.630   0.532   1.233  1.00  0.00     0.120 C 
BRANCH   8   9
ATOM      9  N   UNL     1       0.045  -0.785   1.187  1.00  0.00    -0.339 N 
ATOM     10  C   UNL     1       0.876  -0.943  -0.011  1.00  0.00     0.147 C 
BRANCH   9  11
ATOM     11  C   UNL     1       0.321  -1.801   2.142  1.00  0.00     0.289 C 
ATOM     12  O   UNL     1       0.861  -2.845   1.761  1.00  0.00    -0.265 OA
BRANCH  11  13
ATOM     13  C   UNL     1       0.074  -1.656   3.561  1.00  0.00     0.193 A 
ATOM     14  C   UNL     1      -0.925  -2.139   4.390  1.00  0.00     0.057 A 
ATOM     15  O   UNL     1       1.107  -1.205   4.352  1.00  0.00    -0.444 OA
ATOM     16  C   UNL     1      -0.564  -1.803   5.722  1.00  0.00     0.059 A 
ATOM     17  C   UNL     1       0.698  -1.264   5.648  1.00  0.00     0.170 A 
ATOM     18  Br  UNL     1       1.712  -0.692   7.107  1.00  0.00    -0.008 Br
ENDBRANCH  11  13
ENDBRANCH   9  11
ENDBRANCH   8   9
ENDBRANCH   7   8
ENDBRANCH   6   7
ENDBRANCH   3   6
ENDBRANCH   1   2
BRANCH   1  19
ATOM     19  C   UNL     1       1.597   2.690   2.803  1.00  0.00     0.042 C 
BRANCH  19  20
ATOM     20  C   UNL     1       2.545   3.638   3.502  1.00  0.00     0.118 C 
BRANCH  20  21
ATOM     21  N   UNL     1       3.868   3.049   3.690  1.00  0.00    -0.352 N 
ATOM     22  C   UNL     1       5.088   3.497   3.241  1.00  0.00     0.251 C 
ATOM     23  H   UNL     1       3.889   2.215   4.212  1.00  0.00     0.163 HD
ATOM     24  O   UNL     1       6.079   2.776   3.333  1.00  0.00    -0.269 OA
BRANCH  22  25
ATOM     25  C   UNL     1       5.188   4.832   2.613  1.00  0.00     0.039 A 
ATOM     26  C   UNL     1       5.973   4.996   1.470  1.00  0.00     0.014 A 
ATOM     27  C   UNL     1       4.466   5.909   3.128  1.00  0.00     0.014 A 
ATOM     28  C   UNL     1       5.968   6.224   0.804  1.00  0.00     0.010 A 
ATOM     29  C   UNL     1       4.355   7.079   2.392  1.00  0.00     0.010 A 
ATOM     30  C   UNL     1       5.124   7.261   1.235  1.00  0.00    -0.014 A 
BRANCH  30  31
ATOM     31  C   UNL     1       5.046   8.557   0.516  1.00  0.00     0.031 A 
ATOM     32  C   UNL     1       5.378   9.834   1.244  1.00  0.00     0.074 A 
ATOM     33  C   UNL     1       4.600   8.595  -0.754  1.00  0.00     0.049 A 
ATOM     34  N   UNL     1       5.293  11.070   0.826  1.00  0.00    -0.248 NA
ATOM     35  C   UNL     1       5.820   9.705   2.642  1.00  0.00     0.031 C 
ATOM     36  C   UNL     1       4.179   7.432  -1.539  1.00  0.00     0.029 A 
ATOM     37  N   UNL     1       4.412   9.654  -1.606  1.00  0.00    -0.354 N 
ATOM     38  C   UNL     1       5.645  11.860   1.914  1.00  0.00     0.074 A 
ATOM     39  C   UNL     1       5.869  10.970   3.029  1.00  0.00     0.031 C 
ATOM     40  C   UNL     1       3.810   7.838  -2.764  1.00  0.00     0.029 A 
ATOM     41  C   UNL     1       3.924   9.291  -2.838  1.00  0.00     0.049 A 
ATOM     42  H   UNL     1       4.607  10.586  -1.357  1.00  0.00     0.167 HD
ATOM     43  C   UNL     1       5.799  13.204   1.972  1.00  0.00     0.037 A 
ATOM     44  C   UNL     1       3.596  10.044  -3.906  1.00  0.00     0.037 A 
ATOM     45  C   UNL     1       5.599  14.076   0.845  1.00  0.00     0.049 A 
ATOM     46  C   UNL     1       3.790  11.533  -3.833  1.00  0.00     0.074 A 
ATOM     47  C   UNL     1       5.805  15.441   0.766  1.00  0.00     0.029 A 
ATOM     48  N   UNL     1       5.137  13.668  -0.399  1.00  0.00    -0.354 N 
ATOM     49  N   UNL     1       4.210  12.259  -2.824  1.00  0.00    -0.248 NA
ATOM     50  C   UNL     1       3.475  12.305  -5.042  1.00  0.00     0.031 C 
ATOM     51  C   UNL     1       5.410  15.867  -0.507  1.00  0.00     0.029 A 
ATOM     52  C   UNL     1       5.018  14.759  -1.243  1.00  0.00     0.049 A 
ATOM     53  H   UNL     1       4.925  12.738  -0.645  1.00  0.00     0.167 HD
ATOM     54  C   UNL     1       4.224  13.573  -3.279  1.00  0.00     0.074 A 
ATOM     55  C   UNL     1       3.788  13.536  -4.661  1.00  0.00     0.031 C 
ATOM     56  C   UNL     1       4.568  14.705  -2.614  1.00  0.00     0.037 A 
BRANCH  43  57
ATOM     57  C   UNL     1       6.189  13.800   3.299  1.00  0.00     0.058 A 
ATOM     58  C   UNL     1       7.438  13.546   3.892  1.00  0.00     0.135 A 
ATOM     59  C   UNL     1       5.293  14.623   4.001  1.00  0.00     0.135 A 
ATOM     60  F   UNL     1       8.332  12.756   3.275  1.00  0.00    -0.206 F 
ATOM     61  C   UNL     1       7.761  14.036   5.153  1.00  0.00     0.059 A 
ATOM     62  C   UNL     1       5.609  15.155   5.248  1.00  0.00     0.059 A 
ATOM     63  F   UNL     1       4.086  14.904   3.485  1.00  0.00    -0.206 F 
ATOM     64  C   UNL     1       6.836  14.834   5.827  1.00  0.00     0.060 A 
BRANCH  64  65
ATOM     65  S   UNL     1       7.254  15.431   7.478  1.00  0.00     0.124 S 
ATOM     66  O   UNL     1       7.136  14.208   8.267  1.00  0.00    -0.237 OA
ATOM     67  O   UNL     1       8.611  15.936   7.293  1.00  0.00    -0.237 OA
ATOM     68  O   UNL     1       6.240  16.447   7.740  1.00  0.00    -0.744 OA
ENDBRANCH  64  65
ENDBRANCH  43  57
BRANCH  44  69
ATOM     69  C   UNL     1       3.078   9.383  -5.133  1.00  0.00     0.058 A 
ATOM     70  C   UNL     1       3.868   9.273  -6.286  1.00  0.00     0.135 A 
ATOM     71  C   UNL     1       1.809   8.781  -5.151  1.00  0.00     0.135 A 
ATOM     72  F   UNL     1       5.084   9.838  -6.322  1.00  0.00    -0.206 F 
ATOM     73  C   UNL     1       3.425   8.583  -7.411  1.00  0.00     0.059 A 
ATOM     74  C   UNL     1       1.354   8.065  -6.254  1.00  0.00     0.059 A 
ATOM     75  F   UNL     1       1.020   8.842  -4.067  1.00  0.00    -0.206 F 
ATOM     76  C   UNL     1       2.171   7.970  -7.379  1.00  0.00     0.060 A 
BRANCH  76  77
ATOM     77  S   UNL     1       1.651   6.988  -8.804  1.00  0.00     0.124 S 
ATOM     78  O   UNL     1       1.400   8.023  -9.800  1.00  0.00    -0.237 OA
ATOM     79  O   UNL     1       2.821   6.147  -9.036  1.00  0.00    -0.237 OA
ATOM     80  O   UNL     1       0.471   6.283  -8.313  1.00  0.00    -0.744 OA
ENDBRANCH  76  77
ENDBRANCH  44  69
BRANCH  56  81
ATOM     81  C   UNL     1       4.497  16.001  -3.374  1.00  0.00     0.058 A 
ATOM     82  C   UNL     1       3.269  16.585  -3.724  1.00  0.00     0.135 A 
ATOM     83  C   UNL     1       5.672  16.696  -3.705  1.00  0.00     0.135 A 
ATOM     84  F   UNL     1       2.117  15.960  -3.437  1.00  0.00    -0.206 F 
ATOM     85  C   UNL     1       3.209  17.801  -4.397  1.00  0.00     0.059 A 
ATOM     86  C   UNL     1       5.634  17.928  -4.349  1.00  0.00     0.059 A 
ATOM     87  F   UNL     1       6.872  16.188  -3.384  1.00  0.00    -0.206 F 
ATOM     88  C   UNL     1       4.398  18.467  -4.702  1.00  0.00     0.060 A 
BRANCH  88  89
ATOM     89  S   UNL     1       4.303  20.060  -5.545  1.00  0.00     0.124 S 
ATOM     90  O   UNL     1       3.900  19.657  -6.889  1.00  0.00    -0.237 OA
ATOM     91  O   UNL     1       3.293  20.766  -4.764  1.00  0.00    -0.237 OA
ATOM     92  O   UNL     1       5.660  20.588  -5.429  1.00  0.00    -0.744 OA
ENDBRANCH  88  89
ENDBRANCH  56  81
ENDBRANCH  30  31
ENDBRANCH  22  25
ENDBRANCH  20  21
ENDBRANCH  19  20
ENDBRANCH   1  19
TORSDOF 18
