REMARK SMILES Cc1cc(S(=O)(=O)N[C@@H](CO)C(=O)NCCCNC(=O)c2ccc(-c3c4nc(c(-c5c(F)cc(S(=O)(=O)[O-])cc5F)c5ccc([nH]5)c(-c5c(F)cc(S(=O)(=O)[O-])cc5F)c5nc(c(-c6c(F)cc(S(=O)(=O)[O-])cc6F)c6ccc3[nH]6)C=C5)C=C4)cc2)ccc1OC(C)C
REMARK SMILES IDX 15 1 14 2 12 3 13 4 9 6 8 7 5 9 6 10 7 11 4 12 1 13 2 14
REMARK SMILES IDX 3 15 89 16 88 17 87 18 90 19 91 20 92 21 93 22 10 23 11 24
REMARK SMILES IDX 16 26 17 27 18 28 19 29 20 31 21 32 22 33 86 34 23 35 85 36
REMARK SMILES IDX 24 37 25 38 26 39 79 40 27 41 84 42 78 43 80 44 28 45 83 46
REMARK SMILES IDX 77 47 76 48 29 50 63 51 42 52 62 53 43 54 46 55 61 56 81 57
REMARK SMILES IDX 44 58 45 59 60 61 82 62 47 63 30 64 31 65 40 66 32 67 33 68
REMARK SMILES IDX 39 69 41 70 34 71 35 72 36 73 37 74 38 75 64 76 65 77 74 78
REMARK SMILES IDX 66 79 67 80 73 81 75 82 68 83 69 84 70 85 71 86 72 87 48 88
REMARK SMILES IDX 49 89 58 90 50 91 51 92 57 93 59 94 52 95 53 96 54 97 55 98
REMARK SMILES IDX 56 99
REMARK H PARENT 14 5 8 8 11 25 18 30 80 49 46 60
REMARK Flexibility Score: inf
ROOT
ATOM      1  C   UNL     1      -5.944  -4.058  -1.458  1.00  0.00     0.117 C 
ENDROOT
BRANCH   1   2
ATOM      2  N   UNL     1      -6.313  -2.651  -1.440  1.00  0.00    -0.355 N 
ATOM      3  C   UNL     1      -5.508  -1.555  -1.556  1.00  0.00     0.240 C 
ATOM      4  O   UNL     1      -6.030  -0.437  -1.581  1.00  0.00    -0.273 OA
ATOM      5  H   UNL     1      -7.273  -2.463  -1.328  1.00  0.00     0.163 HD
BRANCH   3   6
ATOM      6  C   UNL     1      -3.978  -1.690  -1.567  1.00  0.00     0.184 C 
BRANCH   6   7
ATOM      7  N   UNL     1      -3.585  -2.402  -0.335  1.00  0.00    -0.196 NA
ATOM      8  H   UNL     1      -3.909  -1.812   0.432  1.00  0.00     0.142 HD
BRANCH   7   9
ATOM      9  S   UNL     1      -2.049  -2.842   0.075  1.00  0.00     0.241 S 
ATOM     10  O   UNL     1      -1.530  -3.624  -1.037  1.00  0.00    -0.207 OA
ATOM     11  O   UNL     1      -2.112  -3.373   1.407  1.00  0.00    -0.207 OA
BRANCH   9  12
ATOM     12  C   UNL     1      -1.106  -1.350   0.152  1.00  0.00     0.083 A 
ATOM     13  C   UNL     1       2.578  -0.683  -0.073  1.00  0.00     0.048 C 
ATOM     14  C   UNL     1       1.124  -0.317   0.015  1.00  0.00    -0.008 A 
ATOM     15  C   UNL     1       0.279  -1.454   0.021  1.00  0.00     0.029 A 
ATOM     16  C   UNL     1       0.524   0.950   0.087  1.00  0.00     0.122 A 
ATOM     17  C   UNL     1      -0.878   1.025   0.245  1.00  0.00     0.048 A 
ATOM     18  C   UNL     1      -1.691  -0.106   0.310  1.00  0.00     0.025 A 
BRANCH  16  19
ATOM     19  O   UNL     1       1.029   2.211   0.022  1.00  0.00    -0.491 OA
BRANCH  19  20
ATOM     20  C   UNL     1       2.394   2.595   0.007  1.00  0.00     0.167 C 
ATOM     21  C   UNL     1       3.114   2.260   1.312  1.00  0.00     0.052 C 
ATOM     22  C   UNL     1       3.092   2.268  -1.312  1.00  0.00     0.052 C 
ENDBRANCH  19  20
ENDBRANCH  16  19
ENDBRANCH   9  12
ENDBRANCH   7   9
ENDBRANCH   6   7
BRANCH   6  23
ATOM     23  C   UNL     1      -3.423  -2.198  -2.907  1.00  0.00     0.186 C 
BRANCH  23  24
ATOM     24  O   UNL     1      -3.320  -3.607  -3.059  1.00  0.00    -0.394 OA
ATOM     25  H   UNL     1      -2.684  -3.956  -2.414  1.00  0.00     0.210 HD
ENDBRANCH  23  24
ENDBRANCH   6  23
ENDBRANCH   3   6
ENDBRANCH   1   2
BRANCH   1  26
ATOM     26  C   UNL     1      -6.135  -4.733  -0.116  1.00  0.00     0.042 C 
BRANCH  26  27
ATOM     27  C   UNL     1      -7.571  -5.133   0.113  1.00  0.00     0.118 C 
BRANCH  27  28
ATOM     28  N   UNL     1      -7.929  -6.398  -0.508  1.00  0.00    -0.352 N 
ATOM     29  C   UNL     1      -8.967  -7.255  -0.183  1.00  0.00     0.251 C 
ATOM     30  H   UNL     1      -7.359  -6.682  -1.258  1.00  0.00     0.163 HD
ATOM     31  O   UNL     1      -8.892  -8.450  -0.442  1.00  0.00    -0.269 OA
BRANCH  29  32
ATOM     32  C   UNL     1     -10.237  -6.659   0.295  1.00  0.00     0.039 A 
ATOM     33  C   UNL     1     -11.415  -7.032  -0.367  1.00  0.00     0.014 A 
ATOM     34  C   UNL     1     -10.208  -5.516   1.074  1.00  0.00     0.014 A 
ATOM     35  C   UNL     1     -12.473  -6.136  -0.439  1.00  0.00     0.010 A 
ATOM     36  C   UNL     1     -11.126  -4.545   0.806  1.00  0.00     0.010 A 
ATOM     37  C   UNL     1     -12.262  -4.860   0.052  1.00  0.00    -0.014 A 
BRANCH  37  38
ATOM     38  C   UNL     1     -13.196  -3.758   0.036  1.00  0.00     0.031 A 
ATOM     39  C   UNL     1     -13.818  -3.444   1.343  1.00  0.00     0.074 A 
ATOM     40  C   UNL     1     -13.047  -2.875  -0.974  1.00  0.00     0.049 A 
ATOM     41  N   UNL     1     -14.594  -2.452   1.559  1.00  0.00    -0.248 NA
ATOM     42  C   UNL     1     -13.573  -4.237   2.552  1.00  0.00     0.031 C 
ATOM     43  C   UNL     1     -13.304  -1.441  -0.973  1.00  0.00     0.029 A 
ATOM     44  N   UNL     1     -12.788  -3.172  -2.314  1.00  0.00    -0.354 N 
ATOM     45  C   UNL     1     -14.708  -2.287   2.926  1.00  0.00     0.074 A 
ATOM     46  C   UNL     1     -14.103  -3.459   3.499  1.00  0.00     0.031 C 
ATOM     47  C   UNL     1     -13.470  -1.026  -2.242  1.00  0.00     0.029 A 
ATOM     48  C   UNL     1     -13.498  -2.219  -3.073  1.00  0.00     0.049 A 
ATOM     49  H   UNL     1     -12.223  -3.901  -2.660  1.00  0.00     0.167 HD
ATOM     50  C   UNL     1     -15.194  -1.095   3.373  1.00  0.00     0.037 A 
ATOM     51  C   UNL     1     -14.591  -2.620  -3.795  1.00  0.00     0.037 A 
ATOM     52  C   UNL     1     -15.637  -0.309   2.224  1.00  0.00     0.049 A 
ATOM     53  C   UNL     1     -15.877  -2.018  -3.272  1.00  0.00     0.074 A 
ATOM     54  C   UNL     1     -15.020   0.675   1.471  1.00  0.00     0.029 A 
ATOM     55  N   UNL     1     -16.705  -0.781   1.474  1.00  0.00    -0.354 N 
ATOM     56  N   UNL     1     -16.068  -1.655  -2.031  1.00  0.00    -0.248 NA
ATOM     57  C   UNL     1     -17.016  -1.702  -4.127  1.00  0.00     0.031 C 
ATOM     58  C   UNL     1     -15.689   0.739   0.221  1.00  0.00     0.029 A 
ATOM     59  C   UNL     1     -16.715  -0.192   0.227  1.00  0.00     0.049 A 
ATOM     60  H   UNL     1     -17.363  -1.443   1.787  1.00  0.00     0.167 HD
ATOM     61  C   UNL     1     -17.296  -1.053  -1.913  1.00  0.00     0.074 A 
ATOM     62  C   UNL     1     -17.849  -1.110  -3.253  1.00  0.00     0.031 C 
ATOM     63  C   UNL     1     -17.751  -0.529  -0.735  1.00  0.00     0.037 A 
BRANCH  50  64
ATOM     64  C   UNL     1     -15.095  -0.514   4.768  1.00  0.00     0.058 A 
ATOM     65  C   UNL     1     -15.265   0.880   4.948  1.00  0.00     0.135 A 
ATOM     66  C   UNL     1     -14.808  -1.221   5.952  1.00  0.00     0.135 A 
ATOM     67  F   UNL     1     -15.575   1.691   3.927  1.00  0.00    -0.206 F 
ATOM     68  C   UNL     1     -15.116   1.520   6.176  1.00  0.00     0.059 A 
ATOM     69  C   UNL     1     -14.634  -0.597   7.195  1.00  0.00     0.059 A 
ATOM     70  F   UNL     1     -14.713  -2.554   5.977  1.00  0.00    -0.206 F 
ATOM     71  C   UNL     1     -14.786   0.777   7.296  1.00  0.00     0.060 A 
BRANCH  71  72
ATOM     72  S   UNL     1     -14.587   1.637   8.865  1.00  0.00     0.124 S 
ATOM     73  O   UNL     1     -13.490   2.554   8.570  1.00  0.00    -0.237 OA
ATOM     74  O   UNL     1     -15.897   2.251   9.046  1.00  0.00    -0.237 OA
ATOM     75  O   UNL     1     -14.264   0.565   9.803  1.00  0.00    -0.744 OA
ENDBRANCH  71  72
ENDBRANCH  50  64
BRANCH  51  76
ATOM     76  C   UNL     1     -14.415  -4.000  -4.350  1.00  0.00     0.058 A 
ATOM     77  C   UNL     1     -13.388  -4.165  -5.305  1.00  0.00     0.135 A 
ATOM     78  C   UNL     1     -14.792  -5.131  -3.610  1.00  0.00     0.135 A 
ATOM     79  F   UNL     1     -13.010  -3.124  -6.067  1.00  0.00    -0.206 F 
ATOM     80  C   UNL     1     -12.617  -5.321  -5.356  1.00  0.00     0.059 A 
ATOM     81  C   UNL     1     -14.046  -6.313  -3.667  1.00  0.00     0.059 A 
ATOM     82  F   UNL     1     -15.776  -5.049  -2.702  1.00  0.00    -0.206 F 
ATOM     83  C   UNL     1     -12.908  -6.357  -4.473  1.00  0.00     0.060 A 
BRANCH  83  84
ATOM     84  S   UNL     1     -11.650  -7.641  -4.244  1.00  0.00     0.124 S 
ATOM     85  O   UNL     1     -11.521  -8.185  -5.591  1.00  0.00    -0.237 OA
ATOM     86  O   UNL     1     -10.515  -6.851  -3.769  1.00  0.00    -0.237 OA
ATOM     87  O   UNL     1     -12.256  -8.533  -3.261  1.00  0.00    -0.744 OA
ENDBRANCH  83  84
ENDBRANCH  51  76
BRANCH  63  88
ATOM     88  C   UNL     1     -19.188  -0.181  -0.394  1.00  0.00     0.058 A 
ATOM     89  C   UNL     1     -20.304  -0.681  -1.083  1.00  0.00     0.135 A 
ATOM     90  C   UNL     1     -19.494   0.571   0.774  1.00  0.00     0.135 A 
ATOM     91  F   UNL     1     -20.175  -1.520  -2.119  1.00  0.00    -0.206 F 
ATOM     92  C   UNL     1     -21.613  -0.379  -0.709  1.00  0.00     0.059 A 
ATOM     93  C   UNL     1     -20.792   0.815   1.210  1.00  0.00     0.059 A 
ATOM     94  F   UNL     1     -18.539   1.092   1.558  1.00  0.00    -0.206 F 
ATOM     95  C   UNL     1     -21.848   0.372   0.437  1.00  0.00     0.060 A 
BRANCH  95  96
ATOM     96  S   UNL     1     -23.538   0.745   0.920  1.00  0.00     0.124 S 
ATOM     97  O   UNL     1     -23.834   1.891   0.066  1.00  0.00    -0.237 OA
ATOM     98  O   UNL     1     -24.244  -0.489   0.587  1.00  0.00    -0.237 OA
ATOM     99  O   UNL     1     -23.429   1.031   2.347  1.00  0.00    -0.744 OA
ENDBRANCH  95  96
ENDBRANCH  63  88
ENDBRANCH  37  38
ENDBRANCH  29  32
ENDBRANCH  27  28
ENDBRANCH  26  27
ENDBRANCH   1  26
TORSDOF 20
