REMARK SMILES Cc1c(NS(=O)(=O)c2ccc3c(c2)COC3)cccc1C(=O)NCCCNC(=O)c1ccc(-c2c3nc(c(-c4c(F)cc(S(=O)(=O)[O-])cc4F)c4ccc([nH]4)c(-c4c(F)cc(S(=O)(=O)[O-])cc4F)c4nc(c(-c5c(F)cc(S(=O)(=O)[O-])cc5F)c5ccc2[nH]5)C=C4)C=C3)cc1
REMARK SMILES IDX 25 1 24 2 23 3 21 4 22 5 20 7 1 8 2 9 3 10 17 11 19 12 18 13
REMARK SMILES IDX 4 14 5 16 6 17 7 18 8 19 9 20 13 21 10 22 12 23 11 24 14 25
REMARK SMILES IDX 16 26 15 27 26 28 27 29 28 30 29 32 30 33 31 34 95 35 32 36
REMARK SMILES IDX 94 37 33 38 34 39 35 40 88 41 36 42 93 43 87 44 89 45 37 46
REMARK SMILES IDX 92 47 86 48 85 49 38 51 72 52 51 53 71 54 52 55 55 56 70 57
REMARK SMILES IDX 90 58 53 59 54 60 69 62 91 63 56 64 39 65 40 66 49 67 41 68
REMARK SMILES IDX 42 69 48 70 50 71 43 72 44 73 45 74 46 75 47 76 73 77 74 78
REMARK SMILES IDX 83 79 75 80 76 81 82 82 84 83 77 84 78 85 79 86 80 87 81 88
REMARK SMILES IDX 57 89 58 90 67 91 59 92 60 93 66 94 68 95 61 96 62 97 63 98
REMARK SMILES IDX 64 99 65 100
REMARK H PARENT 23 6 4 15 27 31 89 50 55 61
REMARK Flexibility Score: inf
ROOT
ATOM      1  C   UNL     1       4.447  -0.065   0.319  1.00  0.00     0.042 C 
ENDROOT
BRANCH   1   2
ATOM      2  C   UNL     1       3.151   0.672   0.997  1.00  0.00     0.118 C 
BRANCH   2   3
ATOM      3  N   UNL     1       2.402   1.670   0.190  1.00  0.00    -0.352 N 
ATOM      4  C   UNL     1       1.113   1.806  -0.278  1.00  0.00     0.251 C 
ATOM      5  O   UNL     1       0.691   2.810  -0.846  1.00  0.00    -0.269 OA
ATOM      6  H   UNL     1       2.971   2.427  -0.078  1.00  0.00     0.163 HD
BRANCH   4   7
ATOM      7  C   UNL     1       0.157   0.724  -0.016  1.00  0.00     0.044 A 
ATOM      8  C   UNL     1       1.506  -0.954  -1.339  1.00  0.00     0.047 C 
ATOM      9  C   UNL     1       0.485  -0.611  -0.288  1.00  0.00    -0.014 A 
ATOM     10  C   UNL     1      -0.162  -1.578   0.482  1.00  0.00     0.053 A 
ATOM     11  C   UNL     1      -1.248  -1.223   1.300  1.00  0.00     0.027 A 
ATOM     12  C   UNL     1      -1.006   1.076   0.683  1.00  0.00     0.014 A 
ATOM     13  C   UNL     1      -1.728   0.086   1.328  1.00  0.00     0.003 A 
BRANCH  10  14
ATOM     14  N   UNL     1       0.320  -2.927   0.546  1.00  0.00    -0.279 N 
ATOM     15  H   UNL     1       1.078  -3.133   1.139  1.00  0.00     0.180 HD
BRANCH  14  16
ATOM     16  S   UNL     1      -0.372  -4.181  -0.366  1.00  0.00     0.261 S 
ATOM     17  O   UNL     1       0.138  -4.069  -1.733  1.00  0.00    -0.201 OA
ATOM     18  O   UNL     1      -0.134  -5.372   0.396  1.00  0.00    -0.201 OA
BRANCH  16  19
ATOM     19  C   UNL     1      -2.124  -3.905  -0.432  1.00  0.00     0.088 A 
ATOM     20  C   UNL     1      -2.970  -4.852   0.177  1.00  0.00     0.022 A 
ATOM     21  C   UNL     1      -2.634  -2.715  -0.959  1.00  0.00     0.028 A 
ATOM     22  C   UNL     1      -4.308  -4.540   0.413  1.00  0.00     0.008 A 
ATOM     23  C   UNL     1      -3.931  -2.382  -0.616  1.00  0.00    -0.015 A 
ATOM     24  C   UNL     1      -4.740  -3.269   0.082  1.00  0.00    -0.017 A 
ATOM     25  C   UNL     1      -4.649  -1.093  -0.782  1.00  0.00     0.196 C 
ATOM     26  C   UNL     1      -6.014  -2.590   0.425  1.00  0.00     0.196 C 
ATOM     27  O   UNL     1      -5.744  -1.193   0.162  1.00  0.00    -0.372 OA
ENDBRANCH  16  19
ENDBRANCH  14  16
ENDBRANCH  10  14
ENDBRANCH   4   7
ENDBRANCH   2   3
ENDBRANCH   1   2
BRANCH   1  28
ATOM     28  C   UNL     1       5.865   0.589   0.669  1.00  0.00     0.118 C 
BRANCH  28  29
ATOM     29  N   UNL     1       7.341   0.316   0.093  1.00  0.00    -0.352 N 
ATOM     30  C   UNL     1       8.595   1.022  -0.298  1.00  0.00     0.251 C 
ATOM     31  H   UNL     1       7.457  -0.650  -0.051  1.00  0.00     0.163 HD
ATOM     32  O   UNL     1       9.571   0.606   0.360  1.00  0.00    -0.269 OA
BRANCH  30  33
ATOM     33  C   UNL     1       9.044   2.172  -1.359  1.00  0.00     0.039 A 
ATOM     34  C   UNL     1      10.002   3.189  -1.016  1.00  0.00     0.014 A 
ATOM     35  C   UNL     1       8.505   2.414  -2.610  1.00  0.00     0.014 A 
ATOM     36  C   UNL     1       9.812   4.567  -1.466  1.00  0.00     0.010 A 
ATOM     37  C   UNL     1       8.308   3.759  -3.052  1.00  0.00     0.010 A 
ATOM     38  C   UNL     1       8.724   4.864  -2.299  1.00  0.00    -0.014 A 
BRANCH  38  39
ATOM     39  C   UNL     1       7.889   6.152  -2.297  1.00  0.00     0.031 A 
ATOM     40  C   UNL     1       8.089   7.114  -3.371  1.00  0.00     0.074 A 
ATOM     41  C   UNL     1       6.815   6.530  -1.527  1.00  0.00     0.049 A 
ATOM     42  N   UNL     1       8.336   8.372  -3.220  1.00  0.00    -0.248 NA
ATOM     43  C   UNL     1       7.958   6.675  -4.747  1.00  0.00     0.031 C 
ATOM     44  C   UNL     1       5.883   7.679  -1.569  1.00  0.00     0.029 A 
ATOM     45  N   UNL     1       6.245   5.869  -0.457  1.00  0.00    -0.354 N 
ATOM     46  C   UNL     1       8.066   8.935  -4.450  1.00  0.00     0.074 A 
ATOM     47  C   UNL     1       8.112   7.832  -5.388  1.00  0.00     0.031 C 
ATOM     48  C   UNL     1       5.240   7.790  -0.379  1.00  0.00     0.029 A 
ATOM     49  C   UNL     1       5.749   6.754   0.496  1.00  0.00     0.049 A 
ATOM     50  H   UNL     1       6.195   4.889  -0.378  1.00  0.00     0.167 HD
ATOM     51  C   UNL     1       7.496  10.174  -4.562  1.00  0.00     0.037 A 
ATOM     52  C   UNL     1       6.399   6.840   1.704  1.00  0.00     0.037 A 
ATOM     53  C   UNL     1       7.026  10.676  -3.255  1.00  0.00     0.049 A 
ATOM     54  C   UNL     1       7.183   8.127   1.772  1.00  0.00     0.074 A 
ATOM     55  C   UNL     1       5.773  10.909  -2.701  1.00  0.00     0.029 A 
ATOM     56  N   UNL     1       7.901  10.726  -2.183  1.00  0.00    -0.354 N 
ATOM     57  N   UNL     1       7.012   9.097   0.922  1.00  0.00    -0.248 NA
ATOM     58  C   UNL     1       8.262   8.409   2.717  1.00  0.00     0.031 C 
ATOM     59  C   UNL     1       5.921  11.104  -1.293  1.00  0.00     0.029 A 
ATOM     60  C   UNL     1       7.266  11.019  -0.989  1.00  0.00     0.049 A 
ATOM     61  H   UNL     1       8.870  10.571  -2.262  1.00  0.00     0.167 HD
ATOM     62  C   UNL     1       7.977  10.040   1.085  1.00  0.00     0.074 A 
ATOM     63  C   UNL     1       8.722   9.585   2.248  1.00  0.00     0.031 C 
ATOM     64  C   UNL     1       8.079  11.093   0.221  1.00  0.00     0.037 A 
BRANCH  51  65
ATOM     65  C   UNL     1       7.087  10.786  -5.899  1.00  0.00     0.058 A 
ATOM     66  C   UNL     1       6.194  11.876  -5.971  1.00  0.00     0.135 A 
ATOM     67  C   UNL     1       7.595  10.381  -7.155  1.00  0.00     0.135 A 
ATOM     68  F   UNL     1       5.735  12.480  -4.867  1.00  0.00    -0.206 F 
ATOM     69  C   UNL     1       5.768  12.438  -7.179  1.00  0.00     0.059 A 
ATOM     70  C   UNL     1       7.124  10.867  -8.378  1.00  0.00     0.059 A 
ATOM     71  F   UNL     1       8.654   9.567  -7.259  1.00  0.00    -0.206 F 
ATOM     72  C   UNL     1       6.217  11.910  -8.382  1.00  0.00     0.060 A 
BRANCH  72  73
ATOM     73  S   UNL     1       5.702  12.672  -9.931  1.00  0.00     0.124 S 
ATOM     74  O   UNL     1       4.248  12.576  -9.857  1.00  0.00    -0.237 OA
ATOM     75  O   UNL     1       6.259  14.015  -9.806  1.00  0.00    -0.237 OA
ATOM     76  O   UNL     1       6.327  11.833 -10.950  1.00  0.00    -0.744 OA
ENDBRANCH  72  73
ENDBRANCH  51  65
BRANCH  52  77
ATOM     77  C   UNL     1       6.883   5.499   2.301  1.00  0.00     0.058 A 
ATOM     78  C   UNL     1       5.856   4.573   2.544  1.00  0.00     0.135 A 
ATOM     79  C   UNL     1       7.923   4.936   1.591  1.00  0.00     0.135 A 
ATOM     80  F   UNL     1       5.185   4.614   3.701  1.00  0.00    -0.206 F 
ATOM     81  C   UNL     1       5.513   3.594   1.606  1.00  0.00     0.059 A 
ATOM     82  C   UNL     1       7.582   3.974   0.637  1.00  0.00     0.059 A 
ATOM     83  F   UNL     1       9.105   5.564   1.487  1.00  0.00    -0.206 F 
ATOM     84  C   UNL     1       6.312   3.471   0.482  1.00  0.00     0.060 A 
BRANCH  84  85
ATOM     85  S   UNL     1       5.505   2.987  -1.330  1.00  0.00     0.124 S 
ATOM     86  O   UNL     1       4.122   2.847  -0.929  1.00  0.00    -0.237 OA
ATOM     87  O   UNL     1       5.687   4.126  -2.202  1.00  0.00    -0.237 OA
ATOM     88  O   UNL     1       6.112   1.747  -1.781  1.00  0.00    -0.744 OA
ENDBRANCH  84  85
ENDBRANCH  52  77
BRANCH  64  89
ATOM     89  C   UNL     1       9.002  12.261   0.423  1.00  0.00     0.058 A 
ATOM     90  C   UNL     1       9.344  12.744   1.695  1.00  0.00     0.135 A 
ATOM     91  C   UNL     1       9.485  13.022  -0.668  1.00  0.00     0.135 A 
ATOM     92  F   UNL     1       8.803  12.224   2.808  1.00  0.00    -0.206 F 
ATOM     93  C   UNL     1      10.220  13.812   1.872  1.00  0.00     0.059 A 
ATOM     94  C   UNL     1      10.319  14.117  -0.515  1.00  0.00     0.059 A 
ATOM     95  F   UNL     1       9.171  12.745  -1.938  1.00  0.00    -0.206 F 
ATOM     96  C   UNL     1      10.716  14.480   0.757  1.00  0.00     0.060 A 
BRANCH  96  97
ATOM     97  S   UNL     1      11.854  15.848   0.983  1.00  0.00     0.124 S 
ATOM     98  O   UNL     1      11.217  16.607   2.056  1.00  0.00    -0.237 OA
ATOM     99  O   UNL     1      13.081  15.147   1.345  1.00  0.00    -0.237 OA
ATOM    100  O   UNL     1      11.866  16.505  -0.320  1.00  0.00    -0.744 OA
ENDBRANCH  96  97
ENDBRANCH  64  89
ENDBRANCH  38  39
ENDBRANCH  30  33
ENDBRANCH  28  29
ENDBRANCH   1  28
TORSDOF 16
