REMARK SMILES Cc1c(C(=O)NCCCNC(=O)c2ccc(-c3c4nc(c(-c5c(F)cc(S(=O)(=O)[O-])cc5F)c5ccc([nH]5)c(-c5c(F)cc(S(=O)(=O)[O-])cc5F)c5nc(c(-c6c(F)cc(S(=O)(=O)[O-])cc6F)c6ccc3[nH]6)C=C5)C=C4)cc2)cccc1N1[C@@H](C)C=C(/C=C(\C#N)C(=O)NCCc2c[nH]c3ccccc23)[C@@H]1C
REMARK SMILES IDX 4 1 5 2 6 3 3 5 1 6 2 7 82 8 79 9 81 10 80 11 83 12 84 13
REMARK SMILES IDX 106 14 86 15 85 16 87 17 107 18 88 19 89 20 90 21 91 22
REMARK SMILES IDX 92 23 93 24 94 25 95 27 96 28 97 29 98 30 105 31 99 32
REMARK SMILES IDX 100 33 104 34 101 36 103 37 102 38 7 39 8 40 9 41 10 42
REMARK SMILES IDX 11 43 12 45 13 46 14 47 78 48 15 49 77 50 16 51 17 52 18 53
REMARK SMILES IDX 71 54 19 55 76 56 70 57 72 58 20 59 75 60 69 61 68 62 21 64
REMARK SMILES IDX 55 65 34 66 54 67 35 68 38 69 53 70 73 71 36 72 37 73 52 75
REMARK SMILES IDX 74 76 39 77 22 78 23 79 32 80 24 81 25 82 31 83 33 84 26 85
REMARK SMILES IDX 27 86 28 87 29 88 30 89 56 90 57 91 66 92 58 93 59 94 65 95
REMARK SMILES IDX 67 96 60 97 61 98 62 99 63 100 64 101 40 102 41 103 50 104
REMARK SMILES IDX 42 105 43 106 49 107 51 108 44 109 45 110 46 111 47 112
REMARK SMILES IDX 48 113
REMARK H PARENT 6 4 94 26 99 35 10 44 72 63 38 74
REMARK Flexibility Score: inf
ROOT
ATOM      1  C   UNL     1       0.839  -2.278   0.102  1.00  0.00     0.251 C 
ATOM      2  O   UNL     1       0.111  -3.203   0.486  1.00  0.00    -0.269 OA
ATOM      3  N   UNL     1       2.126  -2.659  -0.167  1.00  0.00    -0.352 N 
ATOM      4  H   UNL     1       2.257  -3.628  -0.052  1.00  0.00     0.163 HD
ENDROOT
BRANCH   1   5
ATOM      5  C   UNL     1       0.207  -0.914  -0.075  1.00  0.00     0.044 A 
ATOM      6  C   UNL     1       2.149   0.638   0.494  1.00  0.00     0.047 C 
ATOM      7  C   UNL     1       0.770   0.386  -0.009  1.00  0.00    -0.015 A 
ATOM      8  C   UNL     1      -0.023   1.545  -0.231  1.00  0.00     0.041 A 
ATOM      9  C   UNL     1      -1.198  -0.989  -0.194  1.00  0.00     0.014 A 
ATOM     10  C   UNL     1      -1.409   1.398  -0.336  1.00  0.00     0.026 A 
ATOM     11  C   UNL     1      -2.000   0.144  -0.288  1.00  0.00     0.003 A 
BRANCH   8  12
ATOM     12  N   UNL     1       0.500   2.825  -0.160  1.00  0.00    -0.358 N 
ATOM     13  C   UNL     1       0.249   3.640   1.034  1.00  0.00     0.103 C 
ATOM     14  C   UNL     1       1.648   3.310  -0.956  1.00  0.00     0.110 C 
ATOM     15  C   UNL     1       1.399   4.592   0.989  1.00  0.00     0.003 C 
ATOM     16  C   UNL     1       0.330   2.882   2.365  1.00  0.00     0.035 C 
ATOM     17  C   UNL     1       2.251   4.343  -0.015  1.00  0.00    -0.026 C 
ATOM     18  C   UNL     1       1.139   3.933  -2.257  1.00  0.00     0.036 C 
BRANCH  17  19
ATOM     19  C   UNL     1       3.562   4.933  -0.226  1.00  0.00     0.031 C 
ATOM     20  C   UNL     1       4.307   5.666   0.636  1.00  0.00     0.117 C 
BRANCH  20  21
ATOM     21  C   UNL     1       3.893   5.985   1.961  1.00  0.00     0.105 C 
ATOM     22  N   UNL     1       3.545   6.287   3.019  1.00  0.00    -0.192 NA
ENDBRANCH  20  21
BRANCH  20  23
ATOM     23  C   UNL     1       5.470   6.396   0.054  1.00  0.00     0.261 C 
ATOM     24  O   UNL     1       5.698   6.369  -1.158  1.00  0.00    -0.268 OA
ATOM     25  N   UNL     1       6.143   7.318   0.795  1.00  0.00    -0.351 N 
ATOM     26  H   UNL     1       6.269   8.173   0.324  1.00  0.00     0.163 HD
BRANCH  25  27
ATOM     27  C   UNL     1       6.723   7.313   2.149  1.00  0.00     0.121 C 
BRANCH  27  28
ATOM     28  C   UNL     1       8.124   6.636   2.279  1.00  0.00     0.059 C 
BRANCH  28  29
ATOM     29  C   UNL     1       9.249   7.335   1.511  1.00  0.00    -0.021 A 
ATOM     30  C   UNL     1       9.236   8.698   1.213  1.00  0.00     0.087 A 
ATOM     31  C   UNL     1       9.868   6.836   0.319  1.00  0.00     0.003 A 
ATOM     32  N   UNL     1       8.644   8.629  -0.053  1.00  0.00    -0.361 N 
ATOM     33  C   UNL     1       9.185   7.527  -0.684  1.00  0.00     0.046 A 
ATOM     34  C   UNL     1      10.808   5.864  -0.064  1.00  0.00     0.010 A 
ATOM     35  H   UNL     1       7.972   9.246  -0.423  1.00  0.00     0.166 HD
ATOM     36  C   UNL     1       9.165   7.129  -2.016  1.00  0.00     0.026 A 
ATOM     37  C   UNL     1      10.967   5.601  -1.435  1.00  0.00     0.001 A 
ATOM     38  C   UNL     1      10.104   6.164  -2.380  1.00  0.00     0.002 A 
ENDBRANCH  28  29
ENDBRANCH  27  28
ENDBRANCH  25  27
ENDBRANCH  20  23
ENDBRANCH  17  19
ENDBRANCH   8  12
ENDBRANCH   1   5
BRANCH   3  39
ATOM     39  C   UNL     1       3.344  -1.987  -0.582  1.00  0.00     0.118 C 
BRANCH  39  40
ATOM     40  C   UNL     1       4.078  -1.463   0.645  1.00  0.00     0.042 C 
BRANCH  40  41
ATOM     41  C   UNL     1       5.317  -2.209   1.011  1.00  0.00     0.118 C 
BRANCH  41  42
ATOM     42  N   UNL     1       6.512  -1.662   0.399  1.00  0.00    -0.352 N 
ATOM     43  C   UNL     1       7.817  -1.765   0.855  1.00  0.00     0.251 C 
ATOM     44  H   UNL     1       6.382  -1.160  -0.438  1.00  0.00     0.163 HD
ATOM     45  O   UNL     1       8.670  -0.947   0.534  1.00  0.00    -0.269 OA
BRANCH  43  46
ATOM     46  C   UNL     1       8.186  -3.010   1.574  1.00  0.00     0.039 A 
ATOM     47  C   UNL     1       9.137  -3.805   0.925  1.00  0.00     0.014 A 
ATOM     48  C   UNL     1       7.250  -3.590   2.411  1.00  0.00     0.014 A 
ATOM     49  C   UNL     1       8.946  -5.175   0.867  1.00  0.00     0.010 A 
ATOM     50  C   UNL     1       6.882  -4.870   2.110  1.00  0.00     0.010 A 
ATOM     51  C   UNL     1       7.741  -5.664   1.339  1.00  0.00    -0.014 A 
BRANCH  51  52
ATOM     52  C   UNL     1       7.373  -7.055   1.429  1.00  0.00     0.031 A 
ATOM     53  C   UNL     1       7.618  -7.629   2.772  1.00  0.00     0.074 A 
ATOM     54  C   UNL     1       6.512  -7.533   0.502  1.00  0.00     0.049 A 
ATOM     55  N   UNL     1       7.371  -8.839   3.092  1.00  0.00    -0.248 NA
ATOM     56  C   UNL     1       8.182  -6.861   3.896  1.00  0.00     0.031 C 
ATOM     57  C   UNL     1       5.510  -8.581   0.642  1.00  0.00     0.029 A 
ATOM     58  N   UNL     1       6.518  -7.260  -0.870  1.00  0.00    -0.354 N 
ATOM     59  C   UNL     1       7.406  -8.923   4.471  1.00  0.00     0.074 A 
ATOM     60  C   UNL     1       8.027  -7.707   4.917  1.00  0.00     0.031 C 
ATOM     61  C   UNL     1       5.200  -9.059  -0.578  1.00  0.00     0.029 A 
ATOM     62  C   UNL     1       6.133  -8.459  -1.517  1.00  0.00     0.049 A 
ATOM     63  H   UNL     1       6.744  -6.404  -1.300  1.00  0.00     0.167 HD
ATOM     64  C   UNL     1       6.762  -9.976   5.039  1.00  0.00     0.037 A 
ATOM     65  C   UNL     1       7.067  -9.162  -2.238  1.00  0.00     0.037 A 
ATOM     66  C   UNL     1       6.260 -10.842   3.975  1.00  0.00     0.049 A 
ATOM     67  C   UNL     1       7.445 -10.496  -1.617  1.00  0.00     0.074 A 
ATOM     68  C   UNL     1       5.052 -10.971   3.316  1.00  0.00     0.029 A 
ATOM     69  N   UNL     1       7.194 -11.479   3.197  1.00  0.00    -0.354 N 
ATOM     70  N   UNL     1       7.092 -10.875  -0.419  1.00  0.00    -0.248 NA
ATOM     71  C   UNL     1       8.300 -11.483  -2.272  1.00  0.00     0.031 C 
ATOM     72  C   UNL     1       5.301 -11.691   2.106  1.00  0.00     0.029 A 
ATOM     73  C   UNL     1       6.649 -12.008   2.055  1.00  0.00     0.049 A 
ATOM     74  H   UNL     1       8.148 -11.548   3.431  1.00  0.00     0.167 HD
ATOM     75  C   UNL     1       7.696 -12.064  -0.105  1.00  0.00     0.074 A 
ATOM     76  C   UNL     1       8.457 -12.398  -1.297  1.00  0.00     0.031 C 
ATOM     77  C   UNL     1       7.551 -12.658   1.118  1.00  0.00     0.037 A 
BRANCH  64  78
ATOM     78  C   UNL     1       6.411 -10.219   6.485  1.00  0.00     0.058 A 
ATOM     79  C   UNL     1       5.566 -11.313   6.787  1.00  0.00     0.135 A 
ATOM     80  C   UNL     1       6.794  -9.447   7.600  1.00  0.00     0.135 A 
ATOM     81  F   UNL     1       5.163 -12.177   5.845  1.00  0.00    -0.206 F 
ATOM     82  C   UNL     1       5.084 -11.578   8.062  1.00  0.00     0.059 A 
ATOM     83  C   UNL     1       6.325  -9.700   8.897  1.00  0.00     0.059 A 
ATOM     84  F   UNL     1       7.641  -8.419   7.500  1.00  0.00    -0.206 F 
ATOM     85  C   UNL     1       5.455 -10.758   9.113  1.00  0.00     0.060 A 
BRANCH  85  86
ATOM     86  S   UNL     1       4.778 -11.121  10.738  1.00  0.00     0.124 S 
ATOM     87  O   UNL     1       3.347 -10.934  10.516  1.00  0.00    -0.237 OA
ATOM     88  O   UNL     1       5.213 -12.497  10.951  1.00  0.00    -0.237 OA
ATOM     89  O   UNL     1       5.409 -10.125  11.600  1.00  0.00    -0.744 OA
ENDBRANCH  85  86
ENDBRANCH  64  78
BRANCH  65  90
ATOM     90  C   UNL     1       8.031  -8.234  -2.918  1.00  0.00     0.058 A 
ATOM     91  C   UNL     1       7.501  -7.367  -3.896  1.00  0.00     0.135 A 
ATOM     92  C   UNL     1       9.181  -7.812  -2.232  1.00  0.00     0.135 A 
ATOM     93  F   UNL     1       6.432  -7.742  -4.619  1.00  0.00    -0.206 F 
ATOM     94  C   UNL     1       7.926  -6.047  -3.999  1.00  0.00     0.059 A 
ATOM     95  C   UNL     1       9.638  -6.499  -2.340  1.00  0.00     0.059 A 
ATOM     96  F   UNL     1       9.748  -8.607  -1.312  1.00  0.00    -0.206 F 
ATOM     97  C   UNL     1       8.938  -5.603  -3.150  1.00  0.00     0.060 A 
BRANCH  97  98
ATOM     98  S   UNL     1       9.172  -3.817  -2.978  1.00  0.00     0.124 S 
ATOM     99  O   UNL     1       9.435  -3.412  -4.355  1.00  0.00    -0.237 OA
ATOM    100  O   UNL     1       7.880  -3.401  -2.434  1.00  0.00    -0.237 OA
ATOM    101  O   UNL     1      10.309  -3.717  -2.070  1.00  0.00    -0.744 OA
ENDBRANCH  97  98
ENDBRANCH  65  90
BRANCH  77 102
ATOM    102  C   UNL     1       8.284 -13.904   1.560  1.00  0.00     0.058 A 
ATOM    103  C   UNL     1       8.416 -15.026   0.734  1.00  0.00     0.135 A 
ATOM    104  C   UNL     1       8.789 -14.056   2.879  1.00  0.00     0.135 A 
ATOM    105  F   UNL     1       7.890 -15.038  -0.500  1.00  0.00    -0.206 F 
ATOM    106  C   UNL     1       9.073 -16.183   1.155  1.00  0.00     0.059 A 
ATOM    107  C   UNL     1       9.367 -15.227   3.347  1.00  0.00     0.059 A 
ATOM    108  F   UNL     1       8.789 -13.056   3.770  1.00  0.00    -0.206 F 
ATOM    109  C   UNL     1       9.542 -16.274   2.465  1.00  0.00     0.060 A 
BRANCH 109 110
ATOM    110  S   UNL     1      10.379 -17.769   3.007  1.00  0.00     0.124 S 
ATOM    111  O   UNL     1       9.511 -18.818   2.482  1.00  0.00    -0.237 OA
ATOM    112  O   UNL     1      11.675 -17.630   2.350  1.00  0.00    -0.237 OA
ATOM    113  O   UNL     1      10.397 -17.646   4.462  1.00  0.00    -0.744 OA
ENDBRANCH 109 110
ENDBRANCH  77 102
ENDBRANCH  51  52
ENDBRANCH  43  46
ENDBRANCH  41  42
ENDBRANCH  40  41
ENDBRANCH  39  40
ENDBRANCH   3  39
TORSDOF 20
