REMARK SMILES Cc1c(/C=C2/SC(=S)N(CCC(=O)NCCCNC(=O)c3ccc(-c4c5nc(c(-c6c(F)cc(S(=O)(=O)[O-])cc6F)c6ccc([nH]6)c(-c6c(F)cc(S(=O)(=O)[O-])cc6F)c6nc(c(-c7c(F)cc(S(=O)(=O)[O-])cc7F)c7ccc4[nH]7)C=C6)C=C5)cc3)C2=O)c(N2C[C@@H](C)C[C@H](C)C2)n(C)c(=O)c1C#N
REMARK SMILES IDX 15 1 14 2 12 3 13 4 11 6 10 7 9 8 4 9 5 10 6 11 87 12 7 13
REMARK SMILES IDX 88 14 8 15 3 16 1 17 2 18 102 19 89 20 100 21 98 22 101 23
REMARK SMILES IDX 99 24 103 25 104 26 90 27 91 28 97 29 92 30 95 31 93 32
REMARK SMILES IDX 94 33 96 34 16 35 17 36 18 37 19 38 20 40 21 41 22 42 86 43
REMARK SMILES IDX 23 44 85 45 24 46 25 47 26 48 79 49 27 50 84 51 78 52 80 53
REMARK SMILES IDX 28 54 83 55 77 56 76 57 29 59 63 60 42 61 62 62 43 63 46 64
REMARK SMILES IDX 61 65 81 66 44 67 45 68 60 70 82 71 47 72 30 73 31 74 40 75
REMARK SMILES IDX 32 76 33 77 39 78 41 79 34 80 35 81 36 82 37 83 38 84 64 85
REMARK SMILES IDX 65 86 74 87 66 88 67 89 73 90 75 91 68 92 69 93 70 94 71 95
REMARK SMILES IDX 72 96 48 97 49 98 58 99 50 100 51 101 57 102 59 103 52 104
REMARK SMILES IDX 53 105 54 106 55 107 56 108
REMARK H PARENT 14 5 18 39 80 58 46 69
REMARK Flexibility Score: inf
ROOT
ATOM      1  C   UNL     1       2.551  -0.448  -1.846  1.00  0.00     0.117 C 
ENDROOT
BRANCH   1   2
ATOM      2  N   UNL     1       2.778   0.297  -0.606  1.00  0.00    -0.356 N 
ATOM      3  C   UNL     1       3.927   0.851  -0.102  1.00  0.00     0.221 C 
ATOM      4  O   UNL     1       3.829   1.845   0.619  1.00  0.00    -0.275 OA
ATOM      5  H   UNL     1       1.979   0.419  -0.044  1.00  0.00     0.163 HD
BRANCH   3   6
ATOM      6  C   UNL     1       5.269   0.201  -0.337  1.00  0.00     0.122 C 
BRANCH   6   7
ATOM      7  C   UNL     1       5.649  -0.734   0.819  1.00  0.00     0.137 C 
BRANCH   7   8
ATOM      8  N   UNL     1       4.610  -1.726   1.109  1.00  0.00    -0.292 N 
ATOM      9  C   UNL     1       1.151  -2.147   2.142  1.00  0.00     0.033 C 
ATOM     10  C   UNL     1       2.447  -2.320   1.817  1.00  0.00     0.081 C 
ATOM     11  S   UNL     1       3.068  -3.781   1.112  1.00  0.00    -0.054 SA
ATOM     12  C   UNL     1       3.571  -1.364   1.965  1.00  0.00     0.266 C 
ATOM     13  C   UNL     1       4.534  -2.980   0.543  1.00  0.00     0.148 C 
ATOM     14  O   UNL     1       3.550  -0.392   2.703  1.00  0.00    -0.268 OA
ATOM     15  S   UNL     1       5.561  -3.667  -0.579  1.00  0.00    -0.052 S 
BRANCH   9  16
ATOM     16  C   UNL     1       0.490  -1.033   2.848  1.00  0.00     0.021 A 
ATOM     17  C   UNL     1      -0.565   0.230   0.808  1.00  0.00     0.047 C 
ATOM     18  C   UNL     1       0.095   0.232   2.168  1.00  0.00    -0.017 A 
ATOM     19  C   UNL     1       0.009   1.383   2.854  1.00  0.00     0.121 A 
ATOM     20  C   UNL     1       0.191  -1.171   4.185  1.00  0.00     0.118 A 
ATOM     21  C   UNL     1      -0.224   1.278   4.302  1.00  0.00     0.270 A 
ATOM     22  N   UNL     1      -0.201   0.002   4.868  1.00  0.00    -0.296 N 
ATOM     23  O   UNL     1      -0.543   2.294   4.921  1.00  0.00    -0.268 OA
ATOM     24  C   UNL     1      -0.540  -0.018   6.279  1.00  0.00     0.155 C 
BRANCH  19  25
ATOM     25  C   UNL     1      -0.183   2.653   2.229  1.00  0.00     0.105 C 
ATOM     26  N   UNL     1      -0.322   3.635   1.634  1.00  0.00    -0.192 NA
ENDBRANCH  19  25
BRANCH  20  27
ATOM     27  N   UNL     1       0.272  -2.408   4.897  1.00  0.00    -0.357 N 
ATOM     28  C   UNL     1       1.281  -3.458   4.631  1.00  0.00     0.121 C 
ATOM     29  C   UNL     1      -0.908  -2.938   5.619  1.00  0.00     0.121 C 
ATOM     30  C   UNL     1       1.725  -4.169   5.900  1.00  0.00     0.006 C 
ATOM     31  C   UNL     1      -0.569  -3.771   6.861  1.00  0.00     0.006 C 
ATOM     32  C   UNL     1       2.470  -3.188   6.803  1.00  0.00     0.009 C 
ATOM     33  C   UNL     1       0.514  -4.808   6.564  1.00  0.00     0.010 C 
ATOM     34  C   UNL     1      -1.821  -4.460   7.412  1.00  0.00     0.009 C 
ENDBRANCH  20  27
ENDBRANCH   9  16
ENDBRANCH   7   8
ENDBRANCH   6   7
ENDBRANCH   3   6
ENDBRANCH   1   2
BRANCH   1  35
ATOM     35  C   UNL     1       1.892  -1.856  -1.779  1.00  0.00     0.042 C 
BRANCH  35  36
ATOM     36  C   UNL     1       0.499  -1.943  -1.137  1.00  0.00     0.118 C 
BRANCH  36  37
ATOM     37  N   UNL     1      -0.180  -3.263  -1.102  1.00  0.00    -0.352 N 
ATOM     38  C   UNL     1      -1.330  -3.428  -0.310  1.00  0.00     0.251 C 
ATOM     39  H   UNL     1       0.171  -4.017  -1.629  1.00  0.00     0.163 HD
ATOM     40  O   UNL     1      -2.296  -2.683  -0.468  1.00  0.00    -0.269 OA
BRANCH  38  41
ATOM     41  C   UNL     1      -1.404  -4.487   0.769  1.00  0.00     0.039 A 
ATOM     42  C   UNL     1      -1.112  -5.844   0.603  1.00  0.00     0.014 A 
ATOM     43  C   UNL     1      -1.940  -4.117   2.007  1.00  0.00     0.014 A 
ATOM     44  C   UNL     1      -1.289  -6.780   1.681  1.00  0.00     0.010 A 
ATOM     45  C   UNL     1      -2.095  -5.051   3.059  1.00  0.00     0.010 A 
ATOM     46  C   UNL     1      -1.722  -6.395   2.969  1.00  0.00    -0.014 A 
BRANCH  46  47
ATOM     47  C   UNL     1      -1.701  -7.279   4.233  1.00  0.00     0.031 A 
ATOM     48  C   UNL     1      -2.814  -7.264   5.305  1.00  0.00     0.074 A 
ATOM     49  C   UNL     1      -0.561  -7.926   4.594  1.00  0.00     0.049 A 
ATOM     50  N   UNL     1      -2.829  -7.795   6.513  1.00  0.00    -0.248 NA
ATOM     51  C   UNL     1      -4.023  -6.481   5.016  1.00  0.00     0.031 C 
ATOM     52  C   UNL     1       0.696  -7.910   3.846  1.00  0.00     0.029 A 
ATOM     53  N   UNL     1      -0.247  -8.672   5.720  1.00  0.00    -0.354 N 
ATOM     54  C   UNL     1      -3.989  -7.332   7.150  1.00  0.00     0.074 A 
ATOM     55  C   UNL     1      -4.625  -6.444   6.199  1.00  0.00     0.031 C 
ATOM     56  C   UNL     1       1.621  -8.631   4.500  1.00  0.00     0.029 A 
ATOM     57  C   UNL     1       1.046  -9.158   5.735  1.00  0.00     0.049 A 
ATOM     58  H   UNL     1      -0.890  -8.842   6.446  1.00  0.00     0.167 HD
ATOM     59  C   UNL     1      -4.495  -7.610   8.387  1.00  0.00     0.037 A 
ATOM     60  C   UNL     1       1.712  -9.948   6.609  1.00  0.00     0.037 A 
ATOM     61  C   UNL     1      -3.931  -8.576   9.307  1.00  0.00     0.049 A 
ATOM     62  C   UNL     1       1.042 -10.449   7.865  1.00  0.00     0.074 A 
ATOM     63  C   UNL     1      -4.492  -9.083  10.473  1.00  0.00     0.029 A 
ATOM     64  N   UNL     1      -2.698  -9.191   9.174  1.00  0.00    -0.354 N 
ATOM     65  N   UNL     1      -0.126 -10.123   8.358  1.00  0.00    -0.248 NA
ATOM     66  C   UNL     1       1.772 -11.443   8.672  1.00  0.00     0.031 C 
ATOM     67  C   UNL     1      -3.587  -9.972  11.059  1.00  0.00     0.029 A 
ATOM     68  C   UNL     1      -2.488 -10.072  10.227  1.00  0.00     0.049 A 
ATOM     69  H   UNL     1      -2.062  -9.026   8.440  1.00  0.00     0.167 HD
ATOM     70  C   UNL     1      -0.285 -10.897   9.506  1.00  0.00     0.074 A 
ATOM     71  C   UNL     1       0.898 -11.717   9.631  1.00  0.00     0.031 C 
ATOM     72  C   UNL     1      -1.329 -10.918  10.370  1.00  0.00     0.037 A 
BRANCH  59  73
ATOM     73  C   UNL     1      -5.788  -6.937   8.834  1.00  0.00     0.058 A 
ATOM     74  C   UNL     1      -6.998  -7.141   8.149  1.00  0.00     0.135 A 
ATOM     75  C   UNL     1      -5.857  -6.195  10.033  1.00  0.00     0.135 A 
ATOM     76  F   UNL     1      -7.021  -7.859   7.016  1.00  0.00    -0.206 F 
ATOM     77  C   UNL     1      -8.201  -6.602   8.597  1.00  0.00     0.059 A 
ATOM     78  C   UNL     1      -7.062  -5.692  10.530  1.00  0.00     0.059 A 
ATOM     79  F   UNL     1      -4.749  -5.982  10.763  1.00  0.00    -0.206 F 
ATOM     80  C   UNL     1      -8.227  -5.887   9.793  1.00  0.00     0.060 A 
BRANCH  80  81
ATOM     81  S   UNL     1      -9.816  -5.246  10.366  1.00  0.00     0.124 S 
ATOM     82  O   UNL     1     -10.079  -4.199   9.382  1.00  0.00    -0.237 OA
ATOM     83  O   UNL     1     -10.674  -6.423  10.278  1.00  0.00    -0.237 OA
ATOM     84  O   UNL     1      -9.531  -4.778  11.718  1.00  0.00    -0.744 OA
ENDBRANCH  80  81
ENDBRANCH  59  73
BRANCH  60  85
ATOM     85  C   UNL     1       3.072 -10.451   6.256  1.00  0.00     0.058 A 
ATOM     86  C   UNL     1       3.229 -11.782   5.833  1.00  0.00     0.135 A 
ATOM     87  C   UNL     1       4.218  -9.643   6.296  1.00  0.00     0.135 A 
ATOM     88  F   UNL     1       2.166 -12.599   5.792  1.00  0.00    -0.206 F 
ATOM     89  C   UNL     1       4.468 -12.297   5.472  1.00  0.00     0.059 A 
ATOM     90  C   UNL     1       5.468 -10.129   5.912  1.00  0.00     0.059 A 
ATOM     91  F   UNL     1       4.122  -8.359   6.675  1.00  0.00    -0.206 F 
ATOM     92  C   UNL     1       5.581 -11.459   5.503  1.00  0.00     0.060 A 
BRANCH  92  93
ATOM     93  S   UNL     1       7.165 -12.129   4.950  1.00  0.00     0.124 S 
ATOM     94  O   UNL     1       7.440 -13.128   5.977  1.00  0.00    -0.237 OA
ATOM     95  O   UNL     1       6.825 -12.649   3.629  1.00  0.00    -0.237 OA
ATOM     96  O   UNL     1       8.043 -10.963   4.952  1.00  0.00    -0.744 OA
ENDBRANCH  92  93
ENDBRANCH  60  85
BRANCH  72  97
ATOM     97  C   UNL     1      -1.297 -11.887  11.525  1.00  0.00     0.058 A 
ATOM     98  C   UNL     1      -0.426 -11.724  12.615  1.00  0.00     0.135 A 
ATOM     99  C   UNL     1      -2.215 -12.951  11.585  1.00  0.00     0.135 A 
ATOM    100  F   UNL     1       0.476 -10.730  12.615  1.00  0.00    -0.206 F 
ATOM    101  C   UNL     1      -0.459 -12.583  13.712  1.00  0.00     0.059 A 
ATOM    102  C   UNL     1      -2.285 -13.805  12.684  1.00  0.00     0.059 A 
ATOM    103  F   UNL     1      -3.077 -13.156  10.576  1.00  0.00    -0.206 F 
ATOM    104  C   UNL     1      -1.399 -13.615  13.742  1.00  0.00     0.060 A 
BRANCH 104 105
ATOM    105  S   UNL     1      -1.459 -14.688  15.195  1.00  0.00     0.124 S 
ATOM    106  O   UNL     1      -0.179 -15.383  15.104  1.00  0.00    -0.237 OA
ATOM    107  O   UNL     1      -1.580 -13.724  16.284  1.00  0.00    -0.237 OA
ATOM    108  O   UNL     1      -2.639 -15.515  14.962  1.00  0.00    -0.744 OA
ENDBRANCH 104 105
ENDBRANCH  72  97
ENDBRANCH  46  47
ENDBRANCH  38  41
ENDBRANCH  36  37
ENDBRANCH  35  36
ENDBRANCH   1  35
TORSDOF 18
