REMARK SMILES CCc1cccc(CC)c1N1/C(=[NH+]/C(=O)CCC(=O)NCCCNC(=O)c2ccc(-c3c4nc(c(-c5c(F)cc(S(=O)(=O)[O-])cc5F)c5ccc([nH]5)c(-c5c(F)cc(S(=O)(=O)[O-])cc5F)c5nc(c(-c6c(F)cc(S(=O)(=O)[O-])cc6F)c6ccc3[nH]6)C=C5)C=C4)cc2)S[C@@H]2CS(=O)(=O)C[C@H]21
REMARK SMILES IDX 21 1 20 2 18 3 19 4 17 6 16 7 14 8 11 9 12 10 100 11 13 12
REMARK SMILES IDX 93 13 94 14 99 15 95 17 96 18 15 19 97 20 98 21 10 22 3 23
REMARK SMILES IDX 4 24 5 25 7 26 6 27 2 28 1 29 8 30 9 31 22 32 23 33 24 34
REMARK SMILES IDX 25 35 26 37 27 38 28 39 92 40 29 41 91 42 30 43 31 44 32 45
REMARK SMILES IDX 85 46 33 47 90 48 84 49 86 50 34 51 89 52 83 53 82 54 35 56
REMARK SMILES IDX 69 57 48 58 68 59 49 60 52 61 67 62 87 63 50 64 51 65 66 67
REMARK SMILES IDX 88 68 53 69 36 70 37 71 46 72 38 73 39 74 45 75 47 76 40 77
REMARK SMILES IDX 41 78 42 79 43 80 44 81 70 82 71 83 80 84 72 85 73 86 79 87
REMARK SMILES IDX 81 88 74 89 75 90 76 91 77 92 78 93 54 94 55 95 64 96 56 97
REMARK SMILES IDX 57 98 63 99 65 100 58 101 59 102 60 103 61 104 62 105
REMARK H PARENT 20 5 13 16 24 36 86 55 52 66
REMARK Flexibility Score: inf
ROOT
ATOM      1  C   UNL     1       0.006   1.152  -1.421  1.00  0.00     0.117 C 
ENDROOT
BRANCH   1   2
ATOM      2  N   UNL     1      -0.724  -0.087  -1.120  1.00  0.00    -0.356 N 
ATOM      3  C   UNL     1      -2.034  -0.393  -0.895  1.00  0.00     0.220 C 
ATOM      4  O   UNL     1      -2.349  -1.586  -0.865  1.00  0.00    -0.275 OA
ATOM      5  H   UNL     1      -0.134  -0.874  -1.069  1.00  0.00     0.163 HD
BRANCH   3   6
ATOM      6  C   UNL     1      -3.085   0.664  -0.663  1.00  0.00     0.112 C 
BRANCH   6   7
ATOM      7  C   UNL     1      -3.476   0.681   0.814  1.00  0.00     0.138 C 
BRANCH   7   8
ATOM      8  C   UNL     1      -2.406   1.469   1.491  1.00  0.00     0.308 C 
ATOM      9  N   UNL     1       0.739   0.744   3.105  1.00  0.00    -0.216 N 
ATOM     10  C   UNL     1      -0.558   1.242   2.840  1.00  0.00     0.319 C 
ATOM     11  C   UNL     1       1.626   2.006   3.031  1.00  0.00     0.212 C 
ATOM     12  N   UNL     1      -1.427   0.692   2.062  1.00  0.00    -0.204 N 
ATOM     13  S   UNL     1      -0.783   2.904   3.508  1.00  0.00    -0.029 SA
ATOM     14  C   UNL     1       0.944   3.187   3.748  1.00  0.00     0.120 C 
ATOM     15  C   UNL     1       3.020   2.278   3.471  1.00  0.00     0.188 C 
ATOM     16  H   UNL     1      -1.390  -0.275   1.879  1.00  0.00     0.316 HD
ATOM     17  C   UNL     1       1.589   4.445   3.145  1.00  0.00     0.156 C 
ATOM     18  S   UNL     1       3.317   4.019   3.211  1.00  0.00     0.155 S 
ATOM     19  O   UNL     1      -2.334   2.673   1.236  1.00  0.00    -0.247 OA
ATOM     20  O   UNL     1       3.921   4.570   4.419  1.00  0.00    -0.229 OA
ATOM     21  O   UNL     1       3.916   4.200   1.918  1.00  0.00    -0.229 OA
BRANCH   9  22
ATOM     22  C   UNL     1       0.947  -0.692   3.282  1.00  0.00     0.134 A 
ATOM     23  C   UNL     1       1.267  -1.856   2.331  1.00  0.00    -0.001 A 
ATOM     24  C   UNL     1       1.137  -3.198   2.879  1.00  0.00     0.008 A 
ATOM     25  C   UNL     1       0.784  -3.515   4.167  1.00  0.00     0.001 A 
ATOM     26  C   UNL     1       0.617  -1.121   4.644  1.00  0.00    -0.001 A 
ATOM     27  C   UNL     1       0.551  -2.489   5.037  1.00  0.00     0.008 A 
BRANCH  23  28
ATOM     28  C   UNL     1       1.512  -2.162   0.746  1.00  0.00     0.036 C 
ATOM     29  C   UNL     1       2.667  -2.176  -0.341  1.00  0.00     0.009 C 
ENDBRANCH  23  28
BRANCH  26  30
ATOM     30  C   UNL     1       0.394  -0.181   5.823  1.00  0.00     0.036 C 
ATOM     31  C   UNL     1      -0.986  -0.311   6.453  1.00  0.00     0.009 C 
ENDBRANCH  26  30
ENDBRANCH   9  22
ENDBRANCH   7   8
ENDBRANCH   6   7
ENDBRANCH   3   6
ENDBRANCH   1   2
BRANCH   1  32
ATOM     32  C   UNL     1       1.015   1.709  -0.337  1.00  0.00     0.042 C 
BRANCH  32  33
ATOM     33  C   UNL     1       1.834   0.586   0.355  1.00  0.00     0.118 C 
BRANCH  33  34
ATOM     34  N   UNL     1       3.253   0.698   1.026  1.00  0.00    -0.352 N 
ATOM     35  C   UNL     1       4.061  -0.273   1.809  1.00  0.00     0.251 C 
ATOM     36  H   UNL     1       3.687   1.573   0.904  1.00  0.00     0.163 HD
ATOM     37  O   UNL     1       4.828  -1.005   1.177  1.00  0.00    -0.269 OA
BRANCH  35  38
ATOM     38  C   UNL     1       4.378  -0.182   3.374  1.00  0.00     0.039 A 
ATOM     39  C   UNL     1       5.321   0.710   3.942  1.00  0.00     0.014 A 
ATOM     40  C   UNL     1       3.761  -0.973   4.337  1.00  0.00     0.014 A 
ATOM     41  C   UNL     1       5.301   1.076   5.354  1.00  0.00     0.010 A 
ATOM     42  C   UNL     1       3.731  -0.614   5.731  1.00  0.00     0.010 A 
ATOM     43  C   UNL     1       4.397   0.504   6.267  1.00  0.00    -0.014 A 
BRANCH  43  44
ATOM     44  C   UNL     1       4.171   0.940   7.741  1.00  0.00     0.031 A 
ATOM     45  C   UNL     1       4.525  -0.034   8.857  1.00  0.00     0.074 A 
ATOM     46  C   UNL     1       3.549   2.080   8.170  1.00  0.00     0.049 A 
ATOM     47  N   UNL     1       4.317   0.051  10.153  1.00  0.00    -0.248 NA
ATOM     48  C   UNL     1       5.156  -1.289   8.439  1.00  0.00     0.031 C 
ATOM     49  C   UNL     1       3.038   3.151   7.326  1.00  0.00     0.029 A 
ATOM     50  N   UNL     1       3.205   2.531   9.450  1.00  0.00    -0.354 N 
ATOM     51  C   UNL     1       4.771  -1.147  10.695  1.00  0.00     0.074 A 
ATOM     52  C   UNL     1       5.179  -1.969   9.574  1.00  0.00     0.031 C 
ATOM     53  C   UNL     1       2.455   4.109   8.074  1.00  0.00     0.029 A 
ATOM     54  C   UNL     1       2.536   3.750   9.489  1.00  0.00     0.049 A 
ATOM     55  H   UNL     1       3.421   2.022  10.264  1.00  0.00     0.167 HD
ATOM     56  C   UNL     1       4.897  -1.536  11.991  1.00  0.00     0.037 A 
ATOM     57  C   UNL     1       2.053   4.512  10.510  1.00  0.00     0.037 A 
ATOM     58  C   UNL     1       4.551  -0.753  13.149  1.00  0.00     0.049 A 
ATOM     59  C   UNL     1       2.208   4.069  11.957  1.00  0.00     0.074 A 
ATOM     60  C   UNL     1       4.744  -1.070  14.485  1.00  0.00     0.029 A 
ATOM     61  N   UNL     1       3.942   0.490  13.125  1.00  0.00    -0.354 N 
ATOM     62  N   UNL     1       2.757   2.978  12.431  1.00  0.00    -0.248 NA
ATOM     63  C   UNL     1       1.688   4.966  13.010  1.00  0.00     0.031 C 
ATOM     64  C   UNL     1       4.213  -0.042  15.269  1.00  0.00     0.029 A 
ATOM     65  C   UNL     1       3.741   0.944  14.421  1.00  0.00     0.049 A 
ATOM     66  H   UNL     1       3.690   0.979  12.309  1.00  0.00     0.167 HD
ATOM     67  C   UNL     1       2.695   3.086  13.823  1.00  0.00     0.074 A 
ATOM     68  C   UNL     1       2.055   4.344  14.123  1.00  0.00     0.031 C 
ATOM     69  C   UNL     1       3.141   2.211  14.758  1.00  0.00     0.037 A 
BRANCH  56  70
ATOM     70  C   UNL     1       5.486  -2.903  12.229  1.00  0.00     0.058 A 
ATOM     71  C   UNL     1       6.829  -3.178  11.920  1.00  0.00     0.135 A 
ATOM     72  C   UNL     1       4.711  -3.941  12.770  1.00  0.00     0.135 A 
ATOM     73  F   UNL     1       7.612  -2.222  11.396  1.00  0.00    -0.206 F 
ATOM     74  C   UNL     1       7.362  -4.451  12.071  1.00  0.00     0.059 A 
ATOM     75  C   UNL     1       5.237  -5.213  12.970  1.00  0.00     0.059 A 
ATOM     76  F   UNL     1       3.428  -3.728  13.101  1.00  0.00    -0.206 F 
ATOM     77  C   UNL     1       6.556  -5.464  12.591  1.00  0.00     0.060 A 
BRANCH  77  78
ATOM     78  S   UNL     1       7.260  -7.116  12.751  1.00  0.00     0.124 S 
ATOM     79  O   UNL     1       7.312  -7.544  11.357  1.00  0.00    -0.237 OA
ATOM     80  O   UNL     1       8.549  -6.846  13.380  1.00  0.00    -0.237 OA
ATOM     81  O   UNL     1       6.292  -7.819  13.587  1.00  0.00    -0.744 OA
ENDBRANCH  77  78
ENDBRANCH  56  70
BRANCH  57  82
ATOM     82  C   UNL     1       1.380   5.839  10.258  1.00  0.00     0.058 A 
ATOM     83  C   UNL     1       1.981   7.047  10.664  1.00  0.00     0.135 A 
ATOM     84  C   UNL     1       0.090   5.928   9.711  1.00  0.00     0.135 A 
ATOM     85  F   UNL     1       3.194   7.029  11.239  1.00  0.00    -0.206 F 
ATOM     86  C   UNL     1       1.331   8.278  10.551  1.00  0.00     0.059 A 
ATOM     87  C   UNL     1      -0.572   7.152   9.564  1.00  0.00     0.059 A 
ATOM     88  F   UNL     1      -0.550   4.816   9.321  1.00  0.00    -0.206 F 
ATOM     89  C   UNL     1       0.054   8.322   9.993  1.00  0.00     0.060 A 
BRANCH  89  90
ATOM     90  S   UNL     1      -0.756   9.931   9.800  1.00  0.00     0.124 S 
ATOM     91  O   UNL     1      -1.056  10.285  11.183  1.00  0.00    -0.237 OA
ATOM     92  O   UNL     1       0.286  10.721   9.152  1.00  0.00    -0.237 OA
ATOM     93  O   UNL     1      -1.912   9.626   8.962  1.00  0.00    -0.744 OA
ENDBRANCH  89  90
ENDBRANCH  57  82
BRANCH  69  94
ATOM     94  C   UNL     1       3.038   2.577  16.220  1.00  0.00     0.058 A 
ATOM     95  C   UNL     1       1.813   2.602  16.906  1.00  0.00     0.135 A 
ATOM     96  C   UNL     1       4.203   2.808  16.974  1.00  0.00     0.135 A 
ATOM     97  F   UNL     1       0.664   2.392  16.244  1.00  0.00    -0.206 F 
ATOM     98  C   UNL     1       1.746   2.848  18.278  1.00  0.00     0.059 A 
ATOM     99  C   UNL     1       4.162   3.029  18.350  1.00  0.00     0.059 A 
ATOM    100  F   UNL     1       5.407   2.788  16.379  1.00  0.00    -0.206 F 
ATOM    101  C   UNL     1       2.927   3.052  18.993  1.00  0.00     0.060 A 
BRANCH 101 102
ATOM    102  S   UNL     1       2.831   3.306  20.781  1.00  0.00     0.124 S 
ATOM    103  O   UNL     1       2.264   4.649  20.859  1.00  0.00    -0.237 OA
ATOM    104  O   UNL     1       1.951   2.221  21.204  1.00  0.00    -0.237 OA
ATOM    105  O   UNL     1       4.219   3.185  21.219  1.00  0.00    -0.744 OA
ENDBRANCH 101 102
ENDBRANCH  69  94
ENDBRANCH  43  44
ENDBRANCH  35  38
ENDBRANCH  33  34
ENDBRANCH  32  33
ENDBRANCH   1  32
TORSDOF 18
