REMARK SMILES COCCS(=O)(=O)N1C[C@@H](C(=O)NCCCNC(=O)c2ccc(-c3c4nc(c(-c5c(F)cc(S(=O)(=O)[O-])cc5F)c5ccc([nH]5)c(-c5c(F)cc(S(=O)(=O)[O-])cc5F)c5nc(c(-c6c(F)cc(S(=O)(=O)[O-])cc6F)c6ccc3[nH]6)C=C5)C=C4)cc2)c2ccccc21
REMARK SMILES IDX 14 1 13 2 11 3 12 4 10 6 8 7 9 8 91 9 86 10 90 11 87 12
REMARK SMILES IDX 89 13 88 14 5 15 6 16 7 17 4 18 3 19 2 20 1 21 15 22 16 23
REMARK SMILES IDX 17 24 18 25 19 27 20 28 21 29 85 30 22 31 84 32 23 33 24 34
REMARK SMILES IDX 25 35 78 36 26 37 83 38 77 39 79 40 27 41 82 42 76 43 75 44
REMARK SMILES IDX 28 46 62 47 41 48 61 49 42 50 45 51 60 52 80 53 43 54 44 55
REMARK SMILES IDX 59 57 81 58 46 59 29 60 30 61 39 62 31 63 32 64 38 65 40 66
REMARK SMILES IDX 33 67 34 68 35 69 36 70 37 71 63 72 64 73 73 74 65 75 66 76
REMARK SMILES IDX 72 77 74 78 67 79 68 80 69 81 70 82 71 83 47 84 48 85 57 86
REMARK SMILES IDX 49 87 50 88 56 89 58 90 51 91 52 92 53 93 54 94 55 95
REMARK H PARENT 13 5 17 26 79 45 45 56
REMARK Flexibility Score: inf
ROOT
ATOM      1  C   UNL     1       1.148  -1.255   4.579  1.00  0.00     0.117 C 
ENDROOT
BRANCH   1   2
ATOM      2  N   UNL     1       1.258  -2.494   3.824  1.00  0.00    -0.355 N 
ATOM      3  C   UNL     1       0.916  -2.773   2.538  1.00  0.00     0.229 C 
ATOM      4  O   UNL     1       1.072  -3.931   2.138  1.00  0.00    -0.274 OA
ATOM      5  H   UNL     1       1.642  -3.251   4.323  1.00  0.00     0.163 HD
BRANCH   3   6
ATOM      6  C   UNL     1       0.387  -1.711   1.605  1.00  0.00     0.131 C 
ATOM      7  N   UNL     1       0.510   0.675   1.469  1.00  0.00    -0.269 N 
ATOM      8  C   UNL     1       1.366  -0.532   1.429  1.00  0.00     0.153 C 
ATOM      9  C   UNL     1      -0.791   0.340   1.927  1.00  0.00     0.056 A 
ATOM     10  C   UNL     1      -0.898  -1.049   2.028  1.00  0.00    -0.009 A 
ATOM     11  C   UNL     1      -1.847   1.163   2.273  1.00  0.00     0.027 A 
ATOM     12  C   UNL     1      -2.079  -1.650   2.439  1.00  0.00     0.007 A 
ATOM     13  C   UNL     1      -3.033   0.568   2.714  1.00  0.00     0.002 A 
ATOM     14  C   UNL     1      -3.151  -0.828   2.790  1.00  0.00     0.000 A 
BRANCH   7  15
ATOM     15  S   UNL     1       1.081   2.192   1.144  1.00  0.00     0.237 S 
ATOM     16  O   UNL     1       2.509   2.087   0.904  1.00  0.00    -0.206 OA
ATOM     17  O   UNL     1       0.585   3.105   2.150  1.00  0.00    -0.206 OA
BRANCH  15  18
ATOM     18  C   UNL     1       0.276   2.605  -0.400  1.00  0.00     0.188 C 
BRANCH  18  19
ATOM     19  C   UNL     1       1.021   2.144  -1.640  1.00  0.00     0.178 C 
BRANCH  19  20
ATOM     20  O   UNL     1       0.330   1.127  -2.373  1.00  0.00    -0.384 OA
ATOM     21  C   UNL     1       0.526  -0.179  -1.858  1.00  0.00     0.194 C 
ENDBRANCH  19  20
ENDBRANCH  18  19
ENDBRANCH  15  18
ENDBRANCH   7  15
ENDBRANCH   3   6
ENDBRANCH   1   2
BRANCH   1  22
ATOM     22  C   UNL     1       0.136  -1.361   5.703  1.00  0.00     0.042 C 
BRANCH  22  23
ATOM     23  C   UNL     1       0.535  -2.380   6.755  1.00  0.00     0.118 C 
BRANCH  23  24
ATOM     24  N   UNL     1       1.827  -2.074   7.360  1.00  0.00    -0.352 N 
ATOM     25  C   UNL     1       2.122  -1.669   8.638  1.00  0.00     0.251 C 
ATOM     26  H   UNL     1       2.603  -2.173   6.763  1.00  0.00     0.163 HD
ATOM     27  O   UNL     1       3.232  -1.217   8.898  1.00  0.00    -0.269 OA
BRANCH  25  28
ATOM     28  C   UNL     1       1.088  -1.774   9.685  1.00  0.00     0.039 A 
ATOM     29  C   UNL     1       0.925  -0.734  10.600  1.00  0.00     0.014 A 
ATOM     30  C   UNL     1       0.267  -2.902   9.741  1.00  0.00     0.014 A 
ATOM     31  C   UNL     1      -0.115  -0.799  11.529  1.00  0.00     0.010 A 
ATOM     32  C   UNL     1      -0.836  -2.907  10.580  1.00  0.00     0.010 A 
ATOM     33  C   UNL     1      -1.028  -1.866  11.497  1.00  0.00    -0.014 A 
BRANCH  33  34
ATOM     34  C   UNL     1      -2.179  -1.936  12.429  1.00  0.00     0.031 A 
ATOM     35  C   UNL     1      -2.299  -3.096  13.381  1.00  0.00     0.074 A 
ATOM     36  C   UNL     1      -3.143  -0.998  12.369  1.00  0.00     0.049 A 
ATOM     37  N   UNL     1      -3.257  -3.378  14.224  1.00  0.00    -0.248 NA
ATOM     38  C   UNL     1      -1.214  -4.092  13.354  1.00  0.00     0.031 C 
ATOM     39  C   UNL     1      -3.159   0.146  11.454  1.00  0.00     0.029 A 
ATOM     40  N   UNL     1      -4.300  -0.858  13.092  1.00  0.00    -0.354 N 
ATOM     41  C   UNL     1      -2.896  -4.582  14.816  1.00  0.00     0.074 A 
ATOM     42  C   UNL     1      -1.675  -5.019  14.178  1.00  0.00     0.031 C 
ATOM     43  C   UNL     1      -4.245   0.894  11.703  1.00  0.00     0.029 A 
ATOM     44  C   UNL     1      -5.027   0.261  12.759  1.00  0.00     0.049 A 
ATOM     45  H   UNL     1      -4.583  -1.498  13.785  1.00  0.00     0.167 HD
ATOM     46  C   UNL     1      -3.506  -5.248  15.826  1.00  0.00     0.037 A 
ATOM     47  C   UNL     1      -6.192   0.721  13.253  1.00  0.00     0.037 A 
ATOM     48  C   UNL     1      -4.713  -4.794  16.463  1.00  0.00     0.049 A 
ATOM     49  C   UNL     1      -6.871  -0.051  14.351  1.00  0.00     0.074 A 
ATOM     50  C   UNL     1      -5.395  -5.365  17.522  1.00  0.00     0.029 A 
ATOM     51  N   UNL     1      -5.424  -3.660  16.094  1.00  0.00    -0.354 N 
ATOM     52  N   UNL     1      -6.485  -1.156  14.944  1.00  0.00    -0.248 NA
ATOM     53  C   UNL     1      -8.143   0.489  14.850  1.00  0.00     0.031 C 
ATOM     54  C   UNL     1      -6.547  -4.606  17.758  1.00  0.00     0.029 A 
ATOM     55  C   UNL     1      -6.551  -3.527  16.887  1.00  0.00     0.049 A 
ATOM     56  H   UNL     1      -5.164  -3.041  15.374  1.00  0.00     0.167 HD
ATOM     57  C   UNL     1      -7.448  -1.426  15.911  1.00  0.00     0.074 A 
ATOM     58  C   UNL     1      -8.429  -0.362  15.826  1.00  0.00     0.031 C 
ATOM     59  C   UNL     1      -7.514  -2.456  16.791  1.00  0.00     0.037 A 
BRANCH  46  60
ATOM     60  C   UNL     1      -2.869  -6.531  16.292  1.00  0.00     0.058 A 
ATOM     61  C   UNL     1      -1.615  -6.547  16.926  1.00  0.00     0.135 A 
ATOM     62  C   UNL     1      -3.514  -7.763  16.094  1.00  0.00     0.135 A 
ATOM     63  F   UNL     1      -0.944  -5.402  17.129  1.00  0.00    -0.206 F 
ATOM     64  C   UNL     1      -1.001  -7.738  17.298  1.00  0.00     0.059 A 
ATOM     65  C   UNL     1      -2.934  -8.965  16.492  1.00  0.00     0.059 A 
ATOM     66  F   UNL     1      -4.714  -7.811  15.495  1.00  0.00    -0.206 F 
ATOM     67  C   UNL     1      -1.666  -8.943  17.072  1.00  0.00     0.060 A 
BRANCH  67  68
ATOM     68  S   UNL     1      -0.842 -10.481  17.533  1.00  0.00     0.124 S 
ATOM     69  O   UNL     1       0.197 -10.572  16.512  1.00  0.00    -0.237 OA
ATOM     70  O   UNL     1      -0.377 -10.192  18.886  1.00  0.00    -0.237 OA
ATOM     71  O   UNL     1      -1.904 -11.478  17.438  1.00  0.00    -0.744 OA
ENDBRANCH  67  68
ENDBRANCH  46  60
BRANCH  47  72
ATOM     72  C   UNL     1      -6.762   1.998  12.745  1.00  0.00     0.058 A 
ATOM     73  C   UNL     1      -6.790   3.141  13.558  1.00  0.00     0.135 A 
ATOM     74  C   UNL     1      -7.266   2.112  11.441  1.00  0.00     0.135 A 
ATOM     75  F   UNL     1      -6.324   3.082  14.815  1.00  0.00    -0.206 F 
ATOM     76  C   UNL     1      -7.311   4.348  13.103  1.00  0.00     0.059 A 
ATOM     77  C   UNL     1      -7.766   3.316  10.953  1.00  0.00     0.059 A 
ATOM     78  F   UNL     1      -7.247   1.054  10.616  1.00  0.00    -0.206 F 
ATOM     79  C   UNL     1      -7.792   4.426  11.796  1.00  0.00     0.060 A 
BRANCH  79  80
ATOM     80  S   UNL     1      -8.418   6.012  11.200  1.00  0.00     0.124 S 
ATOM     81  O   UNL     1      -9.659   6.141  11.954  1.00  0.00    -0.237 OA
ATOM     82  O   UNL     1      -7.343   6.925  11.578  1.00  0.00    -0.237 OA
ATOM     83  O   UNL     1      -8.571   5.795   9.765  1.00  0.00    -0.744 OA
ENDBRANCH  79  80
ENDBRANCH  47  72
BRANCH  59  84
ATOM     84  C   UNL     1      -8.663  -2.464  17.762  1.00  0.00     0.058 A 
ATOM     85  C   UNL     1      -9.978  -2.735  17.354  1.00  0.00     0.135 A 
ATOM     86  C   UNL     1      -8.433  -2.248  19.131  1.00  0.00     0.135 A 
ATOM     87  F   UNL     1     -10.254  -2.941  16.056  1.00  0.00    -0.206 F 
ATOM     88  C   UNL     1     -11.029  -2.765  18.264  1.00  0.00     0.059 A 
ATOM     89  C   UNL     1      -9.463  -2.307  20.064  1.00  0.00     0.059 A 
ATOM     90  F   UNL     1      -7.192  -1.995  19.578  1.00  0.00    -0.206 F 
ATOM     91  C   UNL     1     -10.761  -2.554  19.618  1.00  0.00     0.060 A 
BRANCH  91  92
ATOM     92  S   UNL     1     -12.129  -2.634  20.792  1.00  0.00     0.124 S 
ATOM     93  O   UNL     1     -12.846  -1.399  20.493  1.00  0.00    -0.237 OA
ATOM     94  O   UNL     1     -12.802  -3.869  20.402  1.00  0.00    -0.237 OA
ATOM     95  O   UNL     1     -11.462  -2.674  22.090  1.00  0.00    -0.744 OA
ENDBRANCH  91  92
ENDBRANCH  59  84
ENDBRANCH  33  34
ENDBRANCH  25  28
ENDBRANCH  23  24
ENDBRANCH  22  23
ENDBRANCH   1  22
TORSDOF 17
