REMARK SMILES Cc1nn(C)cc1-c1ccnc2nc(CCC(=O)NCCCNC(=O)c3ccc(-c4c5nc(c(-c6c(F)cc(S(=O)(=O)[O-])cc6F)c6ccc([nH]6)c(-c6c(F)cc(S(=O)(=O)[O-])cc6F)c6nc(c(-c7c(F)cc(S(=O)(=O)[O-])cc7F)c7ccc4[nH]7)C=C6)C=C5)cc3)nn12
REMARK SMILES IDX 21 1 20 2 19 3 17 4 18 5 16 7 15 8 14 9 8 10 9 11 93 12
REMARK SMILES IDX 10 13 12 14 92 15 11 16 13 17 7 18 1 19 2 20 3 21 4 22 6 23
REMARK SMILES IDX 5 24 22 25 23 26 24 27 25 29 26 30 27 31 91 32 28 33 90 34
REMARK SMILES IDX 29 35 30 36 31 37 84 38 32 39 89 40 83 41 85 42 33 43 88 44
REMARK SMILES IDX 82 45 81 46 34 48 68 49 47 50 67 51 48 52 51 53 66 54 86 55
REMARK SMILES IDX 49 56 50 57 65 59 87 60 52 61 35 62 36 63 45 64 37 65 38 66
REMARK SMILES IDX 44 67 46 68 39 69 40 70 41 71 42 72 43 73 69 74 70 75 79 76
REMARK SMILES IDX 71 77 72 78 78 79 80 80 73 81 74 82 75 83 76 84 77 85 53 86
REMARK SMILES IDX 54 87 63 88 55 89 56 90 62 91 64 92 57 93 58 94 59 95 60 96
REMARK SMILES IDX 61 97
REMARK H PARENT 19 6 23 28 85 47 51 58
REMARK Flexibility Score: inf
ROOT
ATOM      1  C   UNL     1       0.876  -2.967   0.443  1.00  0.00     0.042 C 
ENDROOT
BRANCH   1   2
ATOM      2  C   UNL     1       1.428  -4.308   0.973  1.00  0.00     0.117 C 
BRANCH   2   3
ATOM      3  N   UNL     1       1.929  -4.161   2.352  1.00  0.00    -0.356 N 
ATOM      4  C   UNL     1       1.499  -4.630   3.558  1.00  0.00     0.220 C 
ATOM      5  O   UNL     1       2.070  -4.210   4.570  1.00  0.00    -0.275 OA
ATOM      6  H   UNL     1       2.742  -3.609   2.414  1.00  0.00     0.163 HD
BRANCH   4   7
ATOM      7  C   UNL     1       0.411  -5.671   3.687  1.00  0.00     0.108 C 
BRANCH   7   8
ATOM      8  C   UNL     1      -0.911  -5.075   4.158  1.00  0.00     0.089 C 
BRANCH   8   9
ATOM      9  C   UNL     1      -1.662  -4.475   3.035  1.00  0.00     0.153 A 
ATOM     10  C   UNL     1      -2.670  -1.946   0.863  1.00  0.00     0.081 A 
ATOM     11  C   UNL     1      -3.332  -2.153  -0.290  1.00  0.00     0.049 A 
ATOM     12  N   UNL     1      -2.400  -3.075   1.659  1.00  0.00    -0.196 N 
ATOM     13  C   UNL     1      -3.637  -3.560  -0.660  1.00  0.00     0.117 A 
ATOM     14  C   UNL     1      -2.735  -4.375   1.230  1.00  0.00     0.252 A 
ATOM     15  N   UNL     1      -1.706  -3.162   2.824  1.00  0.00    -0.149 NA
ATOM     16  N   UNL     1      -3.357  -4.612   0.041  1.00  0.00    -0.220 NA
ATOM     17  N   UNL     1      -2.264  -5.249   2.091  1.00  0.00    -0.194 NA
BRANCH  10  18
ATOM     18  C   UNL     1      -2.080  -0.680   1.195  1.00  0.00     0.041 A 
ATOM     19  C   UNL     1      -3.969   0.823   2.143  1.00  0.00     0.069 C 
ATOM     20  C   UNL     1      -2.577   0.519   1.754  1.00  0.00     0.069 A 
ATOM     21  N   UNL     1      -1.627   1.474   1.847  1.00  0.00    -0.178 NA
ATOM     22  N   UNL     1      -0.532   0.893   1.345  1.00  0.00    -0.275 N 
ATOM     23  C   UNL     1      -0.795  -0.347   0.870  1.00  0.00     0.119 A 
ATOM     24  C   UNL     1       0.715   1.601   1.166  1.00  0.00     0.173 C 
ENDBRANCH  10  18
ENDBRANCH   8   9
ENDBRANCH   7   8
ENDBRANCH   4   7
ENDBRANCH   2   3
ENDBRANCH   1   2
BRANCH   1  25
ATOM     25  C   UNL     1       1.383  -2.338  -0.888  1.00  0.00     0.118 C 
BRANCH  25  26
ATOM     26  N   UNL     1       0.492  -2.468  -2.071  1.00  0.00    -0.352 N 
ATOM     27  C   UNL     1      -0.457  -1.845  -2.868  1.00  0.00     0.251 C 
ATOM     28  H   UNL     1       0.634  -3.369  -2.442  1.00  0.00     0.163 HD
ATOM     29  O   UNL     1      -0.657  -2.485  -3.914  1.00  0.00    -0.269 OA
BRANCH  27  30
ATOM     30  C   UNL     1      -1.360  -0.631  -2.691  1.00  0.00     0.039 A 
ATOM     31  C   UNL     1      -2.597  -0.669  -3.381  1.00  0.00     0.014 A 
ATOM     32  C   UNL     1      -1.162   0.536  -1.966  1.00  0.00     0.014 A 
ATOM     33  C   UNL     1      -3.633   0.299  -3.213  1.00  0.00     0.010 A 
ATOM     34  C   UNL     1      -2.244   1.472  -1.723  1.00  0.00     0.010 A 
ATOM     35  C   UNL     1      -3.532   1.355  -2.295  1.00  0.00    -0.014 A 
BRANCH  35  36
ATOM     36  C   UNL     1      -4.758   2.241  -1.958  1.00  0.00     0.031 A 
ATOM     37  C   UNL     1      -4.708   3.774  -1.910  1.00  0.00     0.074 A 
ATOM     38  C   UNL     1      -5.976   1.712  -1.642  1.00  0.00     0.049 A 
ATOM     39  N   UNL     1      -5.679   4.635  -1.663  1.00  0.00    -0.248 NA
ATOM     40  C   UNL     1      -3.412   4.417  -2.141  1.00  0.00     0.031 C 
ATOM     41  C   UNL     1      -6.288   0.288  -1.522  1.00  0.00     0.029 A 
ATOM     42  N   UNL     1      -7.196   2.316  -1.349  1.00  0.00    -0.354 N 
ATOM     43  C   UNL     1      -5.105   5.907  -1.682  1.00  0.00     0.074 A 
ATOM     44  C   UNL     1      -3.688   5.694  -1.905  1.00  0.00     0.031 C 
ATOM     45  C   UNL     1      -7.588   0.127  -1.220  1.00  0.00     0.029 A 
ATOM     46  C   UNL     1      -8.232   1.434  -1.098  1.00  0.00     0.049 A 
ATOM     47  H   UNL     1      -7.312   3.293  -1.323  1.00  0.00     0.167 HD
ATOM     48  C   UNL     1      -5.670   7.143  -1.569  1.00  0.00     0.037 A 
ATOM     49  C   UNL     1      -9.546   1.609  -0.811  1.00  0.00     0.037 A 
ATOM     50  C   UNL     1      -7.077   7.431  -1.398  1.00  0.00     0.049 A 
ATOM     51  C   UNL     1     -10.169   2.986  -0.721  1.00  0.00     0.074 A 
ATOM     52  C   UNL     1      -7.702   8.672  -1.391  1.00  0.00     0.029 A 
ATOM     53  N   UNL     1      -8.075   6.497  -1.195  1.00  0.00    -0.354 N 
ATOM     54  N   UNL     1      -9.609   4.158  -0.879  1.00  0.00    -0.248 NA
ATOM     55  C   UNL     1     -11.614   3.060  -0.425  1.00  0.00     0.031 C 
ATOM     56  C   UNL     1      -9.067   8.491  -1.142  1.00  0.00     0.029 A 
ATOM     57  C   UNL     1      -9.303   7.133  -1.046  1.00  0.00     0.049 A 
ATOM     58  H   UNL     1      -7.937   5.522  -1.161  1.00  0.00     0.167 HD
ATOM     59  C   UNL     1     -10.634   5.096  -0.745  1.00  0.00     0.074 A 
ATOM     60  C   UNL     1     -11.852   4.363  -0.498  1.00  0.00     0.031 C 
ATOM     61  C   UNL     1     -10.552   6.446  -0.827  1.00  0.00     0.037 A 
BRANCH  48  62
ATOM     62  C   UNL     1      -4.751   8.340  -1.673  1.00  0.00     0.058 A 
ATOM     63  C   UNL     1      -4.137   8.683  -2.889  1.00  0.00     0.135 A 
ATOM     64  C   UNL     1      -4.540   9.193  -0.575  1.00  0.00     0.135 A 
ATOM     65  F   UNL     1      -4.313   7.915  -3.975  1.00  0.00    -0.206 F 
ATOM     66  C   UNL     1      -3.300   9.789  -2.997  1.00  0.00     0.059 A 
ATOM     67  C   UNL     1      -3.735  10.326  -0.670  1.00  0.00     0.059 A 
ATOM     68  F   UNL     1      -5.129   8.937   0.605  1.00  0.00    -0.206 F 
ATOM     69  C   UNL     1      -3.099  10.600  -1.880  1.00  0.00     0.060 A 
BRANCH  69  70
ATOM     70  S   UNL     1      -1.986  12.014  -2.031  1.00  0.00     0.124 S 
ATOM     71  O   UNL     1      -0.683  11.348  -2.081  1.00  0.00    -0.237 OA
ATOM     72  O   UNL     1      -2.426  12.623  -3.288  1.00  0.00    -0.237 OA
ATOM     73  O   UNL     1      -2.249  12.791  -0.834  1.00  0.00    -0.744 OA
ENDBRANCH  69  70
ENDBRANCH  48  62
BRANCH  49  74
ATOM     74  C   UNL     1     -10.439   0.423  -0.615  1.00  0.00     0.058 A 
ATOM     75  C   UNL     1     -11.428   0.101  -1.560  1.00  0.00     0.135 A 
ATOM     76  C   UNL     1     -10.365  -0.370   0.540  1.00  0.00     0.135 A 
ATOM     77  F   UNL     1     -11.562   0.846  -2.668  1.00  0.00    -0.206 F 
ATOM     78  C   UNL     1     -12.320  -0.949  -1.361  1.00  0.00     0.059 A 
ATOM     79  C   UNL     1     -11.229  -1.444   0.749  1.00  0.00     0.059 A 
ATOM     80  F   UNL     1      -9.440  -0.108   1.476  1.00  0.00    -0.206 F 
ATOM     81  C   UNL     1     -12.210  -1.720  -0.203  1.00  0.00     0.060 A 
BRANCH  81  82
ATOM     82  S   UNL     1     -13.339  -3.114   0.018  1.00  0.00     0.124 S 
ATOM     83  O   UNL     1     -14.595  -2.434   0.312  1.00  0.00    -0.237 OA
ATOM     84  O   UNL     1     -13.261  -3.777  -1.280  1.00  0.00    -0.237 OA
ATOM     85  O   UNL     1     -12.744  -3.853   1.127  1.00  0.00    -0.744 OA
ENDBRANCH  81  82
ENDBRANCH  49  74
BRANCH  61  86
ATOM     86  C   UNL     1     -11.818   7.264  -0.713  1.00  0.00     0.058 A 
ATOM     87  C   UNL     1     -12.513   7.411   0.500  1.00  0.00     0.135 A 
ATOM     88  C   UNL     1     -12.313   7.969  -1.825  1.00  0.00     0.135 A 
ATOM     89  F   UNL     1     -12.097   6.761   1.598  1.00  0.00    -0.206 F 
ATOM     90  C   UNL     1     -13.652   8.210   0.602  1.00  0.00     0.059 A 
ATOM     91  C   UNL     1     -13.435   8.793  -1.740  1.00  0.00     0.059 A 
ATOM     92  F   UNL     1     -11.693   7.877  -3.012  1.00  0.00    -0.206 F 
ATOM     93  C   UNL     1     -14.104   8.902  -0.523  1.00  0.00     0.060 A 
BRANCH  93  94
ATOM     94  S   UNL     1     -15.555   9.971  -0.366  1.00  0.00     0.124 S 
ATOM     95  O   UNL     1     -16.633   8.994  -0.253  1.00  0.00    -0.237 OA
ATOM     96  O   UNL     1     -15.257  10.728   0.845  1.00  0.00    -0.237 OA
ATOM     97  O   UNL     1     -15.541  10.748  -1.602  1.00  0.00    -0.744 OA
ENDBRANCH  93  94
ENDBRANCH  61  86
ENDBRANCH  35  36
ENDBRANCH  27  30
ENDBRANCH  25  26
ENDBRANCH   1  25
TORSDOF 16
