REMARK SMILES CC[N@@H+]1CCC[C@@H]1C[N@@H+](C)C[C@H]([NH3+])C(=O)NCCCNC(=O)c1ccc(-c2c3nc(c(-c4c(F)cc(S(=O)(=O)[O-])cc4F)c4ccc([nH]4)c(-c4c(F)cc(S(=O)(=O)[O-])cc4F)c4nc(c(-c5c(F)cc(S(=O)(=O)[O-])cc5F)c5ccc2[nH]5)C=C4)C=C3)cc1
REMARK SMILES IDX 17 1 16 2 14 3 15 4 12 6 11 7 9 8 10 9 8 11 7 12 3 13 4 14
REMARK SMILES IDX 5 16 6 17 2 18 1 19 13 20 18 24 19 25 20 26 21 27 22 29
REMARK SMILES IDX 23 30 24 31 88 32 25 33 87 34 26 35 27 36 28 37 81 38 29 39
REMARK SMILES IDX 86 40 80 41 82 42 30 43 85 44 79 45 78 46 31 48 65 49 44 50
REMARK SMILES IDX 64 51 45 52 48 53 63 54 83 55 46 56 47 57 62 59 84 60 49 61
REMARK SMILES IDX 32 62 33 63 42 64 34 65 35 66 41 67 43 68 36 69 37 70 38 71
REMARK SMILES IDX 39 72 40 73 66 74 67 75 76 76 68 77 69 78 75 79 77 80 70 81
REMARK SMILES IDX 71 82 72 83 73 84 74 85 50 86 51 87 60 88 52 89 53 90 59 91
REMARK SMILES IDX 61 92 54 93 55 94 56 95 57 96 58 97
REMARK H PARENT 16 5 9 10 3 15 13 21 13 22 13 23 20 28 82 47 48 58
REMARK Flexibility Score: inf
ROOT
ATOM      1  C   UNL     1      -1.510  -4.052   3.992  1.00  0.00     0.118 C 
ENDROOT
BRANCH   1   2
ATOM      2  N   UNL     1      -2.959  -4.053   3.888  1.00  0.00    -0.351 N 
ATOM      3  C   UNL     1      -3.812  -3.224   3.225  1.00  0.00     0.284 C 
ATOM      4  O   UNL     1      -5.008  -3.537   3.232  1.00  0.00    -0.268 OA
ATOM      5  H   UNL     1      -3.402  -4.781   4.382  1.00  0.00     0.163 HD
BRANCH   3   6
ATOM      6  C   UNL     1      -3.336  -1.934   2.525  1.00  0.00     0.326 C 
BRANCH   6   7
ATOM      7  C   UNL     1      -2.397  -2.188   1.310  1.00  0.00     0.338 C 
BRANCH   7   8
ATOM      8  N   UNL     1      -2.974  -2.441  -0.036  1.00  0.00    -0.327 N 
ATOM      9  C   UNL     1      -3.532  -1.182  -0.559  1.00  0.00     0.333 C 
ATOM     10  H   UNL     1      -2.197  -2.786  -0.600  1.00  0.00     0.348 HD
BRANCH   8  11
ATOM     11  C   UNL     1      -3.999  -3.512  -0.119  1.00  0.00     0.327 C 
BRANCH  11  12
ATOM     12  C   UNL     1      -3.527  -4.991  -0.357  1.00  0.00     0.239 C 
ATOM     13  N   UNL     1      -4.569  -6.054  -0.594  1.00  0.00    -0.328 N 
ATOM     14  C   UNL     1      -4.199  -7.218   0.230  1.00  0.00     0.262 C 
ATOM     15  H   UNL     1      -4.555  -6.258  -1.593  1.00  0.00     0.348 HD
ATOM     16  C   UNL     1      -3.485  -6.630   1.419  1.00  0.00     0.068 C 
ATOM     17  C   UNL     1      -2.644  -5.566   0.754  1.00  0.00     0.077 C 
BRANCH  13  18
ATOM     18  C   UNL     1      -5.968  -5.672  -0.380  1.00  0.00     0.259 C 
ATOM     19  C   UNL     1      -6.591  -5.178  -1.680  1.00  0.00     0.071 C 
ENDBRANCH  13  18
ENDBRANCH  11  12
ENDBRANCH   8  11
ENDBRANCH   7   8
ENDBRANCH   6   7
BRANCH   6  20
ATOM     20  N   UNL     1      -2.739  -1.016   3.530  1.00  0.00    -0.343 N 
ATOM     21  H   UNL     1      -1.919  -1.454   3.947  1.00  0.00     0.345 HD
ATOM     22  H   UNL     1      -3.425  -0.816   4.258  1.00  0.00     0.345 HD
ATOM     23  H   UNL     1      -2.465  -0.145   3.074  1.00  0.00     0.345 HD
ENDBRANCH   6  20
ENDBRANCH   3   6
ENDBRANCH   1   2
BRANCH   1  24
ATOM     24  C   UNL     1      -1.040  -4.314   5.411  1.00  0.00     0.042 C 
BRANCH  24  25
ATOM     25  C   UNL     1      -1.373  -5.713   5.915  1.00  0.00     0.118 C 
BRANCH  25  26
ATOM     26  N   UNL     1      -0.630  -6.763   5.226  1.00  0.00    -0.352 N 
ATOM     27  C   UNL     1       0.250  -7.688   5.738  1.00  0.00     0.251 C 
ATOM     28  H   UNL     1      -0.781  -6.817   4.255  1.00  0.00     0.163 HD
ATOM     29  O   UNL     1       0.897  -8.402   4.977  1.00  0.00    -0.269 OA
BRANCH  27  30
ATOM     30  C   UNL     1       0.436  -7.793   7.201  1.00  0.00     0.039 A 
ATOM     31  C   UNL     1       1.731  -7.857   7.720  1.00  0.00     0.014 A 
ATOM     32  C   UNL     1      -0.666  -7.788   8.060  1.00  0.00     0.014 A 
ATOM     33  C   UNL     1       1.921  -7.827   9.104  1.00  0.00     0.010 A 
ATOM     34  C   UNL     1      -0.471  -7.657   9.430  1.00  0.00     0.010 A 
ATOM     35  C   UNL     1       0.824  -7.678   9.969  1.00  0.00    -0.014 A 
BRANCH  35  36
ATOM     36  C   UNL     1       1.004  -7.544  11.439  1.00  0.00     0.031 A 
ATOM     37  C   UNL     1       0.395  -8.560  12.367  1.00  0.00     0.074 A 
ATOM     38  C   UNL     1       1.647  -6.470  11.940  1.00  0.00     0.049 A 
ATOM     39  N   UNL     1       0.367  -8.573  13.675  1.00  0.00    -0.248 NA
ATOM     40  C   UNL     1      -0.307  -9.695  11.743  1.00  0.00     0.031 C 
ATOM     41  C   UNL     1       2.227  -5.381  11.148  1.00  0.00     0.029 A 
ATOM     42  N   UNL     1       1.911  -6.108  13.238  1.00  0.00    -0.354 N 
ATOM     43  C   UNL     1      -0.369  -9.698  14.028  1.00  0.00     0.074 A 
ATOM     44  C   UNL     1      -0.820 -10.311  12.798  1.00  0.00     0.031 C 
ATOM     45  C   UNL     1       2.800  -4.491  11.974  1.00  0.00     0.029 A 
ATOM     46  C   UNL     1       2.598  -4.922  13.354  1.00  0.00     0.049 A 
ATOM     47  H   UNL     1       1.634  -6.648  14.013  1.00  0.00     0.167 HD
ATOM     48  C   UNL     1      -0.623 -10.193  15.262  1.00  0.00     0.037 A 
ATOM     49  C   UNL     1       3.014  -4.255  14.448  1.00  0.00     0.037 A 
ATOM     50  C   UNL     1      -0.138  -9.601  16.481  1.00  0.00     0.049 A 
ATOM     51  C   UNL     1       2.742  -4.837  15.808  1.00  0.00     0.074 A 
ATOM     52  C   UNL     1      -0.281 -10.063  17.778  1.00  0.00     0.029 A 
ATOM     53  N   UNL     1       0.587  -8.421  16.554  1.00  0.00    -0.354 N 
ATOM     54  N   UNL     1       2.102  -5.939  16.120  1.00  0.00    -0.248 NA
ATOM     55  C   UNL     1       3.254  -4.091  16.966  1.00  0.00     0.031 C 
ATOM     56  C   UNL     1       0.325  -9.142  18.639  1.00  0.00     0.029 A 
ATOM     57  C   UNL     1       0.886  -8.130  17.875  1.00  0.00     0.049 A 
ATOM     58  H   UNL     1       0.851  -7.871  15.781  1.00  0.00     0.167 HD
ATOM     59  C   UNL     1       2.157  -6.031  17.506  1.00  0.00     0.074 A 
ATOM     60  C   UNL     1       2.904  -4.880  17.971  1.00  0.00     0.031 C 
ATOM     61  C   UNL     1       1.638  -6.984  18.320  1.00  0.00     0.037 A 
BRANCH  48  62
ATOM     62  C   UNL     1      -1.452 -11.445  15.353  1.00  0.00     0.058 A 
ATOM     63  C   UNL     1      -0.955 -12.689  14.931  1.00  0.00     0.135 A 
ATOM     64  C   UNL     1      -2.748 -11.407  15.892  1.00  0.00     0.135 A 
ATOM     65  F   UNL     1       0.271 -12.780  14.392  1.00  0.00    -0.206 F 
ATOM     66  C   UNL     1      -1.726 -13.844  15.008  1.00  0.00     0.059 A 
ATOM     67  C   UNL     1      -3.526 -12.556  16.006  1.00  0.00     0.059 A 
ATOM     68  F   UNL     1      -3.273 -10.245  16.310  1.00  0.00    -0.206 F 
ATOM     69  C   UNL     1      -3.011 -13.767  15.546  1.00  0.00     0.060 A 
BRANCH  69  70
ATOM     70  S   UNL     1      -3.997 -15.276  15.640  1.00  0.00     0.124 S 
ATOM     71  O   UNL     1      -4.367 -15.469  14.241  1.00  0.00    -0.237 OA
ATOM     72  O   UNL     1      -3.043 -16.239  16.181  1.00  0.00    -0.237 OA
ATOM     73  O   UNL     1      -5.091 -14.912  16.534  1.00  0.00    -0.744 OA
ENDBRANCH  69  70
ENDBRANCH  48  62
BRANCH  49  74
ATOM     74  C   UNL     1       3.761  -2.977  14.300  1.00  0.00     0.058 A 
ATOM     75  C   UNL     1       5.133  -2.907  14.585  1.00  0.00     0.135 A 
ATOM     76  C   UNL     1       3.125  -1.806  13.858  1.00  0.00     0.135 A 
ATOM     77  F   UNL     1       5.784  -3.999  15.015  1.00  0.00    -0.206 F 
ATOM     78  C   UNL     1       5.846  -1.720  14.453  1.00  0.00     0.059 A 
ATOM     79  C   UNL     1       3.822  -0.613  13.696  1.00  0.00     0.059 A 
ATOM     80  F   UNL     1       1.818  -1.824  13.555  1.00  0.00    -0.206 F 
ATOM     81  C   UNL     1       5.181  -0.578  14.005  1.00  0.00     0.060 A 
BRANCH  81  82
ATOM     82  S   UNL     1       6.127   0.946  13.787  1.00  0.00     0.124 S 
ATOM     83  O   UNL     1       6.327   1.367  15.169  1.00  0.00    -0.237 OA
ATOM     84  O   UNL     1       7.315   0.472  13.085  1.00  0.00    -0.237 OA
ATOM     85  O   UNL     1       5.232   1.783  12.993  1.00  0.00    -0.744 OA
ENDBRANCH  81  82
ENDBRANCH  49  74
BRANCH  61  86
ATOM     86  C   UNL     1       1.886  -6.843  19.795  1.00  0.00     0.058 A 
ATOM     87  C   UNL     1       1.221  -5.878  20.567  1.00  0.00     0.135 A 
ATOM     88  C   UNL     1       2.764  -7.720  20.454  1.00  0.00     0.135 A 
ATOM     89  F   UNL     1       0.377  -5.012  19.984  1.00  0.00    -0.206 F 
ATOM     90  C   UNL     1       1.433  -5.772  21.937  1.00  0.00     0.059 A 
ATOM     91  C   UNL     1       2.971  -7.650  21.827  1.00  0.00     0.059 A 
ATOM     92  F   UNL     1       3.417  -8.668  19.763  1.00  0.00    -0.206 F 
ATOM     93  C   UNL     1       2.310  -6.664  22.559  1.00  0.00     0.060 A 
BRANCH  93  94
ATOM     94  S   UNL     1       2.553  -6.538  24.343  1.00  0.00     0.124 S 
ATOM     95  O   UNL     1       3.400  -5.355  24.441  1.00  0.00    -0.237 OA
ATOM     96  O   UNL     1       1.187  -6.383  24.835  1.00  0.00    -0.237 OA
ATOM     97  O   UNL     1       3.196  -7.803  24.688  1.00  0.00    -0.744 OA
ENDBRANCH  93  94
ENDBRANCH  61  86
ENDBRANCH  35  36
ENDBRANCH  27  30
ENDBRANCH  25  26
ENDBRANCH  24  25
ENDBRANCH   1  24
TORSDOF 19
