REMARK SMILES Cc1ccc(C(=O)NCCCNC(=O)c2ccc(-c3c4nc(c(-c5c(F)cc(S(=O)(=O)[O-])cc5F)c5ccc([nH]5)c(-c5c(F)cc(S(=O)(=O)[O-])cc5F)c5nc(c(-c6c(F)cc(S(=O)(=O)[O-])cc6F)c6ccc3[nH]6)C=C5)C=C4)cc2)cc1N1C(=O)/C(=C\c2nc3ccccc3n2C)SC1=S
REMARK SMILES IDX 10 1 9 2 8 3 6 4 7 5 5 7 1 8 2 9 3 10 82 11 4 12 81 13 83 14
REMARK SMILES IDX 84 15 99 16 85 17 86 18 98 19 100 20 87 21 88 22 89 23 96 24
REMARK SMILES IDX 90 25 95 26 97 27 91 28 94 29 92 30 93 31 11 32 12 33 13 34
REMARK SMILES IDX 14 36 15 37 16 38 80 39 17 40 79 41 18 42 19 43 20 44 73 45
REMARK SMILES IDX 21 46 78 47 72 48 74 49 22 50 77 51 71 52 70 53 23 55 57 56
REMARK SMILES IDX 36 57 56 58 37 59 40 60 55 61 75 62 38 63 39 64 54 66 76 67
REMARK SMILES IDX 41 68 24 69 25 70 34 71 26 72 27 73 33 74 35 75 28 76 29 77
REMARK SMILES IDX 30 78 31 79 32 80 58 81 59 82 68 83 60 84 61 85 67 86 69 87
REMARK SMILES IDX 62 88 63 89 64 90 65 91 66 92 42 93 43 94 52 95 44 96 45 97
REMARK SMILES IDX 51 98 53 99 46 100 47 101 48 102 49 103 50 104
REMARK H PARENT 8 6 12 35 74 54 40 65
REMARK Flexibility Score: inf
ROOT
ATOM      1  C   UNL     1      -2.785   3.976   0.536  1.00  0.00     0.042 C 
ENDROOT
BRANCH   1   2
ATOM      2  C   UNL     1      -2.732   2.463   1.171  1.00  0.00     0.118 C 
BRANCH   2   3
ATOM      3  N   UNL     1      -3.249   1.272   0.434  1.00  0.00    -0.352 N 
ATOM      4  C   UNL     1      -2.726   0.084  -0.033  1.00  0.00     0.251 C 
ATOM      5  O   UNL     1      -3.450  -0.877  -0.296  1.00  0.00    -0.269 OA
ATOM      6  H   UNL     1      -4.208   1.356   0.230  1.00  0.00     0.163 HD
BRANCH   4   7
ATOM      7  C   UNL     1      -1.276  -0.073  -0.229  1.00  0.00     0.041 A 
ATOM      8  C   UNL     1       2.998  -0.290   0.072  1.00  0.00     0.046 C 
ATOM      9  C   UNL     1       1.518  -0.196  -0.154  1.00  0.00    -0.027 A 
ATOM     10  C   UNL     1       0.748  -1.367  -0.014  1.00  0.00     0.006 A 
ATOM     11  C   UNL     1       0.862   1.011  -0.465  1.00  0.00     0.054 A 
ATOM     12  C   UNL     1      -0.648  -1.303  -0.023  1.00  0.00     0.014 A 
ATOM     13  C   UNL     1      -0.527   1.034  -0.590  1.00  0.00     0.041 A 
BRANCH  11  14
ATOM     14  N   UNL     1       1.479   2.281  -0.309  1.00  0.00    -0.261 N 
ATOM     15  C   UNL     1       1.161   2.998   0.835  1.00  0.00     0.270 C 
ATOM     16  C   UNL     1       2.220   2.926  -1.269  1.00  0.00     0.152 C 
ATOM     17  O   UNL     1       0.438   2.572   1.733  1.00  0.00    -0.268 OA
ATOM     18  C   UNL     1       1.766   4.361   0.808  1.00  0.00     0.084 C 
ATOM     19  S   UNL     1       2.567   4.574  -0.718  1.00  0.00    -0.054 SA
ATOM     20  S   UNL     1       2.752   2.348  -2.743  1.00  0.00    -0.051 S 
ATOM     21  C   UNL     1       1.728   5.318   1.758  1.00  0.00     0.068 C 
BRANCH  21  22
ATOM     22  C   UNL     1       1.136   5.101   3.034  1.00  0.00     0.134 A 
ATOM     23  N   UNL     1       1.067   3.985   3.728  1.00  0.00    -0.229 NA
ATOM     24  N   UNL     1       0.493   6.100   3.744  1.00  0.00    -0.328 N 
ATOM     25  C   UNL     1       0.024   4.153   4.592  1.00  0.00     0.089 A 
ATOM     26  C   UNL     1      -0.368   5.487   4.632  1.00  0.00     0.068 A 
ATOM     27  C   UNL     1       0.715   7.521   3.642  1.00  0.00     0.152 C 
ATOM     28  C   UNL     1      -0.658   3.198   5.357  1.00  0.00     0.030 A 
ATOM     29  C   UNL     1      -1.420   5.933   5.441  1.00  0.00     0.028 A 
ATOM     30  C   UNL     1      -1.736   3.614   6.142  1.00  0.00     0.002 A 
ATOM     31  C   UNL     1      -2.106   4.961   6.185  1.00  0.00     0.002 A 
ENDBRANCH  21  22
ENDBRANCH  11  14
ENDBRANCH   4   7
ENDBRANCH   2   3
ENDBRANCH   1   2
BRANCH   1  32
ATOM     32  C   UNL     1      -4.149   4.775   0.822  1.00  0.00     0.118 C 
BRANCH  32  33
ATOM     33  N   UNL     1      -4.658   6.215   0.374  1.00  0.00    -0.352 N 
ATOM     34  C   UNL     1      -5.862   6.942  -0.110  1.00  0.00     0.251 C 
ATOM     35  H   UNL     1      -3.909   6.851   0.442  1.00  0.00     0.163 HD
ATOM     36  O   UNL     1      -6.039   7.999   0.532  1.00  0.00    -0.269 OA
BRANCH  34  37
ATOM     37  C   UNL     1      -7.044   6.698  -1.194  1.00  0.00     0.039 A 
ATOM     38  C   UNL     1      -8.427   6.822  -0.846  1.00  0.00     0.014 A 
ATOM     39  C   UNL     1      -6.903   6.287  -2.506  1.00  0.00     0.014 A 
ATOM     40  C   UNL     1      -9.400   5.908  -1.398  1.00  0.00     0.010 A 
ATOM     41  C   UNL     1      -7.867   5.409  -3.082  1.00  0.00     0.010 A 
ATOM     42  C   UNL     1      -9.009   5.004  -2.387  1.00  0.00    -0.014 A 
BRANCH  42  43
ATOM     43  C   UNL     1      -9.655   3.665  -2.677  1.00  0.00     0.031 A 
ATOM     44  C   UNL     1     -10.586   3.553  -3.795  1.00  0.00     0.074 A 
ATOM     45  C   UNL     1      -9.432   2.451  -2.087  1.00  0.00     0.049 A 
ATOM     46  N   UNL     1     -11.799   3.115  -3.723  1.00  0.00    -0.248 NA
ATOM     47  C   UNL     1     -10.143   3.895  -5.133  1.00  0.00     0.031 C 
ATOM     48  C   UNL     1      -9.995   1.106  -2.328  1.00  0.00     0.029 A 
ATOM     49  N   UNL     1      -8.614   2.159  -1.013  1.00  0.00    -0.354 N 
ATOM     50  C   UNL     1     -12.163   2.822  -5.022  1.00  0.00     0.074 A 
ATOM     51  C   UNL     1     -11.200   3.513  -5.852  1.00  0.00     0.031 C 
ATOM     52  C   UNL     1      -9.845   0.350  -1.213  1.00  0.00     0.029 A 
ATOM     53  C   UNL     1      -9.203   1.178  -0.215  1.00  0.00     0.049 A 
ATOM     54  H   UNL     1      -7.742   2.581  -0.836  1.00  0.00     0.167 HD
ATOM     55  C   UNL     1     -13.051   1.818  -5.296  1.00  0.00     0.037 A 
ATOM     56  C   UNL     1      -9.638   1.514   1.041  1.00  0.00     0.037 A 
ATOM     57  C   UNL     1     -13.330   1.030  -4.088  1.00  0.00     0.049 A 
ATOM     58  C   UNL     1     -11.134   1.465   1.125  1.00  0.00     0.074 A 
ATOM     59  C   UNL     1     -12.890  -0.223  -3.683  1.00  0.00     0.029 A 
ATOM     60  N   UNL     1     -13.879   1.629  -2.958  1.00  0.00    -0.354 N 
ATOM     61  N   UNL     1     -11.886   1.399   0.067  1.00  0.00    -0.248 NA
ATOM     62  C   UNL     1     -11.913   1.478   2.359  1.00  0.00     0.031 C 
ATOM     63  C   UNL     1     -13.108  -0.341  -2.288  1.00  0.00     0.029 A 
ATOM     64  C   UNL     1     -13.705   0.827  -1.845  1.00  0.00     0.049 A 
ATOM     65  H   UNL     1     -14.329   2.504  -2.953  1.00  0.00     0.167 HD
ATOM     66  C   UNL     1     -13.197   1.338   0.424  1.00  0.00     0.074 A 
ATOM     67  C   UNL     1     -13.166   1.380   1.875  1.00  0.00     0.031 C 
ATOM     68  C   UNL     1     -14.171   1.251  -0.528  1.00  0.00     0.037 A 
BRANCH  55  69
ATOM     69  C   UNL     1     -13.375   1.330  -6.703  1.00  0.00     0.058 A 
ATOM     70  C   UNL     1     -13.902   0.041  -6.935  1.00  0.00     0.135 A 
ATOM     71  C   UNL     1     -13.224   2.108  -7.872  1.00  0.00     0.135 A 
ATOM     72  F   UNL     1     -14.233  -0.776  -5.926  1.00  0.00    -0.206 F 
ATOM     73  C   UNL     1     -14.155  -0.465  -8.214  1.00  0.00     0.059 A 
ATOM     74  C   UNL     1     -13.402   1.605  -9.164  1.00  0.00     0.059 A 
ATOM     75  F   UNL     1     -12.980   3.425  -7.810  1.00  0.00    -0.206 F 
ATOM     76  C   UNL     1     -13.877   0.315  -9.327  1.00  0.00     0.060 A 
BRANCH  76  77
ATOM     77  S   UNL     1     -14.241  -0.338 -10.967  1.00  0.00     0.124 S 
ATOM     78  O   UNL     1     -13.435  -1.554 -11.004  1.00  0.00    -0.237 OA
ATOM     79  O   UNL     1     -15.685  -0.535 -10.901  1.00  0.00    -0.237 OA
ATOM     80  O   UNL     1     -13.800   0.726 -11.865  1.00  0.00    -0.744 OA
ENDBRANCH  76  77
ENDBRANCH  55  69
BRANCH  56  81
ATOM     81  C   UNL     1      -8.758   2.507   1.782  1.00  0.00     0.058 A 
ATOM     82  C   UNL     1      -7.447   2.062   1.965  1.00  0.00     0.135 A 
ATOM     83  C   UNL     1      -8.787   3.804   1.310  1.00  0.00     0.135 A 
ATOM     84  F   UNL     1      -7.162   1.166   2.916  1.00  0.00    -0.206 F 
ATOM     85  C   UNL     1      -6.428   2.458   1.102  1.00  0.00     0.059 A 
ATOM     86  C   UNL     1      -7.713   4.263   0.538  1.00  0.00     0.059 A 
ATOM     87  F   UNL     1      -9.865   4.585   1.486  1.00  0.00    -0.206 F 
ATOM     88  C   UNL     1      -6.691   3.420   0.151  1.00  0.00     0.060 A 
BRANCH  88  89
ATOM     89  S   UNL     1      -5.678   3.360  -1.575  1.00  0.00     0.124 S 
ATOM     90  O   UNL     1      -4.711   2.321  -1.272  1.00  0.00    -0.237 OA
ATOM     91  O   UNL     1      -6.636   2.939  -2.579  1.00  0.00    -0.237 OA
ATOM     92  O   UNL     1      -5.050   4.652  -1.789  1.00  0.00    -0.744 OA
ENDBRANCH  88  89
ENDBRANCH  56  81
BRANCH  68  93
ATOM     93  C   UNL     1     -15.645   1.426  -0.293  1.00  0.00     0.058 A 
ATOM     94  C   UNL     1     -16.191   2.140   0.786  1.00  0.00     0.135 A 
ATOM     95  C   UNL     1     -16.578   0.961  -1.252  1.00  0.00     0.135 A 
ATOM     96  F   UNL     1     -15.416   2.760   1.687  1.00  0.00    -0.206 F 
ATOM     97  C   UNL     1     -17.564   2.287   0.960  1.00  0.00     0.059 A 
ATOM     98  C   UNL     1     -17.947   1.163  -1.137  1.00  0.00     0.059 A 
ATOM     99  F   UNL     1     -16.193   0.296  -2.351  1.00  0.00    -0.206 F 
ATOM    100  C   UNL     1     -18.435   1.789  -0.003  1.00  0.00     0.060 A 
BRANCH 100 101
ATOM    101  S   UNL     1     -20.205   1.991   0.221  1.00  0.00     0.124 S 
ATOM    102  O   UNL     1     -20.507   0.890   1.131  1.00  0.00    -0.237 OA
ATOM    103  O   UNL     1     -20.301   3.330   0.797  1.00  0.00    -0.237 OA
ATOM    104  O   UNL     1     -20.737   1.858  -1.131  1.00  0.00    -0.744 OA
ENDBRANCH 100 101
ENDBRANCH  68  93
ENDBRANCH  42  43
ENDBRANCH  34  37
ENDBRANCH  32  33
ENDBRANCH   1  32
TORSDOF 15
