REMARK SMILES CC(C)c1cc(N2CCC(C(=O)NCCCNC(=O)c3ccc(-c4c5nc(c(-c6c(F)cc(S(=O)(=O)[O-])cc6F)c6ccc([nH]6)c(-c6c(F)cc(S(=O)(=O)[O-])cc6F)c6nc(c(-c7c(F)cc(S(=O)(=O)[O-])cc7F)c7ccc4[nH]7)C=C6)C=C5)cc3)CC2)nc(-c2ccc(F)cc2)n1
REMARK SMILES IDX 15 1 14 2 13 3 11 4 12 5 10 7 7 8 8 9 87 10 9 11 86 12 6 13
REMARK SMILES IDX 4 14 5 15 97 16 89 17 88 18 2 19 1 20 3 21 90 22 91 23 96 24
REMARK SMILES IDX 92 25 95 26 93 27 94 28 16 29 17 30 18 31 19 33 20 34 21 35
REMARK SMILES IDX 85 36 22 37 84 38 23 39 24 40 25 41 78 42 26 43 83 44 77 45
REMARK SMILES IDX 79 46 27 47 82 48 76 49 75 50 28 52 62 53 41 54 61 55 42 56
REMARK SMILES IDX 45 57 60 58 80 59 43 60 44 61 59 63 81 64 46 65 29 66 30 67
REMARK SMILES IDX 39 68 31 69 32 70 38 71 40 72 33 73 34 74 35 75 36 76 37 77
REMARK SMILES IDX 63 78 64 79 73 80 65 81 66 82 72 83 74 84 67 85 68 86 69 87
REMARK SMILES IDX 70 88 71 89 47 90 48 91 57 92 49 93 50 94 56 95 58 96 51 97
REMARK SMILES IDX 52 98 53 99 54 100 55 101
REMARK H PARENT 13 6 17 32 79 51 45 62
REMARK Flexibility Score: inf
ROOT
ATOM      1  C   UNL     1      -8.445  -0.410  -0.970  1.00  0.00     0.042 C 
ENDROOT
BRANCH   1   2
ATOM      2  C   UNL     1      -7.746  -1.534  -0.213  1.00  0.00     0.117 C 
BRANCH   2   3
ATOM      3  N   UNL     1      -8.165  -2.863  -0.648  1.00  0.00    -0.356 N 
ATOM      4  C   UNL     1      -7.466  -3.874  -1.237  1.00  0.00     0.223 C 
ATOM      5  O   UNL     1      -8.060  -4.931  -1.466  1.00  0.00    -0.275 OA
ATOM      6  H   UNL     1      -9.116  -3.063  -0.490  1.00  0.00     0.163 HD
BRANCH   4   7
ATOM      7  C   UNL     1      -5.994  -3.727  -1.599  1.00  0.00     0.082 C 
ATOM      8  N   UNL     1      -3.938  -1.821  -1.436  1.00  0.00    -0.356 N 
ATOM      9  C   UNL     1      -4.413  -2.106  -2.779  1.00  0.00     0.119 C 
ATOM     10  C   UNL     1      -3.766  -2.959  -0.560  1.00  0.00     0.119 C 
ATOM     11  C   UNL     1      -5.824  -2.649  -2.683  1.00  0.00     0.035 C 
ATOM     12  C   UNL     1      -5.131  -3.598  -0.327  1.00  0.00     0.035 C 
BRANCH   8  13
ATOM     13  C   UNL     1      -3.176  -0.680  -1.312  1.00  0.00     0.132 A 
ATOM     14  C   UNL     1      -1.110   0.465  -1.264  1.00  0.00     0.049 A 
ATOM     15  C   UNL     1      -1.798  -0.735  -1.256  1.00  0.00     0.071 A 
ATOM     16  N   UNL     1      -1.750   1.648  -1.284  1.00  0.00    -0.233 NA
ATOM     17  C   UNL     1      -3.094   1.611  -1.300  1.00  0.00     0.161 A 
ATOM     18  N   UNL     1      -3.834   0.490  -1.320  1.00  0.00    -0.211 NA
BRANCH  14  19
ATOM     19  C   UNL     1       0.403   0.518  -1.266  1.00  0.00     0.032 C 
ATOM     20  C   UNL     1       0.976   0.001   0.053  1.00  0.00     0.014 C 
ATOM     21  C   UNL     1       0.998  -0.232  -2.461  1.00  0.00     0.014 C 
ENDBRANCH  14  19
BRANCH  17  22
ATOM     22  C   UNL     1      -3.804   2.892  -1.237  1.00  0.00     0.019 A 
ATOM     23  C   UNL     1      -3.561   3.910  -2.179  1.00  0.00     0.015 A 
ATOM     24  C   UNL     1      -4.737   3.144  -0.213  1.00  0.00     0.015 A 
ATOM     25  C   UNL     1      -4.228   5.137  -2.102  1.00  0.00     0.040 A 
ATOM     26  C   UNL     1      -5.391   4.376  -0.124  1.00  0.00     0.040 A 
ATOM     27  C   UNL     1      -5.132   5.359  -1.071  1.00  0.00     0.123 A 
ATOM     28  F   UNL     1      -5.763   6.537  -0.981  1.00  0.00    -0.207 F 
ENDBRANCH  17  22
ENDBRANCH   8  13
ENDBRANCH   4   7
ENDBRANCH   2   3
ENDBRANCH   1   2
BRANCH   1  29
ATOM     29  C   UNL     1      -9.955  -0.369  -0.780  1.00  0.00     0.118 C 
BRANCH  29  30
ATOM     30  N   UNL     1     -10.346  -0.088   0.596  1.00  0.00    -0.352 N 
ATOM     31  C   UNL     1     -10.947   1.022   1.138  1.00  0.00     0.251 C 
ATOM     32  H   UNL     1     -10.147  -0.808   1.238  1.00  0.00     0.163 HD
ATOM     33  O   UNL     1     -11.020   1.135   2.360  1.00  0.00    -0.269 OA
BRANCH  31  34
ATOM     34  C   UNL     1     -11.479   2.090   0.264  1.00  0.00     0.039 A 
ATOM     35  C   UNL     1     -11.214   3.423   0.587  1.00  0.00     0.014 A 
ATOM     36  C   UNL     1     -12.231   1.782  -0.873  1.00  0.00     0.014 A 
ATOM     37  C   UNL     1     -11.614   4.440  -0.284  1.00  0.00     0.010 A 
ATOM     38  C   UNL     1     -12.559   2.788  -1.778  1.00  0.00     0.010 A 
ATOM     39  C   UNL     1     -12.237   4.125  -1.503  1.00  0.00    -0.014 A 
BRANCH  39  40
ATOM     40  C   UNL     1     -12.509   5.165  -2.530  1.00  0.00     0.031 A 
ATOM     41  C   UNL     1     -13.918   5.457  -2.965  1.00  0.00     0.074 A 
ATOM     42  C   UNL     1     -11.471   5.774  -3.139  1.00  0.00     0.049 A 
ATOM     43  N   UNL     1     -14.339   6.233  -3.930  1.00  0.00    -0.248 NA
ATOM     44  C   UNL     1     -14.994   4.768  -2.235  1.00  0.00     0.031 C 
ATOM     45  C   UNL     1     -10.057   5.548  -2.831  1.00  0.00     0.029 A 
ATOM     46  N   UNL     1     -11.442   6.693  -4.160  1.00  0.00    -0.354 N 
ATOM     47  C   UNL     1     -15.724   6.119  -3.932  1.00  0.00     0.074 A 
ATOM     48  C   UNL     1     -16.070   5.164  -2.901  1.00  0.00     0.031 C 
ATOM     49  C   UNL     1      -9.302   6.313  -3.634  1.00  0.00     0.029 A 
ATOM     50  C   UNL     1     -10.171   7.043  -4.551  1.00  0.00     0.049 A 
ATOM     51  H   UNL     1     -12.255   7.066  -4.572  1.00  0.00     0.167 HD
ATOM     52  C   UNL     1     -16.624   6.765  -4.712  1.00  0.00     0.037 A 
ATOM     53  C   UNL     1      -9.748   7.840  -5.552  1.00  0.00     0.037 A 
ATOM     54  C   UNL     1     -16.270   7.725  -5.726  1.00  0.00     0.049 A 
ATOM     55  C   UNL     1     -10.765   8.513  -6.432  1.00  0.00     0.074 A 
ATOM     56  C   UNL     1     -17.111   8.482  -6.524  1.00  0.00     0.029 A 
ATOM     57  N   UNL     1     -14.972   8.052  -6.093  1.00  0.00    -0.354 N 
ATOM     58  N   UNL     1     -12.075   8.449  -6.374  1.00  0.00    -0.248 NA
ATOM     59  C   UNL     1     -10.252   9.361  -7.517  1.00  0.00     0.031 C 
ATOM     60  C   UNL     1     -16.323   9.222  -7.411  1.00  0.00     0.029 A 
ATOM     61  C   UNL     1     -14.989   8.969  -7.131  1.00  0.00     0.049 A 
ATOM     62  H   UNL     1     -14.159   7.685  -5.677  1.00  0.00     0.167 HD
ATOM     63  C   UNL     1     -12.541   9.260  -7.403  1.00  0.00     0.074 A 
ATOM     64  C   UNL     1     -11.375   9.818  -8.056  1.00  0.00     0.031 C 
ATOM     65  C   UNL     1     -13.820   9.515  -7.775  1.00  0.00     0.037 A 
BRANCH  52  66
ATOM     66  C   UNL     1     -18.082   6.457  -4.504  1.00  0.00     0.058 A 
ATOM     67  C   UNL     1     -18.767   6.870  -3.350  1.00  0.00     0.135 A 
ATOM     68  C   UNL     1     -18.818   5.782  -5.492  1.00  0.00     0.135 A 
ATOM     69  F   UNL     1     -18.112   7.508  -2.366  1.00  0.00    -0.206 F 
ATOM     70  C   UNL     1     -20.120   6.602  -3.170  1.00  0.00     0.059 A 
ATOM     71  C   UNL     1     -20.179   5.528  -5.347  1.00  0.00     0.059 A 
ATOM     72  F   UNL     1     -18.215   5.365  -6.617  1.00  0.00    -0.206 F 
ATOM     73  C   UNL     1     -20.818   5.930  -4.176  1.00  0.00     0.060 A 
BRANCH  73  74
ATOM     74  S   UNL     1     -22.575   5.598  -3.928  1.00  0.00     0.124 S 
ATOM     75  O   UNL     1     -22.533   4.560  -2.902  1.00  0.00    -0.237 OA
ATOM     76  O   UNL     1     -23.080   6.896  -3.494  1.00  0.00    -0.237 OA
ATOM     77  O   UNL     1     -23.028   5.159  -5.244  1.00  0.00    -0.744 OA
ENDBRANCH  73  74
ENDBRANCH  52  66
BRANCH  53  78
ATOM     78  C   UNL     1      -8.290   8.033  -5.780  1.00  0.00     0.058 A 
ATOM     79  C   UNL     1      -7.675   9.266  -5.520  1.00  0.00     0.135 A 
ATOM     80  C   UNL     1      -7.480   6.984  -6.243  1.00  0.00     0.135 A 
ATOM     81  F   UNL     1      -8.409  10.303  -5.087  1.00  0.00    -0.206 F 
ATOM     82  C   UNL     1      -6.312   9.458  -5.720  1.00  0.00     0.059 A 
ATOM     83  C   UNL     1      -6.110   7.143  -6.425  1.00  0.00     0.059 A 
ATOM     84  F   UNL     1      -8.016   5.780  -6.497  1.00  0.00    -0.206 F 
ATOM     85  C   UNL     1      -5.536   8.387  -6.168  1.00  0.00     0.060 A 
BRANCH  85  86
ATOM     86  S   UNL     1      -3.758   8.628  -6.373  1.00  0.00     0.124 S 
ATOM     87  O   UNL     1      -3.709   9.450  -7.576  1.00  0.00    -0.237 OA
ATOM     88  O   UNL     1      -3.393   9.295  -5.127  1.00  0.00    -0.237 OA
ATOM     89  O   UNL     1      -3.250   7.267  -6.515  1.00  0.00    -0.744 OA
ENDBRANCH  85  86
ENDBRANCH  53  78
BRANCH  65  90
ATOM     90  C   UNL     1     -14.035  10.445  -8.937  1.00  0.00     0.058 A 
ATOM     91  C   UNL     1     -13.773  10.043 -10.256  1.00  0.00     0.135 A 
ATOM     92  C   UNL     1     -14.582  11.724  -8.738  1.00  0.00     0.135 A 
ATOM     93  F   UNL     1     -13.239   8.836 -10.501  1.00  0.00    -0.206 F 
ATOM     94  C   UNL     1     -14.040  10.878 -11.336  1.00  0.00     0.059 A 
ATOM     95  C   UNL     1     -14.883  12.564  -9.805  1.00  0.00     0.059 A 
ATOM     96  F   UNL     1     -14.857  12.155  -7.496  1.00  0.00    -0.206 F 
ATOM     97  C   UNL     1     -14.604  12.133 -11.101  1.00  0.00     0.060 A 
BRANCH  97  98
ATOM     98  S   UNL     1     -15.005  13.178 -12.518  1.00  0.00     0.124 S 
ATOM     99  O   UNL     1     -13.678  13.582 -12.972  1.00  0.00    -0.237 OA
ATOM    100  O   UNL     1     -15.719  12.253 -13.394  1.00  0.00    -0.237 OA
ATOM    101  O   UNL     1     -15.820  14.241 -11.939  1.00  0.00    -0.744 OA
ENDBRANCH  97  98
ENDBRANCH  65  90
ENDBRANCH  39  40
ENDBRANCH  31  34
ENDBRANCH  29  30
ENDBRANCH   1  29
TORSDOF 16
