REMARK SMILES COC(=O)C[C@@H](NC(=O)c1ccccc1C(=O)NCCCNC(=O)c1ccc(-c2c3nc(c(-c4c(F)cc(S(=O)(=O)[O-])cc4F)c4ccc([nH]4)c(-c4c(F)cc(S(=O)(=O)[O-])cc4F)c4nc(c(-c5c(F)cc(S(=O)(=O)[O-])cc5F)c5ccc2[nH]5)C=C4)C=C3)cc1)c1cccc(C)c1C
REMARK SMILES IDX 19 1 18 2 16 3 17 4 15 6 10 7 11 8 12 9 14 10 13 11 8 12
REMARK SMILES IDX 7 13 9 15 6 16 5 17 3 18 4 19 2 20 1 21 91 22 92 23 97 24
REMARK SMILES IDX 93 25 95 26 98 27 94 28 96 29 20 30 21 31 22 32 23 33 24 35
REMARK SMILES IDX 25 36 26 37 90 38 27 39 89 40 28 41 29 42 30 43 83 44 31 45
REMARK SMILES IDX 88 46 82 47 84 48 32 49 87 50 81 51 80 52 33 54 67 55 46 56
REMARK SMILES IDX 66 57 47 58 50 59 65 60 85 61 48 62 49 63 64 65 86 66 51 67
REMARK SMILES IDX 34 68 35 69 44 70 36 71 37 72 43 73 45 74 38 75 39 76 40 77
REMARK SMILES IDX 41 78 42 79 68 80 69 81 78 82 70 83 71 84 77 85 79 86 72 87
REMARK SMILES IDX 73 88 74 89 75 90 76 91 52 92 53 93 62 94 54 95 55 96 61 97
REMARK SMILES IDX 63 98 56 99 57 100 58 101 59 102 60 103
REMARK H PARENT 18 5 7 14 22 34 84 53 50 64
REMARK Flexibility Score: inf
ROOT
ATOM      1  C   UNL     1       2.039   4.454   1.066  1.00  0.00     0.118 C 
ENDROOT
BRANCH   1   2
ATOM      2  N   UNL     1       2.230   5.841   1.385  1.00  0.00    -0.352 N 
ATOM      3  C   UNL     1       1.517   6.840   1.971  1.00  0.00     0.252 C 
ATOM      4  O   UNL     1       2.190   7.873   2.104  1.00  0.00    -0.269 OA
ATOM      5  H   UNL     1       3.119   6.155   1.102  1.00  0.00     0.163 HD
BRANCH   3   6
ATOM      6  C   UNL     1       0.107   6.850   2.504  1.00  0.00     0.052 A 
ATOM      7  C   UNL     1      -0.922   5.895   2.505  1.00  0.00     0.052 A 
ATOM      8  C   UNL     1      -2.206   6.229   3.013  1.00  0.00     0.014 A 
ATOM      9  C   UNL     1      -2.476   7.471   3.575  1.00  0.00     0.001 A 
ATOM     10  C   UNL     1      -0.202   8.090   3.134  1.00  0.00     0.014 A 
ATOM     11  C   UNL     1      -1.460   8.400   3.658  1.00  0.00     0.001 A 
BRANCH   7  12
ATOM     12  C   UNL     1      -0.965   4.583   1.853  1.00  0.00     0.252 C 
ATOM     13  N   UNL     1      -1.006   3.414   2.593  1.00  0.00    -0.345 N 
ATOM     14  H   UNL     1      -1.802   2.852   2.448  1.00  0.00     0.164 HD
ATOM     15  O   UNL     1      -1.235   4.543   0.655  1.00  0.00    -0.269 OA
BRANCH  13  16
ATOM     16  C   UNL     1      -0.023   2.884   3.575  1.00  0.00     0.124 C 
BRANCH  16  17
ATOM     17  C   UNL     1      -0.171   1.359   3.698  1.00  0.00     0.152 C 
BRANCH  17  18
ATOM     18  C   UNL     1       0.401   0.716   2.456  1.00  0.00     0.307 C 
ATOM     19  O   UNL     1       1.544   0.904   2.061  1.00  0.00    -0.252 OA
BRANCH  18  20
ATOM     20  O   UNL     1      -0.543  -0.041   1.833  1.00  0.00    -0.469 OA
ATOM     21  C   UNL     1      -0.096  -0.686   0.636  1.00  0.00     0.282 C 
ENDBRANCH  18  20
ENDBRANCH  17  18
ENDBRANCH  16  17
BRANCH  16  22
ATOM     22  C   UNL     1       0.098   3.698   4.861  1.00  0.00    -0.022 A 
ATOM     23  C   UNL     1       1.031   4.760   4.808  1.00  0.00     0.006 A 
ATOM     24  C   UNL     1      -0.588   3.487   6.079  1.00  0.00    -0.043 A 
ATOM     25  C   UNL     1       1.194   5.672   5.840  1.00  0.00     0.001 A 
ATOM     26  C   UNL     1      -0.345   4.370   7.171  1.00  0.00    -0.048 A 
ATOM     27  C   UNL     1      -1.485   2.295   6.287  1.00  0.00     0.045 C 
ATOM     28  C   UNL     1       0.493   5.485   7.013  1.00  0.00     0.004 A 
ATOM     29  C   UNL     1      -0.973   4.174   8.526  1.00  0.00     0.044 C 
ENDBRANCH  16  22
ENDBRANCH  13  16
ENDBRANCH   7  12
ENDBRANCH   3   6
ENDBRANCH   1   2
BRANCH   1  30
ATOM     30  C   UNL     1       1.831   4.209  -0.410  1.00  0.00     0.042 C 
BRANCH  30  31
ATOM     31  C   UNL     1       2.818   3.190  -0.936  1.00  0.00     0.118 C 
BRANCH  31  32
ATOM     32  N   UNL     1       2.620   1.824  -0.450  1.00  0.00    -0.352 N 
ATOM     33  C   UNL     1       2.889   0.667  -1.157  1.00  0.00     0.251 C 
ATOM     34  H   UNL     1       2.263   1.720   0.462  1.00  0.00     0.163 HD
ATOM     35  O   UNL     1       2.676  -0.452  -0.719  1.00  0.00    -0.269 OA
BRANCH  33  36
ATOM     36  C   UNL     1       3.409   0.840  -2.521  1.00  0.00     0.039 A 
ATOM     37  C   UNL     1       2.622   0.437  -3.602  1.00  0.00     0.014 A 
ATOM     38  C   UNL     1       4.564   1.602  -2.697  1.00  0.00     0.014 A 
ATOM     39  C   UNL     1       2.961   0.870  -4.881  1.00  0.00     0.010 A 
ATOM     40  C   UNL     1       4.829   2.120  -3.949  1.00  0.00     0.010 A 
ATOM     41  C   UNL     1       4.040   1.749  -5.053  1.00  0.00    -0.014 A 
BRANCH  41  42
ATOM     42  C   UNL     1       4.452   2.259  -6.379  1.00  0.00     0.031 A 
ATOM     43  C   UNL     1       5.847   1.939  -6.838  1.00  0.00     0.074 A 
ATOM     44  C   UNL     1       3.657   3.093  -7.075  1.00  0.00     0.049 A 
ATOM     45  N   UNL     1       6.560   2.498  -7.776  1.00  0.00    -0.248 NA
ATOM     46  C   UNL     1       6.560   0.896  -6.077  1.00  0.00     0.031 C 
ATOM     47  C   UNL     1       2.298   3.492  -6.698  1.00  0.00     0.029 A 
ATOM     48  N   UNL     1       3.893   3.782  -8.236  1.00  0.00    -0.354 N 
ATOM     49  C   UNL     1       7.822   1.925  -7.670  1.00  0.00     0.074 A 
ATOM     50  C   UNL     1       7.790   1.016  -6.548  1.00  0.00     0.031 C 
ATOM     51  C   UNL     1       1.819   4.347  -7.618  1.00  0.00     0.029 A 
ATOM     52  C   UNL     1       2.852   4.597  -8.617  1.00  0.00     0.049 A 
ATOM     53  H   UNL     1       4.730   3.702  -8.749  1.00  0.00     0.167 HD
ATOM     54  C   UNL     1       8.903   2.129  -8.456  1.00  0.00     0.037 A 
ATOM     55  C   UNL     1       2.762   5.461  -9.647  1.00  0.00     0.037 A 
ATOM     56  C   UNL     1       8.876   2.977  -9.615  1.00  0.00     0.049 A 
ATOM     57  C   UNL     1       3.953   5.617 -10.556  1.00  0.00     0.074 A 
ATOM     58  C   UNL     1       9.877   3.211 -10.537  1.00  0.00     0.029 A 
ATOM     59  N   UNL     1       7.769   3.711 -10.023  1.00  0.00    -0.354 N 
ATOM     60  N   UNL     1       5.138   5.058 -10.461  1.00  0.00    -0.248 NA
ATOM     61  C   UNL     1       3.802   6.515 -11.708  1.00  0.00     0.031 C 
ATOM     62  C   UNL     1       9.381   4.100 -11.496  1.00  0.00     0.029 A 
ATOM     63  C   UNL     1       8.060   4.393 -11.189  1.00  0.00     0.049 A 
ATOM     64  H   UNL     1       6.906   3.742  -9.550  1.00  0.00     0.167 HD
ATOM     65  C   UNL     1       5.863   5.512 -11.556  1.00  0.00     0.074 A 
ATOM     66  C   UNL     1       4.983   6.391 -12.301  1.00  0.00     0.031 C 
ATOM     67  C   UNL     1       7.140   5.232 -11.916  1.00  0.00     0.037 A 
BRANCH  54  68
ATOM     68  C   UNL     1      10.174   1.415  -8.092  1.00  0.00     0.058 A 
ATOM     69  C   UNL     1      10.294   0.019  -8.192  1.00  0.00     0.135 A 
ATOM     70  C   UNL     1      11.288   2.133  -7.627  1.00  0.00     0.135 A 
ATOM     71  F   UNL     1       9.254  -0.721  -8.610  1.00  0.00    -0.206 F 
ATOM     72  C   UNL     1      11.454  -0.643  -7.805  1.00  0.00     0.059 A 
ATOM     73  C   UNL     1      12.471   1.494  -7.265  1.00  0.00     0.059 A 
ATOM     74  F   UNL     1      11.230   3.468  -7.506  1.00  0.00    -0.206 F 
ATOM     75  C   UNL     1      12.537   0.103  -7.339  1.00  0.00     0.060 A 
BRANCH  75  76
ATOM     76  S   UNL     1      14.034  -0.771  -6.838  1.00  0.00     0.124 S 
ATOM     77  O   UNL     1      13.630  -1.323  -5.548  1.00  0.00    -0.237 OA
ATOM     78  O   UNL     1      14.206  -1.741  -7.914  1.00  0.00    -0.237 OA
ATOM     79  O   UNL     1      15.041   0.284  -6.782  1.00  0.00    -0.744 OA
ENDBRANCH  75  76
ENDBRANCH  54  68
BRANCH  55  80
ATOM     80  C   UNL     1       1.500   6.211  -9.888  1.00  0.00     0.058 A 
ATOM     81  C   UNL     1       0.669   5.884 -10.970  1.00  0.00     0.135 A 
ATOM     82  C   UNL     1       1.079   7.243  -9.035  1.00  0.00     0.135 A 
ATOM     83  F   UNL     1       1.028   4.908 -11.818  1.00  0.00    -0.206 F 
ATOM     84  C   UNL     1      -0.525   6.559 -11.208  1.00  0.00     0.059 A 
ATOM     85  C   UNL     1      -0.123   7.919  -9.238  1.00  0.00     0.059 A 
ATOM     86  F   UNL     1       1.827   7.585  -7.974  1.00  0.00    -0.206 F 
ATOM     87  C   UNL     1      -0.914   7.574 -10.333  1.00  0.00     0.060 A 
BRANCH  87  88
ATOM     88  S   UNL     1      -2.493   8.405 -10.622  1.00  0.00     0.124 S 
ATOM     89  O   UNL     1      -2.181   9.234 -11.781  1.00  0.00    -0.237 OA
ATOM     90  O   UNL     1      -3.392   7.281 -10.865  1.00  0.00    -0.237 OA
ATOM     91  O   UNL     1      -2.726   9.126  -9.374  1.00  0.00    -0.744 OA
ENDBRANCH  87  88
ENDBRANCH  55  80
BRANCH  67  92
ATOM     92  C   UNL     1       7.646   5.831 -13.194  1.00  0.00     0.058 A 
ATOM     93  C   UNL     1       8.048   7.171 -13.267  1.00  0.00     0.135 A 
ATOM     94  C   UNL     1       7.833   5.019 -14.324  1.00  0.00     0.135 A 
ATOM     95  F   UNL     1       7.882   7.986 -12.212  1.00  0.00    -0.206 F 
ATOM     96  C   UNL     1       8.624   7.689 -14.421  1.00  0.00     0.059 A 
ATOM     97  C   UNL     1       8.427   5.510 -15.480  1.00  0.00     0.059 A 
ATOM     98  F   UNL     1       7.472   3.726 -14.295  1.00  0.00    -0.206 F 
ATOM     99  C   UNL     1       8.817   6.848 -15.519  1.00  0.00     0.060 A 
BRANCH  99 100
ATOM    100  S   UNL     1       9.639   7.512 -16.982  1.00  0.00     0.124 S 
ATOM    101  O   UNL     1       8.582   8.327 -17.569  1.00  0.00    -0.237 OA
ATOM    102  O   UNL     1      10.761   8.247 -16.404  1.00  0.00    -0.237 OA
ATOM    103  O   UNL     1      10.005   6.317 -17.738  1.00  0.00    -0.744 OA
ENDBRANCH  99 100
ENDBRANCH  67  92
ENDBRANCH  41  42
ENDBRANCH  33  36
ENDBRANCH  31  32
ENDBRANCH  30  31
ENDBRANCH   1  30
TORSDOF 19
