REMARK SMILES Cc1cccc(-c2cc(C(=O)NCCCNC(=O)c3ccc(-c4c5nc(c(-c6c(F)cc(S(=O)(=O)[O-])cc6F)c6ccc([nH]6)c(-c6c(F)cc(S(=O)(=O)[O-])cc6F)c6nc(c(-c7c(F)cc(S(=O)(=O)[O-])cc7F)c7ccc4[nH]7)C=C6)C=C5)cc3)ccn2)c1
REMARK SMILES IDX 15 1 14 2 13 3 12 4 10 5 11 6 9 8 7 9 8 10 87 11 86 12 85 13
REMARK SMILES IDX 6 14 1 15 2 16 3 17 88 18 4 19 5 20 16 21 17 22 18 24 19 25
REMARK SMILES IDX 20 26 84 27 21 28 83 29 22 30 23 31 24 32 77 33 25 34 82 35
REMARK SMILES IDX 76 36 78 37 26 38 81 39 75 40 74 41 27 43 61 44 40 45 60 46
REMARK SMILES IDX 41 47 44 48 59 49 79 50 42 51 43 52 58 54 80 55 45 56 28 57
REMARK SMILES IDX 29 58 38 59 30 60 31 61 37 62 39 63 32 64 33 65 34 66 35 67
REMARK SMILES IDX 36 68 62 69 63 70 72 71 64 72 65 73 71 74 73 75 66 76 67 77
REMARK SMILES IDX 68 78 69 79 70 80 46 81 47 82 56 83 48 84 49 85 55 86 57 87
REMARK SMILES IDX 50 88 51 89 52 90 53 91 54 92
REMARK H PARENT 12 7 16 23 78 42 44 53
REMARK Flexibility Score: inf
ROOT
ATOM      1  C   UNL     1      -0.200   3.227  -5.500  1.00  0.00     0.118 C 
ENDROOT
BRANCH   1   2
ATOM      2  C   UNL     1      -0.426   3.192  -3.994  1.00  0.00     0.042 C 
BRANCH   2   3
ATOM      3  C   UNL     1      -0.030   4.489  -3.280  1.00  0.00     0.118 C 
BRANCH   3   4
ATOM      4  N   UNL     1      -1.171   5.375  -3.046  1.00  0.00    -0.352 N 
ATOM      5  C   UNL     1      -2.113   5.468  -2.050  1.00  0.00     0.251 C 
ATOM      6  O   UNL     1      -2.882   6.431  -2.088  1.00  0.00    -0.269 OA
ATOM      7  H   UNL     1      -1.289   6.048  -3.755  1.00  0.00     0.163 HD
BRANCH   5   8
ATOM      8  C   UNL     1      -2.275   4.495  -0.929  1.00  0.00     0.043 A 
ATOM      9  C   UNL     1      -1.901   2.404   0.213  1.00  0.00     0.071 A 
ATOM     10  C   UNL     1      -1.668   3.251  -0.868  1.00  0.00     0.042 A 
ATOM     11  N   UNL     1      -2.746   2.722   1.217  1.00  0.00    -0.256 NA
ATOM     12  C   UNL     1      -3.339   3.934   1.147  1.00  0.00     0.112 A 
ATOM     13  C   UNL     1      -3.135   4.840   0.117  1.00  0.00     0.034 A 
BRANCH   9  14
ATOM     14  C   UNL     1      -1.197   1.118   0.287  1.00  0.00     0.000 A 
ATOM     15  C   UNL     1       2.404  -0.135   0.012  1.00  0.00     0.044 C 
ATOM     16  C   UNL     1       0.910  -0.128   0.145  1.00  0.00    -0.050 A 
ATOM     17  C   UNL     1       0.192  -1.326   0.186  1.00  0.00     0.003 A 
ATOM     18  C   UNL     1       0.208   1.081   0.200  1.00  0.00     0.013 A 
ATOM     19  C   UNL     1      -1.200  -1.311   0.294  1.00  0.00     0.001 A 
ATOM     20  C   UNL     1      -1.890  -0.097   0.350  1.00  0.00     0.010 A 
ENDBRANCH   9  14
ENDBRANCH   5   8
ENDBRANCH   3   4
ENDBRANCH   2   3
ENDBRANCH   1   2
BRANCH   1  21
ATOM     21  N   UNL     1       0.772   2.247  -5.950  1.00  0.00    -0.352 N 
ATOM     22  C   UNL     1       1.058   1.872  -7.274  1.00  0.00     0.251 C 
ATOM     23  H   UNL     1       1.291   1.794  -5.247  1.00  0.00     0.163 HD
ATOM     24  O   UNL     1       1.793   0.981  -7.577  1.00  0.00    -0.269 OA
BRANCH  22  25
ATOM     25  C   UNL     1       0.460   2.757  -8.298  1.00  0.00     0.039 A 
ATOM     26  C   UNL     1       1.286   3.777  -8.775  1.00  0.00     0.014 A 
ATOM     27  C   UNL     1      -0.924   2.806  -8.418  1.00  0.00     0.014 A 
ATOM     28  C   UNL     1       0.703   4.967  -9.195  1.00  0.00     0.010 A 
ATOM     29  C   UNL     1      -1.501   4.014  -8.770  1.00  0.00     0.010 A 
ATOM     30  C   UNL     1      -0.682   5.110  -9.083  1.00  0.00    -0.014 A 
BRANCH  30  31
ATOM     31  C   UNL     1      -1.323   6.418  -9.159  1.00  0.00     0.031 A 
ATOM     32  C   UNL     1      -2.022   6.822 -10.395  1.00  0.00     0.074 A 
ATOM     33  C   UNL     1      -1.242   7.275  -8.118  1.00  0.00     0.049 A 
ATOM     34  N   UNL     1      -2.220   8.041 -10.768  1.00  0.00    -0.248 NA
ATOM     35  C   UNL     1      -2.472   5.839 -11.369  1.00  0.00     0.031 C 
ATOM     36  C   UNL     1      -1.978   8.523  -7.946  1.00  0.00     0.029 A 
ATOM     37  N   UNL     1      -0.268   7.295  -7.110  1.00  0.00    -0.354 N 
ATOM     38  C   UNL     1      -3.051   8.015 -11.867  1.00  0.00     0.074 A 
ATOM     39  C   UNL     1      -3.082   6.625 -12.258  1.00  0.00     0.031 C 
ATOM     40  C   UNL     1      -1.291   9.313  -7.108  1.00  0.00     0.029 A 
ATOM     41  C   UNL     1      -0.033   8.651  -6.812  1.00  0.00     0.049 A 
ATOM     42  H   UNL     1       0.166   6.516  -6.693  1.00  0.00     0.167 HD
ATOM     43  C   UNL     1      -3.731   9.148 -12.216  1.00  0.00     0.037 A 
ATOM     44  C   UNL     1       1.197   9.216  -6.977  1.00  0.00     0.037 A 
ATOM     45  C   UNL     1      -3.227  10.308 -11.469  1.00  0.00     0.049 A 
ATOM     46  C   UNL     1       1.223  10.360  -7.961  1.00  0.00     0.074 A 
ATOM     47  C   UNL     1      -3.694  10.993 -10.358  1.00  0.00     0.029 A 
ATOM     48  N   UNL     1      -1.913  10.735 -11.662  1.00  0.00    -0.354 N 
ATOM     49  N   UNL     1       0.283  10.595  -8.836  1.00  0.00    -0.248 NA
ATOM     50  C   UNL     1       2.313  11.328  -8.040  1.00  0.00     0.031 C 
ATOM     51  C   UNL     1      -2.629  11.771  -9.836  1.00  0.00     0.029 A 
ATOM     52  C   UNL     1      -1.520  11.587 -10.645  1.00  0.00     0.049 A 
ATOM     53  H   UNL     1      -1.343  10.467 -12.418  1.00  0.00     0.167 HD
ATOM     54  C   UNL     1       0.618  11.693  -9.588  1.00  0.00     0.074 A 
ATOM     55  C   UNL     1       1.885  12.132  -9.030  1.00  0.00     0.031 C 
ATOM     56  C   UNL     1      -0.174  12.150 -10.606  1.00  0.00     0.037 A 
BRANCH  43  57
ATOM     57  C   UNL     1      -5.073   9.113 -12.950  1.00  0.00     0.058 A 
ATOM     58  C   UNL     1      -6.045  10.117 -12.737  1.00  0.00     0.135 A 
ATOM     59  C   UNL     1      -5.519   8.061 -13.777  1.00  0.00     0.135 A 
ATOM     60  F   UNL     1      -5.746  11.255 -12.095  1.00  0.00    -0.206 F 
ATOM     61  C   UNL     1      -7.374  10.005 -13.166  1.00  0.00     0.059 A 
ATOM     62  C   UNL     1      -6.851   7.894 -14.169  1.00  0.00     0.059 A 
ATOM     63  F   UNL     1      -4.670   7.177 -14.309  1.00  0.00    -0.206 F 
ATOM     64  C   UNL     1      -7.782   8.863 -13.840  1.00  0.00     0.060 A 
BRANCH  64  65
ATOM     65  S   UNL     1      -9.514   8.669 -14.298  1.00  0.00     0.124 S 
ATOM     66  O   UNL     1     -10.192   8.825 -13.015  1.00  0.00    -0.237 OA
ATOM     67  O   UNL     1      -9.701   9.755 -15.253  1.00  0.00    -0.237 OA
ATOM     68  O   UNL     1      -9.568   7.323 -14.864  1.00  0.00    -0.744 OA
ENDBRANCH  64  65
ENDBRANCH  43  57
BRANCH  44  69
ATOM     69  C   UNL     1       2.330   8.318  -6.636  1.00  0.00     0.058 A 
ATOM     70  C   UNL     1       2.522   7.997  -5.279  1.00  0.00     0.135 A 
ATOM     71  C   UNL     1       2.951   7.497  -7.586  1.00  0.00     0.135 A 
ATOM     72  F   UNL     1       1.960   8.757  -4.324  1.00  0.00    -0.206 F 
ATOM     73  C   UNL     1       3.185   6.841  -4.881  1.00  0.00     0.059 A 
ATOM     74  C   UNL     1       3.620   6.327  -7.210  1.00  0.00     0.059 A 
ATOM     75  F   UNL     1       2.813   7.756  -8.895  1.00  0.00    -0.206 F 
ATOM     76  C   UNL     1       3.675   5.980  -5.859  1.00  0.00     0.060 A 
BRANCH  76  77
ATOM     77  S   UNL     1       4.259   4.352  -5.328  1.00  0.00     0.124 S 
ATOM     78  O   UNL     1       5.278   4.700  -4.344  1.00  0.00    -0.237 OA
ATOM     79  O   UNL     1       3.038   3.761  -4.780  1.00  0.00    -0.237 OA
ATOM     80  O   UNL     1       4.750   3.754  -6.563  1.00  0.00    -0.744 OA
ENDBRANCH  76  77
ENDBRANCH  44  69
BRANCH  56  81
ATOM     81  C   UNL     1       0.192  13.240 -11.594  1.00  0.00     0.058 A 
ATOM     82  C   UNL     1       1.505  13.527 -12.007  1.00  0.00     0.135 A 
ATOM     83  C   UNL     1      -0.823  13.961 -12.271  1.00  0.00     0.135 A 
ATOM     84  F   UNL     1       2.552  12.835 -11.535  1.00  0.00    -0.206 F 
ATOM     85  C   UNL     1       1.798  14.504 -12.964  1.00  0.00     0.059 A 
ATOM     86  C   UNL     1      -0.558  14.897 -13.268  1.00  0.00     0.059 A 
ATOM     87  F   UNL     1      -2.122  13.768 -11.994  1.00  0.00    -0.206 F 
ATOM     88  C   UNL     1       0.760  15.182 -13.593  1.00  0.00     0.060 A 
BRANCH  88  89
ATOM     89  S   UNL     1       1.113  16.381 -14.892  1.00  0.00     0.124 S 
ATOM     90  O   UNL     1       1.109  17.634 -14.145  1.00  0.00    -0.237 OA
ATOM     91  O   UNL     1       2.417  15.950 -15.390  1.00  0.00    -0.237 OA
ATOM     92  O   UNL     1       0.005  16.192 -15.823  1.00  0.00    -0.744 OA
ENDBRANCH  88  89
ENDBRANCH  56  81
ENDBRANCH  30  31
ENDBRANCH  22  25
ENDBRANCH   1  21
TORSDOF 14
