REMARK SMILES O=C(NCCCNC(=O)c1cc(S(=O)(=O)N2CCCCC2)c(Cl)cc1Cl)c1ccc(-c2c3nc(c(-c4c(F)cc(S(=O)(=O)[O-])cc4F)c4ccc([nH]4)c(-c4c(F)cc(S(=O)(=O)[O-])cc4F)c4nc(c(-c5c(F)cc(S(=O)(=O)[O-])cc5F)c5ccc2[nH]5)C=C4)C=C3)cc1
REMARK SMILES IDX 4 1 3 2 1 3 2 4 27 6 28 7 92 8 29 9 91 10 30 11 31 12 32 13
REMARK SMILES IDX 85 14 33 15 90 16 84 17 86 18 34 19 89 20 83 21 82 22 35 24
REMARK SMILES IDX 69 25 48 26 68 27 49 28 52 29 67 30 87 31 50 32 51 33 66 35
REMARK SMILES IDX 88 36 53 37 36 38 37 39 46 40 38 41 39 42 45 43 47 44 40 45
REMARK SMILES IDX 41 46 42 47 43 48 44 49 70 50 71 51 80 52 72 53 73 54 79 55
REMARK SMILES IDX 81 56 74 57 75 58 76 59 77 60 78 61 54 62 55 63 64 64 56 65
REMARK SMILES IDX 57 66 63 67 65 68 58 69 59 70 60 71 61 72 62 73 5 74 6 75
REMARK SMILES IDX 7 76 8 77 9 79 10 80 11 81 25 82 12 83 24 84 26 85 22 86
REMARK SMILES IDX 23 87 13 88 14 89 15 90 16 91 17 92 21 93 18 94 20 95 19 96
REMARK H PARENT 3 5 86 23 52 34 7 78
REMARK Flexibility Score: inf
ROOT
ATOM      1  C   UNL     1       4.550  -1.286   0.552  1.00  0.00     0.118 C 
ENDROOT
BRANCH   1   2
ATOM      2  N   UNL     1       3.118  -1.188   0.314  1.00  0.00    -0.352 N 
ATOM      3  O   UNL     1       1.131  -0.249  -0.131  1.00  0.00    -0.269 OA
ATOM      4  C   UNL     1       2.356  -0.166  -0.194  1.00  0.00     0.251 C 
ATOM      5  H   UNL     1       2.608  -1.994   0.560  1.00  0.00     0.163 HD
BRANCH   4   6
ATOM      6  C   UNL     1       2.983   1.033  -0.792  1.00  0.00     0.039 A 
ATOM      7  C   UNL     1       4.089   0.934  -1.639  1.00  0.00     0.014 A 
ATOM      8  C   UNL     1       2.408   2.284  -0.543  1.00  0.00     0.014 A 
ATOM      9  C   UNL     1       4.702   2.087  -2.123  1.00  0.00     0.010 A 
ATOM     10  C   UNL     1       2.978   3.435  -1.092  1.00  0.00     0.010 A 
ATOM     11  C   UNL     1       4.149   3.349  -1.861  1.00  0.00    -0.014 A 
BRANCH  11  12
ATOM     12  C   UNL     1       4.777   4.570  -2.424  1.00  0.00     0.031 A 
ATOM     13  C   UNL     1       5.386   5.605  -1.521  1.00  0.00     0.074 A 
ATOM     14  C   UNL     1       4.785   4.749  -3.759  1.00  0.00     0.049 A 
ATOM     15  N   UNL     1       5.926   6.756  -1.831  1.00  0.00    -0.248 NA
ATOM     16  C   UNL     1       5.381   5.314  -0.079  1.00  0.00     0.031 C 
ATOM     17  C   UNL     1       4.218   3.818  -4.737  1.00  0.00     0.029 A 
ATOM     18  N   UNL     1       5.285   5.771  -4.524  1.00  0.00    -0.354 N 
ATOM     19  C   UNL     1       6.300   7.339  -0.627  1.00  0.00     0.074 A 
ATOM     20  C   UNL     1       5.910   6.421   0.423  1.00  0.00     0.031 C 
ATOM     21  C   UNL     1       4.417   4.303  -5.972  1.00  0.00     0.029 A 
ATOM     22  C   UNL     1       5.079   5.600  -5.871  1.00  0.00     0.049 A 
ATOM     23  H   UNL     1       5.747   6.553  -4.144  1.00  0.00     0.167 HD
ATOM     24  C   UNL     1       6.914   8.529  -0.418  1.00  0.00     0.037 A 
ATOM     25  C   UNL     1       5.368   6.404  -6.912  1.00  0.00     0.037 A 
ATOM     26  C   UNL     1       7.314   9.429  -1.468  1.00  0.00     0.049 A 
ATOM     27  C   UNL     1       6.045   7.719  -6.657  1.00  0.00     0.074 A 
ATOM     28  C   UNL     1       7.969  10.644  -1.359  1.00  0.00     0.029 A 
ATOM     29  N   UNL     1       7.095   9.214  -2.821  1.00  0.00    -0.354 N 
ATOM     30  N   UNL     1       6.410   8.245  -5.513  1.00  0.00    -0.248 NA
ATOM     31  C   UNL     1       6.350   8.549  -7.830  1.00  0.00     0.031 C 
ATOM     32  C   UNL     1       8.119  11.177  -2.644  1.00  0.00     0.029 A 
ATOM     33  C   UNL     1       7.590  10.278  -3.557  1.00  0.00     0.049 A 
ATOM     34  H   UNL     1       6.652   8.422  -3.202  1.00  0.00     0.167 HD
ATOM     35  C   UNL     1       7.002   9.462  -5.827  1.00  0.00     0.074 A 
ATOM     36  C   UNL     1       6.952   9.591  -7.270  1.00  0.00     0.031 C 
ATOM     37  C   UNL     1       7.539  10.387  -4.994  1.00  0.00     0.037 A 
BRANCH  24  38
ATOM     38  C   UNL     1       7.168   8.931   1.008  1.00  0.00     0.058 A 
ATOM     39  C   UNL     1       8.170   8.323   1.780  1.00  0.00     0.135 A 
ATOM     40  C   UNL     1       6.399   9.941   1.610  1.00  0.00     0.135 A 
ATOM     41  F   UNL     1       8.923   7.342   1.258  1.00  0.00    -0.206 F 
ATOM     42  C   UNL     1       8.376   8.674   3.110  1.00  0.00     0.059 A 
ATOM     43  C   UNL     1       6.602  10.323   2.933  1.00  0.00     0.059 A 
ATOM     44  F   UNL     1       5.429  10.557   0.915  1.00  0.00    -0.206 F 
ATOM     45  C   UNL     1       7.580   9.668   3.681  1.00  0.00     0.060 A 
BRANCH  45  46
ATOM     46  S   UNL     1       7.831  10.091   5.419  1.00  0.00     0.124 S 
ATOM     47  O   UNL     1       7.156   8.982   6.086  1.00  0.00    -0.237 OA
ATOM     48  O   UNL     1       9.286  10.106   5.534  1.00  0.00    -0.237 OA
ATOM     49  O   UNL     1       7.183  11.392   5.548  1.00  0.00    -0.744 OA
ENDBRANCH  45  46
ENDBRANCH  24  38
BRANCH  25  50
ATOM     50  C   UNL     1       5.009   5.967  -8.284  1.00  0.00     0.058 A 
ATOM     51  C   UNL     1       5.988   5.502  -9.171  1.00  0.00     0.135 A 
ATOM     52  C   UNL     1       3.670   5.931  -8.704  1.00  0.00     0.135 A 
ATOM     53  F   UNL     1       7.281   5.522  -8.813  1.00  0.00    -0.206 F 
ATOM     54  C   UNL     1       5.654   5.006 -10.427  1.00  0.00     0.059 A 
ATOM     55  C   UNL     1       3.308   5.421  -9.946  1.00  0.00     0.059 A 
ATOM     56  F   UNL     1       2.696   6.350  -7.881  1.00  0.00    -0.206 F 
ATOM     57  C   UNL     1       4.309   4.961 -10.801  1.00  0.00     0.060 A 
BRANCH  57  58
ATOM     58  S   UNL     1       3.874   4.224 -12.392  1.00  0.00     0.124 S 
ATOM     59  O   UNL     1       4.223   5.295 -13.317  1.00  0.00    -0.237 OA
ATOM     60  O   UNL     1       4.731   3.043 -12.430  1.00  0.00    -0.237 OA
ATOM     61  O   UNL     1       2.447   3.947 -12.252  1.00  0.00    -0.744 OA
ENDBRANCH  57  58
ENDBRANCH  25  50
BRANCH  37  62
ATOM     62  C   UNL     1       8.144  11.610  -5.620  1.00  0.00     0.058 A 
ATOM     63  C   UNL     1       7.348  12.663  -6.092  1.00  0.00     0.135 A 
ATOM     64  C   UNL     1       9.539  11.756  -5.684  1.00  0.00     0.135 A 
ATOM     65  F   UNL     1       6.009  12.565  -6.059  1.00  0.00    -0.206 F 
ATOM     66  C   UNL     1       7.914  13.820  -6.615  1.00  0.00     0.059 A 
ATOM     67  C   UNL     1      10.127  12.912  -6.187  1.00  0.00     0.059 A 
ATOM     68  F   UNL     1      10.342  10.777  -5.239  1.00  0.00    -0.206 F 
ATOM     69  C   UNL     1       9.305  13.937  -6.656  1.00  0.00     0.060 A 
BRANCH  69  70
ATOM     70  S   UNL     1      10.033  15.465  -7.285  1.00  0.00     0.124 S 
ATOM     71  O   UNL     1       9.887  15.287  -8.726  1.00  0.00    -0.237 OA
ATOM     72  O   UNL     1       9.184  16.490  -6.684  1.00  0.00    -0.237 OA
ATOM     73  O   UNL     1      11.402  15.420  -6.781  1.00  0.00    -0.744 OA
ENDBRANCH  69  70
ENDBRANCH  37  62
ENDBRANCH  11  12
ENDBRANCH   4   6
ENDBRANCH   1   2
BRANCH   1  74
ATOM     74  C   UNL     1       4.904  -1.322   2.034  1.00  0.00     0.042 C 
BRANCH  74  75
ATOM     75  C   UNL     1       4.257  -2.463   2.808  1.00  0.00     0.118 C 
BRANCH  75  76
ATOM     76  N   UNL     1       4.592  -3.776   2.269  1.00  0.00    -0.352 N 
ATOM     77  C   UNL     1       5.432  -4.750   2.741  1.00  0.00     0.252 C 
ATOM     78  H   UNL     1       4.138  -4.000   1.425  1.00  0.00     0.163 HD
ATOM     79  O   UNL     1       5.608  -5.780   2.099  1.00  0.00    -0.269 OA
BRANCH  77  80
ATOM     80  C   UNL     1       6.088  -4.587   4.051  1.00  0.00     0.059 A 
ATOM     81  C   UNL     1       5.287  -4.365   5.176  1.00  0.00     0.038 A 
ATOM     82  C   UNL     1       7.465  -4.695   4.205  1.00  0.00     0.055 A 
ATOM     83  C   UNL     1       5.841  -4.153   6.458  1.00  0.00     0.102 A 
ATOM     84  C   UNL     1       8.017  -4.553   5.481  1.00  0.00     0.043 A 
ATOM     85  Cl  UNL     1       8.547  -4.955   2.888  1.00  0.00    -0.083 Cl
ATOM     86  C   UNL     1       7.219  -4.276   6.610  1.00  0.00     0.062 A 
ATOM     87  Cl  UNL     1       8.121  -4.155   8.065  1.00  0.00    -0.083 Cl
BRANCH  83  88
ATOM     88  S   UNL     1       4.597  -3.668   7.637  1.00  0.00     0.244 S 
ATOM     89  O   UNL     1       4.127  -2.385   7.155  1.00  0.00    -0.207 OA
ATOM     90  O   UNL     1       3.692  -4.800   7.699  1.00  0.00    -0.207 OA
BRANCH  88  91
ATOM     91  N   UNL     1       5.203  -3.433   9.191  1.00  0.00    -0.198 NA
ATOM     92  C   UNL     1       5.455  -4.639  10.002  1.00  0.00     0.102 C 
ATOM     93  C   UNL     1       5.895  -2.155   9.469  1.00  0.00     0.102 C 
ATOM     94  C   UNL     1       5.834  -4.337  11.441  1.00  0.00     0.017 C 
ATOM     95  C   UNL     1       6.295  -1.973  10.926  1.00  0.00     0.017 C 
ATOM     96  C   UNL     1       6.874  -3.238  11.533  1.00  0.00     0.003 C 
ENDBRANCH  88  91
ENDBRANCH  83  88
ENDBRANCH  77  80
ENDBRANCH  75  76
ENDBRANCH  74  75
ENDBRANCH   1  74
TORSDOF 15
