REMARK SMILES O=C(Cc1cccc(NS(=O)(=O)c2cccc(Cl)c2)c1)NCCCNC(=O)c1ccc(-c2c3nc(c(-c4c(F)cc(S(=O)(=O)[O-])cc4F)c4ccc([nH]4)c(-c4c(F)cc(S(=O)(=O)[O-])cc4F)c4nc(c(-c5c(F)cc(S(=O)(=O)[O-])cc5F)c5ccc2[nH]5)C=C4)C=C3)cc1
REMARK SMILES IDX 22 1 21 2 1 3 2 4 3 6 4 7 5 8 20 9 6 10 8 11 7 12 9 13 10 15
REMARK SMILES IDX 11 16 12 17 13 18 14 19 19 20 15 21 17 22 16 23 18 24 23 25
REMARK SMILES IDX 24 26 25 27 26 28 27 30 28 31 29 32 93 33 30 34 92 35 31 36
REMARK SMILES IDX 32 37 33 38 86 39 34 40 91 41 85 42 87 43 35 44 90 45 84 46
REMARK SMILES IDX 83 47 36 49 70 50 49 51 69 52 50 53 53 54 68 55 88 56 51 57
REMARK SMILES IDX 52 58 67 60 89 61 54 62 37 63 38 64 47 65 39 66 40 67 46 68
REMARK SMILES IDX 48 69 41 70 42 71 43 72 44 73 45 74 71 75 72 76 81 77 73 78
REMARK SMILES IDX 74 79 80 80 82 81 75 82 76 83 77 84 78 85 79 86 55 87 56 88
REMARK SMILES IDX 65 89 57 90 58 91 64 92 66 93 59 94 60 95 61 96 62 97 63 98
REMARK H PARENT 21 5 9 14 25 29 87 48 53 59
REMARK Flexibility Score: inf
ROOT
ATOM      1  C   UNL     1       2.020   1.893   1.395  1.00  0.00     0.117 C 
ENDROOT
BRANCH   1   2
ATOM      2  N   UNL     1       2.628   0.769   0.712  1.00  0.00    -0.356 N 
ATOM      3  O   UNL     1       0.691  -0.056  -0.221  1.00  0.00    -0.275 OA
ATOM      4  C   UNL     1       1.914  -0.075  -0.116  1.00  0.00     0.224 C 
ATOM      5  H   UNL     1       3.589   0.600   0.843  1.00  0.00     0.163 HD
BRANCH   4   6
ATOM      6  C   UNL     1       2.772  -1.051  -0.912  1.00  0.00     0.135 C 
BRANCH   6   7
ATOM      7  C   UNL     1       3.922  -0.385  -1.638  1.00  0.00    -0.037 A 
ATOM      8  C   UNL     1       5.190  -0.972  -1.639  1.00  0.00     0.004 A 
ATOM      9  C   UNL     1       3.735   0.831  -2.318  1.00  0.00     0.031 A 
ATOM     10  C   UNL     1       6.265  -0.306  -2.223  1.00  0.00     0.002 A 
ATOM     11  C   UNL     1       4.808   1.506  -2.906  1.00  0.00     0.049 A 
ATOM     12  C   UNL     1       6.080   0.942  -2.824  1.00  0.00     0.027 A 
BRANCH  11  13
ATOM     13  N   UNL     1       4.491   2.679  -3.647  1.00  0.00    -0.280 N 
ATOM     14  H   UNL     1       3.536   2.885  -3.766  1.00  0.00     0.180 HD
BRANCH  13  15
ATOM     15  S   UNL     1       5.583   3.739  -4.332  1.00  0.00     0.261 S 
ATOM     16  O   UNL     1       4.800   4.699  -5.081  1.00  0.00    -0.201 OA
ATOM     17  O   UNL     1       6.520   4.152  -3.313  1.00  0.00    -0.201 OA
BRANCH  15  18
ATOM     18  C   UNL     1       6.474   2.773  -5.528  1.00  0.00     0.089 A 
ATOM     19  C   UNL     1       5.885   1.653  -6.125  1.00  0.00     0.022 A 
ATOM     20  C   UNL     1       7.826   3.067  -5.731  1.00  0.00     0.042 A 
ATOM     21  C   UNL     1       6.669   0.793  -6.893  1.00  0.00     0.003 A 
ATOM     22  C   UNL     1       8.593   2.212  -6.515  1.00  0.00     0.042 A 
ATOM     23  C   UNL     1       8.025   1.070  -7.083  1.00  0.00     0.020 A 
ATOM     24  Cl  UNL     1      10.263   2.543  -6.758  1.00  0.00    -0.084 Cl
ENDBRANCH  15  18
ENDBRANCH  13  15
ENDBRANCH  11  13
ENDBRANCH   6   7
ENDBRANCH   4   6
ENDBRANCH   1   2
BRANCH   1  25
ATOM     25  C   UNL     1       2.345   1.936   2.882  1.00  0.00     0.042 C 
BRANCH  25  26
ATOM     26  C   UNL     1       3.827   2.074   3.224  1.00  0.00     0.118 C 
BRANCH  26  27
ATOM     27  N   UNL     1       4.418   3.319   2.759  1.00  0.00    -0.352 N 
ATOM     28  C   UNL     1       5.173   4.250   3.433  1.00  0.00     0.251 C 
ATOM     29  H   UNL     1       4.252   3.529   1.811  1.00  0.00     0.163 HD
ATOM     30  O   UNL     1       5.466   5.301   2.868  1.00  0.00    -0.269 OA
BRANCH  28  31
ATOM     31  C   UNL     1       5.611   4.023   4.832  1.00  0.00     0.039 A 
ATOM     32  C   UNL     1       5.569   5.100   5.725  1.00  0.00     0.014 A 
ATOM     33  C   UNL     1       6.093   2.785   5.266  1.00  0.00     0.014 A 
ATOM     34  C   UNL     1       5.940   4.918   7.060  1.00  0.00     0.010 A 
ATOM     35  C   UNL     1       6.404   2.588   6.613  1.00  0.00     0.010 A 
ATOM     36  C   UNL     1       6.328   3.652   7.525  1.00  0.00    -0.014 A 
BRANCH  36  37
ATOM     37  C   UNL     1       6.639   3.425   8.961  1.00  0.00     0.031 A 
ATOM     38  C   UNL     1       8.031   3.054   9.394  1.00  0.00     0.074 A 
ATOM     39  C   UNL     1       5.650   3.497   9.874  1.00  0.00     0.049 A 
ATOM     40  N   UNL     1       8.473   2.762  10.591  1.00  0.00    -0.248 NA
ATOM     41  C   UNL     1       9.056   2.978   8.341  1.00  0.00     0.031 C 
ATOM     42  C   UNL     1       4.247   3.796   9.581  1.00  0.00     0.029 A 
ATOM     43  N   UNL     1       5.672   3.314  11.235  1.00  0.00    -0.354 N 
ATOM     44  C   UNL     1       9.818   2.449  10.435  1.00  0.00     0.074 A 
ATOM     45  C   UNL     1      10.111   2.552   9.021  1.00  0.00     0.031 C 
ATOM     46  C   UNL     1       3.548   3.796  10.728  1.00  0.00     0.029 A 
ATOM     47  C   UNL     1       4.444   3.471  11.833  1.00  0.00     0.049 A 
ATOM     48  H   UNL     1       6.490   3.092  11.735  1.00  0.00     0.167 HD
ATOM     49  C   UNL     1      10.729   2.122  11.383  1.00  0.00     0.037 A 
ATOM     50  C   UNL     1       4.079   3.366  13.125  1.00  0.00     0.037 A 
ATOM     51  C   UNL     1      10.449   2.055  12.793  1.00  0.00     0.049 A 
ATOM     52  C   UNL     1       5.117   3.042  14.163  1.00  0.00     0.074 A 
ATOM     53  C   UNL     1      11.322   1.789  13.835  1.00  0.00     0.029 A 
ATOM     54  N   UNL     1       9.201   2.262  13.363  1.00  0.00    -0.354 N 
ATOM     55  N   UNL     1       6.395   2.798  14.001  1.00  0.00    -0.248 NA
ATOM     56  C   UNL     1       4.664   2.988  15.561  1.00  0.00     0.031 C 
ATOM     57  C   UNL     1      10.598   1.815  15.033  1.00  0.00     0.029 A 
ATOM     58  C   UNL     1       9.280   2.124  14.739  1.00  0.00     0.049 A 
ATOM     59  H   UNL     1       8.381   2.477  12.863  1.00  0.00     0.167 HD
ATOM     60  C   UNL     1       6.903   2.581  15.276  1.00  0.00     0.074 A 
ATOM     61  C   UNL     1       5.798   2.732  16.200  1.00  0.00     0.031 C 
ATOM     62  C   UNL     1       8.173   2.283  15.647  1.00  0.00     0.037 A 
BRANCH  49  63
ATOM     63  C   UNL     1      12.127   1.818  10.921  1.00  0.00     0.058 A 
ATOM     64  C   UNL     1      12.993   2.835  10.490  1.00  0.00     0.135 A 
ATOM     65  C   UNL     1      12.612   0.501  10.931  1.00  0.00     0.135 A 
ATOM     66  F   UNL     1      12.572   4.109  10.448  1.00  0.00    -0.206 F 
ATOM     67  C   UNL     1      14.284   2.553  10.054  1.00  0.00     0.059 A 
ATOM     68  C   UNL     1      13.907   0.199  10.520  1.00  0.00     0.059 A 
ATOM     69  F   UNL     1      11.824  -0.507  11.334  1.00  0.00    -0.206 F 
ATOM     70  C   UNL     1      14.730   1.230  10.067  1.00  0.00     0.060 A 
BRANCH  70  71
ATOM     71  S   UNL     1      16.403   0.873   9.491  1.00  0.00     0.124 S 
ATOM     72  O   UNL     1      16.226   0.921   8.042  1.00  0.00    -0.237 OA
ATOM     73  O   UNL     1      17.178   1.965  10.070  1.00  0.00    -0.237 OA
ATOM     74  O   UNL     1      16.677  -0.449  10.047  1.00  0.00    -0.744 OA
ENDBRANCH  70  71
ENDBRANCH  49  63
BRANCH  50  75
ATOM     75  C   UNL     1       2.666   3.603  13.514  1.00  0.00     0.058 A 
ATOM     76  C   UNL     1       2.289   4.790  14.157  1.00  0.00     0.135 A 
ATOM     77  C   UNL     1       1.666   2.660  13.234  1.00  0.00     0.135 A 
ATOM     78  F   UNL     1       3.214   5.717  14.449  1.00  0.00    -0.206 F 
ATOM     79  C   UNL     1       0.969   5.033  14.521  1.00  0.00     0.059 A 
ATOM     80  C   UNL     1       0.336   2.888  13.571  1.00  0.00     0.059 A 
ATOM     81  F   UNL     1       1.977   1.516  12.605  1.00  0.00    -0.206 F 
ATOM     82  C   UNL     1      -0.002   4.075  14.223  1.00  0.00     0.060 A 
BRANCH  82  83
ATOM     83  S   UNL     1      -1.724   4.420  14.645  1.00  0.00     0.124 S 
ATOM     84  O   UNL     1      -1.739   4.128  16.073  1.00  0.00    -0.237 OA
ATOM     85  O   UNL     1      -1.858   5.826  14.278  1.00  0.00    -0.237 OA
ATOM     86  O   UNL     1      -2.465   3.488  13.800  1.00  0.00    -0.744 OA
ENDBRANCH  82  83
ENDBRANCH  50  75
BRANCH  62  87
ATOM     87  C   UNL     1       8.439   2.127  17.116  1.00  0.00     0.058 A 
ATOM     88  C   UNL     1       8.056   0.971  17.812  1.00  0.00     0.135 A 
ATOM     89  C   UNL     1       9.116   3.130  17.828  1.00  0.00     0.135 A 
ATOM     90  F   UNL     1       7.400  -0.013  17.177  1.00  0.00    -0.206 F 
ATOM     91  C   UNL     1       8.315   0.822  19.171  1.00  0.00     0.059 A 
ATOM     92  C   UNL     1       9.403   2.995  19.182  1.00  0.00     0.059 A 
ATOM     93  F   UNL     1       9.510   4.252  17.205  1.00  0.00    -0.206 F 
ATOM     94  C   UNL     1       8.987   1.842  19.848  1.00  0.00     0.060 A 
BRANCH  94  95
ATOM     95  S   UNL     1       9.345   1.632  21.606  1.00  0.00     0.124 S 
ATOM     96  O   UNL     1       8.059   1.967  22.208  1.00  0.00    -0.237 OA
ATOM     97  O   UNL     1       9.735   0.228  21.685  1.00  0.00    -0.237 OA
ATOM     98  O   UNL     1      10.421   2.589  21.847  1.00  0.00    -0.744 OA
ENDBRANCH  94  95
ENDBRANCH  62  87
ENDBRANCH  36  37
ENDBRANCH  28  31
ENDBRANCH  26  27
ENDBRANCH  25  26
ENDBRANCH   1  25
TORSDOF 17
