REMARK SMILES CCC[C@@H](C)C[C@H](C(=O)NCCCNC(=O)c1ccc(-c2c3nc(c(-c4c(F)cc(S(=O)(=O)[O-])cc4F)c4ccc([nH]4)c(-c4c(F)cc(S(=O)(=O)[O-])cc4F)c4nc(c(-c5c(F)cc(S(=O)(=O)[O-])cc5F)c5ccc2[nH]5)C=C4)C=C3)cc1)c1ccccc1C
REMARK SMILES IDX 11 1 10 2 8 3 9 4 7 6 6 7 4 8 5 9 3 10 2 11 1 12 83 13 84 14
REMARK SMILES IDX 88 15 85 16 87 17 89 18 86 19 12 20 13 21 14 22 15 23 16 25
REMARK SMILES IDX 17 26 18 27 82 28 19 29 81 30 20 31 21 32 22 33 75 34 23 35
REMARK SMILES IDX 80 36 74 37 76 38 24 39 79 40 73 41 72 42 25 44 59 45 38 46
REMARK SMILES IDX 58 47 39 48 42 49 57 50 77 51 40 52 41 53 56 55 78 56 43 57
REMARK SMILES IDX 26 58 27 59 36 60 28 61 29 62 35 63 37 64 30 65 31 66 32 67
REMARK SMILES IDX 33 68 34 69 60 70 61 71 70 72 62 73 63 74 69 75 71 76 64 77
REMARK SMILES IDX 65 78 66 79 67 80 68 81 44 82 45 83 54 84 46 85 47 86 53 87
REMARK SMILES IDX 55 88 48 89 49 90 50 91 51 92 52 93
REMARK H PARENT 10 5 14 24 76 43 42 54
REMARK Flexibility Score: inf
ROOT
ATOM      1  C   UNL     1       1.339   0.851  -1.898  1.00  0.00     0.117 C 
ENDROOT
BRANCH   1   2
ATOM      2  N   UNL     1       0.683   0.527  -3.152  1.00  0.00    -0.356 N 
ATOM      3  C   UNL     1       1.129  -0.201  -4.215  1.00  0.00     0.227 C 
ATOM      4  O   UNL     1       0.336  -0.366  -5.145  1.00  0.00    -0.274 OA
ATOM      5  H   UNL     1      -0.227   0.891  -3.250  1.00  0.00     0.163 HD
BRANCH   3   6
ATOM      6  C   UNL     1       2.561  -0.755  -4.227  1.00  0.00     0.109 C 
BRANCH   6   7
ATOM      7  C   UNL     1       2.827  -2.005  -3.325  1.00  0.00     0.021 C 
BRANCH   7   8
ATOM      8  C   UNL     1       1.687  -2.630  -2.485  1.00  0.00    -0.013 C 
ATOM      9  C   UNL     1       2.281  -3.700  -1.555  1.00  0.00     0.007 C 
BRANCH   8  10
ATOM     10  C   UNL     1       0.534  -3.231  -3.310  1.00  0.00     0.003 C 
BRANCH  10  11
ATOM     11  C   UNL     1      -0.738  -3.539  -2.502  1.00  0.00    -0.003 C 
ATOM     12  C   UNL     1      -1.316  -2.342  -1.757  1.00  0.00     0.004 C 
ENDBRANCH  10  11
ENDBRANCH   8  10
ENDBRANCH   7   8
ENDBRANCH   6   7
BRANCH   6  13
ATOM     13  C   UNL     1       3.095  -0.864  -5.667  1.00  0.00    -0.033 A 
ATOM     14  C   UNL     1       3.087  -2.103  -6.338  1.00  0.00     0.005 A 
ATOM     15  C   UNL     1       3.557   0.273  -6.378  1.00  0.00    -0.047 A 
ATOM     16  C   UNL     1       3.607  -2.240  -7.627  1.00  0.00     0.000 A 
ATOM     17  C   UNL     1       4.082   0.114  -7.675  1.00  0.00     0.004 A 
ATOM     18  C   UNL     1       3.523   1.680  -5.838  1.00  0.00     0.044 C 
ATOM     19  C   UNL     1       4.119  -1.134  -8.290  1.00  0.00     0.000 A 
ENDBRANCH   6  13
ENDBRANCH   3   6
ENDBRANCH   1   2
BRANCH   1  20
ATOM     20  C   UNL     1       0.850   2.158  -1.298  1.00  0.00     0.042 C 
BRANCH  20  21
ATOM     21  C   UNL     1      -0.641   2.195  -0.983  1.00  0.00     0.118 C 
BRANCH  21  22
ATOM     22  N   UNL     1      -1.071   1.216   0.008  1.00  0.00    -0.352 N 
ATOM     23  C   UNL     1      -1.845   1.404   1.134  1.00  0.00     0.251 C 
ATOM     24  H   UNL     1      -0.767   0.293  -0.149  1.00  0.00     0.163 HD
ATOM     25  O   UNL     1      -2.050   0.478   1.905  1.00  0.00    -0.269 OA
BRANCH  23  26
ATOM     26  C   UNL     1      -2.380   2.754   1.420  1.00  0.00     0.039 A 
ATOM     27  C   UNL     1      -2.168   3.312   2.682  1.00  0.00     0.014 A 
ATOM     28  C   UNL     1      -3.009   3.494   0.416  1.00  0.00     0.014 A 
ATOM     29  C   UNL     1      -2.490   4.653   2.903  1.00  0.00     0.010 A 
ATOM     30  C   UNL     1      -3.241   4.851   0.610  1.00  0.00     0.010 A 
ATOM     31  C   UNL     1      -2.974   5.448   1.851  1.00  0.00    -0.014 A 
BRANCH  31  32
ATOM     32  C   UNL     1      -3.194   6.909   2.016  1.00  0.00     0.031 A 
ATOM     33  C   UNL     1      -4.570   7.487   1.828  1.00  0.00     0.074 A 
ATOM     34  C   UNL     1      -2.144   7.722   2.250  1.00  0.00     0.049 A 
ATOM     35  N   UNL     1      -4.947   8.739   1.828  1.00  0.00    -0.248 NA
ATOM     36  C   UNL     1      -5.658   6.530   1.571  1.00  0.00     0.031 C 
ATOM     37  C   UNL     1      -0.752   7.292   2.399  1.00  0.00     0.029 A 
ATOM     38  N   UNL     1      -2.084   9.086   2.398  1.00  0.00    -0.354 N 
ATOM     39  C   UNL     1      -6.309   8.722   1.549  1.00  0.00     0.074 A 
ATOM     40  C   UNL     1      -6.677   7.340   1.328  1.00  0.00     0.031 C 
ATOM     41  C   UNL     1       0.017   8.364   2.655  1.00  0.00     0.029 A 
ATOM     42  C   UNL     1      -0.818   9.560   2.649  1.00  0.00     0.049 A 
ATOM     43  H   UNL     1      -2.874   9.669   2.331  1.00  0.00     0.167 HD
ATOM     44  C   UNL     1      -7.180   9.758   1.508  1.00  0.00     0.037 A 
ATOM     45  C   UNL     1      -0.381  10.818   2.854  1.00  0.00     0.037 A 
ATOM     46  C   UNL     1      -6.817  11.126   1.762  1.00  0.00     0.049 A 
ATOM     47  C   UNL     1      -1.367  11.952   2.818  1.00  0.00     0.074 A 
ATOM     48  C   UNL     1      -7.631  12.244   1.792  1.00  0.00     0.029 A 
ATOM     49  N   UNL     1      -5.529  11.562   2.038  1.00  0.00    -0.354 N 
ATOM     50  N   UNL     1      -2.659  11.913   2.595  1.00  0.00    -0.248 NA
ATOM     51  C   UNL     1      -0.838  13.300   3.063  1.00  0.00     0.031 C 
ATOM     52  C   UNL     1      -6.831  13.360   2.064  1.00  0.00     0.029 A 
ATOM     53  C   UNL     1      -5.524  12.932   2.235  1.00  0.00     0.049 A 
ATOM     54  H   UNL     1      -4.735  10.982   2.087  1.00  0.00     0.167 HD
ATOM     55  C   UNL     1      -3.103  13.226   2.701  1.00  0.00     0.074 A 
ATOM     56  C   UNL     1      -1.941  14.035   3.012  1.00  0.00     0.031 C 
ATOM     57  C   UNL     1      -4.358  13.717   2.556  1.00  0.00     0.037 A 
BRANCH  44  58
ATOM     58  C   UNL     1      -8.612   9.433   1.183  1.00  0.00     0.058 A 
ATOM     59  C   UNL     1      -9.429   8.738   2.089  1.00  0.00     0.135 A 
ATOM     60  C   UNL     1      -9.168   9.799  -0.053  1.00  0.00     0.135 A 
ATOM     61  F   UNL     1      -8.941   8.349   3.278  1.00  0.00    -0.206 F 
ATOM     62  C   UNL     1     -10.730   8.372   1.763  1.00  0.00     0.059 A 
ATOM     63  C   UNL     1     -10.478   9.468  -0.390  1.00  0.00     0.059 A 
ATOM     64  F   UNL     1      -8.433  10.467  -0.955  1.00  0.00    -0.206 F 
ATOM     65  C   UNL     1     -11.242   8.732   0.516  1.00  0.00     0.060 A 
BRANCH  65  66
ATOM     66  S   UNL     1     -12.919   8.218   0.088  1.00  0.00     0.124 S 
ATOM     67  O   UNL     1     -12.712   6.814  -0.251  1.00  0.00    -0.237 OA
ATOM     68  O   UNL     1     -13.652   8.470   1.324  1.00  0.00    -0.237 OA
ATOM     69  O   UNL     1     -13.265   9.091  -1.030  1.00  0.00    -0.744 OA
ENDBRANCH  65  66
ENDBRANCH  44  58
BRANCH  45  70
ATOM     70  C   UNL     1       1.052  11.064   3.163  1.00  0.00     0.058 A 
ATOM     71  C   UNL     1       1.452  11.405   4.464  1.00  0.00     0.135 A 
ATOM     72  C   UNL     1       2.049  10.941   2.183  1.00  0.00     0.135 A 
ATOM     73  F   UNL     1       0.534  11.539   5.433  1.00  0.00    -0.206 F 
ATOM     74  C   UNL     1       2.788  11.625   4.782  1.00  0.00     0.059 A 
ATOM     75  C   UNL     1       3.394  11.137   2.482  1.00  0.00     0.059 A 
ATOM     76  F   UNL     1       1.719  10.601   0.927  1.00  0.00    -0.206 F 
ATOM     77  C   UNL     1       3.753  11.485   3.784  1.00  0.00     0.060 A 
BRANCH  77  78
ATOM     78  S   UNL     1       5.491  11.712   4.222  1.00  0.00     0.124 S 
ATOM     79  O   UNL     1       5.577  13.162   4.342  1.00  0.00    -0.237 OA
ATOM     80  O   UNL     1       5.594  10.960   5.469  1.00  0.00    -0.237 OA
ATOM     81  O   UNL     1       6.199  11.127   3.087  1.00  0.00    -0.744 OA
ENDBRANCH  77  78
ENDBRANCH  45  70
BRANCH  57  82
ATOM     82  C   UNL     1      -4.548  15.191   2.769  1.00  0.00     0.058 A 
ATOM     83  C   UNL     1      -4.149  16.132   1.808  1.00  0.00     0.135 A 
ATOM     84  C   UNL     1      -5.184  15.663   3.929  1.00  0.00     0.135 A 
ATOM     85  F   UNL     1      -3.531  15.730   0.686  1.00  0.00    -0.206 F 
ATOM     86  C   UNL     1      -4.359  17.494   1.996  1.00  0.00     0.059 A 
ATOM     87  C   UNL     1      -5.422  17.019   4.128  1.00  0.00     0.059 A 
ATOM     88  F   UNL     1      -5.591  14.802   4.875  1.00  0.00    -0.206 F 
ATOM     89  C   UNL     1      -4.997  17.928   3.160  1.00  0.00     0.060 A 
BRANCH  89  90
ATOM     90  S   UNL     1      -5.298  19.695   3.378  1.00  0.00     0.124 S 
ATOM     91  O   UNL     1      -3.974  20.173   3.762  1.00  0.00    -0.237 OA
ATOM     92  O   UNL     1      -5.759  20.101   2.054  1.00  0.00    -0.237 OA
ATOM     93  O   UNL     1      -6.312  19.738   4.428  1.00  0.00    -0.744 OA
ENDBRANCH  89  90
ENDBRANCH  57  82
ENDBRANCH  31  32
ENDBRANCH  23  26
ENDBRANCH  21  22
ENDBRANCH  20  21
ENDBRANCH   1  20
TORSDOF 18
