REMARK SMILES Cc1oc(-c2ccc(Cl)cc2[N+](=O)[O-])cc1C(=O)NCCCNC(=O)c1ccc(-c2c3nc(c(-c4c(F)cc(S(=O)(=O)[O-])cc4F)c4ccc([nH]4)c(-c4c(F)cc(S(=O)(=O)[O-])cc4F)c4nc(c(-c5c(F)cc(S(=O)(=O)[O-])cc5F)c5ccc2[nH]5)C=C4)C=C3)cc1
REMARK SMILES IDX 21 1 20 2 19 3 17 4 18 5 16 7 1 8 2 9 3 10 4 11 15 12 5 13
REMARK SMILES IDX 6 14 11 15 7 16 10 17 8 18 9 19 12 20 13 21 14 22 22 23
REMARK SMILES IDX 23 24 24 25 25 27 26 28 27 29 91 30 28 31 90 32 29 33 30 34
REMARK SMILES IDX 31 35 84 36 32 37 89 38 83 39 85 40 33 41 88 42 82 43 81 44
REMARK SMILES IDX 34 46 68 47 47 48 67 49 48 50 51 51 66 52 86 53 49 54 50 55
REMARK SMILES IDX 65 57 87 58 52 59 35 60 36 61 45 62 37 63 38 64 44 65 46 66
REMARK SMILES IDX 39 67 40 68 41 69 42 70 43 71 69 72 70 73 79 74 71 75 72 76
REMARK SMILES IDX 78 77 80 78 73 79 74 80 75 81 76 82 77 83 53 84 54 85 63 86
REMARK SMILES IDX 55 87 56 88 62 89 64 90 57 91 58 92 59 93 60 94 61 95
REMARK H PARENT 19 6 23 26 85 45 51 56
REMARK Flexibility Score: inf
ROOT
ATOM      1  C   UNL     1       3.576  -2.426   0.686  1.00  0.00     0.042 C 
ENDROOT
BRANCH   1   2
ATOM      2  C   UNL     1       2.653  -2.478  -0.528  1.00  0.00     0.118 C 
BRANCH   2   3
ATOM      3  N   UNL     1       1.369  -3.026  -0.165  1.00  0.00    -0.352 N 
ATOM      4  C   UNL     1       0.163  -2.468   0.130  1.00  0.00     0.254 C 
ATOM      5  O   UNL     1      -0.733  -3.285   0.389  1.00  0.00    -0.269 OA
ATOM      6  H   UNL     1       1.365  -4.009  -0.120  1.00  0.00     0.163 HD
BRANCH   4   7
ATOM      7  C   UNL     1      -0.155  -1.043   0.096  1.00  0.00     0.081 A 
ATOM      8  C   UNL     1       1.963   0.602   0.301  1.00  0.00     0.088 C 
ATOM      9  C   UNL     1       0.565   0.150   0.151  1.00  0.00     0.114 A 
ATOM     10  O   UNL     1      -0.287   1.219   0.063  1.00  0.00    -0.460 OA
ATOM     11  C   UNL     1      -1.550   0.748   0.004  1.00  0.00     0.142 A 
ATOM     12  C   UNL     1      -1.532  -0.619   0.043  1.00  0.00     0.065 A 
BRANCH  11  13
ATOM     13  C   UNL     1      -2.594   1.747  -0.041  1.00  0.00     0.095 A 
ATOM     14  C   UNL     1      -3.522   1.780   1.012  1.00  0.00     0.021 A 
ATOM     15  C   UNL     1      -2.716   2.700  -1.064  1.00  0.00     0.281 A 
ATOM     16  C   UNL     1      -4.538   2.739   1.041  1.00  0.00     0.022 A 
ATOM     17  C   UNL     1      -3.734   3.667  -1.042  1.00  0.00     0.107 A 
ATOM     18  C   UNL     1      -4.639   3.676   0.015  1.00  0.00     0.047 A 
ATOM     19  Cl  UNL     1      -5.899   4.845   0.049  1.00  0.00    -0.084 Cl
BRANCH  15  20
ATOM     20  N   UNL     1      -1.820   2.699  -2.216  1.00  0.00     0.063 N 
ATOM     21  O   UNL     1      -1.423   3.803  -2.618  1.00  0.00    -0.258 OA
ATOM     22  O   UNL     1      -1.587   1.617  -2.771  1.00  0.00    -0.258 OA
ENDBRANCH  15  20
ENDBRANCH  11  13
ENDBRANCH   4   7
ENDBRANCH   2   3
ENDBRANCH   1   2
BRANCH   1  23
ATOM     23  C   UNL     1       4.184  -3.775   1.051  1.00  0.00     0.118 C 
BRANCH  23  24
ATOM     24  N   UNL     1       5.145  -4.219   0.052  1.00  0.00    -0.352 N 
ATOM     25  C   UNL     1       6.487  -4.463   0.174  1.00  0.00     0.251 C 
ATOM     26  H   UNL     1       4.774  -4.365  -0.848  1.00  0.00     0.163 HD
ATOM     27  O   UNL     1       7.169  -4.572  -0.849  1.00  0.00    -0.269 OA
BRANCH  25  28
ATOM     28  C   UNL     1       7.122  -4.594   1.502  1.00  0.00     0.039 A 
ATOM     29  C   UNL     1       8.409  -4.081   1.690  1.00  0.00     0.014 A 
ATOM     30  C   UNL     1       6.480  -5.264   2.548  1.00  0.00     0.014 A 
ATOM     31  C   UNL     1       9.031  -4.201   2.934  1.00  0.00     0.010 A 
ATOM     32  C   UNL     1       7.068  -5.314   3.809  1.00  0.00     0.010 A 
ATOM     33  C   UNL     1       8.355  -4.795   4.012  1.00  0.00    -0.014 A 
BRANCH  33  34
ATOM     34  C   UNL     1       8.982  -4.892   5.355  1.00  0.00     0.031 A 
ATOM     35  C   UNL     1       9.275  -6.241   5.956  1.00  0.00     0.074 A 
ATOM     36  C   UNL     1       9.230  -3.767   6.054  1.00  0.00     0.049 A 
ATOM     37  N   UNL     1       9.753  -6.531   7.139  1.00  0.00    -0.248 NA
ATOM     38  C   UNL     1       8.964  -7.419   5.131  1.00  0.00     0.031 C 
ATOM     39  C   UNL     1       8.943  -2.406   5.594  1.00  0.00     0.029 A 
ATOM     40  N   UNL     1       9.769  -3.588   7.302  1.00  0.00    -0.354 N 
ATOM     41  C   UNL     1       9.784  -7.920   7.205  1.00  0.00     0.074 A 
ATOM     42  C   UNL     1       9.227  -8.414   5.965  1.00  0.00     0.031 C 
ATOM     43  C   UNL     1       9.328  -1.532   6.538  1.00  0.00     0.029 A 
ATOM     44  C   UNL     1       9.852  -2.269   7.683  1.00  0.00     0.049 A 
ATOM     45  H   UNL     1      10.068  -4.333   7.872  1.00  0.00     0.167 HD
ATOM     46  C   UNL     1      10.256  -8.710   8.199  1.00  0.00     0.037 A 
ATOM     47  C   UNL     1      10.294  -1.716   8.829  1.00  0.00     0.037 A 
ATOM     48  C   UNL     1      10.834  -8.206   9.419  1.00  0.00     0.049 A 
ATOM     49  C   UNL     1      10.820  -2.613   9.916  1.00  0.00     0.074 A 
ATOM     50  C   UNL     1      11.395  -8.919  10.464  1.00  0.00     0.029 A 
ATOM     51  N   UNL     1      10.925  -6.863   9.757  1.00  0.00    -0.354 N 
ATOM     52  N   UNL     1      10.899  -3.923   9.937  1.00  0.00    -0.248 NA
ATOM     53  C   UNL     1      11.325  -1.960  11.131  1.00  0.00     0.031 C 
ATOM     54  C   UNL     1      11.786  -8.009  11.453  1.00  0.00     0.029 A 
ATOM     55  C   UNL     1      11.516  -6.727  11.002  1.00  0.00     0.049 A 
ATOM     56  H   UNL     1      10.616  -6.117   9.194  1.00  0.00     0.167 HD
ATOM     57  C   UNL     1      11.487  -4.249  11.154  1.00  0.00     0.074 A 
ATOM     58  C   UNL     1      11.754  -2.998  11.835  1.00  0.00     0.031 C 
ATOM     59  C   UNL     1      11.779  -5.472  11.662  1.00  0.00     0.037 A 
BRANCH  46  60
ATOM     60  C   UNL     1      10.172 -10.200   8.008  1.00  0.00     0.058 A 
ATOM     61  C   UNL     1      10.969 -10.870   7.065  1.00  0.00     0.135 A 
ATOM     62  C   UNL     1       9.309 -10.976   8.799  1.00  0.00     0.135 A 
ATOM     63  F   UNL     1      11.802 -10.178   6.271  1.00  0.00    -0.206 F 
ATOM     64  C   UNL     1      10.890 -12.247   6.890  1.00  0.00     0.059 A 
ATOM     65  C   UNL     1       9.235 -12.359   8.662  1.00  0.00     0.059 A 
ATOM     66  F   UNL     1       8.523 -10.390   9.717  1.00  0.00    -0.206 F 
ATOM     67  C   UNL     1      10.019 -12.984   7.694  1.00  0.00     0.060 A 
BRANCH  67  68
ATOM     68  S   UNL     1       9.931 -14.772   7.456  1.00  0.00     0.124 S 
ATOM     69  O   UNL     1       9.211 -14.861   6.190  1.00  0.00    -0.237 OA
ATOM     70  O   UNL     1      11.340 -15.150   7.411  1.00  0.00    -0.237 OA
ATOM     71  O   UNL     1       9.198 -15.235   8.630  1.00  0.00    -0.744 OA
ENDBRANCH  67  68
ENDBRANCH  46  60
BRANCH  47  72
ATOM     72  C   UNL     1      10.277  -0.238   8.995  1.00  0.00     0.058 A 
ATOM     73  C   UNL     1      11.470   0.500   9.006  1.00  0.00     0.135 A 
ATOM     74  C   UNL     1       9.071   0.468   9.123  1.00  0.00     0.135 A 
ATOM     75  F   UNL     1      12.649  -0.130   8.890  1.00  0.00    -0.206 F 
ATOM     76  C   UNL     1      11.471   1.883   9.155  1.00  0.00     0.059 A 
ATOM     77  C   UNL     1       9.044   1.853   9.248  1.00  0.00     0.059 A 
ATOM     78  F   UNL     1       7.901  -0.190   9.099  1.00  0.00    -0.206 F 
ATOM     79  C   UNL     1      10.251   2.551   9.273  1.00  0.00     0.060 A 
BRANCH  79  80
ATOM     80  S   UNL     1      10.260   4.351   9.416  1.00  0.00     0.124 S 
ATOM     81  O   UNL     1      10.737   4.535  10.782  1.00  0.00    -0.237 OA
ATOM     82  O   UNL     1      11.187   4.738   8.357  1.00  0.00    -0.237 OA
ATOM     83  O   UNL     1       8.865   4.713   9.180  1.00  0.00    -0.744 OA
ENDBRANCH  79  80
ENDBRANCH  47  72
BRANCH  59  84
ATOM     84  C   UNL     1      12.453  -5.518  13.005  1.00  0.00     0.058 A 
ATOM     85  C   UNL     1      11.761  -5.221  14.189  1.00  0.00     0.135 A 
ATOM     86  C   UNL     1      13.796  -5.914  13.111  1.00  0.00     0.135 A 
ATOM     87  F   UNL     1      10.477  -4.831  14.142  1.00  0.00    -0.206 F 
ATOM     88  C   UNL     1      12.384  -5.290  15.431  1.00  0.00     0.059 A 
ATOM     89  C   UNL     1      14.431  -6.017  14.345  1.00  0.00     0.059 A 
ATOM     90  F   UNL     1      14.501  -6.220  12.010  1.00  0.00    -0.206 F 
ATOM     91  C   UNL     1      13.720  -5.691  15.498  1.00  0.00     0.060 A 
BRANCH  91  92
ATOM     92  S   UNL     1      14.508  -5.806  17.118  1.00  0.00     0.124 S 
ATOM     93  O   UNL     1      14.704  -4.399  17.450  1.00  0.00    -0.237 OA
ATOM     94  O   UNL     1      13.500  -6.510  17.906  1.00  0.00    -0.237 OA
ATOM     95  O   UNL     1      15.726  -6.565  16.850  1.00  0.00    -0.744 OA
ENDBRANCH  91  92
ENDBRANCH  59  84
ENDBRANCH  33  34
ENDBRANCH  25  28
ENDBRANCH  23  24
ENDBRANCH   1  23
TORSDOF 15
