REMARK SMILES Cc1ccc(-c2cnnc(-n3nc(C)c4c3NC(=O)C[C@@H]4c3ccc(C(=O)NCCCNC(=O)c4ccc(-c5c6nc(c(-c7c(F)cc(S(=O)(=O)[O-])cc7F)c7ccc([nH]7)c(-c7c(F)cc(S(=O)(=O)[O-])cc7F)c7nc(c(-c8c(F)cc(S(=O)(=O)[O-])cc8F)c8ccc5[nH]8)C=C7)C=C6)cc4)cc3)n2)cc1
REMARK SMILES IDX 30 1 29 2 28 3 26 4 27 5 25 7 22 8 23 9 102 10 24 11 101 12
REMARK SMILES IDX 21 13 11 14 12 15 16 16 13 17 15 18 17 19 14 20 18 21 20 23
REMARK SMILES IDX 19 24 10 25 6 26 7 27 103 28 8 29 9 30 5 31 1 32 2 33 3 34
REMARK SMILES IDX 105 35 4 36 104 37 31 38 32 39 33 40 34 42 35 43 36 44
REMARK SMILES IDX 100 45 37 46 99 47 38 48 39 49 40 50 93 51 41 52 98 53 92 54
REMARK SMILES IDX 94 55 42 56 97 57 91 58 90 59 43 61 77 62 56 63 76 64 57 65
REMARK SMILES IDX 60 66 75 67 95 68 58 69 59 70 74 72 96 73 61 74 44 75 45 76
REMARK SMILES IDX 54 77 46 78 47 79 53 80 55 81 48 82 49 83 50 84 51 85 52 86
REMARK SMILES IDX 78 87 79 88 88 89 80 90 81 91 87 92 89 93 82 94 83 95 84 96
REMARK SMILES IDX 85 97 86 98 62 99 63 100 72 101 64 102 65 103 71 104 73 105
REMARK SMILES IDX 66 106 67 107 68 108 69 109 70 110
REMARK H PARENT 28 6 17 22 32 41 94 60 60 71
REMARK Flexibility Score: inf
ROOT
ATOM      1  C   UNL     1     -11.199   6.212  -5.322  1.00  0.00     0.042 C 
ENDROOT
BRANCH   1   2
ATOM      2  C   UNL     1     -11.810   5.175  -6.258  1.00  0.00     0.118 C 
BRANCH   2   3
ATOM      3  N   UNL     1     -11.567   5.443  -7.675  1.00  0.00    -0.352 N 
ATOM      4  C   UNL     1     -10.649   4.863  -8.521  1.00  0.00     0.251 C 
ATOM      5  O   UNL     1     -10.729   4.986  -9.739  1.00  0.00    -0.269 OA
ATOM      6  H   UNL     1     -12.139   6.134  -8.080  1.00  0.00     0.163 HD
BRANCH   4   7
ATOM      7  C   UNL     1      -9.567   4.034  -7.958  1.00  0.00     0.039 A 
ATOM      8  C   UNL     1      -7.726   2.362  -6.669  1.00  0.00    -0.040 A 
ATOM      9  C   UNL     1      -8.539   1.874  -7.714  1.00  0.00     0.005 A 
ATOM     10  C   UNL     1      -7.745   3.736  -6.395  1.00  0.00     0.005 A 
ATOM     11  C   UNL     1      -9.457   2.704  -8.356  1.00  0.00     0.014 A 
ATOM     12  C   UNL     1      -8.661   4.566  -7.041  1.00  0.00     0.014 A 
BRANCH   8  13
ATOM     13  C   UNL     1      -6.910   1.354  -5.893  1.00  0.00     0.064 C 
ATOM     14  N   UNL     1      -5.973   1.901  -2.438  1.00  0.00    -0.180 N 
ATOM     15  N   UNL     1      -7.293   2.181  -2.273  1.00  0.00    -0.168 NA
ATOM     16  C   UNL     1      -5.650   1.933  -3.782  1.00  0.00     0.143 A 
ATOM     17  C   UNL     1      -7.834   2.022  -3.484  1.00  0.00     0.066 A 
ATOM     18  C   UNL     1      -6.837   1.749  -4.458  1.00  0.00     0.026 A 
ATOM     19  N   UNL     1      -4.449   2.032  -4.452  1.00  0.00    -0.310 N 
ATOM     20  C   UNL     1      -9.305   2.177  -3.636  1.00  0.00     0.069 C 
ATOM     21  C   UNL     1      -4.427   1.863  -5.872  1.00  0.00     0.226 C 
ATOM     22  H   UNL     1      -3.616   2.217  -3.959  1.00  0.00     0.171 HD
ATOM     23  C   UNL     1      -5.539   1.059  -6.495  1.00  0.00     0.113 C 
ATOM     24  O   UNL     1      -3.418   2.227  -6.454  1.00  0.00    -0.275 OA
BRANCH  14  25
ATOM     25  C   UNL     1      -5.191   1.364  -1.373  1.00  0.00     0.272 A 
ATOM     26  C   UNL     1      -3.280   0.405  -0.563  1.00  0.00     0.095 A 
ATOM     27  C   UNL     1      -4.012  -0.127   0.486  1.00  0.00     0.164 A 
ATOM     28  N   UNL     1      -3.862   1.142  -1.549  1.00  0.00    -0.208 NA
ATOM     29  N   UNL     1      -5.319   0.128   0.619  1.00  0.00    -0.153 NA
ATOM     30  N   UNL     1      -5.904   0.914  -0.307  1.00  0.00    -0.109 NA
BRANCH  26  31
ATOM     31  C   UNL     1      -1.819   0.276  -0.567  1.00  0.00     0.002 A 
ATOM     32  C   UNL     1       2.458  -0.035   0.041  1.00  0.00     0.044 C 
ATOM     33  C   UNL     1       0.981   0.079  -0.201  1.00  0.00    -0.051 A 
ATOM     34  C   UNL     1       0.194  -1.074  -0.283  1.00  0.00     0.004 A 
ATOM     35  C   UNL     1       0.369   1.328  -0.338  1.00  0.00     0.004 A 
ATOM     36  C   UNL     1      -1.190  -0.977  -0.464  1.00  0.00     0.011 A 
ATOM     37  C   UNL     1      -1.013   1.424  -0.525  1.00  0.00     0.011 A 
ENDBRANCH  26  31
ENDBRANCH  14  25
ENDBRANCH   8  13
ENDBRANCH   4   7
ENDBRANCH   2   3
ENDBRANCH   1   2
BRANCH   1  38
ATOM     38  C   UNL     1     -11.962   7.529  -5.300  1.00  0.00     0.118 C 
BRANCH  38  39
ATOM     39  N   UNL     1     -12.498   7.846  -3.983  1.00  0.00    -0.352 N 
ATOM     40  C   UNL     1     -12.790   9.119  -3.517  1.00  0.00     0.251 C 
ATOM     41  H   UNL     1     -12.668   7.092  -3.373  1.00  0.00     0.163 HD
ATOM     42  O   UNL     1     -12.697   9.450  -2.349  1.00  0.00    -0.269 OA
BRANCH  40  43
ATOM     43  C   UNL     1     -13.381  10.032  -4.517  1.00  0.00     0.039 A 
ATOM     44  C   UNL     1     -14.769  10.215  -4.498  1.00  0.00     0.014 A 
ATOM     45  C   UNL     1     -12.611  10.437  -5.602  1.00  0.00     0.014 A 
ATOM     46  C   UNL     1     -15.412  10.666  -5.647  1.00  0.00     0.010 A 
ATOM     47  C   UNL     1     -13.258  10.782  -6.769  1.00  0.00     0.010 A 
ATOM     48  C   UNL     1     -14.657  10.868  -6.802  1.00  0.00    -0.014 A 
BRANCH  48  49
ATOM     49  C   UNL     1     -15.229  11.116  -8.118  1.00  0.00     0.031 A 
ATOM     50  C   UNL     1     -15.133  12.463  -8.722  1.00  0.00     0.074 A 
ATOM     51  C   UNL     1     -15.715  10.084  -8.842  1.00  0.00     0.049 A 
ATOM     52  N   UNL     1     -15.894  12.883  -9.675  1.00  0.00    -0.248 NA
ATOM     53  C   UNL     1     -14.169  13.466  -8.274  1.00  0.00     0.031 C 
ATOM     54  C   UNL     1     -15.986  10.067 -10.276  1.00  0.00     0.029 A 
ATOM     55  N   UNL     1     -16.238   8.876  -8.377  1.00  0.00    -0.354 N 
ATOM     56  C   UNL     1     -15.356  14.057 -10.149  1.00  0.00     0.074 A 
ATOM     57  C   UNL     1     -14.316  14.408  -9.210  1.00  0.00     0.031 C 
ATOM     58  C   UNL     1     -16.826   9.058 -10.550  1.00  0.00     0.029 A 
ATOM     59  C   UNL     1     -17.246   8.489  -9.282  1.00  0.00     0.049 A 
ATOM     60  H   UNL     1     -15.956   8.387  -7.570  1.00  0.00     0.167 HD
ATOM     61  C   UNL     1     -15.744  14.540 -11.362  1.00  0.00     0.037 A 
ATOM     62  C   UNL     1     -18.546   8.372  -8.879  1.00  0.00     0.037 A 
ATOM     63  C   UNL     1     -16.763  13.694 -11.972  1.00  0.00     0.049 A 
ATOM     64  C   UNL     1     -19.488   9.327  -9.579  1.00  0.00     0.074 A 
ATOM     65  C   UNL     1     -16.689  12.664 -12.895  1.00  0.00     0.029 A 
ATOM     66  N   UNL     1     -18.027  13.616 -11.398  1.00  0.00    -0.354 N 
ATOM     67  N   UNL     1     -19.099  10.392 -10.225  1.00  0.00    -0.248 NA
ATOM     68  C   UNL     1     -20.938   9.158  -9.618  1.00  0.00     0.031 C 
ATOM     69  C   UNL     1     -17.895  11.926 -12.833  1.00  0.00     0.029 A 
ATOM     70  C   UNL     1     -18.711  12.518 -11.886  1.00  0.00     0.049 A 
ATOM     71  H   UNL     1     -18.385  14.252 -10.737  1.00  0.00     0.167 HD
ATOM     72  C   UNL     1     -20.189  11.050 -10.738  1.00  0.00     0.074 A 
ATOM     73  C   UNL     1     -21.316  10.224 -10.347  1.00  0.00     0.031 C 
ATOM     74  C   UNL     1     -20.065  12.216 -11.443  1.00  0.00     0.037 A 
BRANCH  61  75
ATOM     75  C   UNL     1     -14.954  15.599 -12.092  1.00  0.00     0.058 A 
ATOM     76  C   UNL     1     -14.706  15.499 -13.477  1.00  0.00     0.135 A 
ATOM     77  C   UNL     1     -14.366  16.711 -11.457  1.00  0.00     0.135 A 
ATOM     78  F   UNL     1     -15.252  14.528 -14.220  1.00  0.00    -0.206 F 
ATOM     79  C   UNL     1     -13.861  16.373 -14.159  1.00  0.00     0.059 A 
ATOM     80  C   UNL     1     -13.475  17.571 -12.108  1.00  0.00     0.059 A 
ATOM     81  F   UNL     1     -14.646  16.997 -10.176  1.00  0.00    -0.206 F 
ATOM     82  C   UNL     1     -13.221  17.388 -13.461  1.00  0.00     0.060 A 
BRANCH  82  83
ATOM     83  S   UNL     1     -12.042  18.429 -14.344  1.00  0.00     0.124 S 
ATOM     84  O   UNL     1     -11.196  17.443 -15.010  1.00  0.00    -0.237 OA
ATOM     85  O   UNL     1     -12.917  19.205 -15.214  1.00  0.00    -0.237 OA
ATOM     86  O   UNL     1     -11.388  19.180 -13.275  1.00  0.00    -0.744 OA
ENDBRANCH  82  83
ENDBRANCH  61  75
BRANCH  62  87
ATOM     87  C   UNL     1     -18.671   7.867  -7.482  1.00  0.00     0.058 A 
ATOM     88  C   UNL     1     -18.263   6.539  -7.241  1.00  0.00     0.135 A 
ATOM     89  C   UNL     1     -18.686   8.744  -6.389  1.00  0.00     0.135 A 
ATOM     90  F   UNL     1     -18.253   5.649  -8.247  1.00  0.00    -0.206 F 
ATOM     91  C   UNL     1     -17.710   6.150  -6.024  1.00  0.00     0.059 A 
ATOM     92  C   UNL     1     -18.145   8.370  -5.154  1.00  0.00     0.059 A 
ATOM     93  F   UNL     1     -19.076  10.017  -6.550  1.00  0.00    -0.206 F 
ATOM     94  C   UNL     1     -17.582   7.100  -5.014  1.00  0.00     0.060 A 
BRANCH  94  95
ATOM     95  S   UNL     1     -16.531   6.691  -3.596  1.00  0.00     0.124 S 
ATOM     96  O   UNL     1     -17.141   5.461  -3.104  1.00  0.00    -0.237 OA
ATOM     97  O   UNL     1     -15.214   6.531  -4.216  1.00  0.00    -0.237 OA
ATOM     98  O   UNL     1     -16.668   7.855  -2.729  1.00  0.00    -0.744 OA
ENDBRANCH  94  95
ENDBRANCH  62  87
BRANCH  74  99
ATOM     99  C   UNL     1     -21.185  13.135 -11.887  1.00  0.00     0.058 A 
ATOM    100  C   UNL     1     -22.423  13.250 -11.233  1.00  0.00     0.135 A 
ATOM    101  C   UNL     1     -20.973  14.062 -12.942  1.00  0.00     0.135 A 
ATOM    102  F   UNL     1     -22.712  12.514 -10.151  1.00  0.00    -0.206 F 
ATOM    103  C   UNL     1     -23.401  14.166 -11.631  1.00  0.00     0.059 A 
ATOM    104  C   UNL     1     -21.910  15.021 -13.316  1.00  0.00     0.059 A 
ATOM    105  F   UNL     1     -19.829  14.080 -13.643  1.00  0.00    -0.206 F 
ATOM    106  C   UNL     1     -23.135  15.050 -12.672  1.00  0.00     0.060 A 
BRANCH 106 107
ATOM    107  S   UNL     1     -24.360  16.284 -13.144  1.00  0.00     0.124 S 
ATOM    108  O   UNL     1     -25.102  15.575 -14.181  1.00  0.00    -0.237 OA
ATOM    109  O   UNL     1     -25.083  16.517 -11.897  1.00  0.00    -0.237 OA
ATOM    110  O   UNL     1     -23.543  17.404 -13.602  1.00  0.00    -0.744 OA
ENDBRANCH 106 107
ENDBRANCH  74  99
ENDBRANCH  48  49
ENDBRANCH  40  43
ENDBRANCH  38  39
ENDBRANCH   1  38
TORSDOF 16
