REMARK SMILES CC[NH2+][C@]1(C(=O)NCCCNC(=O)c2ccc(-c3c4nc(c(-c5c(F)cc(S(=O)(=O)[O-])cc5F)c5ccc([nH]5)c(-c5c(F)cc(S(=O)(=O)[O-])cc5F)c5nc(c(-c6c(F)cc(S(=O)(=O)[O-])cc6F)c6ccc3[nH]6)C=C5)C=C4)cc2)CCC[C@H]1CC[N@H+]1CCC[C@@H](CC)C1
REMARK SMILES IDX 8 1 7 2 5 3 6 4 4 6 80 7 83 8 81 9 82 10 3 11 2 14 1 15
REMARK SMILES IDX 84 16 85 17 86 18 87 19 93 20 88 22 90 23 89 24 91 25 92 26
REMARK SMILES IDX 9 27 10 28 11 29 12 30 13 32 14 33 15 34 79 35 16 36 78 37
REMARK SMILES IDX 17 38 18 39 19 40 72 41 20 42 77 43 71 44 73 45 21 46 76 47
REMARK SMILES IDX 70 48 69 49 22 51 56 52 35 53 55 54 36 55 39 56 54 57 74 58
REMARK SMILES IDX 37 59 38 60 53 62 75 63 40 64 23 65 24 66 33 67 25 68 26 69
REMARK SMILES IDX 32 70 34 71 27 72 28 73 29 74 30 75 31 76 57 77 58 78 67 79
REMARK SMILES IDX 59 80 60 81 66 82 68 83 61 84 62 85 63 86 64 87 65 88 41 89
REMARK SMILES IDX 42 90 51 91 43 92 44 93 50 94 52 95 45 96 46 97 47 98 48 99
REMARK SMILES IDX 49 100
REMARK H PARENT 7 5 3 12 3 13 86 21 11 31 73 50 39 61
REMARK Flexibility Score: inf
ROOT
ATOM      1  C   UNL     1       3.414  -1.029  -2.415  1.00  0.00     0.118 C 
ENDROOT
BRANCH   1   2
ATOM      2  N   UNL     1       2.712   0.225  -2.586  1.00  0.00    -0.351 N 
ATOM      3  C   UNL     1       1.356   0.206  -2.356  1.00  0.00     0.281 C 
ATOM      4  O   UNL     1       0.957  -0.168  -1.253  1.00  0.00    -0.268 OA
ATOM      5  H   UNL     1       3.181   1.048  -2.854  1.00  0.00     0.163 HD
BRANCH   3   6
ATOM      6  C   UNL     1       0.439   0.766  -3.488  1.00  0.00     0.178 C 
ATOM      7  C   UNL     1       0.672   2.295  -3.609  1.00  0.00     0.079 C 
ATOM      8  C   UNL     1       0.710   0.240  -4.954  1.00  0.00     0.066 C 
ATOM      9  C   UNL     1       0.581   2.616  -5.093  1.00  0.00     0.008 C 
ATOM     10  C   UNL     1       1.276   1.429  -5.737  1.00  0.00     0.011 C 
BRANCH   6  11
ATOM     11  N   UNL     1      -0.991   0.402  -3.272  1.00  0.00    -0.334 N 
ATOM     12  H   UNL     1      -1.529   0.842  -4.019  1.00  0.00     0.347 HD
ATOM     13  H   UNL     1      -0.987  -0.618  -3.259  1.00  0.00     0.347 HD
BRANCH  11  14
ATOM     14  C   UNL     1      -1.624   0.770  -2.013  1.00  0.00     0.257 C 
ATOM     15  C   UNL     1      -3.122   0.549  -2.181  1.00  0.00     0.071 C 
ENDBRANCH  11  14
ENDBRANCH   6  11
BRANCH   8  16
ATOM     16  C   UNL     1       1.455  -1.082  -5.218  1.00  0.00     0.072 C 
BRANCH  16  17
ATOM     17  C   UNL     1       0.842  -2.268  -4.447  1.00  0.00     0.262 C 
BRANCH  17  18
ATOM     18  N   UNL     1       1.216  -3.624  -4.816  1.00  0.00    -0.335 N 
ATOM     19  C   UNL     1       1.398  -3.880  -6.236  1.00  0.00     0.262 C 
ATOM     20  C   UNL     1       2.188  -4.336  -3.983  1.00  0.00     0.265 C 
ATOM     21  H   UNL     1       0.336  -4.073  -4.562  1.00  0.00     0.348 HD
ATOM     22  C   UNL     1       1.103  -5.351  -6.498  1.00  0.00     0.062 C 
ATOM     23  C   UNL     1       1.967  -5.858  -4.169  1.00  0.00     0.044 C 
ATOM     24  C   UNL     1       1.996  -6.253  -5.655  1.00  0.00     0.015 C 
BRANCH  23  25
ATOM     25  C   UNL     1       2.916  -6.726  -3.320  1.00  0.00     0.006 C 
ATOM     26  C   UNL     1       4.331  -6.869  -3.862  1.00  0.00     0.004 C 
ENDBRANCH  23  25
ENDBRANCH  17  18
ENDBRANCH  16  17
ENDBRANCH   8  16
ENDBRANCH   3   6
ENDBRANCH   1   2
BRANCH   1  27
ATOM     27  C   UNL     1       4.913  -0.880  -2.459  1.00  0.00     0.042 C 
BRANCH  27  28
ATOM     28  C   UNL     1       5.546  -1.762  -1.405  1.00  0.00     0.118 C 
BRANCH  28  29
ATOM     29  N   UNL     1       5.292  -3.191  -1.584  1.00  0.00    -0.352 N 
ATOM     30  C   UNL     1       6.200  -4.226  -1.552  1.00  0.00     0.251 C 
ATOM     31  H   UNL     1       4.355  -3.445  -1.748  1.00  0.00     0.163 HD
ATOM     32  O   UNL     1       5.849  -5.391  -1.692  1.00  0.00    -0.269 OA
BRANCH  30  33
ATOM     33  C   UNL     1       7.619  -3.892  -1.372  1.00  0.00     0.039 A 
ATOM     34  C   UNL     1       8.551  -4.272  -2.340  1.00  0.00     0.014 A 
ATOM     35  C   UNL     1       7.974  -3.064  -0.310  1.00  0.00     0.014 A 
ATOM     36  C   UNL     1       9.838  -3.737  -2.286  1.00  0.00     0.010 A 
ATOM     37  C   UNL     1       9.197  -2.425  -0.347  1.00  0.00     0.010 A 
ATOM     38  C   UNL     1      10.151  -2.769  -1.319  1.00  0.00    -0.014 A 
BRANCH  38  39
ATOM     39  C   UNL     1      11.482  -2.124  -1.223  1.00  0.00     0.031 A 
ATOM     40  C   UNL     1      12.221  -2.224   0.086  1.00  0.00     0.074 A 
ATOM     41  C   UNL     1      11.947  -1.356  -2.227  1.00  0.00     0.049 A 
ATOM     42  N   UNL     1      13.241  -1.534   0.517  1.00  0.00    -0.248 NA
ATOM     43  C   UNL     1      11.679  -3.175   1.074  1.00  0.00     0.031 C 
ATOM     44  C   UNL     1      11.287  -1.141  -3.517  1.00  0.00     0.029 A 
ATOM     45  N   UNL     1      13.081  -0.588  -2.307  1.00  0.00    -0.354 N 
ATOM     46  C   UNL     1      13.416  -1.921   1.842  1.00  0.00     0.074 A 
ATOM     47  C   UNL     1      12.355  -2.846   2.163  1.00  0.00     0.031 C 
ATOM     48  C   UNL     1      12.039  -0.319  -4.268  1.00  0.00     0.029 A 
ATOM     49  C   UNL     1      13.207   0.091  -3.497  1.00  0.00     0.049 A 
ATOM     50  H   UNL     1      13.742  -0.528  -1.581  1.00  0.00     0.167 HD
ATOM     51  C   UNL     1      14.398  -1.563   2.701  1.00  0.00     0.037 A 
ATOM     52  C   UNL     1      14.158   0.954  -3.906  1.00  0.00     0.037 A 
ATOM     53  C   UNL     1      15.495  -0.716   2.326  1.00  0.00     0.049 A 
ATOM     54  C   UNL     1      15.287   1.274  -2.963  1.00  0.00     0.074 A 
ATOM     55  C   UNL     1      16.599  -0.352   3.073  1.00  0.00     0.029 A 
ATOM     56  N   UNL     1      15.638  -0.124   1.078  1.00  0.00    -0.354 N 
ATOM     57  N   UNL     1      15.464   0.874  -1.725  1.00  0.00    -0.248 NA
ATOM     58  C   UNL     1      16.349   2.153  -3.469  1.00  0.00     0.031 C 
ATOM     59  C   UNL     1      17.399   0.481   2.283  1.00  0.00     0.029 A 
ATOM     60  C   UNL     1      16.814   0.601   1.031  1.00  0.00     0.049 A 
ATOM     61  H   UNL     1      14.996  -0.208   0.336  1.00  0.00     0.167 HD
ATOM     62  C   UNL     1      16.672   1.426  -1.315  1.00  0.00     0.074 A 
ATOM     63  C   UNL     1      17.185   2.183  -2.440  1.00  0.00     0.031 C 
ATOM     64  C   UNL     1      17.302   1.321  -0.118  1.00  0.00     0.037 A 
BRANCH  51  65
ATOM     65  C   UNL     1      14.335  -2.111   4.101  1.00  0.00     0.058 A 
ATOM     66  C   UNL     1      14.499  -3.480   4.370  1.00  0.00     0.135 A 
ATOM     67  C   UNL     1      14.106  -1.257   5.192  1.00  0.00     0.135 A 
ATOM     68  F   UNL     1      14.700  -4.347   3.364  1.00  0.00    -0.206 F 
ATOM     69  C   UNL     1      14.394  -3.989   5.659  1.00  0.00     0.059 A 
ATOM     70  C   UNL     1      14.033  -1.740   6.497  1.00  0.00     0.059 A 
ATOM     71  F   UNL     1      13.939   0.061   4.997  1.00  0.00    -0.206 F 
ATOM     72  C   UNL     1      14.159  -3.110   6.717  1.00  0.00     0.060 A 
BRANCH  72  73
ATOM     73  S   UNL     1      14.031  -3.787   8.385  1.00  0.00     0.124 S 
ATOM     74  O   UNL     1      12.713  -4.413   8.344  1.00  0.00    -0.237 OA
ATOM     75  O   UNL     1      15.165  -4.704   8.439  1.00  0.00    -0.237 OA
ATOM     76  O   UNL     1      14.139  -2.609   9.239  1.00  0.00    -0.744 OA
ENDBRANCH  72  73
ENDBRANCH  51  65
BRANCH  52  77
ATOM     77  C   UNL     1      14.106   1.532  -5.277  1.00  0.00     0.058 A 
ATOM     78  C   UNL     1      15.019   1.125  -6.261  1.00  0.00     0.135 A 
ATOM     79  C   UNL     1      13.135   2.478  -5.643  1.00  0.00     0.135 A 
ATOM     80  F   UNL     1      15.969   0.225  -5.962  1.00  0.00    -0.206 F 
ATOM     81  C   UNL     1      14.985   1.643  -7.552  1.00  0.00     0.059 A 
ATOM     82  C   UNL     1      13.065   2.994  -6.934  1.00  0.00     0.059 A 
ATOM     83  F   UNL     1      12.223   2.887  -4.747  1.00  0.00    -0.206 F 
ATOM     84  C   UNL     1      14.001   2.576  -7.880  1.00  0.00     0.060 A 
BRANCH  84  85
ATOM     85  S   UNL     1      13.932   3.202  -9.574  1.00  0.00     0.124 S 
ATOM     86  O   UNL     1      15.093   4.085  -9.608  1.00  0.00    -0.237 OA
ATOM     87  O   UNL     1      14.039   1.976 -10.358  1.00  0.00    -0.237 OA
ATOM     88  O   UNL     1      12.633   3.865  -9.634  1.00  0.00    -0.744 OA
ENDBRANCH  84  85
ENDBRANCH  52  77
BRANCH  64  89
ATOM     89  C   UNL     1      18.637   1.994   0.018  1.00  0.00     0.058 A 
ATOM     90  C   UNL     1      18.750   3.385   0.155  1.00  0.00     0.135 A 
ATOM     91  C   UNL     1      19.809   1.224   0.091  1.00  0.00     0.135 A 
ATOM     92  F   UNL     1      17.657   4.162   0.088  1.00  0.00    -0.206 F 
ATOM     93  C   UNL     1      19.985   3.993   0.344  1.00  0.00     0.059 A 
ATOM     94  C   UNL     1      21.050   1.809   0.306  1.00  0.00     0.059 A 
ATOM     95  F   UNL     1      19.748  -0.113  -0.022  1.00  0.00    -0.206 F 
ATOM     96  C   UNL     1      21.129   3.196   0.422  1.00  0.00     0.060 A 
BRANCH  96  97
ATOM     97  S   UNL     1      22.720   3.995   0.716  1.00  0.00     0.124 S 
ATOM     98  O   UNL     1      22.992   4.593  -0.587  1.00  0.00    -0.237 OA
ATOM     99  O   UNL     1      22.405   4.931   1.791  1.00  0.00    -0.237 OA
ATOM    100  O   UNL     1      23.591   2.887   1.094  1.00  0.00    -0.744 OA
ENDBRANCH  96  97
ENDBRANCH  64  89
ENDBRANCH  38  39
ENDBRANCH  30  33
ENDBRANCH  28  29
ENDBRANCH  27  28
ENDBRANCH   1  27
TORSDOF 19
