REMARK SMILES NS(=O)(=O)c1ccc(-n2ccnc2-c2ccc(O)c(C(=O)NCCCNC(=O)c3ccc(-c4c5nc(c(-c6c(F)cc(S(=O)(=O)[O-])cc6F)c6ccc([nH]6)c(-c6c(F)cc(S(=O)(=O)[O-])cc6F)c6nc(c(-c7c(F)cc(S(=O)(=O)[O-])cc7F)c7ccc4[nH]7)C=C6)C=C5)cc3)c2)cc1
REMARK SMILES IDX 23 1 22 2 20 3 21 4 19 6 14 7 15 8 95 9 16 10 17 11 13 12
REMARK SMILES IDX 9 13 10 14 11 15 12 16 8 17 5 18 6 19 97 20 7 21 96 22 2 23
REMARK SMILES IDX 3 24 4 25 1 26 18 29 24 31 25 32 26 33 27 34 28 36 29 37
REMARK SMILES IDX 30 38 94 39 31 40 93 41 32 42 33 43 34 44 87 45 35 46 92 47
REMARK SMILES IDX 86 48 88 49 36 50 91 51 85 52 84 53 37 55 71 56 50 57 70 58
REMARK SMILES IDX 51 59 54 60 69 61 89 62 52 63 53 64 68 66 90 67 55 68 38 69
REMARK SMILES IDX 39 70 48 71 40 72 41 73 47 74 49 75 42 76 43 77 44 78 45 79
REMARK SMILES IDX 46 80 72 81 73 82 82 83 74 84 75 85 81 86 83 87 76 88 77 89
REMARK SMILES IDX 78 90 79 91 80 92 56 93 57 94 66 95 58 96 59 97 65 98 67 99
REMARK SMILES IDX 60 100 61 101 62 102 63 103 64 104
REMARK H PARENT 22 5 1 27 1 28 18 30 26 35 88 54 54 65
REMARK Flexibility Score: inf
ROOT
ATOM      1  C   UNL     1       4.793  -3.424   0.201  1.00  0.00     0.118 C 
ENDROOT
BRANCH   1   2
ATOM      2  N   UNL     1       4.950  -3.705  -1.220  1.00  0.00    -0.352 N 
ATOM      3  C   UNL     1       4.360  -4.614  -2.069  1.00  0.00     0.255 C 
ATOM      4  O   UNL     1       4.562  -4.471  -3.278  1.00  0.00    -0.269 OA
ATOM      5  H   UNL     1       5.614  -3.128  -1.662  1.00  0.00     0.163 HD
BRANCH   3   6
ATOM      6  C   UNL     1       3.471  -5.735  -1.645  1.00  0.00     0.082 A 
ATOM      7  C   UNL     1       2.444  -7.135   0.090  1.00  0.00     0.019 A 
ATOM      8  C   UNL     1       1.740  -7.846  -0.876  1.00  0.00     0.016 A 
ATOM      9  C   UNL     1       3.349  -6.144  -0.320  1.00  0.00     0.029 A 
ATOM     10  C   UNL     1       1.890  -7.506  -2.223  1.00  0.00     0.048 A 
ATOM     11  C   UNL     1       2.731  -6.451  -2.599  1.00  0.00     0.128 A 
BRANCH   7  12
ATOM     12  C   UNL     1       2.309  -7.400   1.527  1.00  0.00     0.144 A 
ATOM     13  N   UNL     1       2.160  -6.406   2.504  1.00  0.00    -0.300 N 
ATOM     14  C   UNL     1       2.543  -6.983   3.694  1.00  0.00     0.113 A 
ATOM     15  C   UNL     1       2.721  -8.317   3.422  1.00  0.00     0.132 A 
ATOM     16  N   UNL     1       2.540  -8.572   2.092  1.00  0.00    -0.236 NA
BRANCH  13  17
ATOM     17  C   UNL     1       1.755  -5.051   2.332  1.00  0.00     0.047 A 
ATOM     18  C   UNL     1       1.017  -2.383   1.948  1.00  0.00     0.082 A 
ATOM     19  C   UNL     1       0.399  -3.387   1.198  1.00  0.00     0.024 A 
ATOM     20  C   UNL     1       1.982  -2.703   2.907  1.00  0.00     0.024 A 
ATOM     21  C   UNL     1       0.779  -4.721   1.379  1.00  0.00     0.028 A 
ATOM     22  C   UNL     1       2.338  -4.041   3.114  1.00  0.00     0.028 A 
BRANCH  18  23
ATOM     23  S   UNL     1       0.530  -0.694   1.719  1.00  0.00     0.238 S 
ATOM     24  O   UNL     1       1.143   0.119   2.729  1.00  0.00    -0.207 OA
ATOM     25  O   UNL     1      -0.898  -0.661   1.452  1.00  0.00    -0.207 OA
BRANCH  23  26
ATOM     26  N   UNL     1       1.288  -0.303   0.275  1.00  0.00    -0.225 NA
ATOM     27  H   UNL     1       1.079   0.665   0.033  1.00  0.00     0.137 HD
ATOM     28  H   UNL     1       0.950  -0.919  -0.464  1.00  0.00     0.137 HD
ENDBRANCH  23  26
ENDBRANCH  18  23
ENDBRANCH  13  17
ENDBRANCH   7  12
BRANCH  11  29
ATOM     29  O   UNL     1       2.781  -6.188  -3.943  1.00  0.00    -0.507 OA
ATOM     30  H   UNL     1       2.268  -6.695  -4.540  1.00  0.00     0.293 HD
ENDBRANCH  11  29
ENDBRANCH   3   6
ENDBRANCH   1   2
BRANCH   1  31
ATOM     31  C   UNL     1       5.787  -4.194   1.087  1.00  0.00     0.042 C 
BRANCH  31  32
ATOM     32  C   UNL     1       7.056  -3.409   1.356  1.00  0.00     0.118 C 
BRANCH  32  33
ATOM     33  N   UNL     1       6.822  -2.243   2.222  1.00  0.00    -0.352 N 
ATOM     34  C   UNL     1       7.688  -1.208   2.540  1.00  0.00     0.251 C 
ATOM     35  H   UNL     1       5.928  -2.190   2.631  1.00  0.00     0.163 HD
ATOM     36  O   UNL     1       7.475  -0.491   3.510  1.00  0.00    -0.269 OA
BRANCH  34  37
ATOM     37  C   UNL     1       8.867  -1.000   1.686  1.00  0.00     0.039 A 
ATOM     38  C   UNL     1      10.136  -0.711   2.197  1.00  0.00     0.014 A 
ATOM     39  C   UNL     1       8.679  -1.214   0.331  1.00  0.00     0.014 A 
ATOM     40  C   UNL     1      11.227  -0.743   1.328  1.00  0.00     0.010 A 
ATOM     41  C   UNL     1       9.760  -1.522  -0.437  1.00  0.00     0.010 A 
ATOM     42  C   UNL     1      11.027  -1.176   0.011  1.00  0.00    -0.014 A 
BRANCH  42  43
ATOM     43  C   UNL     1      12.107  -1.295  -0.957  1.00  0.00     0.031 A 
ATOM     44  C   UNL     1      13.242  -2.173  -0.575  1.00  0.00     0.074 A 
ATOM     45  C   UNL     1      11.952  -0.842  -2.221  1.00  0.00     0.049 A 
ATOM     46  N   UNL     1      14.455  -1.812  -0.320  1.00  0.00    -0.248 NA
ATOM     47  C   UNL     1      12.987  -3.600  -0.329  1.00  0.00     0.031 C 
ATOM     48  C   UNL     1      10.770  -0.227  -2.848  1.00  0.00     0.029 A 
ATOM     49  N   UNL     1      12.799  -0.971  -3.271  1.00  0.00    -0.354 N 
ATOM     50  C   UNL     1      15.172  -2.982  -0.084  1.00  0.00     0.074 A 
ATOM     51  C   UNL     1      14.188  -4.023   0.078  1.00  0.00     0.031 C 
ATOM     52  C   UNL     1      10.883  -0.293  -4.190  1.00  0.00     0.029 A 
ATOM     53  C   UNL     1      12.212  -0.771  -4.513  1.00  0.00     0.049 A 
ATOM     54  H   UNL     1      13.753  -1.188  -3.161  1.00  0.00     0.167 HD
ATOM     55  C   UNL     1      16.525  -3.036  -0.246  1.00  0.00     0.037 A 
ATOM     56  C   UNL     1      12.777  -1.028  -5.717  1.00  0.00     0.037 A 
ATOM     57  C   UNL     1      17.076  -1.719  -0.452  1.00  0.00     0.049 A 
ATOM     58  C   UNL     1      14.251  -1.022  -5.493  1.00  0.00     0.074 A 
ATOM     59  C   UNL     1      17.104  -0.557   0.296  1.00  0.00     0.029 A 
ATOM     60  N   UNL     1      17.354  -1.340  -1.746  1.00  0.00    -0.354 N 
ATOM     61  N   UNL     1      14.917   0.044  -5.126  1.00  0.00    -0.248 NA
ATOM     62  C   UNL     1      14.902  -2.288  -5.186  1.00  0.00     0.031 C 
ATOM     63  C   UNL     1      16.894   0.489  -0.649  1.00  0.00     0.029 A 
ATOM     64  C   UNL     1      16.828  -0.083  -1.922  1.00  0.00     0.049 A 
ATOM     65  H   UNL     1      17.838  -1.870  -2.419  1.00  0.00     0.167 HD
ATOM     66  C   UNL     1      15.833  -0.406  -4.182  1.00  0.00     0.074 A 
ATOM     67  C   UNL     1      15.838  -1.862  -4.330  1.00  0.00     0.031 C 
ATOM     68  C   UNL     1      16.276   0.402  -3.171  1.00  0.00     0.037 A 
BRANCH  55  69
ATOM     69  C   UNL     1      17.329  -4.275  -0.545  1.00  0.00     0.058 A 
ATOM     70  C   UNL     1      18.734  -4.235  -0.418  1.00  0.00     0.135 A 
ATOM     71  C   UNL     1      16.807  -5.407  -1.205  1.00  0.00     0.135 A 
ATOM     72  F   UNL     1      19.336  -3.202   0.194  1.00  0.00    -0.206 F 
ATOM     73  C   UNL     1      19.563  -5.209  -0.974  1.00  0.00     0.059 A 
ATOM     74  C   UNL     1      17.612  -6.419  -1.718  1.00  0.00     0.059 A 
ATOM     75  F   UNL     1      15.501  -5.533  -1.471  1.00  0.00    -0.206 F 
ATOM     76  C   UNL     1      18.990  -6.289  -1.639  1.00  0.00     0.060 A 
BRANCH  76  77
ATOM     77  S   UNL     1      20.059  -7.479  -2.468  1.00  0.00     0.124 S 
ATOM     78  O   UNL     1      20.581  -6.680  -3.571  1.00  0.00    -0.237 OA
ATOM     79  O   UNL     1      21.012  -7.817  -1.416  1.00  0.00    -0.237 OA
ATOM     80  O   UNL     1      19.140  -8.550  -2.842  1.00  0.00    -0.744 OA
ENDBRANCH  76  77
ENDBRANCH  55  69
BRANCH  56  81
ATOM     81  C   UNL     1      12.102  -1.639  -6.895  1.00  0.00     0.058 A 
ATOM     82  C   UNL     1      12.754  -1.729  -8.137  1.00  0.00     0.135 A 
ATOM     83  C   UNL     1      10.907  -2.382  -6.772  1.00  0.00     0.135 A 
ATOM     84  F   UNL     1      13.902  -1.066  -8.344  1.00  0.00    -0.206 F 
ATOM     85  C   UNL     1      12.286  -2.553  -9.168  1.00  0.00     0.059 A 
ATOM     86  C   UNL     1      10.413  -3.196  -7.790  1.00  0.00     0.059 A 
ATOM     87  F   UNL     1      10.222  -2.419  -5.620  1.00  0.00    -0.206 F 
ATOM     88  C   UNL     1      11.126  -3.303  -8.975  1.00  0.00     0.060 A 
BRANCH  88  89
ATOM     89  S   UNL     1      10.632  -4.525 -10.213  1.00  0.00     0.124 S 
ATOM     90  O   UNL     1      10.154  -3.678 -11.300  1.00  0.00    -0.237 OA
ATOM     91  O   UNL     1      11.883  -5.236 -10.459  1.00  0.00    -0.237 OA
ATOM     92  O   UNL     1       9.604  -5.304  -9.528  1.00  0.00    -0.744 OA
ENDBRANCH  88  89
ENDBRANCH  56  81
BRANCH  68  93
ATOM     93  C   UNL     1      15.953   1.877  -3.226  1.00  0.00     0.058 A 
ATOM     94  C   UNL     1      14.650   2.404  -3.156  1.00  0.00     0.135 A 
ATOM     95  C   UNL     1      17.009   2.797  -3.151  1.00  0.00     0.135 A 
ATOM     96  F   UNL     1      13.583   1.600  -3.105  1.00  0.00    -0.206 F 
ATOM     97  C   UNL     1      14.406   3.774  -3.058  1.00  0.00     0.059 A 
ATOM     98  C   UNL     1      16.792   4.168  -3.021  1.00  0.00     0.059 A 
ATOM     99  F   UNL     1      18.279   2.360  -3.141  1.00  0.00    -0.206 F 
ATOM    100  C   UNL     1      15.486   4.651  -2.988  1.00  0.00     0.060 A 
BRANCH 100 101
ATOM    101  S   UNL     1      15.167   6.415  -2.776  1.00  0.00     0.124 S 
ATOM    102  O   UNL     1      14.671   6.797  -4.094  1.00  0.00    -0.237 OA
ATOM    103  O   UNL     1      14.181   6.435  -1.699  1.00  0.00    -0.237 OA
ATOM    104  O   UNL     1      16.476   6.957  -2.420  1.00  0.00    -0.744 OA
ENDBRANCH 100 101
ENDBRANCH  68  93
ENDBRANCH  42  43
ENDBRANCH  34  37
ENDBRANCH  32  33
ENDBRANCH  31  32
ENDBRANCH   1  31
TORSDOF 18
