REMARK SMILES Cc1c(NC(=O)[C@@H]2CC=CC[C@@H]2C(=O)NCCCNC(=O)c2ccc(-c3c4nc(c(-c5c(F)cc(S(=O)(=O)[O-])cc5F)c5ccc([nH]5)c(-c5c(F)cc(S(=O)(=O)[O-])cc5F)c5nc(c(-c6c(F)cc(S(=O)(=O)[O-])cc6F)c6ccc3[nH]6)C=C5)C=C4)cc2)cccc1C(=O)N1CCOCC1
REMARK SMILES IDX 17 1 16 2 15 3 13 4 14 5 12 7 7 8 8 9 9 10 11 11 10 12 5 13
REMARK SMILES IDX 4 14 6 16 3 17 1 18 2 19 91 20 88 21 90 22 89 23 92 24 93 25
REMARK SMILES IDX 94 26 95 27 99 28 96 29 98 30 97 31 18 32 19 33 20 34 21 36
REMARK SMILES IDX 22 37 23 38 87 39 24 40 86 41 25 42 26 43 27 44 80 45 28 46
REMARK SMILES IDX 85 47 79 48 81 49 29 50 84 51 78 52 77 53 30 55 64 56 43 57
REMARK SMILES IDX 63 58 44 59 47 60 62 61 82 62 45 63 46 64 61 66 83 67 48 68
REMARK SMILES IDX 31 69 32 70 41 71 33 72 34 73 40 74 42 75 35 76 36 77 37 78
REMARK SMILES IDX 38 79 39 80 65 81 66 82 75 83 67 84 68 85 74 86 76 87 69 88
REMARK SMILES IDX 70 89 71 90 72 91 73 92 49 93 50 94 59 95 51 96 52 97 58 98
REMARK SMILES IDX 60 99 53 100 54 101 55 102 56 103 57 104
REMARK H PARENT 15 6 4 15 19 35 81 54 47 65
REMARK Flexibility Score: inf
ROOT
ATOM      1  C   UNL     1      -3.633  -5.360   1.442  1.00  0.00     0.042 C 
ENDROOT
BRANCH   1   2
ATOM      2  C   UNL     1      -3.834  -5.027  -0.035  1.00  0.00     0.117 C 
BRANCH   2   3
ATOM      3  N   UNL     1      -4.104  -3.618  -0.274  1.00  0.00    -0.356 N 
ATOM      4  C   UNL     1      -3.433  -2.540  -0.740  1.00  0.00     0.224 C 
ATOM      5  O   UNL     1      -4.163  -1.545  -0.881  1.00  0.00    -0.275 OA
ATOM      6  H   UNL     1      -5.029  -3.385  -0.030  1.00  0.00     0.163 HD
BRANCH   4   7
ATOM      7  C   UNL     1      -1.950  -2.454  -1.200  1.00  0.00     0.095 C 
ATOM      8  C   UNL     1      -0.827  -3.223  -0.446  1.00  0.00     0.095 C 
ATOM      9  C   UNL     1      -0.907  -2.874   1.042  1.00  0.00     0.041 C 
ATOM     10  C   UNL     1      -0.921  -1.380   1.251  1.00  0.00    -0.030 C 
ATOM     11  C   UNL     1      -1.528  -0.952  -1.141  1.00  0.00     0.041 C 
ATOM     12  C   UNL     1      -1.168  -0.511   0.258  1.00  0.00    -0.030 C 
BRANCH   8  13
ATOM     13  C   UNL     1      -0.747  -4.661  -0.931  1.00  0.00     0.228 C 
ATOM     14  N   UNL     1      -0.190  -5.686  -0.245  1.00  0.00    -0.326 N 
ATOM     15  H   UNL     1      -0.601  -6.552  -0.469  1.00  0.00     0.169 HD
ATOM     16  O   UNL     1      -1.201  -4.966  -2.043  1.00  0.00    -0.274 OA
BRANCH  14  17
ATOM     17  C   UNL     1       0.831  -5.812   0.708  1.00  0.00     0.044 A 
ATOM     18  C   UNL     1      -0.208  -8.031   1.331  1.00  0.00     0.047 C 
ATOM     19  C   UNL     1       0.928  -7.042   1.411  1.00  0.00    -0.015 A 
ATOM     20  C   UNL     1       2.064  -7.283   2.215  1.00  0.00     0.045 A 
ATOM     21  C   UNL     1       1.806  -4.827   0.883  1.00  0.00     0.026 A 
ATOM     22  C   UNL     1       3.008  -6.262   2.406  1.00  0.00     0.014 A 
ATOM     23  C   UNL     1       2.873  -5.038   1.756  1.00  0.00     0.003 A 
BRANCH  20  24
ATOM     24  C   UNL     1       2.265  -8.519   3.024  1.00  0.00     0.254 C 
ATOM     25  O   UNL     1       2.567  -8.366   4.208  1.00  0.00    -0.269 OA
ATOM     26  N   UNL     1       2.103  -9.781   2.462  1.00  0.00    -0.334 N 
ATOM     27  C   UNL     1       2.245 -10.142   1.045  1.00  0.00     0.148 C 
ATOM     28  C   UNL     1       2.005 -10.932   3.362  1.00  0.00     0.148 C 
ATOM     29  C   UNL     1       1.227 -11.218   0.629  1.00  0.00     0.181 C 
ATOM     30  C   UNL     1       0.945 -11.915   2.863  1.00  0.00     0.181 C 
ATOM     31  O   UNL     1       1.253 -12.341   1.525  1.00  0.00    -0.378 OA
ENDBRANCH  20  24
ENDBRANCH  14  17
ENDBRANCH   8  13
ENDBRANCH   4   7
ENDBRANCH   2   3
ENDBRANCH   1   2
BRANCH   1  32
ATOM     32  C   UNL     1      -4.923  -5.726   2.166  1.00  0.00     0.118 C 
BRANCH  32  33
ATOM     33  N   UNL     1      -4.770  -6.896   3.023  1.00  0.00    -0.352 N 
ATOM     34  C   UNL     1      -5.683  -7.386   3.961  1.00  0.00     0.251 C 
ATOM     35  H   UNL     1      -3.928  -7.397   2.931  1.00  0.00     0.163 HD
ATOM     36  O   UNL     1      -5.460  -8.354   4.633  1.00  0.00    -0.269 OA
BRANCH  34  37
ATOM     37  C   UNL     1      -6.966  -6.659   4.038  1.00  0.00     0.039 A 
ATOM     38  C   UNL     1      -8.087  -7.242   3.439  1.00  0.00     0.014 A 
ATOM     39  C   UNL     1      -6.949  -5.312   4.389  1.00  0.00     0.014 A 
ATOM     40  C   UNL     1      -9.140  -6.425   3.028  1.00  0.00     0.010 A 
ATOM     41  C   UNL     1      -7.948  -4.495   3.890  1.00  0.00     0.010 A 
ATOM     42  C   UNL     1      -9.028  -5.041   3.174  1.00  0.00    -0.014 A 
BRANCH  42  43
ATOM     43  C   UNL     1      -9.931  -4.080   2.533  1.00  0.00     0.031 A 
ATOM     44  C   UNL     1     -10.783  -3.183   3.362  1.00  0.00     0.074 A 
ATOM     45  C   UNL     1      -9.964  -3.946   1.187  1.00  0.00     0.049 A 
ATOM     46  N   UNL     1     -11.792  -2.511   2.915  1.00  0.00    -0.248 NA
ATOM     47  C   UNL     1     -10.580  -3.011   4.798  1.00  0.00     0.031 C 
ATOM     48  C   UNL     1     -10.529  -2.829   0.433  1.00  0.00     0.029 A 
ATOM     49  N   UNL     1      -9.674  -4.904   0.213  1.00  0.00    -0.354 N 
ATOM     50  C   UNL     1     -12.233  -1.677   3.916  1.00  0.00     0.074 A 
ATOM     51  C   UNL     1     -11.442  -2.028   5.072  1.00  0.00     0.031 C 
ATOM     52  C   UNL     1     -10.782  -3.229  -0.820  1.00  0.00     0.029 A 
ATOM     53  C   UNL     1     -10.516  -4.652  -0.892  1.00  0.00     0.049 A 
ATOM     54  H   UNL     1      -9.005  -5.623   0.284  1.00  0.00     0.167 HD
ATOM     55  C   UNL     1     -13.170  -0.723   3.649  1.00  0.00     0.037 A 
ATOM     56  C   UNL     1     -11.402  -5.593  -1.335  1.00  0.00     0.037 A 
ATOM     57  C   UNL     1     -13.675  -0.818   2.286  1.00  0.00     0.049 A 
ATOM     58  C   UNL     1     -12.860  -5.210  -1.189  1.00  0.00     0.074 A 
ATOM     59  C   UNL     1     -13.355  -0.203   1.087  1.00  0.00     0.029 A 
ATOM     60  N   UNL     1     -14.498  -1.880   1.965  1.00  0.00    -0.354 N 
ATOM     61  N   UNL     1     -13.282  -4.061  -0.737  1.00  0.00    -0.248 NA
ATOM     62  C   UNL     1     -13.963  -6.136  -1.465  1.00  0.00     0.031 C 
ATOM     63  C   UNL     1     -13.953  -0.952   0.033  1.00  0.00     0.029 A 
ATOM     64  C   UNL     1     -14.637  -2.012   0.597  1.00  0.00     0.049 A 
ATOM     65  H   UNL     1     -14.931  -2.467   2.627  1.00  0.00     0.167 HD
ATOM     66  C   UNL     1     -14.636  -4.127  -0.550  1.00  0.00     0.074 A 
ATOM     67  C   UNL     1     -15.028  -5.424  -1.063  1.00  0.00     0.031 C 
ATOM     68  C   UNL     1     -15.355  -3.158   0.078  1.00  0.00     0.037 A 
BRANCH  55  69
ATOM     69  C   UNL     1     -13.491   0.415   4.586  1.00  0.00     0.058 A 
ATOM     70  C   UNL     1     -13.798   1.695   4.079  1.00  0.00     0.135 A 
ATOM     71  C   UNL     1     -13.467   0.319   5.990  1.00  0.00     0.135 A 
ATOM     72  F   UNL     1     -13.928   1.913   2.763  1.00  0.00    -0.206 F 
ATOM     73  C   UNL     1     -13.959   2.813   4.897  1.00  0.00     0.059 A 
ATOM     74  C   UNL     1     -13.560   1.434   6.828  1.00  0.00     0.059 A 
ATOM     75  F   UNL     1     -13.386  -0.871   6.603  1.00  0.00    -0.206 F 
ATOM     76  C   UNL     1     -13.798   2.683   6.270  1.00  0.00     0.060 A 
BRANCH  76  77
ATOM     77  S   UNL     1     -13.880   4.160   7.300  1.00  0.00     0.124 S 
ATOM     78  O   UNL     1     -12.999   5.083   6.591  1.00  0.00    -0.237 OA
ATOM     79  O   UNL     1     -15.302   4.479   7.259  1.00  0.00    -0.237 OA
ATOM     80  O   UNL     1     -13.376   3.700   8.592  1.00  0.00    -0.744 OA
ENDBRANCH  76  77
ENDBRANCH  55  69
BRANCH  56  81
ATOM     81  C   UNL     1     -10.857  -6.973  -1.244  1.00  0.00     0.058 A 
ATOM     82  C   UNL     1      -9.765  -7.287  -2.076  1.00  0.00     0.135 A 
ATOM     83  C   UNL     1     -11.061  -7.761  -0.104  1.00  0.00     0.135 A 
ATOM     84  F   UNL     1      -9.546  -6.577  -3.196  1.00  0.00    -0.206 F 
ATOM     85  C   UNL     1      -8.801  -8.207  -1.689  1.00  0.00     0.059 A 
ATOM     86  C   UNL     1     -10.111  -8.700   0.296  1.00  0.00     0.059 A 
ATOM     87  F   UNL     1     -12.094  -7.513   0.714  1.00  0.00    -0.206 F 
ATOM     88  C   UNL     1      -8.946  -8.847  -0.460  1.00  0.00     0.060 A 
BRANCH  88  89
ATOM     89  S   UNL     1      -7.500  -9.689   0.222  1.00  0.00     0.124 S 
ATOM     90  O   UNL     1      -7.163 -10.632  -0.839  1.00  0.00    -0.237 OA
ATOM     91  O   UNL     1      -6.568  -8.574   0.393  1.00  0.00    -0.237 OA
ATOM     92  O   UNL     1      -8.006 -10.279   1.455  1.00  0.00    -0.744 OA
ENDBRANCH  88  89
ENDBRANCH  56  81
BRANCH  68  93
ATOM     93  C   UNL     1     -16.830  -3.263   0.256  1.00  0.00     0.058 A 
ATOM     94  C   UNL     1     -17.689  -3.310  -0.852  1.00  0.00     0.135 A 
ATOM     95  C   UNL     1     -17.423  -3.191   1.529  1.00  0.00     0.135 A 
ATOM     96  F   UNL     1     -17.188  -3.371  -2.097  1.00  0.00    -0.206 F 
ATOM     97  C   UNL     1     -19.073  -3.286  -0.706  1.00  0.00     0.059 A 
ATOM     98  C   UNL     1     -18.802  -3.137   1.698  1.00  0.00     0.059 A 
ATOM     99  F   UNL     1     -16.665  -3.179   2.638  1.00  0.00    -0.206 F 
ATOM    100  C   UNL     1     -19.621  -3.194   0.573  1.00  0.00     0.060 A 
BRANCH 100 101
ATOM    101  S   UNL     1     -21.412  -3.107   0.770  1.00  0.00     0.124 S 
ATOM    102  O   UNL     1     -21.845  -2.459  -0.465  1.00  0.00    -0.237 OA
ATOM    103  O   UNL     1     -21.759  -4.519   0.895  1.00  0.00    -0.237 OA
ATOM    104  O   UNL     1     -21.574  -2.306   1.979  1.00  0.00    -0.744 OA
ENDBRANCH 100 101
ENDBRANCH  68  93
ENDBRANCH  42  43
ENDBRANCH  34  37
ENDBRANCH  32  33
ENDBRANCH   1  32
TORSDOF 16
