REMARK SMILES O=C(NCCCNC(=O)c1cc(-c2cccc(C(F)(F)F)c2)nc2c(F)cccc12)c1ccc(-c2c3nc(c(-c4c(F)cc(S(=O)(=O)[O-])cc4F)c4ccc([nH]4)c(-c4c(F)cc(S(=O)(=O)[O-])cc4F)c4nc(c(-c5c(F)cc(S(=O)(=O)[O-])cc5F)c5ccc2[nH]5)C=C4)C=C3)cc1
REMARK SMILES IDX 4 1 3 2 1 3 2 4 31 6 32 7 96 8 33 9 95 10 34 11 35 12 36 13
REMARK SMILES IDX 89 14 37 15 94 16 88 17 90 18 38 19 93 20 87 21 86 22 39 24
REMARK SMILES IDX 73 25 52 26 72 27 53 28 56 29 71 30 91 31 54 32 55 33 70 35
REMARK SMILES IDX 92 36 57 37 40 38 41 39 50 40 42 41 43 42 49 43 51 44 44 45
REMARK SMILES IDX 45 46 46 47 47 48 48 49 74 50 75 51 84 52 76 53 77 54 83 55
REMARK SMILES IDX 85 56 78 57 79 58 80 59 81 60 82 61 58 62 59 63 68 64 60 65
REMARK SMILES IDX 61 66 67 67 69 68 62 69 63 70 64 71 65 72 66 73 5 74 6 75
REMARK SMILES IDX 7 76 8 77 9 79 10 80 11 81 30 82 12 83 24 84 29 85 23 86
REMARK SMILES IDX 25 87 28 88 26 89 27 90 13 91 14 92 22 93 15 94 17 95 16 96
REMARK SMILES IDX 18 97 19 98 20 99 21 100
REMARK H PARENT 3 5 90 23 56 34 7 78
REMARK Flexibility Score: inf
ROOT
ATOM      1  C   UNL     1       4.658  -1.087   0.877  1.00  0.00     0.118 C 
ENDROOT
BRANCH   1   2
ATOM      2  N   UNL     1       3.216  -1.065   0.681  1.00  0.00    -0.352 N 
ATOM      3  O   UNL     1       1.205  -0.264   0.099  1.00  0.00    -0.269 OA
ATOM      4  C   UNL     1       2.422  -0.227  -0.062  1.00  0.00     0.251 C 
ATOM      5  H   UNL     1       2.727  -1.771   1.164  1.00  0.00     0.163 HD
BRANCH   4   6
ATOM      6  C   UNL     1       3.013   0.724  -1.030  1.00  0.00     0.039 A 
ATOM      7  C   UNL     1       4.072   0.352  -1.861  1.00  0.00     0.014 A 
ATOM      8  C   UNL     1       2.450   1.999  -1.150  1.00  0.00     0.014 A 
ATOM      9  C   UNL     1       4.660   1.290  -2.704  1.00  0.00     0.010 A 
ATOM     10  C   UNL     1       2.987   2.915  -2.058  1.00  0.00     0.010 A 
ATOM     11  C   UNL     1       4.115   2.577  -2.821  1.00  0.00    -0.014 A 
BRANCH  11  12
ATOM     12  C   UNL     1       4.696   3.545  -3.785  1.00  0.00     0.031 A 
ATOM     13  C   UNL     1       5.334   4.817  -3.305  1.00  0.00     0.074 A 
ATOM     14  C   UNL     1       4.624   3.279  -5.103  1.00  0.00     0.049 A 
ATOM     15  N   UNL     1       5.823   5.807  -4.005  1.00  0.00    -0.248 NA
ATOM     16  C   UNL     1       5.425   5.005  -1.849  1.00  0.00     0.031 C 
ATOM     17  C   UNL     1       4.018   2.080  -5.688  1.00  0.00     0.029 A 
ATOM     18  N   UNL     1       5.055   3.997  -6.188  1.00  0.00    -0.354 N 
ATOM     19  C   UNL     1       6.250   6.752  -3.080  1.00  0.00     0.074 A 
ATOM     20  C   UNL     1       5.952   6.219  -1.767  1.00  0.00     0.031 C 
ATOM     21  C   UNL     1       4.125   2.141  -7.023  1.00  0.00     0.029 A 
ATOM     22  C   UNL     1       4.756   3.404  -7.391  1.00  0.00     0.049 A 
ATOM     23  H   UNL     1       5.532   4.855  -6.113  1.00  0.00     0.167 HD
ATOM     24  C   UNL     1       6.837   7.952  -3.307  1.00  0.00     0.037 A 
ATOM     25  C   UNL     1       4.938   3.838  -8.652  1.00  0.00     0.037 A 
ATOM     26  C   UNL     1       7.149   8.464  -4.616  1.00  0.00     0.049 A 
ATOM     27  C   UNL     1       5.589   5.168  -8.883  1.00  0.00     0.074 A 
ATOM     28  C   UNL     1       7.783   9.648  -4.949  1.00  0.00     0.029 A 
ATOM     29  N   UNL     1       6.843   7.825  -5.809  1.00  0.00    -0.354 N 
ATOM     30  N   UNL     1       6.016   6.035  -7.997  1.00  0.00    -0.248 NA
ATOM     31  C   UNL     1       5.784   5.583 -10.278  1.00  0.00     0.031 C 
ATOM     32  C   UNL     1       7.833   9.739  -6.345  1.00  0.00     0.029 A 
ATOM     33  C   UNL     1       7.260   8.597  -6.881  1.00  0.00     0.049 A 
ATOM     34  H   UNL     1       6.396   6.951  -5.883  1.00  0.00     0.167 HD
ATOM     35  C   UNL     1       6.540   7.095  -8.725  1.00  0.00     0.074 A 
ATOM     36  C   UNL     1       6.383   6.758 -10.126  1.00  0.00     0.031 C 
ATOM     37  C   UNL     1       7.100   8.242  -8.270  1.00  0.00     0.037 A 
BRANCH  24  38
ATOM     38  C   UNL     1       7.150   8.802  -2.108  1.00  0.00     0.058 A 
ATOM     39  C   UNL     1       8.211   8.496  -1.242  1.00  0.00     0.135 A 
ATOM     40  C   UNL     1       6.372   9.934  -1.819  1.00  0.00     0.135 A 
ATOM     41  F   UNL     1       8.977   7.417  -1.465  1.00  0.00    -0.206 F 
ATOM     42  C   UNL     1       8.463   9.259  -0.106  1.00  0.00     0.059 A 
ATOM     43  C   UNL     1       6.618  10.723  -0.700  1.00  0.00     0.059 A 
ATOM     44  F   UNL     1       5.347  10.271  -2.618  1.00  0.00    -0.206 F 
ATOM     45  C   UNL     1       7.652  10.363   0.164  1.00  0.00     0.060 A 
BRANCH  45  46
ATOM     46  S   UNL     1       7.955  11.320   1.665  1.00  0.00     0.124 S 
ATOM     47  O   UNL     1       7.327  10.475   2.675  1.00  0.00    -0.237 OA
ATOM     48  O   UNL     1       9.413  11.384   1.712  1.00  0.00    -0.237 OA
ATOM     49  O   UNL     1       7.284  12.588   1.398  1.00  0.00    -0.744 OA
ENDBRANCH  45  46
ENDBRANCH  24  38
BRANCH  25  50
ATOM     50  C   UNL     1       4.476   2.985  -9.775  1.00  0.00     0.058 A 
ATOM     51  C   UNL     1       5.385   2.232 -10.530  1.00  0.00     0.135 A 
ATOM     52  C   UNL     1       3.106   2.824 -10.040  1.00  0.00     0.135 A 
ATOM     53  F   UNL     1       6.702   2.355 -10.312  1.00  0.00    -0.206 F 
ATOM     54  C   UNL     1       4.952   1.332 -11.498  1.00  0.00     0.059 A 
ATOM     55  C   UNL     1       2.649   1.917 -10.989  1.00  0.00     0.059 A 
ATOM     56  F   UNL     1       2.200   3.511  -9.327  1.00  0.00    -0.206 F 
ATOM     57  C   UNL     1       3.580   1.172 -11.711  1.00  0.00     0.060 A 
BRANCH  57  58
ATOM     58  S   UNL     1       3.023  -0.085 -12.882  1.00  0.00     0.124 S 
ATOM     59  O   UNL     1       3.254   0.580 -14.159  1.00  0.00    -0.237 OA
ATOM     60  O   UNL     1       3.906  -1.206 -12.576  1.00  0.00    -0.237 OA
ATOM     61  O   UNL     1       1.624  -0.285 -12.515  1.00  0.00    -0.744 OA
ENDBRANCH  57  58
ENDBRANCH  25  50
BRANCH  37  62
ATOM     62  C   UNL     1       7.609   9.216  -9.292  1.00  0.00     0.058 A 
ATOM     63  C   UNL     1       6.740  10.076  -9.978  1.00  0.00     0.135 A 
ATOM     64  C   UNL     1       8.988   9.347  -9.521  1.00  0.00     0.135 A 
ATOM     65  F   UNL     1       5.414   9.981  -9.798  1.00  0.00    -0.206 F 
ATOM     66  C   UNL     1       7.222  11.040 -10.858  1.00  0.00     0.059 A 
ATOM     67  C   UNL     1       9.492  10.314 -10.384  1.00  0.00     0.059 A 
ATOM     68  F   UNL     1       9.858   8.548  -8.883  1.00  0.00    -0.206 F 
ATOM     69  C   UNL     1       8.601  11.155 -11.050  1.00  0.00     0.060 A 
BRANCH  69  70
ATOM     70  S   UNL     1       9.222  12.456 -12.137  1.00  0.00     0.124 S 
ATOM     71  O   UNL     1       8.967  11.883 -13.455  1.00  0.00    -0.237 OA
ATOM     72  O   UNL     1       8.389  13.598 -11.771  1.00  0.00    -0.237 OA
ATOM     73  O   UNL     1      10.628  12.568 -11.761  1.00  0.00    -0.744 OA
ENDBRANCH  69  70
ENDBRANCH  37  62
ENDBRANCH  11  12
ENDBRANCH   4   6
ENDBRANCH   1   2
BRANCH   1  74
ATOM     74  C   UNL     1       5.075  -0.545   2.237  1.00  0.00     0.042 C 
BRANCH  74  75
ATOM     75  C   UNL     1       4.492  -1.306   3.417  1.00  0.00     0.118 C 
BRANCH  75  76
ATOM     76  N   UNL     1       4.866  -2.715   3.428  1.00  0.00    -0.352 N 
ATOM     77  C   UNL     1       5.561  -3.423   4.374  1.00  0.00     0.252 C 
ATOM     78  H   UNL     1       4.578  -3.233   2.642  1.00  0.00     0.163 HD
ATOM     79  O   UNL     1       5.846  -4.603   4.193  1.00  0.00    -0.269 OA
BRANCH  77  80
ATOM     80  C   UNL     1       6.014  -2.749   5.603  1.00  0.00     0.051 A 
ATOM     81  C   UNL     1       7.392  -2.677   5.783  1.00  0.00     0.043 A 
ATOM     82  C   UNL     1       5.115  -2.187   6.534  1.00  0.00     0.016 A 
ATOM     83  C   UNL     1       7.866  -2.002   6.889  1.00  0.00     0.072 A 
ATOM     84  C   UNL     1       5.692  -1.465   7.593  1.00  0.00     0.107 A 
ATOM     85  C   UNL     1       3.701  -2.292   6.444  1.00  0.00     0.011 A 
ATOM     86  N   UNL     1       7.033  -1.399   7.770  1.00  0.00    -0.245 NA
ATOM     87  C   UNL     1       4.824  -0.799   8.462  1.00  0.00     0.149 A 
ATOM     88  C   UNL     1       2.867  -1.617   7.329  1.00  0.00     0.004 A 
ATOM     89  F   UNL     1       5.326  -0.059   9.465  1.00  0.00    -0.205 F 
ATOM     90  C   UNL     1       3.435  -0.851   8.334  1.00  0.00     0.041 A 
BRANCH  83  91
ATOM     91  C   UNL     1       9.300  -1.919   7.198  1.00  0.00     0.001 A 
ATOM     92  C   UNL     1      10.241  -1.516   6.235  1.00  0.00     0.010 A 
ATOM     93  C   UNL     1       9.772  -2.270   8.475  1.00  0.00     0.023 A 
ATOM     94  C   UNL     1      11.605  -1.477   6.533  1.00  0.00     0.001 A 
ATOM     95  C   UNL     1      11.142  -2.251   8.785  1.00  0.00     0.056 A 
ATOM     96  C   UNL     1      12.054  -1.849   7.798  1.00  0.00     0.013 A 
BRANCH  95  97
ATOM     97  C   UNL     1      11.639  -2.675  10.144  1.00  0.00     0.416 C 
ATOM     98  F   UNL     1      12.431  -3.783  10.080  1.00  0.00    -0.166 F 
ATOM     99  F   UNL     1      12.392  -1.718  10.754  1.00  0.00    -0.166 F 
ATOM    100  F   UNL     1      10.646  -2.985  11.024  1.00  0.00    -0.166 F 
ENDBRANCH  95  97
ENDBRANCH  83  91
ENDBRANCH  77  80
ENDBRANCH  75  76
ENDBRANCH  74  75
ENDBRANCH   1  74
TORSDOF 15
