REMARK SMILES C[C@H](C(=O)NCCCNC(=O)c1ccc(-c2c3nc(c(-c4c(F)cc(S(=O)(=O)[O-])cc4F)c4ccc([nH]4)c(-c4c(F)cc(S(=O)(=O)[O-])cc4F)c4nc(c(-c5c(F)cc(S(=O)(=O)[O-])cc5F)c5ccc2[nH]5)C=C4)C=C3)cc1)S(=O)(=O)NC1COC1
REMARK SMILES IDX 7 1 6 2 5 3 3 4 4 5 2 7 1 8 78 9 79 10 80 11 81 12 82 14
REMARK SMILES IDX 83 15 85 16 84 17 8 18 9 19 10 20 11 22 12 23 13 24 77 25
REMARK SMILES IDX 14 26 76 27 15 28 16 29 17 30 70 31 18 32 75 33 69 34 71 35
REMARK SMILES IDX 19 36 74 37 68 38 67 39 20 41 54 42 33 43 53 44 34 45 37 46
REMARK SMILES IDX 52 47 72 48 35 49 36 50 51 52 73 53 38 54 21 55 22 56 31 57
REMARK SMILES IDX 23 58 24 59 30 60 32 61 25 62 26 63 27 64 28 65 29 66 55 67
REMARK SMILES IDX 56 68 65 69 57 70 58 71 64 72 66 73 59 74 60 75 61 76 62 77
REMARK SMILES IDX 63 78 39 79 40 80 49 81 41 82 42 83 48 84 50 85 43 86 44 87
REMARK SMILES IDX 45 88 46 89 47 90
REMARK H PARENT 5 6 81 13 9 21 71 40 37 51
REMARK Flexibility Score: inf
ROOT
ATOM      1  C   UNL     1       1.843  -1.282  -3.403  1.00  0.00     0.042 C 
ENDROOT
BRANCH   1   2
ATOM      2  C   UNL     1       0.818  -1.171  -2.293  1.00  0.00     0.117 C 
BRANCH   2   3
ATOM      3  N   UNL     1       1.390  -0.816  -1.008  1.00  0.00    -0.355 N 
ATOM      4  C   UNL     1       1.121   0.220  -0.167  1.00  0.00     0.239 C 
ATOM      5  O   UNL     1       1.631   0.153   0.957  1.00  0.00    -0.274 OA
ATOM      6  H   UNL     1       2.092  -1.429  -0.690  1.00  0.00     0.163 HD
BRANCH   4   7
ATOM      7  C   UNL     1       0.298   1.420  -0.559  1.00  0.00     0.209 C 
ATOM      8  C   UNL     1       0.581   2.013  -1.931  1.00  0.00     0.037 C 
BRANCH   7   9
ATOM      9  S   UNL     1      -1.432   1.178  -0.186  1.00  0.00     0.223 S 
ATOM     10  O   UNL     1      -1.605   0.755   1.188  1.00  0.00    -0.212 OA
ATOM     11  O   UNL     1      -2.172   2.312  -0.696  1.00  0.00    -0.212 OA
BRANCH   9  12
ATOM     12  N   UNL     1      -1.932  -0.105  -1.150  1.00  0.00    -0.207 NA
ATOM     13  H   UNL     1      -1.306  -0.107  -1.955  1.00  0.00     0.141 HD
BRANCH  12  14
ATOM     14  C   UNL     1      -1.997  -1.533  -0.677  1.00  0.00     0.121 C 
ATOM     15  C   UNL     1      -3.174  -2.008   0.180  1.00  0.00     0.182 C 
ATOM     16  C   UNL     1      -2.500  -2.591  -1.673  1.00  0.00     0.182 C 
ATOM     17  O   UNL     1      -3.358  -3.177  -0.663  1.00  0.00    -0.378 OA
ENDBRANCH  12  14
ENDBRANCH   9  12
ENDBRANCH   7   9
ENDBRANCH   4   7
ENDBRANCH   2   3
ENDBRANCH   1   2
BRANCH   1  18
ATOM     18  C   UNL     1       2.786  -2.465  -3.233  1.00  0.00     0.118 C 
BRANCH  18  19
ATOM     19  N   UNL     1       2.100  -3.756  -3.264  1.00  0.00    -0.352 N 
ATOM     20  C   UNL     1       2.183  -4.789  -4.167  1.00  0.00     0.251 C 
ATOM     21  H   UNL     1       1.479  -3.910  -2.516  1.00  0.00     0.163 HD
ATOM     22  O   UNL     1       1.383  -5.718  -4.096  1.00  0.00    -0.269 OA
BRANCH  20  23
ATOM     23  C   UNL     1       3.206  -4.765  -5.233  1.00  0.00     0.039 A 
ATOM     24  C   UNL     1       2.855  -5.154  -6.528  1.00  0.00     0.014 A 
ATOM     25  C   UNL     1       4.506  -4.337  -4.960  1.00  0.00     0.014 A 
ATOM     26  C   UNL     1       3.780  -5.010  -7.565  1.00  0.00     0.010 A 
ATOM     27  C   UNL     1       5.385  -4.091  -6.006  1.00  0.00     0.010 A 
ATOM     28  C   UNL     1       5.032  -4.421  -7.322  1.00  0.00    -0.014 A 
BRANCH  28  29
ATOM     29  C   UNL     1       5.985  -4.126  -8.422  1.00  0.00     0.031 A 
ATOM     30  C   UNL     1       7.361  -4.738  -8.410  1.00  0.00     0.074 A 
ATOM     31  C   UNL     1       5.646  -3.235  -9.376  1.00  0.00     0.049 A 
ATOM     32  N   UNL     1       8.371  -4.512  -9.209  1.00  0.00    -0.248 NA
ATOM     33  C   UNL     1       7.654  -5.702  -7.335  1.00  0.00     0.031 C 
ATOM     34  C   UNL     1       4.367  -2.523  -9.457  1.00  0.00     0.029 A 
ATOM     35  N   UNL     1       6.353  -2.760 -10.452  1.00  0.00    -0.354 N 
ATOM     36  C   UNL     1       9.421  -5.282  -8.720  1.00  0.00     0.074 A 
ATOM     37  C   UNL     1       8.943  -5.940  -7.525  1.00  0.00     0.031 C 
ATOM     38  C   UNL     1       4.372  -1.725 -10.537  1.00  0.00     0.029 A 
ATOM     39  C   UNL     1       5.666  -1.833 -11.201  1.00  0.00     0.049 A 
ATOM     40  H   UNL     1       7.268  -3.055 -10.667  1.00  0.00     0.167 HD
ATOM     41  C   UNL     1      10.661  -5.447  -9.237  1.00  0.00     0.037 A 
ATOM     42  C   UNL     1       6.040  -1.141 -12.295  1.00  0.00     0.037 A 
ATOM     43  C   UNL     1      11.112  -4.828 -10.455  1.00  0.00     0.049 A 
ATOM     44  C   UNL     1       7.415  -1.365 -12.865  1.00  0.00     0.074 A 
ATOM     45  C   UNL     1      12.322  -4.993 -11.105  1.00  0.00     0.029 A 
ATOM     46  N   UNL     1      10.370  -3.932 -11.210  1.00  0.00    -0.354 N 
ATOM     47  N   UNL     1       8.369  -2.151 -12.427  1.00  0.00    -0.248 NA
ATOM     48  C   UNL     1       7.763  -0.614 -14.079  1.00  0.00     0.031 C 
ATOM     49  C   UNL     1      12.327  -4.168 -12.234  1.00  0.00     0.029 A 
ATOM     50  C   UNL     1      11.103  -3.523 -12.311  1.00  0.00     0.049 A 
ATOM     51  H   UNL     1       9.458  -3.631 -10.994  1.00  0.00     0.167 HD
ATOM     52  C   UNL     1       9.419  -2.010 -13.327  1.00  0.00     0.074 A 
ATOM     53  C   UNL     1       8.978  -1.073 -14.340  1.00  0.00     0.031 C 
ATOM     54  C   UNL     1      10.640  -2.599 -13.315  1.00  0.00     0.037 A 
BRANCH  41  55
ATOM     55  C   UNL     1      11.614  -6.348  -8.501  1.00  0.00     0.058 A 
ATOM     56  C   UNL     1      11.439  -7.740  -8.476  1.00  0.00     0.135 A 
ATOM     57  C   UNL     1      12.747  -5.819  -7.861  1.00  0.00     0.135 A 
ATOM     58  F   UNL     1      10.364  -8.297  -9.056  1.00  0.00    -0.206 F 
ATOM     59  C   UNL     1      12.342  -8.575  -7.827  1.00  0.00     0.059 A 
ATOM     60  C   UNL     1      13.678  -6.638  -7.229  1.00  0.00     0.059 A 
ATOM     61  F   UNL     1      12.961  -4.493  -7.852  1.00  0.00    -0.206 F 
ATOM     62  C   UNL     1      13.461  -8.015  -7.209  1.00  0.00     0.060 A 
BRANCH  62  63
ATOM     63  S   UNL     1      14.638  -9.117  -6.397  1.00  0.00     0.124 S 
ATOM     64  O   UNL     1      13.894  -9.506  -5.203  1.00  0.00    -0.237 OA
ATOM     65  O   UNL     1      14.825 -10.164  -7.396  1.00  0.00    -0.237 OA
ATOM     66  O   UNL     1      15.797  -8.262  -6.163  1.00  0.00    -0.744 OA
ENDBRANCH  62  63
ENDBRANCH  41  55
BRANCH  42  67
ATOM     67  C   UNL     1       5.097  -0.186 -12.937  1.00  0.00     0.058 A 
ATOM     68  C   UNL     1       4.532  -0.465 -14.190  1.00  0.00     0.135 A 
ATOM     69  C   UNL     1       4.747   1.024 -12.318  1.00  0.00     0.135 A 
ATOM     70  F   UNL     1       4.838  -1.607 -14.824  1.00  0.00    -0.206 F 
ATOM     71  C   UNL     1       3.675   0.431 -14.820  1.00  0.00     0.059 A 
ATOM     72  C   UNL     1       3.872   1.925 -12.916  1.00  0.00     0.059 A 
ATOM     73  F   UNL     1       5.244   1.329 -11.109  1.00  0.00    -0.206 F 
ATOM     74  C   UNL     1       3.352   1.626 -14.175  1.00  0.00     0.060 A 
BRANCH  74  75
ATOM     75  S   UNL     1       2.216   2.771 -14.986  1.00  0.00     0.124 S 
ATOM     76  O   UNL     1       3.069   3.348 -16.018  1.00  0.00    -0.237 OA
ATOM     77  O   UNL     1       1.160   1.878 -15.454  1.00  0.00    -0.237 OA
ATOM     78  O   UNL     1       1.827   3.675 -13.907  1.00  0.00    -0.744 OA
ENDBRANCH  74  75
ENDBRANCH  42  67
BRANCH  54  79
ATOM     79  C   UNL     1      11.572  -2.280 -14.449  1.00  0.00     0.058 A 
ATOM     80  C   UNL     1      12.218  -1.038 -14.543  1.00  0.00     0.135 A 
ATOM     81  C   UNL     1      11.861  -3.248 -15.424  1.00  0.00     0.135 A 
ATOM     82  F   UNL     1      11.970  -0.077 -13.640  1.00  0.00    -0.206 F 
ATOM     83  C   UNL     1      13.103  -0.759 -15.579  1.00  0.00     0.059 A 
ATOM     84  C   UNL     1      12.763  -3.000 -16.453  1.00  0.00     0.059 A 
ATOM     85  F   UNL     1      11.276  -4.456 -15.372  1.00  0.00    -0.206 F 
ATOM     86  C   UNL     1      13.370  -1.747 -16.528  1.00  0.00     0.060 A 
BRANCH  86  87
ATOM     87  S   UNL     1      14.547  -1.385 -17.848  1.00  0.00     0.124 S 
ATOM     88  O   UNL     1      13.759  -0.512 -18.712  1.00  0.00    -0.237 OA
ATOM     89  O   UNL     1      15.640  -0.742 -17.125  1.00  0.00    -0.237 OA
ATOM     90  O   UNL     1      14.856  -2.701 -18.398  1.00  0.00    -0.744 OA
ENDBRANCH  86  87
ENDBRANCH  54  79
ENDBRANCH  28  29
ENDBRANCH  20  23
ENDBRANCH  18  19
ENDBRANCH   1  18
TORSDOF 16
