REMARK SMILES O=C(NCCCNC(=O)[C@H]1CCC(=O)N(C2CCCCC2)[C@H]1c1ccccc1)c1ccc(-c2c3nc(c(-c4c(F)cc(S(=O)(=O)[O-])cc4F)c4ccc([nH]4)c(-c4c(F)cc(S(=O)(=O)[O-])cc4F)c4nc(c(-c5c(F)cc(S(=O)(=O)[O-])cc5F)c5ccc2[nH]5)C=C4)C=C3)cc1
REMARK SMILES IDX 4 1 3 2 1 3 2 4 29 6 30 7 94 8 31 9 93 10 32 11 33 12 34 13
REMARK SMILES IDX 87 14 35 15 92 16 86 17 88 18 36 19 91 20 85 21 84 22 37 24
REMARK SMILES IDX 71 25 50 26 70 27 51 28 54 29 69 30 89 31 52 32 53 33 68 35
REMARK SMILES IDX 90 36 55 37 38 38 39 39 48 40 40 41 41 42 47 43 49 44 42 45
REMARK SMILES IDX 43 46 44 47 45 48 46 49 72 50 73 51 82 52 74 53 75 54 81 55
REMARK SMILES IDX 83 56 76 57 77 58 78 59 79 60 80 61 56 62 57 63 66 64 58 65
REMARK SMILES IDX 59 66 65 67 67 68 60 69 61 70 62 71 63 72 64 73 5 74 6 75
REMARK SMILES IDX 7 76 8 77 9 79 10 80 11 81 22 82 12 83 15 84 13 85 14 86
REMARK SMILES IDX 23 87 24 88 28 89 25 90 27 91 26 92 16 93 17 94 21 95 18 96
REMARK SMILES IDX 20 97 19 98
REMARK H PARENT 3 5 88 23 54 34 7 78
REMARK Flexibility Score: inf
ROOT
ATOM      1  C   UNL     1       4.576   2.942  -7.368  1.00  0.00     0.118 C 
ENDROOT
BRANCH   1   2
ATOM      2  N   UNL     1       4.781   3.654  -8.628  1.00  0.00    -0.352 N 
ATOM      3  O   UNL     1       5.340   3.886 -10.798  1.00  0.00    -0.269 OA
ATOM      4  C   UNL     1       4.960   3.154  -9.897  1.00  0.00     0.251 C 
ATOM      5  H   UNL     1       4.793   4.636  -8.558  1.00  0.00     0.163 HD
BRANCH   4   6
ATOM      6  C   UNL     1       4.696   1.722 -10.144  1.00  0.00     0.039 A 
ATOM      7  C   UNL     1       3.594   1.110  -9.549  1.00  0.00     0.014 A 
ATOM      8  C   UNL     1       5.557   0.986 -10.963  1.00  0.00     0.014 A 
ATOM      9  C   UNL     1       3.452  -0.264  -9.618  1.00  0.00     0.010 A 
ATOM     10  C   UNL     1       5.334  -0.382 -11.140  1.00  0.00     0.010 A 
ATOM     11  C   UNL     1       4.294  -1.020 -10.448  1.00  0.00    -0.014 A 
BRANCH  11  12
ATOM     12  C   UNL     1       3.974  -2.453 -10.645  1.00  0.00     0.031 A 
ATOM     13  C   UNL     1       4.917  -3.535 -10.210  1.00  0.00     0.074 A 
ATOM     14  C   UNL     1       2.771  -2.753 -11.175  1.00  0.00     0.049 A 
ATOM     15  N   UNL     1       4.760  -4.831 -10.283  1.00  0.00    -0.248 NA
ATOM     16  C   UNL     1       6.203  -3.118  -9.630  1.00  0.00     0.031 C 
ATOM     17  C   UNL     1       1.788  -1.767 -11.642  1.00  0.00     0.029 A 
ATOM     18  N   UNL     1       2.150  -3.955 -11.380  1.00  0.00    -0.354 N 
ATOM     19  C   UNL     1       5.931  -5.387  -9.781  1.00  0.00     0.074 A 
ATOM     20  C   UNL     1       6.798  -4.286  -9.420  1.00  0.00     0.031 C 
ATOM     21  C   UNL     1       0.666  -2.399 -12.010  1.00  0.00     0.029 A 
ATOM     22  C   UNL     1       0.877  -3.834 -11.884  1.00  0.00     0.049 A 
ATOM     23  H   UNL     1       2.573  -4.822 -11.184  1.00  0.00     0.167 HD
ATOM     24  C   UNL     1       6.242  -6.697  -9.635  1.00  0.00     0.037 A 
ATOM     25  C   UNL     1      -0.019  -4.776 -12.230  1.00  0.00     0.037 A 
ATOM     26  C   UNL     1       5.354  -7.778  -9.984  1.00  0.00     0.049 A 
ATOM     27  C   UNL     1       0.357  -6.216 -12.057  1.00  0.00     0.074 A 
ATOM     28  C   UNL     1       5.565  -9.141  -9.859  1.00  0.00     0.029 A 
ATOM     29  N   UNL     1       4.085  -7.620 -10.524  1.00  0.00    -0.354 N 
ATOM     30  N   UNL     1       1.468  -6.721 -11.575  1.00  0.00    -0.248 NA
ATOM     31  C   UNL     1      -0.630  -7.213 -12.484  1.00  0.00     0.031 C 
ATOM     32  C   UNL     1       4.438  -9.806 -10.355  1.00  0.00     0.029 A 
ATOM     33  C   UNL     1       3.507  -8.858 -10.752  1.00  0.00     0.049 A 
ATOM     34  H   UNL     1       3.658  -6.754 -10.716  1.00  0.00     0.167 HD
ATOM     35  C   UNL     1       1.314  -8.099 -11.641  1.00  0.00     0.074 A 
ATOM     36  C   UNL     1      -0.010  -8.344 -12.180  1.00  0.00     0.031 C 
ATOM     37  C   UNL     1       2.191  -9.073 -11.297  1.00  0.00     0.037 A 
BRANCH  24  38
ATOM     38  C   UNL     1       7.602  -7.042  -9.092  1.00  0.00     0.058 A 
ATOM     39  C   UNL     1       7.920  -6.876  -7.735  1.00  0.00     0.135 A 
ATOM     40  C   UNL     1       8.581  -7.603  -9.929  1.00  0.00     0.135 A 
ATOM     41  F   UNL     1       7.028  -6.329  -6.894  1.00  0.00    -0.206 F 
ATOM     42  C   UNL     1       9.164  -7.241  -7.230  1.00  0.00     0.059 A 
ATOM     43  C   UNL     1       9.825  -7.995  -9.441  1.00  0.00     0.059 A 
ATOM     44  F   UNL     1       8.331  -7.781 -11.236  1.00  0.00    -0.206 F 
ATOM     45  C   UNL     1      10.110  -7.801  -8.090  1.00  0.00     0.060 A 
BRANCH  45  46
ATOM     46  S   UNL     1      11.713  -8.289  -7.415  1.00  0.00     0.124 S 
ATOM     47  O   UNL     1      12.350  -6.991  -7.215  1.00  0.00    -0.237 OA
ATOM     48  O   UNL     1      11.335  -9.003  -6.200  1.00  0.00    -0.237 OA
ATOM     49  O   UNL     1      12.290  -9.115  -8.471  1.00  0.00    -0.744 OA
ENDBRANCH  45  46
ENDBRANCH  24  38
BRANCH  25  50
ATOM     50  C   UNL     1      -1.333  -4.374 -12.793  1.00  0.00     0.058 A 
ATOM     51  C   UNL     1      -2.520  -4.560 -12.071  1.00  0.00     0.135 A 
ATOM     52  C   UNL     1      -1.421  -3.764 -14.055  1.00  0.00     0.135 A 
ATOM     53  F   UNL     1      -2.485  -5.138 -10.861  1.00  0.00    -0.206 F 
ATOM     54  C   UNL     1      -3.752  -4.170 -12.586  1.00  0.00     0.059 A 
ATOM     55  C   UNL     1      -2.637  -3.338 -14.577  1.00  0.00     0.059 A 
ATOM     56  F   UNL     1      -0.310  -3.542 -14.774  1.00  0.00    -0.206 F 
ATOM     57  C   UNL     1      -3.799  -3.559 -13.840  1.00  0.00     0.060 A 
BRANCH  57  58
ATOM     58  S   UNL     1      -5.394  -3.012 -14.485  1.00  0.00     0.124 S 
ATOM     59  O   UNL     1      -5.970  -4.271 -14.942  1.00  0.00    -0.237 OA
ATOM     60  O   UNL     1      -6.016  -2.414 -13.308  1.00  0.00    -0.237 OA
ATOM     61  O   UNL     1      -5.023  -2.067 -15.534  1.00  0.00    -0.744 OA
ENDBRANCH  57  58
ENDBRANCH  25  50
BRANCH  37  62
ATOM     62  C   UNL     1       1.731 -10.489 -11.490  1.00  0.00     0.058 A 
ATOM     63  C   UNL     1       1.646 -11.062 -12.768  1.00  0.00     0.135 A 
ATOM     64  C   UNL     1       1.384 -11.281 -10.385  1.00  0.00     0.135 A 
ATOM     65  F   UNL     1       1.956 -10.338 -13.855  1.00  0.00    -0.206 F 
ATOM     66  C   UNL     1       1.202 -12.367 -12.947  1.00  0.00     0.059 A 
ATOM     67  C   UNL     1       0.962 -12.597 -10.540  1.00  0.00     0.059 A 
ATOM     68  F   UNL     1       1.456 -10.779  -9.142  1.00  0.00    -0.206 F 
ATOM     69  C   UNL     1       0.859 -13.125 -11.826  1.00  0.00     0.060 A 
BRANCH  69  70
ATOM     70  S   UNL     1       0.296 -14.823 -12.068  1.00  0.00     0.124 S 
ATOM     71  O   UNL     1      -1.074 -14.614 -12.524  1.00  0.00    -0.237 OA
ATOM     72  O   UNL     1       1.230 -15.324 -13.073  1.00  0.00    -0.237 OA
ATOM     73  O   UNL     1       0.435 -15.417 -10.742  1.00  0.00    -0.744 OA
ENDBRANCH  69  70
ENDBRANCH  37  62
ENDBRANCH  11  12
ENDBRANCH   4   6
ENDBRANCH   1   2
BRANCH   1  74
ATOM     74  C   UNL     1       5.728   3.148  -6.407  1.00  0.00     0.042 C 
BRANCH  74  75
ATOM     75  C   UNL     1       5.792   4.577  -5.918  1.00  0.00     0.117 C 
BRANCH  75  76
ATOM     76  N   UNL     1       4.809   4.873  -4.895  1.00  0.00    -0.356 N 
ATOM     77  C   UNL     1       4.979   5.236  -3.599  1.00  0.00     0.225 C 
ATOM     78  H   UNL     1       3.872   4.798  -5.186  1.00  0.00     0.163 HD
ATOM     79  O   UNL     1       3.985   5.656  -2.996  1.00  0.00    -0.275 OA
BRANCH  77  80
ATOM     80  C   UNL     1       6.324   5.181  -2.887  1.00  0.00     0.106 C 
ATOM     81  C   UNL     1       7.118   3.896  -3.070  1.00  0.00     0.026 C 
ATOM     82  C   UNL     1       7.198   6.443  -3.033  1.00  0.00     0.128 C 
ATOM     83  C   UNL     1       8.203   3.849  -2.021  1.00  0.00     0.101 C 
ATOM     84  N   UNL     1       8.508   6.310  -2.341  1.00  0.00    -0.332 N 
ATOM     85  C   UNL     1       9.074   5.088  -1.980  1.00  0.00     0.223 C 
ATOM     86  O   UNL     1      10.214   4.984  -1.524  1.00  0.00    -0.275 OA
BRANCH  82  87
ATOM     87  C   UNL     1       7.352   6.977  -4.458  1.00  0.00    -0.025 A 
ATOM     88  C   UNL     1       8.425   6.612  -5.290  1.00  0.00     0.006 A 
ATOM     89  C   UNL     1       6.356   7.815  -4.996  1.00  0.00     0.006 A 
ATOM     90  C   UNL     1       8.489   7.051  -6.616  1.00  0.00     0.000 A 
ATOM     91  C   UNL     1       6.413   8.239  -6.327  1.00  0.00     0.000 A 
ATOM     92  C   UNL     1       7.478   7.854  -7.137  1.00  0.00     0.000 A 
ENDBRANCH  82  87
BRANCH  84  93
ATOM     93  C   UNL     1       9.238   7.564  -2.040  1.00  0.00     0.085 C 
ATOM     94  C   UNL     1       9.382   7.769  -0.520  1.00  0.00     0.025 C 
ATOM     95  C   UNL     1      10.585   7.693  -2.777  1.00  0.00     0.025 C 
ATOM     96  C   UNL     1      10.148   9.043  -0.181  1.00  0.00     0.002 C 
ATOM     97  C   UNL     1      11.324   8.973  -2.400  1.00  0.00     0.002 C 
ATOM     98  C   UNL     1      11.496   9.089  -0.891  1.00  0.00     0.000 C 
ENDBRANCH  84  93
ENDBRANCH  77  80
ENDBRANCH  75  76
ENDBRANCH  74  75
ENDBRANCH   1  74
TORSDOF 15
