REMARK SMILES Cc1cc(C)c2c(c1)C=C(C(=O)NCCCNC(=O)c1ccc(-c3c4nc(c(-c5c(F)cc(S(=O)(=O)[O-])cc5F)c5ccc([nH]5)c(-c5c(F)cc(S(=O)(=O)[O-])cc5F)c5nc(c(-c6c(F)cc(S(=O)(=O)[O-])cc6F)c6ccc3[nH]6)C=C5)C=C4)cc1)[C@@H](C(F)(F)F)O2
REMARK SMILES IDX 16 1 15 2 14 3 13 4 11 5 12 6 10 8 1 9 2 10 3 11 8 12 4 13
REMARK SMILES IDX 7 14 5 15 6 16 9 17 91 18 86 19 87 20 88 21 89 22 90 23
REMARK SMILES IDX 17 24 18 25 19 27 20 28 21 29 85 30 22 31 84 32 23 33 24 34
REMARK SMILES IDX 25 35 78 36 26 37 83 38 77 39 79 40 27 41 82 42 76 43 75 44
REMARK SMILES IDX 28 46 62 47 41 48 61 49 42 50 45 51 60 52 80 53 43 54 44 55
REMARK SMILES IDX 59 57 81 58 46 59 29 60 30 61 39 62 31 63 32 64 38 65 40 66
REMARK SMILES IDX 33 67 34 68 35 69 36 70 37 71 63 72 64 73 73 74 65 75 66 76
REMARK SMILES IDX 72 77 74 78 67 79 68 80 69 81 70 82 71 83 47 84 48 85 57 86
REMARK SMILES IDX 49 87 50 88 56 89 58 90 51 91 52 92 53 93 54 94 55 95
REMARK H PARENT 13 7 17 26 79 45 45 56
REMARK Flexibility Score: inf
ROOT
ATOM      1  C   UNL     1       0.622  11.208   0.956  1.00  0.00     0.118 C 
ENDROOT
BRANCH   1   2
ATOM      2  C   UNL     1      -0.071   9.955   0.434  1.00  0.00     0.042 C 
BRANCH   2   3
ATOM      3  C   UNL     1       0.762   9.232  -0.614  1.00  0.00     0.118 C 
BRANCH   3   4
ATOM      4  N   UNL     1       1.846   8.467  -0.016  1.00  0.00    -0.352 N 
ATOM      5  C   UNL     1       2.132   7.166   0.220  1.00  0.00     0.251 C 
ATOM      6  O   UNL     1       3.217   6.960   0.775  1.00  0.00    -0.270 OA
ATOM      7  H   UNL     1       2.567   9.056   0.303  1.00  0.00     0.163 HD
BRANCH   5   8
ATOM      8  C   UNL     1       1.259   6.013  -0.144  1.00  0.00     0.067 C 
ATOM      9  C   UNL     1       1.169  -0.169  -0.042  1.00  0.00     0.044 C 
ATOM     10  C   UNL     1       0.640   1.217  -0.264  1.00  0.00    -0.050 A 
ATOM     11  C   UNL     1      -0.660   1.402  -0.754  1.00  0.00     0.010 A 
ATOM     12  C   UNL     1       1.413   2.336   0.073  1.00  0.00     0.015 A 
ATOM     13  C   UNL     1      -1.186   2.688  -0.930  1.00  0.00    -0.008 A 
ATOM     14  C   UNL     1       0.906   3.626  -0.106  1.00  0.00     0.018 A 
ATOM     15  C   UNL     1      -2.577   2.881  -1.461  1.00  0.00     0.048 C 
ATOM     16  C   UNL     1      -0.387   3.792  -0.610  1.00  0.00     0.130 A 
ATOM     17  C   UNL     1       1.690   4.802   0.253  1.00  0.00     0.025 C 
ATOM     18  O   UNL     1      -0.942   5.032  -0.766  1.00  0.00    -0.475 OA
ATOM     19  C   UNL     1      -0.011   6.132  -0.938  1.00  0.00     0.314 C 
BRANCH  19  20
ATOM     20  C   UNL     1       0.247   6.350  -2.441  1.00  0.00     0.429 C 
ATOM     21  F   UNL     1      -0.872   6.810  -3.054  1.00  0.00    -0.167 F 
ATOM     22  F   UNL     1       1.215   7.269  -2.676  1.00  0.00    -0.167 F 
ATOM     23  F   UNL     1       0.623   5.220  -3.081  1.00  0.00    -0.167 F 
ENDBRANCH  19  20
ENDBRANCH   5   8
ENDBRANCH   3   4
ENDBRANCH   2   3
ENDBRANCH   1   2
BRANCH   1  24
ATOM     24  N   UNL     1       0.760  12.224  -0.085  1.00  0.00    -0.352 N 
ATOM     25  C   UNL     1       0.062  13.390  -0.278  1.00  0.00     0.251 C 
ATOM     26  H   UNL     1       1.462  12.044  -0.751  1.00  0.00     0.163 HD
ATOM     27  O   UNL     1       0.133  13.971  -1.359  1.00  0.00    -0.269 OA
BRANCH  25  28
ATOM     28  C   UNL     1      -0.773  13.937   0.808  1.00  0.00     0.039 A 
ATOM     29  C   UNL     1      -2.030  14.469   0.510  1.00  0.00     0.014 A 
ATOM     30  C   UNL     1      -0.304  13.937   2.124  1.00  0.00     0.014 A 
ATOM     31  C   UNL     1      -2.844  14.932   1.545  1.00  0.00     0.010 A 
ATOM     32  C   UNL     1      -1.150  14.308   3.160  1.00  0.00     0.010 A 
ATOM     33  C   UNL     1      -2.424  14.819   2.881  1.00  0.00    -0.014 A 
BRANCH  33  34
ATOM     34  C   UNL     1      -3.292  15.251   4.004  1.00  0.00     0.031 A 
ATOM     35  C   UNL     1      -2.848  16.372   4.904  1.00  0.00     0.074 A 
ATOM     36  C   UNL     1      -4.447  14.599   4.242  1.00  0.00     0.049 A 
ATOM     37  N   UNL     1      -3.432  16.854   5.970  1.00  0.00    -0.248 NA
ATOM     38  C   UNL     1      -1.564  17.018   4.582  1.00  0.00     0.031 C 
ATOM     39  C   UNL     1      -4.955  13.465   3.465  1.00  0.00     0.029 A 
ATOM     40  N   UNL     1      -5.406  14.795   5.203  1.00  0.00    -0.354 N 
ATOM     41  C   UNL     1      -2.587  17.849   6.445  1.00  0.00     0.074 A 
ATOM     42  C   UNL     1      -1.417  17.857   5.597  1.00  0.00     0.031 C 
ATOM     43  C   UNL     1      -6.151  13.098   3.951  1.00  0.00     0.029 A 
ATOM     44  C   UNL     1      -6.479  13.942   5.095  1.00  0.00     0.049 A 
ATOM     45  H   UNL     1      -5.332  15.482   5.904  1.00  0.00     0.167 HD
ATOM     46  C   UNL     1      -2.786  18.707   7.473  1.00  0.00     0.037 A 
ATOM     47  C   UNL     1      -7.604  13.858   5.832  1.00  0.00     0.037 A 
ATOM     48  C   UNL     1      -3.970  18.717   8.290  1.00  0.00     0.049 A 
ATOM     49  C   UNL     1      -7.798  14.815   6.975  1.00  0.00     0.074 A 
ATOM     50  C   UNL     1      -4.289  19.568   9.331  1.00  0.00     0.029 A 
ATOM     51  N   UNL     1      -5.034  17.838   8.147  1.00  0.00    -0.354 N 
ATOM     52  N   UNL     1      -7.006  15.778   7.385  1.00  0.00    -0.248 NA
ATOM     53  C   UNL     1      -9.035  14.678   7.757  1.00  0.00     0.031 C 
ATOM     54  C   UNL     1      -5.534  19.186   9.839  1.00  0.00     0.029 A 
ATOM     55  C   UNL     1      -6.007  18.120   9.089  1.00  0.00     0.049 A 
ATOM     56  H   UNL     1      -5.088  17.120   7.475  1.00  0.00     0.167 HD
ATOM     57  C   UNL     1      -7.659  16.376   8.457  1.00  0.00     0.074 A 
ATOM     58  C   UNL     1      -8.914  15.673   8.627  1.00  0.00     0.031 C 
ATOM     59  C   UNL     1      -7.256  17.413   9.230  1.00  0.00     0.037 A 
BRANCH  46  60
ATOM     60  C   UNL     1      -1.716  19.727   7.747  1.00  0.00     0.058 A 
ATOM     61  C   UNL     1      -1.496  20.803   6.872  1.00  0.00     0.135 A 
ATOM     62  C   UNL     1      -0.928  19.652   8.906  1.00  0.00     0.135 A 
ATOM     63  F   UNL     1      -2.209  20.911   5.739  1.00  0.00    -0.206 F 
ATOM     64  C   UNL     1      -0.516  21.757   7.124  1.00  0.00     0.059 A 
ATOM     65  C   UNL     1       0.040  20.611   9.192  1.00  0.00     0.059 A 
ATOM     66  F   UNL     1      -1.095  18.642   9.774  1.00  0.00    -0.206 F 
ATOM     67  C   UNL     1       0.246  21.653   8.289  1.00  0.00     0.060 A 
BRANCH  67  68
ATOM     68  S   UNL     1       1.505  22.908   8.603  1.00  0.00     0.124 S 
ATOM     69  O   UNL     1       2.511  22.568   7.601  1.00  0.00    -0.237 OA
ATOM     70  O   UNL     1       0.772  24.148   8.370  1.00  0.00    -0.237 OA
ATOM     71  O   UNL     1       1.893  22.662   9.989  1.00  0.00    -0.744 OA
ENDBRANCH  67  68
ENDBRANCH  46  60
BRANCH  47  72
ATOM     72  C   UNL     1      -8.652  12.866   5.476  1.00  0.00     0.058 A 
ATOM     73  C   UNL     1      -9.863  13.282   4.902  1.00  0.00     0.135 A 
ATOM     74  C   UNL     1      -8.460  11.489   5.670  1.00  0.00     0.135 A 
ATOM     75  F   UNL     1     -10.094  14.588   4.700  1.00  0.00    -0.206 F 
ATOM     76  C   UNL     1     -10.851  12.372   4.542  1.00  0.00     0.059 A 
ATOM     77  C   UNL     1      -9.425  10.557   5.299  1.00  0.00     0.059 A 
ATOM     78  F   UNL     1      -7.312  11.038   6.199  1.00  0.00    -0.206 F 
ATOM     79  C   UNL     1     -10.621  11.010   4.741  1.00  0.00     0.060 A 
BRANCH  79  80
ATOM     80  S   UNL     1     -11.891   9.836   4.220  1.00  0.00     0.124 S 
ATOM     81  O   UNL     1     -12.930  10.065   5.217  1.00  0.00    -0.237 OA
ATOM     82  O   UNL     1     -12.191  10.292   2.867  1.00  0.00    -0.237 OA
ATOM     83  O   UNL     1     -11.210   8.547   4.303  1.00  0.00    -0.744 OA
ENDBRANCH  79  80
ENDBRANCH  47  72
BRANCH  59  84
ATOM     84  C   UNL     1      -8.180  17.873  10.320  1.00  0.00     0.058 A 
ATOM     85  C   UNL     1      -8.311  17.153  11.516  1.00  0.00     0.135 A 
ATOM     86  C   UNL     1      -8.856  19.098  10.208  1.00  0.00     0.135 A 
ATOM     87  F   UNL     1      -7.690  15.973  11.666  1.00  0.00    -0.206 F 
ATOM     88  C   UNL     1      -9.080  17.635  12.569  1.00  0.00     0.059 A 
ATOM     89  C   UNL     1      -9.613  19.610  11.257  1.00  0.00     0.059 A 
ATOM     90  F   UNL     1      -8.754  19.827   9.085  1.00  0.00    -0.206 F 
ATOM     91  C   UNL     1      -9.719  18.869  12.434  1.00  0.00     0.060 A 
BRANCH  91  92
ATOM     92  S   UNL     1     -10.649  19.516  13.839  1.00  0.00     0.124 S 
ATOM     93  O   UNL     1     -11.817  18.642  13.846  1.00  0.00    -0.237 OA
ATOM     94  O   UNL     1      -9.712  19.331  14.943  1.00  0.00    -0.237 OA
ATOM     95  O   UNL     1     -10.906  20.904  13.468  1.00  0.00    -0.744 OA
ENDBRANCH  91  92
ENDBRANCH  59  84
ENDBRANCH  33  34
ENDBRANCH  25  28
ENDBRANCH   1  24
TORSDOF 14
