REMARK SMILES O=C(Cc1cccc(-c2ccn(C(F)F)c(=O)c2)c1)NCCCNC(=O)c1ccc(-c2c3nc(c(-c4c(F)cc(S(=O)(=O)[O-])cc4F)c4ccc([nH]4)c(-c4c(F)cc(S(=O)(=O)[O-])cc4F)c4nc(c(-c5c(F)cc(S(=O)(=O)[O-])cc5F)c5ccc2[nH]5)C=C4)C=C3)cc1
REMARK SMILES IDX 22 1 21 2 20 3 1 4 2 5 3 7 4 8 5 9 19 10 6 11 8 12 7 13 9 14
REMARK SMILES IDX 10 15 18 16 11 17 16 18 12 19 17 20 13 21 14 22 15 23 23 24
REMARK SMILES IDX 24 25 25 26 26 28 27 29 28 30 92 31 29 32 91 33 30 34 31 35
REMARK SMILES IDX 32 36 85 37 33 38 90 39 84 40 86 41 34 42 89 43 83 44 82 45
REMARK SMILES IDX 35 47 69 48 48 49 68 50 49 51 52 52 67 53 87 54 50 55 51 56
REMARK SMILES IDX 66 58 88 59 53 60 36 61 37 62 46 63 38 64 39 65 45 66 47 67
REMARK SMILES IDX 40 68 41 69 42 70 43 71 44 72 70 73 71 74 80 75 72 76 73 77
REMARK SMILES IDX 79 78 81 79 74 80 75 81 76 82 77 83 78 84 54 85 55 86 64 87
REMARK SMILES IDX 56 88 57 89 63 90 65 91 58 92 59 93 60 94 61 95 62 96
REMARK H PARENT 20 6 24 27 86 46 52 57
REMARK Flexibility Score: inf
ROOT
ATOM      1  C   UNL     1       2.510   0.579   3.486  1.00  0.00     0.042 C 
ENDROOT
BRANCH   1   2
ATOM      2  C   UNL     1       2.200   1.201   2.132  1.00  0.00     0.117 C 
BRANCH   2   3
ATOM      3  N   UNL     1       2.882   0.537   1.040  1.00  0.00    -0.356 N 
ATOM      4  O   UNL     1       0.998  -0.334   0.049  1.00  0.00    -0.275 OA
ATOM      5  C   UNL     1       2.208  -0.127   0.033  1.00  0.00     0.224 C 
ATOM      6  H   UNL     1       3.865   0.560   1.014  1.00  0.00     0.163 HD
BRANCH   5   7
ATOM      7  C   UNL     1       3.094  -0.586  -1.120  1.00  0.00     0.135 C 
BRANCH   7   8
ATOM      8  C   UNL     1       3.933   0.514  -1.740  1.00  0.00    -0.038 A 
ATOM      9  C   UNL     1       5.165   0.213  -2.332  1.00  0.00     0.004 A 
ATOM     10  C   UNL     1       3.494   1.846  -1.752  1.00  0.00     0.013 A 
ATOM     11  C   UNL     1       5.959   1.230  -2.872  1.00  0.00     0.001 A 
ATOM     12  C   UNL     1       4.302   2.877  -2.249  1.00  0.00    -0.018 A 
ATOM     13  C   UNL     1       5.537   2.561  -2.817  1.00  0.00     0.009 A 
BRANCH  12  14
ATOM     14  C   UNL     1       3.831   4.264  -2.095  1.00  0.00    -0.011 A 
ATOM     15  C   UNL     1       3.647   4.866  -0.787  1.00  0.00     0.027 A 
ATOM     16  C   UNL     1       3.479   4.958  -3.190  1.00  0.00     0.080 A 
ATOM     17  C   UNL     1       3.076   6.068  -0.665  1.00  0.00     0.095 A 
ATOM     18  C   UNL     1       2.867   6.312  -3.070  1.00  0.00     0.255 A 
ATOM     19  N   UNL     1       2.676   6.780  -1.779  1.00  0.00    -0.258 N 
ATOM     20  O   UNL     1       2.556   6.907  -4.098  1.00  0.00    -0.269 OA
BRANCH  19  21
ATOM     21  C   UNL     1       2.009   8.047  -1.630  1.00  0.00     0.451 C 
ATOM     22  F   UNL     1       2.679   9.037  -2.269  1.00  0.00    -0.185 F 
ATOM     23  F   UNL     1       0.753   7.995  -2.140  1.00  0.00    -0.185 F 
ENDBRANCH  19  21
ENDBRANCH  12  14
ENDBRANCH   7   8
ENDBRANCH   5   7
ENDBRANCH   2   3
ENDBRANCH   1   2
BRANCH   1  24
ATOM     24  C   UNL     1       3.982   0.617   3.885  1.00  0.00     0.118 C 
BRANCH  24  25
ATOM     25  N   UNL     1       4.504   1.967   4.038  1.00  0.00    -0.352 N 
ATOM     26  C   UNL     1       5.223   2.531   5.065  1.00  0.00     0.251 C 
ATOM     27  H   UNL     1       4.311   2.573   3.287  1.00  0.00     0.163 HD
ATOM     28  O   UNL     1       5.443   3.740   5.034  1.00  0.00    -0.269 OA
BRANCH  26  29
ATOM     29  C   UNL     1       5.705   1.718   6.207  1.00  0.00     0.039 A 
ATOM     30  C   UNL     1       5.669   2.280   7.487  1.00  0.00     0.014 A 
ATOM     31  C   UNL     1       6.218   0.429   6.037  1.00  0.00     0.014 A 
ATOM     32  C   UNL     1       6.088   1.532   8.591  1.00  0.00     0.010 A 
ATOM     33  C   UNL     1       6.556  -0.346   7.148  1.00  0.00     0.010 A 
ATOM     34  C   UNL     1       6.501   0.197   8.439  1.00  0.00    -0.014 A 
BRANCH  34  35
ATOM     35  C   UNL     1       6.855  -0.626   9.629  1.00  0.00     0.031 A 
ATOM     36  C   UNL     1       8.247  -1.177   9.806  1.00  0.00     0.074 A 
ATOM     37  C   UNL     1       5.907  -0.897  10.549  1.00  0.00     0.049 A 
ATOM     38  N   UNL     1       8.736  -1.878  10.799  1.00  0.00    -0.248 NA
ATOM     39  C   UNL     1       9.207  -0.934   8.719  1.00  0.00     0.031 C 
ATOM     40  C   UNL     1       4.504  -0.483  10.462  1.00  0.00     0.029 A 
ATOM     41  N   UNL     1       5.975  -1.578  11.739  1.00  0.00    -0.354 N 
ATOM     42  C   UNL     1      10.054  -2.158  10.457  1.00  0.00     0.074 A 
ATOM     43  C   UNL     1      10.270  -1.608   9.137  1.00  0.00     0.031 C 
ATOM     44  C   UNL     1       3.857  -0.879  11.570  1.00  0.00     0.029 A 
ATOM     45  C   UNL     1       4.785  -1.606  12.430  1.00  0.00     0.049 A 
ATOM     46  H   UNL     1       6.798  -2.007  12.068  1.00  0.00     0.167 HD
ATOM     47  C   UNL     1      11.007  -2.792  11.185  1.00  0.00     0.037 A 
ATOM     48  C   UNL     1       4.475  -2.148  13.624  1.00  0.00     0.037 A 
ATOM     49  C   UNL     1      10.791  -3.329  12.506  1.00  0.00     0.049 A 
ATOM     50  C   UNL     1       5.553  -2.833  14.419  1.00  0.00     0.074 A 
ATOM     51  C   UNL     1      11.705  -3.940  13.347  1.00  0.00     0.029 A 
ATOM     52  N   UNL     1       9.576  -3.326  13.177  1.00  0.00    -0.354 N 
ATOM     53  N   UNL     1       6.815  -3.019  14.112  1.00  0.00    -0.248 NA
ATOM     54  C   UNL     1       5.168  -3.367  15.732  1.00  0.00     0.031 C 
ATOM     55  C   UNL     1      11.033  -4.353  14.502  1.00  0.00     0.029 A 
ATOM     56  C   UNL     1       9.712  -3.944  14.410  1.00  0.00     0.049 A 
ATOM     57  H   UNL     1       8.739  -2.942  12.827  1.00  0.00     0.167 HD
ATOM     58  C   UNL     1       7.380  -3.667  15.206  1.00  0.00     0.074 A 
ATOM     59  C   UNL     1       6.327  -3.818  16.189  1.00  0.00     0.031 C 
ATOM     60  C   UNL     1       8.656  -4.096  15.380  1.00  0.00     0.037 A 
BRANCH  47  61
ATOM     61  C   UNL     1      12.377  -2.936  10.573  1.00  0.00     0.058 A 
ATOM     62  C   UNL     1      13.214  -1.827  10.366  1.00  0.00     0.135 A 
ATOM     63  C   UNL     1      12.878  -4.202  10.228  1.00  0.00     0.135 A 
ATOM     64  F   UNL     1      12.784  -0.590  10.664  1.00  0.00    -0.206 F 
ATOM     65  C   UNL     1      14.483  -1.963   9.812  1.00  0.00     0.059 A 
ATOM     66  C   UNL     1      14.156  -4.366   9.702  1.00  0.00     0.059 A 
ATOM     67  F   UNL     1      12.124  -5.298  10.404  1.00  0.00    -0.206 F 
ATOM     68  C   UNL     1      14.946  -3.238   9.483  1.00  0.00     0.060 A 
BRANCH  68  69
ATOM     69  S   UNL     1      16.597  -3.397   8.770  1.00  0.00     0.124 S 
ATOM     70  O   UNL     1      16.393  -2.838   7.437  1.00  0.00    -0.237 OA
ATOM     71  O   UNL     1      17.407  -2.591   9.678  1.00  0.00    -0.237 OA
ATOM     72  O   UNL     1      16.851  -4.833   8.815  1.00  0.00    -0.744 OA
ENDBRANCH  68  69
ENDBRANCH  47  61
BRANCH  48  73
ATOM     73  C   UNL     1       3.090  -2.033  14.155  1.00  0.00     0.058 A 
ATOM     74  C   UNL     1       2.805  -1.230  15.271  1.00  0.00     0.135 A 
ATOM     75  C   UNL     1       2.021  -2.717  13.555  1.00  0.00     0.135 A 
ATOM     76  F   UNL     1       3.792  -0.560  15.884  1.00  0.00    -0.206 F 
ATOM     77  C   UNL     1       1.516  -1.126  15.785  1.00  0.00     0.059 A 
ATOM     78  C   UNL     1       0.719  -2.604  14.032  1.00  0.00     0.059 A 
ATOM     79  F   UNL     1       2.236  -3.483  12.474  1.00  0.00    -0.206 F 
ATOM     80  C   UNL     1       0.479  -1.815  15.155  1.00  0.00     0.060 A 
BRANCH  80  81
ATOM     81  S   UNL     1      -1.198  -1.635  15.802  1.00  0.00     0.124 S 
ATOM     82  O   UNL     1      -1.120  -2.404  17.039  1.00  0.00    -0.237 OA
ATOM     83  O   UNL     1      -1.313  -0.188  15.954  1.00  0.00    -0.237 OA
ATOM     84  O   UNL     1      -2.027  -2.215  14.749  1.00  0.00    -0.744 OA
ENDBRANCH  80  81
ENDBRANCH  48  73
BRANCH  60  85
ATOM     85  C   UNL     1       8.988  -4.739  16.701  1.00  0.00     0.058 A 
ATOM     86  C   UNL     1       8.472  -5.993  17.070  1.00  0.00     0.135 A 
ATOM     87  C   UNL     1       9.836  -4.090  17.614  1.00  0.00     0.135 A 
ATOM     88  F   UNL     1       7.655  -6.658  16.237  1.00  0.00    -0.206 F 
ATOM     89  C   UNL     1       8.739  -6.553  18.315  1.00  0.00     0.059 A 
ATOM     90  C   UNL     1      10.147  -4.648  18.850  1.00  0.00     0.059 A 
ATOM     91  F   UNL     1      10.373  -2.898  17.309  1.00  0.00    -0.206 F 
ATOM     92  C   UNL     1       9.573  -5.869  19.201  1.00  0.00     0.060 A 
BRANCH  92  93
ATOM     93  S   UNL     1       9.898  -6.596  20.821  1.00  0.00     0.124 S 
ATOM     94  O   UNL     1       8.630  -6.365  21.506  1.00  0.00    -0.237 OA
ATOM     95  O   UNL     1      10.194  -7.985  20.487  1.00  0.00    -0.237 OA
ATOM     96  O   UNL     1      11.030  -5.822  21.320  1.00  0.00    -0.744 OA
ENDBRANCH  92  93
ENDBRANCH  60  85
ENDBRANCH  34  35
ENDBRANCH  26  29
ENDBRANCH  24  25
ENDBRANCH   1  24
TORSDOF 16
