REMARK SMILES Cc1ncnc(OCCC(=O)NCCCNC(=O)c2ccc(-c3c4nc(c(-c5c(F)cc(S(=O)(=O)[O-])cc5F)c5ccc([nH]5)c(-c5c(F)cc(S(=O)(=O)[O-])cc5F)c5nc(c(-c6c(F)cc(S(=O)(=O)[O-])cc6F)c6ccc3[nH]6)C=C5)C=C4)cc2)c1C
REMARK SMILES IDX 14 1 13 2 12 3 10 4 11 5 9 7 8 8 7 9 6 10 1 11 2 12 3 13
REMARK SMILES IDX 85 14 4 15 86 16 5 17 15 18 16 19 17 20 18 22 19 23 20 24
REMARK SMILES IDX 84 25 21 26 83 27 22 28 23 29 24 30 77 31 25 32 82 33 76 34
REMARK SMILES IDX 78 35 26 36 81 37 75 38 74 39 27 41 61 42 40 43 60 44 41 45
REMARK SMILES IDX 44 46 59 47 79 48 42 49 43 50 58 52 80 53 45 54 28 55 29 56
REMARK SMILES IDX 38 57 30 58 31 59 37 60 39 61 32 62 33 63 34 64 35 65 36 66
REMARK SMILES IDX 62 67 63 68 72 69 64 70 65 71 71 72 73 73 66 74 67 75 68 76
REMARK SMILES IDX 69 77 70 78 46 79 47 80 56 81 48 82 49 83 55 84 57 85 50 86
REMARK SMILES IDX 51 87 52 88 53 89 54 90
REMARK H PARENT 12 6 16 21 78 40 44 51
REMARK Flexibility Score: inf
ROOT
ATOM      1  C   UNL     1       1.107   2.653   3.696  1.00  0.00     0.042 C 
ENDROOT
BRANCH   1   2
ATOM      2  C   UNL     1       2.571   2.767   3.277  1.00  0.00     0.117 C 
BRANCH   2   3
ATOM      3  N   UNL     1       2.830   2.361   1.904  1.00  0.00    -0.356 N 
ATOM      4  C   UNL     1       2.957   3.095   0.766  1.00  0.00     0.223 C 
ATOM      5  O   UNL     1       3.365   2.514  -0.242  1.00  0.00    -0.275 OA
ATOM      6  H   UNL     1       2.930   1.390   1.777  1.00  0.00     0.163 HD
BRANCH   4   7
ATOM      7  C   UNL     1       2.657   4.579   0.747  1.00  0.00     0.141 C 
BRANCH   7   8
ATOM      8  C   UNL     1       1.426   5.012  -0.054  1.00  0.00     0.241 C 
BRANCH   8   9
ATOM      9  O   UNL     1       0.159   4.731   0.518  1.00  0.00    -0.477 OA
BRANCH   9  10
ATOM     10  C   UNL     1      -0.453   3.522   0.465  1.00  0.00     0.219 A 
ATOM     11  C   UNL     1      -0.144  -0.114  -0.289  1.00  0.00     0.067 C 
ATOM     12  C   UNL     1      -0.698   1.219   0.131  1.00  0.00     0.047 A 
ATOM     13  N   UNL     1      -1.707   1.168   1.023  1.00  0.00    -0.241 NA
ATOM     14  C   UNL     1      -0.134   2.418  -0.308  1.00  0.00     0.032 A 
ATOM     15  C   UNL     1      -2.101   2.337   1.530  1.00  0.00     0.226 A 
ATOM     16  C   UNL     1       0.576   2.468  -1.625  1.00  0.00     0.052 C 
ATOM     17  N   UNL     1      -1.464   3.494   1.357  1.00  0.00    -0.202 NA
ENDBRANCH   9  10
ENDBRANCH   8   9
ENDBRANCH   7   8
ENDBRANCH   4   7
ENDBRANCH   2   3
ENDBRANCH   1   2
BRANCH   1  18
ATOM     18  C   UNL     1       0.508   1.248   3.583  1.00  0.00     0.118 C 
BRANCH  18  19
ATOM     19  N   UNL     1       0.616   0.477   4.806  1.00  0.00    -0.352 N 
ATOM     20  C   UNL     1      -0.361   0.053   5.677  1.00  0.00     0.251 C 
ATOM     21  H   UNL     1       1.533   0.216   5.052  1.00  0.00     0.163 HD
ATOM     22  O   UNL     1      -0.003  -0.470   6.733  1.00  0.00    -0.269 OA
BRANCH  20  23
ATOM     23  C   UNL     1      -1.820   0.219   5.417  1.00  0.00     0.039 A 
ATOM     24  C   UNL     1      -2.620   0.639   6.486  1.00  0.00     0.014 A 
ATOM     25  C   UNL     1      -2.443  -0.151   4.220  1.00  0.00     0.014 A 
ATOM     26  C   UNL     1      -4.016   0.700   6.359  1.00  0.00     0.010 A 
ATOM     27  C   UNL     1      -3.843  -0.048   4.080  1.00  0.00     0.010 A 
ATOM     28  C   UNL     1      -4.653   0.365   5.152  1.00  0.00    -0.014 A 
BRANCH  28  29
ATOM     29  C   UNL     1      -6.149   0.432   5.052  1.00  0.00     0.031 A 
ATOM     30  C   UNL     1      -6.983  -0.817   4.875  1.00  0.00     0.074 A 
ATOM     31  C   UNL     1      -6.787   1.617   5.170  1.00  0.00     0.049 A 
ATOM     32  N   UNL     1      -8.289  -0.942   4.830  1.00  0.00    -0.248 NA
ATOM     33  C   UNL     1      -6.259  -2.088   4.730  1.00  0.00     0.031 C 
ATOM     34  C   UNL     1      -6.132   2.912   5.349  1.00  0.00     0.029 A 
ATOM     35  N   UNL     1      -8.130   1.924   5.176  1.00  0.00    -0.354 N 
ATOM     36  C   UNL     1      -8.543  -2.300   4.662  1.00  0.00     0.074 A 
ATOM     37  C   UNL     1      -7.253  -2.950   4.559  1.00  0.00     0.031 C 
ATOM     38  C   UNL     1      -7.068   3.865   5.486  1.00  0.00     0.029 A 
ATOM     39  C   UNL     1      -8.395   3.262   5.363  1.00  0.00     0.049 A 
ATOM     40  H   UNL     1      -8.836   1.248   5.058  1.00  0.00     0.167 HD
ATOM     41  C   UNL     1      -9.732  -2.953   4.622  1.00  0.00     0.037 A 
ATOM     42  C   UNL     1      -9.562   3.938   5.430  1.00  0.00     0.037 A 
ATOM     43  C   UNL     1     -11.026  -2.321   4.727  1.00  0.00     0.049 A 
ATOM     44  C   UNL     1     -10.871   3.201   5.312  1.00  0.00     0.074 A 
ATOM     45  C   UNL     1     -12.276  -2.920   4.719  1.00  0.00     0.029 A 
ATOM     46  N   UNL     1     -11.243  -0.958   4.854  1.00  0.00    -0.354 N 
ATOM     47  N   UNL     1     -11.085   1.914   5.189  1.00  0.00    -0.248 NA
ATOM     48  C   UNL     1     -12.100   4.011   5.341  1.00  0.00     0.031 C 
ATOM     49  C   UNL     1     -13.248  -1.917   4.785  1.00  0.00     0.029 A 
ATOM     50  C   UNL     1     -12.606  -0.696   4.895  1.00  0.00     0.049 A 
ATOM     51  H   UNL     1     -10.536  -0.276   4.908  1.00  0.00     0.167 HD
ATOM     52  C   UNL     1     -12.468   1.758   5.150  1.00  0.00     0.074 A 
ATOM     53  C   UNL     1     -13.043   3.080   5.277  1.00  0.00     0.031 C 
ATOM     54  C   UNL     1     -13.190   0.618   5.021  1.00  0.00     0.037 A 
BRANCH  41  55
ATOM     55  C   UNL     1      -9.703  -4.452   4.460  1.00  0.00     0.058 A 
ATOM     56  C   UNL     1      -9.270  -5.294   5.497  1.00  0.00     0.135 A 
ATOM     57  C   UNL     1     -10.177  -5.058   3.283  1.00  0.00     0.135 A 
ATOM     58  F   UNL     1      -8.804  -4.771   6.642  1.00  0.00    -0.206 F 
ATOM     59  C   UNL     1      -9.278  -6.679   5.362  1.00  0.00     0.059 A 
ATOM     60  C   UNL     1     -10.222  -6.442   3.138  1.00  0.00     0.059 A 
ATOM     61  F   UNL     1     -10.614  -4.303   2.263  1.00  0.00    -0.206 F 
ATOM     62  C   UNL     1      -9.756  -7.244   4.178  1.00  0.00     0.060 A 
BRANCH  62  63
ATOM     63  S   UNL     1      -9.755  -9.043   4.025  1.00  0.00     0.124 S 
ATOM     64  O   UNL     1      -8.325  -9.329   3.958  1.00  0.00    -0.237 OA
ATOM     65  O   UNL     1     -10.428  -9.461   5.249  1.00  0.00    -0.237 OA
ATOM     66  O   UNL     1     -10.498  -9.281   2.790  1.00  0.00    -0.744 OA
ENDBRANCH  62  63
ENDBRANCH  41  55
BRANCH  42  67
ATOM     67  C   UNL     1      -9.548   5.413   5.639  1.00  0.00     0.058 A 
ATOM     68  C   UNL     1      -9.994   5.978   6.844  1.00  0.00     0.135 A 
ATOM     69  C   UNL     1      -9.077   6.286   4.645  1.00  0.00     0.135 A 
ATOM     70  F   UNL     1     -10.473   5.188   7.817  1.00  0.00    -0.206 F 
ATOM     71  C   UNL     1      -9.972   7.352   7.058  1.00  0.00     0.059 A 
ATOM     72  C   UNL     1      -9.019   7.662   4.846  1.00  0.00     0.059 A 
ATOM     73  F   UNL     1      -8.637   5.798   3.475  1.00  0.00    -0.206 F 
ATOM     74  C   UNL     1      -9.472   8.186   6.056  1.00  0.00     0.060 A 
BRANCH  74  75
ATOM     75  S   UNL     1      -9.382   9.961   6.374  1.00  0.00     0.124 S 
ATOM     76  O   UNL     1     -10.795  10.328   6.406  1.00  0.00    -0.237 OA
ATOM     77  O   UNL     1      -8.684  10.004   7.656  1.00  0.00    -0.237 OA
ATOM     78  O   UNL     1      -8.624  10.471   5.238  1.00  0.00    -0.744 OA
ENDBRANCH  74  75
ENDBRANCH  42  67
BRANCH  54  79
ATOM     79  C   UNL     1     -14.694   0.724   5.023  1.00  0.00     0.058 A 
ATOM     80  C   UNL     1     -15.398   1.267   3.936  1.00  0.00     0.135 A 
ATOM     81  C   UNL     1     -15.448   0.207   6.091  1.00  0.00     0.135 A 
ATOM     82  F   UNL     1     -14.732   1.782   2.890  1.00  0.00    -0.206 F 
ATOM     83  C   UNL     1     -16.790   1.306   3.912  1.00  0.00     0.059 A 
ATOM     84  C   UNL     1     -16.841   0.210   6.076  1.00  0.00     0.059 A 
ATOM     85  F   UNL     1     -14.831  -0.333   7.154  1.00  0.00    -0.206 F 
ATOM     86  C   UNL     1     -17.504   0.768   4.984  1.00  0.00     0.060 A 
BRANCH  86  87
ATOM     87  S   UNL     1     -19.309   0.783   4.915  1.00  0.00     0.124 S 
ATOM     88  O   UNL     1     -19.599   2.207   5.046  1.00  0.00    -0.237 OA
ATOM     89  O   UNL     1     -19.573   0.201   3.602  1.00  0.00    -0.237 OA
ATOM     90  O   UNL     1     -19.703  -0.043   6.052  1.00  0.00    -0.744 OA
ENDBRANCH  86  87
ENDBRANCH  54  79
ENDBRANCH  28  29
ENDBRANCH  20  23
ENDBRANCH  18  19
ENDBRANCH   1  18
TORSDOF 16
