REMARK SMILES C[C@@H](C(=O)NCCCNC(=O)c1ccc(-c2c3nc(c(-c4c(F)cc(S(=O)(=O)[O-])cc4F)c4ccc([nH]4)c(-c4c(F)cc(S(=O)(=O)[O-])cc4F)c4nc(c(-c5c(F)cc(S(=O)(=O)[O-])cc5F)c5ccc2[nH]5)C=C4)C=C3)cc1)c1cc(C(=O)c2ccccc2)ccc1O
REMARK SMILES IDX 7 1 6 2 5 3 3 4 4 5 2 7 1 8 78 9 79 10 91 11 80 12 90 13
REMARK SMILES IDX 89 14 92 15 81 17 82 18 83 19 84 20 88 21 85 22 87 23 86 24
REMARK SMILES IDX 8 25 9 26 10 27 11 29 12 30 13 31 77 32 14 33 76 34 15 35
REMARK SMILES IDX 16 36 17 37 70 38 18 39 75 40 69 41 71 42 19 43 74 44 68 45
REMARK SMILES IDX 67 46 20 48 54 49 33 50 53 51 34 52 37 53 52 54 72 55 35 56
REMARK SMILES IDX 36 57 51 59 73 60 38 61 21 62 22 63 31 64 23 65 24 66 30 67
REMARK SMILES IDX 32 68 25 69 26 70 27 71 28 72 29 73 55 74 56 75 65 76 57 77
REMARK SMILES IDX 58 78 64 79 66 80 59 81 60 82 61 83 62 84 63 85 39 86 40 87
REMARK SMILES IDX 49 88 41 89 42 90 48 91 50 92 43 93 44 94 45 95 46 96 47 97
REMARK H PARENT 5 6 92 16 9 28 71 47 37 58
REMARK Flexibility Score: inf
ROOT
ATOM      1  C   UNL     1       4.334  -1.105   0.681  1.00  0.00     0.042 C 
ENDROOT
BRANCH   1   2
ATOM      2  C   UNL     1       3.419  -2.094  -0.036  1.00  0.00     0.117 C 
BRANCH   2   3
ATOM      3  N   UNL     1       2.373  -2.587   0.838  1.00  0.00    -0.356 N 
ATOM      4  C   UNL     1       1.043  -2.304   0.882  1.00  0.00     0.227 C 
ATOM      5  O   UNL     1       0.380  -2.938   1.710  1.00  0.00    -0.274 OA
ATOM      6  H   UNL     1       2.676  -3.236   1.514  1.00  0.00     0.163 HD
BRANCH   4   7
ATOM      7  C   UNL     1       0.393  -1.344  -0.133  1.00  0.00     0.109 C 
ATOM      8  C   UNL     1       0.920   0.086   0.049  1.00  0.00     0.023 C 
BRANCH   7   9
ATOM      9  C   UNL     1      -1.142  -1.435  -0.107  1.00  0.00     0.007 A 
ATOM     10  C   UNL     1      -1.955  -0.305   0.095  1.00  0.00     0.020 A 
ATOM     11  C   UNL     1      -1.802  -2.656  -0.323  1.00  0.00     0.119 A 
ATOM     12  C   UNL     1      -3.356  -0.391   0.073  1.00  0.00     0.023 A 
ATOM     13  C   UNL     1      -3.191  -2.754  -0.372  1.00  0.00     0.047 A 
ATOM     14  C   UNL     1      -3.974  -1.618  -0.177  1.00  0.00     0.016 A 
BRANCH  11  15
ATOM     15  O   UNL     1      -1.106  -3.825  -0.447  1.00  0.00    -0.508 OA
ATOM     16  H   UNL     1      -0.169  -3.818  -0.421  1.00  0.00     0.293 HD
ENDBRANCH  11  15
BRANCH  12  17
ATOM     17  C   UNL     1      -4.130   0.865   0.256  1.00  0.00     0.193 C 
ATOM     18  O   UNL     1      -3.625   1.941  -0.054  1.00  0.00    -0.289 OA
BRANCH  17  19
ATOM     19  C   UNL     1      -5.513   0.854   0.777  1.00  0.00     0.022 A 
ATOM     20  C   UNL     1      -6.457   1.680   0.157  1.00  0.00     0.012 A 
ATOM     21  C   UNL     1      -5.875   0.076   1.882  1.00  0.00     0.012 A 
ATOM     22  C   UNL     1      -7.773   1.697   0.616  1.00  0.00     0.001 A 
ATOM     23  C   UNL     1      -7.193   0.100   2.340  1.00  0.00     0.001 A 
ATOM     24  C   UNL     1      -8.141   0.904   1.703  1.00  0.00     0.000 A 
ENDBRANCH  17  19
ENDBRANCH  12  17
ENDBRANCH   7   9
ENDBRANCH   4   7
ENDBRANCH   2   3
ENDBRANCH   1   2
BRANCH   1  25
ATOM     25  C   UNL     1       5.081  -1.693   1.873  1.00  0.00     0.118 C 
BRANCH  25  26
ATOM     26  N   UNL     1       6.019  -2.731   1.485  1.00  0.00    -0.352 N 
ATOM     27  C   UNL     1       7.359  -2.847   1.752  1.00  0.00     0.251 C 
ATOM     28  H   UNL     1       5.635  -3.462   0.949  1.00  0.00     0.163 HD
ATOM     29  O   UNL     1       8.010  -3.709   1.163  1.00  0.00    -0.269 OA
BRANCH  27  30
ATOM     30  C   UNL     1       8.025  -1.951   2.724  1.00  0.00     0.039 A 
ATOM     31  C   UNL     1       9.325  -1.517   2.450  1.00  0.00     0.014 A 
ATOM     32  C   UNL     1       7.410  -1.585   3.926  1.00  0.00     0.014 A 
ATOM     33  C   UNL     1       9.997  -0.704   3.365  1.00  0.00     0.010 A 
ATOM     34  C   UNL     1       8.051  -0.710   4.802  1.00  0.00     0.010 A 
ATOM     35  C   UNL     1       9.362  -0.285   4.545  1.00  0.00    -0.014 A 
BRANCH  35  36
ATOM     36  C   UNL     1      10.082   0.546   5.544  1.00  0.00     0.031 A 
ATOM     37  C   UNL     1      10.385  -0.013   6.909  1.00  0.00     0.074 A 
ATOM     38  C   UNL     1      10.437   1.809   5.238  1.00  0.00     0.049 A 
ATOM     39  N   UNL     1      10.978   0.559   7.926  1.00  0.00    -0.248 NA
ATOM     40  C   UNL     1       9.936  -1.389   7.177  1.00  0.00     0.031 C 
ATOM     41  C   UNL     1      10.151   2.484   3.970  1.00  0.00     0.029 A 
ATOM     42  N   UNL     1      11.109   2.752   5.972  1.00  0.00    -0.354 N 
ATOM     43  C   UNL     1      10.963  -0.378   8.952  1.00  0.00     0.074 A 
ATOM     44  C   UNL     1      10.246  -1.533   8.457  1.00  0.00     0.031 C 
ATOM     45  C   UNL     1      10.661   3.726   4.009  1.00  0.00     0.029 A 
ATOM     46  C   UNL     1      11.289   3.943   5.309  1.00  0.00     0.049 A 
ATOM     47  H   UNL     1      11.433   2.591   6.888  1.00  0.00     0.167 HD
ATOM     48  C   UNL     1      11.521  -0.300  10.184  1.00  0.00     0.037 A 
ATOM     49  C   UNL     1      11.896   5.079   5.703  1.00  0.00     0.037 A 
ATOM     50  C   UNL     1      12.255   0.841  10.664  1.00  0.00     0.049 A 
ATOM     51  C   UNL     1      12.546   5.131   7.059  1.00  0.00     0.074 A 
ATOM     52  C   UNL     1      12.886   1.012  11.884  1.00  0.00     0.029 A 
ATOM     53  N   UNL     1      12.463   2.007   9.941  1.00  0.00    -0.354 N 
ATOM     54  N   UNL     1      12.564   4.216   7.999  1.00  0.00    -0.248 NA
ATOM     55  C   UNL     1      13.276   6.359   7.399  1.00  0.00     0.031 C 
ATOM     56  C   UNL     1      13.456   2.291  11.907  1.00  0.00     0.029 A 
ATOM     57  C   UNL     1      13.213   2.901  10.686  1.00  0.00     0.049 A 
ATOM     58  H   UNL     1      12.126   2.174   9.031  1.00  0.00     0.167 HD
ATOM     59  C   UNL     1      13.329   4.747   9.031  1.00  0.00     0.074 A 
ATOM     60  C   UNL     1      13.765   6.059   8.594  1.00  0.00     0.031 C 
ATOM     61  C   UNL     1      13.646   4.199  10.231  1.00  0.00     0.037 A 
BRANCH  48  62
ATOM     62  C   UNL     1      11.361  -1.492  11.089  1.00  0.00     0.058 A 
ATOM     63  C   UNL     1      12.020  -2.705  10.828  1.00  0.00     0.135 A 
ATOM     64  C   UNL     1      10.542  -1.426  12.227  1.00  0.00     0.135 A 
ATOM     65  F   UNL     1      12.803  -2.829   9.744  1.00  0.00    -0.206 F 
ATOM     66  C   UNL     1      11.838  -3.822  11.636  1.00  0.00     0.059 A 
ATOM     67  C   UNL     1      10.368  -2.524  13.067  1.00  0.00     0.059 A 
ATOM     68  F   UNL     1       9.890  -0.292  12.527  1.00  0.00    -0.206 F 
ATOM     69  C   UNL     1      11.004  -3.724  12.750  1.00  0.00     0.060 A 
BRANCH  69  70
ATOM     70  S   UNL     1      10.758  -5.188  13.777  1.00  0.00     0.124 S 
ATOM     71  O   UNL     1       9.851  -5.975  12.947  1.00  0.00    -0.237 OA
ATOM     72  O   UNL     1      12.114  -5.713  13.906  1.00  0.00    -0.237 OA
ATOM     73  O   UNL     1      10.179  -4.649  15.004  1.00  0.00    -0.744 OA
ENDBRANCH  69  70
ENDBRANCH  48  62
BRANCH  49  74
ATOM     74  C   UNL     1      11.953   6.241   4.778  1.00  0.00     0.058 A 
ATOM     75  C   UNL     1      13.148   6.599   4.138  1.00  0.00     0.135 A 
ATOM     76  C   UNL     1      10.804   6.993   4.488  1.00  0.00     0.135 A 
ATOM     77  F   UNL     1      14.273   5.911   4.386  1.00  0.00    -0.206 F 
ATOM     78  C   UNL     1      13.208   7.668   3.251  1.00  0.00     0.059 A 
ATOM     79  C   UNL     1      10.833   8.053   3.587  1.00  0.00     0.059 A 
ATOM     80  F   UNL     1       9.632   6.678   5.060  1.00  0.00    -0.206 F 
ATOM     81  C   UNL     1      12.043   8.388   2.979  1.00  0.00     0.060 A 
BRANCH  81  82
ATOM     82  S   UNL     1      12.115   9.732   1.775  1.00  0.00     0.124 S 
ATOM     83  O   UNL     1      12.790  10.775   2.539  1.00  0.00    -0.237 OA
ATOM     84  O   UNL     1      12.887   9.133   0.691  1.00  0.00    -0.237 OA
ATOM     85  O   UNL     1      10.710   9.982   1.468  1.00  0.00    -0.744 OA
ENDBRANCH  81  82
ENDBRANCH  49  74
BRANCH  61  86
ATOM     86  C   UNL     1      14.539   4.997  11.139  1.00  0.00     0.058 A 
ATOM     87  C   UNL     1      14.075   6.133  11.821  1.00  0.00     0.135 A 
ATOM     88  C   UNL     1      15.868   4.598  11.354  1.00  0.00     0.135 A 
ATOM     89  F   UNL     1      12.814   6.558  11.648  1.00  0.00    -0.206 F 
ATOM     90  C   UNL     1      14.909   6.865  12.660  1.00  0.00     0.059 A 
ATOM     91  C   UNL     1      16.711   5.301  12.208  1.00  0.00     0.059 A 
ATOM     92  F   UNL     1      16.356   3.512  10.735  1.00  0.00    -0.206 F 
ATOM     93  C   UNL     1      16.227   6.443  12.844  1.00  0.00     0.060 A 
BRANCH  93  94
ATOM     94  S   UNL     1      17.298   7.393  13.945  1.00  0.00     0.124 S 
ATOM     95  O   UNL     1      17.627   8.544  13.112  1.00  0.00    -0.237 OA
ATOM     96  O   UNL     1      16.422   7.662  15.081  1.00  0.00    -0.237 OA
ATOM     97  O   UNL     1      18.401   6.476  14.217  1.00  0.00    -0.744 OA
ENDBRANCH  93  94
ENDBRANCH  61  86
ENDBRANCH  35  36
ENDBRANCH  27  30
ENDBRANCH  25  26
ENDBRANCH   1  25
TORSDOF 17
