REMARK SMILES CCn1c(CC2CC[NH+](Cc3cn[nH]c3C(=O)NCCCNC(=O)c3ccc(-c4c5nc(c(-c6c(F)cc(S(=O)(=O)[O-])cc6F)c6ccc([nH]6)c(-c6c(F)cc(S(=O)(=O)[O-])cc6F)c6nc(c(-c7c(F)cc(S(=O)(=O)[O-])cc7F)c7ccc4[nH]7)C=C6)C=C5)cc3)CC2)nn(C)c1=O
REMARK SMILES IDX 19 1 18 2 16 3 17 4 15 6 11 7 12 8 13 9 14 10 10 12 9 13
REMARK SMILES IDX 6 14 7 15 92 16 8 17 91 18 5 20 4 21 3 22 96 23 93 24 94 25
REMARK SMILES IDX 97 26 95 27 2 28 1 29 20 30 21 31 22 32 23 33 24 35 25 36
REMARK SMILES IDX 26 37 90 38 27 39 89 40 28 41 29 42 30 43 83 44 31 45 88 46
REMARK SMILES IDX 82 47 84 48 32 49 87 50 81 51 80 52 33 54 67 55 46 56 66 57
REMARK SMILES IDX 47 58 50 59 65 60 85 61 48 62 49 63 64 65 86 66 51 67 34 68
REMARK SMILES IDX 35 69 44 70 36 71 37 72 43 73 45 74 38 75 39 76 40 77 41 78
REMARK SMILES IDX 42 79 68 80 69 81 78 82 70 83 71 84 77 85 79 86 72 87 73 88
REMARK SMILES IDX 74 89 75 90 76 91 52 92 53 93 62 94 54 95 55 96 61 97 63 98
REMARK SMILES IDX 56 99 57 100 58 101 59 102 60 103
REMARK H PARENT 18 5 14 11 9 19 22 34 84 53 50 64
REMARK Flexibility Score: inf
ROOT
ATOM      1  C   UNL     1       5.758   3.505  -0.870  1.00  0.00     0.118 C 
ENDROOT
BRANCH   1   2
ATOM      2  N   UNL     1       5.186   2.256  -1.272  1.00  0.00    -0.351 N 
ATOM      3  C   UNL     1       4.017   2.032  -1.928  1.00  0.00     0.269 C 
ATOM      4  O   UNL     1       3.853   0.895  -2.369  1.00  0.00    -0.268 OA
ATOM      5  H   UNL     1       5.708   1.453  -1.043  1.00  0.00     0.163 HD
BRANCH   3   6
ATOM      6  C   UNL     1       3.047   3.079  -2.201  1.00  0.00     0.131 A 
ATOM      7  C   UNL     1       2.654   4.784  -1.738  1.00  0.00     0.057 A 
ATOM      8  C   UNL     1       1.078   5.289  -2.819  1.00  0.00     0.145 A 
ATOM      9  N   UNL     1       0.521   3.933  -3.728  1.00  0.00    -0.183 NA
ATOM     10  N   UNL     1       1.754   2.561  -3.465  1.00  0.00    -0.272 N 
ATOM     11  H   UNL     1       1.732   1.689  -3.922  1.00  0.00     0.190 HD
BRANCH   7  12
ATOM     12  C   UNL     1       3.266   5.822  -0.818  1.00  0.00     0.303 C 
BRANCH  12  13
ATOM     13  N   UNL     1       2.611   6.027   0.491  1.00  0.00    -0.331 N 
ATOM     14  C   UNL     1       0.180   5.402   2.081  1.00  0.00     0.008 C 
ATOM     15  C   UNL     1       0.440   6.811   1.527  1.00  0.00     0.065 C 
ATOM     16  C   UNL     1       1.531   4.862   2.511  1.00  0.00     0.065 C 
ATOM     17  C   UNL     1       1.424   6.865   0.368  1.00  0.00     0.262 C 
ATOM     18  C   UNL     1       2.546   4.859   1.369  1.00  0.00     0.262 C 
ATOM     19  H   UNL     1       3.250   6.583   1.060  1.00  0.00     0.348 HD
BRANCH  14  20
ATOM     20  C   UNL     1      -0.654   4.404   1.227  1.00  0.00     0.081 C 
BRANCH  20  21
ATOM     21  C   UNL     1       0.012   3.740   0.032  1.00  0.00     0.133 A 
ATOM     22  N   UNL     1       0.256   2.431  -0.101  1.00  0.00    -0.279 N 
ATOM     23  C   UNL     1       0.791   2.190  -1.359  1.00  0.00     0.345 A 
ATOM     24  N   UNL     1       0.405   4.474  -0.948  1.00  0.00    -0.155 NA
ATOM     25  N   UNL     1       1.191   3.554  -1.988  1.00  0.00    -0.216 N 
ATOM     26  O   UNL     1       0.947   1.081  -1.863  1.00  0.00    -0.246 OA
ATOM     27  C   UNL     1       2.434   4.273  -3.615  1.00  0.00     0.179 C 
BRANCH  22  28
ATOM     28  C   UNL     1      -0.011   1.377   0.880  1.00  0.00     0.125 C 
ATOM     29  C   UNL     1       0.514  -0.025   0.573  1.00  0.00     0.028 C 
ENDBRANCH  22  28
ENDBRANCH  20  21
ENDBRANCH  14  20
ENDBRANCH  12  13
ENDBRANCH   7  12
ENDBRANCH   3   6
ENDBRANCH   1   2
BRANCH   1  30
ATOM     30  C   UNL     1       5.398   3.801   0.574  1.00  0.00     0.042 C 
BRANCH  30  31
ATOM     31  C   UNL     1       6.442   3.329   1.534  1.00  0.00     0.118 C 
BRANCH  31  32
ATOM     32  N   UNL     1       7.670   4.126   1.427  1.00  0.00    -0.352 N 
ATOM     33  C   UNL     1       8.756   4.106   2.286  1.00  0.00     0.251 C 
ATOM     34  H   UNL     1       7.728   4.741   0.661  1.00  0.00     0.163 HD
ATOM     35  O   UNL     1       9.564   5.023   2.316  1.00  0.00    -0.269 OA
BRANCH  33  36
ATOM     36  C   UNL     1       8.917   2.899   3.111  1.00  0.00     0.039 A 
ATOM     37  C   UNL     1       9.436   2.822   4.400  1.00  0.00     0.014 A 
ATOM     38  C   UNL     1       8.529   1.726   2.504  1.00  0.00     0.014 A 
ATOM     39  C   UNL     1       9.475   1.549   4.997  1.00  0.00     0.010 A 
ATOM     40  C   UNL     1       7.985   0.798   3.317  1.00  0.00     0.010 A 
ATOM     41  C   UNL     1       8.804   0.484   4.363  1.00  0.00    -0.014 A 
BRANCH  41  42
ATOM     42  C   UNL     1       8.461  -0.819   4.924  1.00  0.00     0.031 A 
ATOM     43  C   UNL     1       7.770  -0.613   6.233  1.00  0.00     0.074 A 
ATOM     44  C   UNL     1       8.555  -1.971   4.191  1.00  0.00     0.049 A 
ATOM     45  N   UNL     1       8.345  -0.651   7.391  1.00  0.00    -0.248 NA
ATOM     46  C   UNL     1       6.447   0.061   6.296  1.00  0.00     0.031 C 
ATOM     47  C   UNL     1       9.042  -2.175   2.810  1.00  0.00     0.029 A 
ATOM     48  N   UNL     1       8.207  -3.259   4.533  1.00  0.00    -0.354 N 
ATOM     49  C   UNL     1       7.324  -0.433   8.306  1.00  0.00     0.074 A 
ATOM     50  C   UNL     1       6.334   0.323   7.603  1.00  0.00     0.031 C 
ATOM     51  C   UNL     1       8.724  -3.421   2.365  1.00  0.00     0.029 A 
ATOM     52  C   UNL     1       8.130  -4.178   3.449  1.00  0.00     0.049 A 
ATOM     53  H   UNL     1       8.024  -3.525   5.463  1.00  0.00     0.167 HD
ATOM     54  C   UNL     1       7.205  -1.265   9.379  1.00  0.00     0.037 A 
ATOM     55  C   UNL     1       7.680  -5.479   3.501  1.00  0.00     0.037 A 
ATOM     56  C   UNL     1       8.428  -2.023   9.531  1.00  0.00     0.049 A 
ATOM     57  C   UNL     1       7.762  -5.872   4.939  1.00  0.00     0.074 A 
ATOM     58  C   UNL     1       9.756  -1.692   9.713  1.00  0.00     0.029 A 
ATOM     59  N   UNL     1       8.411  -3.284   8.985  1.00  0.00    -0.354 N 
ATOM     60  N   UNL     1       8.906  -5.955   5.571  1.00  0.00    -0.248 NA
ATOM     61  C   UNL     1       6.604  -5.521   5.753  1.00  0.00     0.031 C 
ATOM     62  C   UNL     1      10.479  -2.577   8.860  1.00  0.00     0.029 A 
ATOM     63  C   UNL     1       9.592  -3.515   8.332  1.00  0.00     0.049 A 
ATOM     64  H   UNL     1       7.664  -3.923   9.053  1.00  0.00     0.167 HD
ATOM     65  C   UNL     1       8.712  -5.204   6.722  1.00  0.00     0.074 A 
ATOM     66  C   UNL     1       7.263  -4.955   6.771  1.00  0.00     0.031 C 
ATOM     67  C   UNL     1       9.748  -4.546   7.328  1.00  0.00     0.037 A 
BRANCH  54  68
ATOM     68  C   UNL     1       5.891  -1.764   9.950  1.00  0.00     0.058 A 
ATOM     69  C   UNL     1       5.933  -2.554  11.119  1.00  0.00     0.135 A 
ATOM     70  C   UNL     1       4.647  -1.752   9.277  1.00  0.00     0.135 A 
ATOM     71  F   UNL     1       7.062  -2.645  11.839  1.00  0.00    -0.206 F 
ATOM     72  C   UNL     1       4.850  -3.322  11.546  1.00  0.00     0.059 A 
ATOM     73  C   UNL     1       3.541  -2.476   9.712  1.00  0.00     0.059 A 
ATOM     74  F   UNL     1       4.452  -1.105   8.124  1.00  0.00    -0.206 F 
ATOM     75  C   UNL     1       3.657  -3.278  10.833  1.00  0.00     0.060 A 
BRANCH  75  76
ATOM     76  S   UNL     1       2.264  -4.274  11.386  1.00  0.00     0.124 S 
ATOM     77  O   UNL     1       2.767  -5.627  11.184  1.00  0.00    -0.237 OA
ATOM     78  O   UNL     1       2.125  -3.841  12.773  1.00  0.00    -0.237 OA
ATOM     79  O   UNL     1       1.182  -3.861  10.497  1.00  0.00    -0.744 OA
ENDBRANCH  75  76
ENDBRANCH  54  68
BRANCH  55  80
ATOM     80  C   UNL     1       6.810  -6.246   2.532  1.00  0.00     0.058 A 
ATOM     81  C   UNL     1       6.504  -7.628   2.651  1.00  0.00     0.135 A 
ATOM     82  C   UNL     1       5.996  -5.540   1.630  1.00  0.00     0.135 A 
ATOM     83  F   UNL     1       7.202  -8.404   3.495  1.00  0.00    -0.206 F 
ATOM     84  C   UNL     1       5.436  -8.243   1.955  1.00  0.00     0.059 A 
ATOM     85  C   UNL     1       4.931  -6.124   0.936  1.00  0.00     0.059 A 
ATOM     86  F   UNL     1       6.153  -4.219   1.466  1.00  0.00    -0.206 F 
ATOM     87  C   UNL     1       4.634  -7.469   1.117  1.00  0.00     0.060 A 
BRANCH  87  88
ATOM     88  S   UNL     1       3.132  -8.159   0.355  1.00  0.00     0.124 S 
ATOM     89  O   UNL     1       3.679  -9.107  -0.610  1.00  0.00    -0.237 OA
ATOM     90  O   UNL     1       2.438  -8.743   1.498  1.00  0.00    -0.237 OA
ATOM     91  O   UNL     1       2.481  -6.987  -0.227  1.00  0.00    -0.744 OA
ENDBRANCH  87  88
ENDBRANCH  55  80
BRANCH  67  92
ATOM     92  C   UNL     1      11.161  -4.830   6.872  1.00  0.00     0.058 A 
ATOM     93  C   UNL     1      11.718  -4.475   5.627  1.00  0.00     0.135 A 
ATOM     94  C   UNL     1      12.040  -5.342   7.834  1.00  0.00     0.135 A 
ATOM     95  F   UNL     1      10.977  -3.871   4.688  1.00  0.00    -0.206 F 
ATOM     96  C   UNL     1      13.075  -4.673   5.340  1.00  0.00     0.059 A 
ATOM     97  C   UNL     1      13.396  -5.517   7.584  1.00  0.00     0.059 A 
ATOM     98  F   UNL     1      11.591  -5.624   9.067  1.00  0.00    -0.206 F 
ATOM     99  C   UNL     1      13.905  -5.204   6.328  1.00  0.00     0.060 A 
BRANCH  99 100
ATOM    100  S   UNL     1      15.660  -5.464   5.984  1.00  0.00     0.124 S 
ATOM    101  O   UNL     1      15.622  -6.535   4.995  1.00  0.00    -0.237 OA
ATOM    102  O   UNL     1      16.084  -4.157   5.490  1.00  0.00    -0.237 OA
ATOM    103  O   UNL     1      16.210  -5.838   7.285  1.00  0.00    -0.744 OA
ENDBRANCH  99 100
ENDBRANCH  67  92
ENDBRANCH  41  42
ENDBRANCH  33  36
ENDBRANCH  31  32
ENDBRANCH  30  31
ENDBRANCH   1  30
TORSDOF 18
