REMARK SMILES O=C(COc1ccc(-c2cc3cc(Br)ccc3oc2=O)cc1)NCCCNC(=O)c1ccc(-c2c3nc(c(-c4c(F)cc(S(=O)(=O)[O-])cc4F)c4ccc([nH]4)c(-c4c(F)cc(S(=O)(=O)[O-])cc4F)c4nc(c(-c5c(F)cc(S(=O)(=O)[O-])cc5F)c5ccc2[nH]5)C=C4)C=C3)cc1
REMARK SMILES IDX 25 1 24 2 23 3 1 4 2 5 3 7 4 8 5 9 6 10 22 11 7 12 21 13
REMARK SMILES IDX 8 14 9 15 10 16 19 17 11 18 18 19 20 20 12 21 17 22 13 23
REMARK SMILES IDX 16 24 14 25 15 26 26 27 27 28 28 29 29 31 30 32 31 33 95 34
REMARK SMILES IDX 32 35 94 36 33 37 34 38 35 39 88 40 36 41 93 42 87 43 89 44
REMARK SMILES IDX 37 45 92 46 86 47 85 48 38 50 72 51 51 52 71 53 52 54 55 55
REMARK SMILES IDX 70 56 90 57 53 58 54 59 69 61 91 62 56 63 39 64 40 65 49 66
REMARK SMILES IDX 41 67 42 68 48 69 50 70 43 71 44 72 45 73 46 74 47 75 73 76
REMARK SMILES IDX 74 77 83 78 75 79 76 80 82 81 84 82 77 83 78 84 79 85 80 86
REMARK SMILES IDX 81 87 57 88 58 89 67 90 59 91 60 92 66 93 68 94 61 95 62 96
REMARK SMILES IDX 63 97 64 98 65 99
REMARK H PARENT 23 6 27 30 89 49 55 60
REMARK Flexibility Score: inf
ROOT
ATOM      1  C   UNL     1       2.521   1.973   2.901  1.00  0.00     0.042 C 
ENDROOT
BRANCH   1   2
ATOM      2  C   UNL     1       2.263   1.986   1.401  1.00  0.00     0.117 C 
BRANCH   2   3
ATOM      3  N   UNL     1       2.957   0.943   0.674  1.00  0.00    -0.353 N 
ATOM      4  O   UNL     1       1.341  -0.659   0.979  1.00  0.00    -0.271 OA
ATOM      5  C   UNL     1       2.380  -0.287   0.439  1.00  0.00     0.257 C 
ATOM      6  H   UNL     1       3.865   1.117   0.338  1.00  0.00     0.163 HD
BRANCH   5   7
ATOM      7  C   UNL     1       3.108  -1.153  -0.599  1.00  0.00     0.329 C 
BRANCH   7   8
ATOM      8  O   UNL     1       3.801  -0.491  -1.651  1.00  0.00    -0.484 OA
BRANCH   8   9
ATOM      9  C   UNL     1       3.046   0.075  -2.642  1.00  0.00     0.120 A 
ATOM     10  C   UNL     1       3.665   0.190  -3.887  1.00  0.00     0.047 A 
ATOM     11  C   UNL     1       1.779   0.621  -2.472  1.00  0.00     0.047 A 
ATOM     12  C   UNL     1       3.062   0.918  -4.921  1.00  0.00     0.013 A 
ATOM     13  C   UNL     1       1.172   1.339  -3.505  1.00  0.00     0.013 A 
ATOM     14  C   UNL     1       1.831   1.560  -4.720  1.00  0.00    -0.011 A 
BRANCH  14  15
ATOM     15  C   UNL     1       1.385   2.577  -5.723  1.00  0.00     0.068 A 
ATOM     16  C   UNL     1       0.127   3.074  -5.816  1.00  0.00     0.028 A 
ATOM     17  C   UNL     1       2.323   3.759  -5.800  1.00  0.00     0.344 A 
ATOM     18  C   UNL     1      -0.200   3.943  -4.662  1.00  0.00     0.019 A 
ATOM     19  O   UNL     1       2.113   4.686  -4.764  1.00  0.00    -0.422 OA
ATOM     20  O   UNL     1       3.215   3.851  -6.627  1.00  0.00    -0.246 OA
ATOM     21  C   UNL     1      -1.452   3.957  -4.056  1.00  0.00     0.027 A 
ATOM     22  C   UNL     1       0.865   4.663  -4.098  1.00  0.00     0.138 A 
ATOM     23  C   UNL     1      -1.597   4.630  -2.841  1.00  0.00     0.018 A 
ATOM     24  C   UNL     1       0.728   5.323  -2.885  1.00  0.00     0.049 A 
ATOM     25  Br  UNL     1      -3.273   4.607  -1.965  1.00  0.00    -0.051 Br
ATOM     26  C   UNL     1      -0.513   5.288  -2.244  1.00  0.00     0.019 A 
ENDBRANCH  14  15
ENDBRANCH   8   9
ENDBRANCH   7   8
ENDBRANCH   5   7
ENDBRANCH   2   3
ENDBRANCH   1   2
BRANCH   1  27
ATOM     27  C   UNL     1       3.978   2.194   3.292  1.00  0.00     0.118 C 
BRANCH  27  28
ATOM     28  N   UNL     1       4.495   3.491   2.881  1.00  0.00    -0.352 N 
ATOM     29  C   UNL     1       5.188   4.441   3.596  1.00  0.00     0.251 C 
ATOM     30  H   UNL     1       4.321   3.727   1.941  1.00  0.00     0.163 HD
ATOM     31  O   UNL     1       5.419   5.526   3.074  1.00  0.00    -0.269 OA
BRANCH  29  32
ATOM     32  C   UNL     1       5.628   4.178   4.987  1.00  0.00     0.039 A 
ATOM     33  C   UNL     1       5.534   5.213   5.923  1.00  0.00     0.014 A 
ATOM     34  C   UNL     1       6.151   2.942   5.375  1.00  0.00     0.014 A 
ATOM     35  C   UNL     1       5.901   4.989   7.253  1.00  0.00     0.010 A 
ATOM     36  C   UNL     1       6.441   2.695   6.716  1.00  0.00     0.010 A 
ATOM     37  C   UNL     1       6.323   3.716   7.671  1.00  0.00    -0.014 A 
BRANCH  37  38
ATOM     38  C   UNL     1       6.635   3.443   9.099  1.00  0.00     0.031 A 
ATOM     39  C   UNL     1       8.027   3.045   9.517  1.00  0.00     0.074 A 
ATOM     40  C   UNL     1       5.651   3.507  10.019  1.00  0.00     0.049 A 
ATOM     41  N   UNL     1       8.476   2.741  10.708  1.00  0.00    -0.248 NA
ATOM     42  C   UNL     1       9.040   2.950   8.454  1.00  0.00     0.031 C 
ATOM     43  C   UNL     1       4.249   3.826   9.736  1.00  0.00     0.029 A 
ATOM     44  N   UNL     1       5.675   3.304  11.376  1.00  0.00    -0.354 N 
ATOM     45  C   UNL     1       9.816   2.411  10.537  1.00  0.00     0.074 A 
ATOM     46  C   UNL     1      10.092   2.497   9.119  1.00  0.00     0.031 C 
ATOM     47  C   UNL     1       3.556   3.824  10.886  1.00  0.00     0.029 A 
ATOM     48  C   UNL     1       4.451   3.471  11.982  1.00  0.00     0.049 A 
ATOM     49  H   UNL     1       6.491   3.061  11.870  1.00  0.00     0.167 HD
ATOM     50  C   UNL     1      10.739   2.091  11.476  1.00  0.00     0.037 A 
ATOM     51  C   UNL     1       4.089   3.351  13.275  1.00  0.00     0.037 A 
ATOM     52  C   UNL     1      10.465   2.029  12.889  1.00  0.00     0.049 A 
ATOM     53  C   UNL     1       5.133   3.003  14.301  1.00  0.00     0.074 A 
ATOM     54  C   UNL     1      11.346   1.771  13.926  1.00  0.00     0.029 A 
ATOM     55  N   UNL     1       9.218   2.225  13.466  1.00  0.00    -0.354 N 
ATOM     56  N   UNL     1       6.411   2.762  14.128  1.00  0.00    -0.248 NA
ATOM     57  C   UNL     1       4.689   2.919  15.699  1.00  0.00     0.031 C 
ATOM     58  C   UNL     1      10.623   1.768  15.124  1.00  0.00     0.029 A 
ATOM     59  C   UNL     1       9.303   2.075  14.841  1.00  0.00     0.049 A 
ATOM     60  H   UNL     1       8.395   2.440  12.971  1.00  0.00     0.167 HD
ATOM     61  C   UNL     1       6.928   2.526  15.397  1.00  0.00     0.074 A 
ATOM     62  C   UNL     1       5.828   2.667  16.329  1.00  0.00     0.031 C 
ATOM     63  C   UNL     1       8.200   2.222  15.758  1.00  0.00     0.037 A 
BRANCH  50  64
ATOM     64  C   UNL     1      12.137   1.789  11.008  1.00  0.00     0.058 A 
ATOM     65  C   UNL     1      12.975   2.792  10.494  1.00  0.00     0.135 A 
ATOM     66  C   UNL     1      12.660   0.489  11.107  1.00  0.00     0.135 A 
ATOM     67  F   UNL     1      12.523   4.049  10.363  1.00  0.00    -0.206 F 
ATOM     68  C   UNL     1      14.269   2.513  10.068  1.00  0.00     0.059 A 
ATOM     69  C   UNL     1      13.963   0.193  10.714  1.00  0.00     0.059 A 
ATOM     70  F   UNL     1      11.905  -0.509  11.592  1.00  0.00    -0.206 F 
ATOM     71  C   UNL     1      14.754   1.209  10.181  1.00  0.00     0.060 A 
BRANCH  71  72
ATOM     72  S   UNL     1      16.438   0.865   9.627  1.00  0.00     0.124 S 
ATOM     73  O   UNL     1      16.284   0.930   8.176  1.00  0.00    -0.237 OA
ATOM     74  O   UNL     1      17.195   1.954  10.233  1.00  0.00    -0.237 OA
ATOM     75  O   UNL     1      16.710  -0.463  10.169  1.00  0.00    -0.744 OA
ENDBRANCH  71  72
ENDBRANCH  50  64
BRANCH  51  76
ATOM     76  C   UNL     1       2.677   3.592  13.676  1.00  0.00     0.058 A 
ATOM     77  C   UNL     1       2.321   4.728  14.419  1.00  0.00     0.135 A 
ATOM     78  C   UNL     1       1.654   2.701  13.316  1.00  0.00     0.135 A 
ATOM     79  F   UNL     1       3.264   5.607  14.793  1.00  0.00    -0.206 F 
ATOM     80  C   UNL     1       1.007   4.963  14.807  1.00  0.00     0.059 A 
ATOM     81  C   UNL     1       0.328   2.929  13.669  1.00  0.00     0.059 A 
ATOM     82  F   UNL     1       1.939   1.609  12.590  1.00  0.00    -0.206 F 
ATOM     83  C   UNL     1       0.016   4.058  14.425  1.00  0.00     0.060 A 
BRANCH  83  84
ATOM     84  S   UNL     1      -1.695   4.397  14.894  1.00  0.00     0.124 S 
ATOM     85  O   UNL     1      -1.674   4.097  16.321  1.00  0.00    -0.237 OA
ATOM     86  O   UNL     1      -1.837   5.806  14.539  1.00  0.00    -0.237 OA
ATOM     87  O   UNL     1      -2.460   3.470  14.065  1.00  0.00    -0.744 OA
ENDBRANCH  83  84
ENDBRANCH  51  76
BRANCH  63  88
ATOM     88  C   UNL     1       8.480   2.054  17.227  1.00  0.00     0.058 A 
ATOM     89  C   UNL     1       8.023   0.938  17.945  1.00  0.00     0.135 A 
ATOM     90  C   UNL     1       9.248   3.007  17.917  1.00  0.00     0.135 A 
ATOM     91  F   UNL     1       7.280   0.000  17.335  1.00  0.00    -0.206 F 
ATOM     92  C   UNL     1       8.291   0.787  19.302  1.00  0.00     0.059 A 
ATOM     93  C   UNL     1       9.553   2.861  19.266  1.00  0.00     0.059 A 
ATOM     94  F   UNL     1       9.720   4.088  17.276  1.00  0.00    -0.206 F 
ATOM     95  C   UNL     1       9.057   1.755  19.954  1.00  0.00     0.060 A 
BRANCH  95  96
ATOM     96  S   UNL     1       9.416   1.537  21.710  1.00  0.00     0.124 S 
ATOM     97  O   UNL     1       8.130   1.866  22.315  1.00  0.00    -0.237 OA
ATOM     98  O   UNL     1       9.809   0.133  21.778  1.00  0.00    -0.237 OA
ATOM     99  O   UNL     1      10.490   2.494  21.959  1.00  0.00    -0.744 OA
ENDBRANCH  95  96
ENDBRANCH  63  88
ENDBRANCH  37  38
ENDBRANCH  29  32
ENDBRANCH  27  28
ENDBRANCH   1  27
TORSDOF 16
