REMARK SMILES O=C(CN(Cc1ccccc1Cl)S(=O)(=O)c1ccc(Cl)cc1)NCCCNC(=O)c1ccc(-c2c3nc(c(-c4c(F)cc(S(=O)(=O)[O-])cc4F)c4ccc([nH]4)c(-c4c(F)cc(S(=O)(=O)[O-])cc4F)c4nc(c(-c5c(F)cc(S(=O)(=O)[O-])cc5F)c5ccc2[nH]5)C=C4)C=C3)cc1
REMARK SMILES IDX 25 1 24 2 23 3 1 4 2 5 3 7 4 8 5 9 6 10 7 11 11 12 8 13
REMARK SMILES IDX 10 14 12 15 9 16 13 17 14 18 15 19 16 20 17 21 22 22 18 23
REMARK SMILES IDX 21 24 19 25 20 26 26 27 27 28 28 29 29 31 30 32 31 33 95 34
REMARK SMILES IDX 32 35 94 36 33 37 34 38 35 39 88 40 36 41 93 42 87 43 89 44
REMARK SMILES IDX 37 45 92 46 86 47 85 48 38 50 72 51 51 52 71 53 52 54 55 55
REMARK SMILES IDX 70 56 90 57 53 58 54 59 69 61 91 62 56 63 39 64 40 65 49 66
REMARK SMILES IDX 41 67 42 68 48 69 50 70 43 71 44 72 45 73 46 74 47 75 73 76
REMARK SMILES IDX 74 77 83 78 75 79 76 80 82 81 84 82 77 83 78 84 79 85 80 86
REMARK SMILES IDX 81 87 57 88 58 89 67 90 59 91 60 92 66 93 68 94 61 95 62 96
REMARK SMILES IDX 63 97 64 98 65 99
REMARK H PARENT 23 6 27 30 89 49 55 60
REMARK Flexibility Score: inf
ROOT
ATOM      1  C   UNL     1       2.411   2.768   2.204  1.00  0.00     0.042 C 
ENDROOT
BRANCH   1   2
ATOM      2  C   UNL     1       2.092   2.436   0.752  1.00  0.00     0.117 C 
BRANCH   2   3
ATOM      3  N   UNL     1       2.719   1.207   0.310  1.00  0.00    -0.355 N 
ATOM      4  O   UNL     1       0.781  -0.029   0.203  1.00  0.00    -0.274 OA
ATOM      5  C   UNL     1       1.989   0.078   0.010  1.00  0.00     0.235 C 
ATOM      6  H   UNL     1       3.699   1.178   0.220  1.00  0.00     0.163 HD
BRANCH   5   7
ATOM      7  C   UNL     1       2.816  -1.079  -0.507  1.00  0.00     0.202 C 
BRANCH   7   8
ATOM      8  N   UNL     1       3.542  -0.949  -1.810  1.00  0.00    -0.184 NA
BRANCH   8   9
ATOM      9  C   UNL     1       4.268  -2.209  -2.142  1.00  0.00     0.140 C 
BRANCH   9  10
ATOM     10  C   UNL     1       3.527  -3.498  -2.467  1.00  0.00    -0.014 A 
ATOM     11  C   UNL     1       2.142  -3.565  -2.684  1.00  0.00     0.006 A 
ATOM     12  C   UNL     1       4.244  -4.709  -2.579  1.00  0.00     0.045 A 
ATOM     13  C   UNL     1       1.501  -4.763  -3.018  1.00  0.00     0.000 A 
ATOM     14  C   UNL     1       3.601  -5.914  -2.894  1.00  0.00     0.021 A 
ATOM     15  Cl  UNL     1       5.956  -4.780  -2.334  1.00  0.00    -0.084 Cl
ATOM     16  C   UNL     1       2.229  -5.940  -3.122  1.00  0.00     0.002 A 
ENDBRANCH   9  10
ENDBRANCH   8   9
BRANCH   8  17
ATOM     17  S   UNL     1       2.828   0.000  -3.027  1.00  0.00     0.243 S 
ATOM     18  O   UNL     1       1.724  -0.718  -3.625  1.00  0.00    -0.207 OA
ATOM     19  O   UNL     1       2.624   1.324  -2.483  1.00  0.00    -0.207 OA
BRANCH  17  20
ATOM     20  C   UNL     1       4.048   0.198  -4.319  1.00  0.00     0.082 A 
ATOM     21  C   UNL     1       4.307  -0.856  -5.203  1.00  0.00     0.023 A 
ATOM     22  C   UNL     1       4.593   1.467  -4.561  1.00  0.00     0.023 A 
ATOM     23  C   UNL     1       5.162  -0.657  -6.290  1.00  0.00     0.022 A 
ATOM     24  C   UNL     1       5.420   1.669  -5.670  1.00  0.00     0.022 A 
ATOM     25  C   UNL     1       5.707   0.606  -6.524  1.00  0.00     0.041 A 
ATOM     26  Cl  UNL     1       6.712   0.860  -7.897  1.00  0.00    -0.084 Cl
ENDBRANCH  17  20
ENDBRANCH   8  17
ENDBRANCH   7   8
ENDBRANCH   5   7
ENDBRANCH   2   3
ENDBRANCH   1   2
BRANCH   1  27
ATOM     27  C   UNL     1       3.897   2.943   2.508  1.00  0.00     0.118 C 
BRANCH  27  28
ATOM     28  N   UNL     1       4.515   4.029   1.761  1.00  0.00    -0.352 N 
ATOM     29  C   UNL     1       5.246   5.107   2.199  1.00  0.00     0.251 C 
ATOM     30  H   UNL     1       4.389   3.984   0.786  1.00  0.00     0.163 HD
ATOM     31  O   UNL     1       5.573   5.976   1.395  1.00  0.00    -0.269 OA
BRANCH  29  32
ATOM     32  C   UNL     1       5.618   5.246   3.626  1.00  0.00     0.039 A 
ATOM     33  C   UNL     1       5.487   6.500   4.231  1.00  0.00     0.014 A 
ATOM     34  C   UNL     1       6.116   4.167   4.362  1.00  0.00     0.014 A 
ATOM     35  C   UNL     1       5.785   6.655   5.588  1.00  0.00     0.010 A 
ATOM     36  C   UNL     1       6.356   4.309   5.729  1.00  0.00     0.010 A 
ATOM     37  C   UNL     1       6.188   5.552   6.357  1.00  0.00    -0.014 A 
BRANCH  37  38
ATOM     38  C   UNL     1       6.419   5.676   7.820  1.00  0.00     0.031 A 
ATOM     39  C   UNL     1       7.794   5.471   8.394  1.00  0.00     0.074 A 
ATOM     40  C   UNL     1       5.375   5.904   8.641  1.00  0.00     0.049 A 
ATOM     41  N   UNL     1       8.170   5.447   9.647  1.00  0.00    -0.248 NA
ATOM     42  C   UNL     1       8.884   5.237   7.434  1.00  0.00     0.031 C 
ATOM     43  C   UNL     1       3.984   6.076   8.215  1.00  0.00     0.029 A 
ATOM     44  N   UNL     1       5.318   6.016  10.008  1.00  0.00    -0.354 N 
ATOM     45  C   UNL     1       9.533   5.176   9.629  1.00  0.00     0.074 A 
ATOM     46  C   UNL     1       9.911   5.009   8.242  1.00  0.00     0.031 C 
ATOM     47  C   UNL     1       3.215   6.285   9.296  1.00  0.00     0.029 A 
ATOM     48  C   UNL     1       4.049   6.230  10.492  1.00  0.00     0.049 A 
ATOM     49  H   UNL     1       6.111   5.948  10.587  1.00  0.00     0.167 HD
ATOM     50  C   UNL     1      10.394   5.090  10.672  1.00  0.00     0.037 A 
ATOM     51  C   UNL     1       3.605   6.360  11.757  1.00  0.00     0.037 A 
ATOM     52  C   UNL     1      10.025   5.290  12.049  1.00  0.00     0.049 A 
ATOM     53  C   UNL     1       4.583   6.286  12.896  1.00  0.00     0.074 A 
ATOM     54  C   UNL     1      10.839   5.280  13.169  1.00  0.00     0.029 A 
ATOM     55  N   UNL     1       8.736   5.543  12.495  1.00  0.00    -0.354 N 
ATOM     56  N   UNL     1       5.877   6.074  12.856  1.00  0.00    -0.248 NA
ATOM     57  C   UNL     1       4.044   6.474  14.250  1.00  0.00     0.031 C 
ATOM     58  C   UNL     1      10.038   5.502  14.295  1.00  0.00     0.029 A 
ATOM     59  C   UNL     1       8.730   5.682  13.873  1.00  0.00     0.049 A 
ATOM     60  H   UNL     1       7.943   5.614  11.917  1.00  0.00     0.167 HD
ATOM     61  C   UNL     1       6.309   6.123  14.176  1.00  0.00     0.074 A 
ATOM     62  C   UNL     1       5.142   6.394  14.990  1.00  0.00     0.031 C 
ATOM     63  C   UNL     1       7.561   5.958  14.669  1.00  0.00     0.037 A 
BRANCH  50  64
ATOM     64  C   UNL     1      11.828   4.767  10.359  1.00  0.00     0.058 A 
ATOM     65  C   UNL     1      12.682   5.714   9.773  1.00  0.00     0.135 A 
ATOM     66  C   UNL     1      12.361   3.505  10.669  1.00  0.00     0.135 A 
ATOM     67  F   UNL     1      12.217   6.929   9.443  1.00  0.00    -0.206 F 
ATOM     68  C   UNL     1      14.007   5.412   9.476  1.00  0.00     0.059 A 
ATOM     69  C   UNL     1      13.690   3.189  10.402  1.00  0.00     0.059 A 
ATOM     70  F   UNL     1      11.586   2.564  11.231  1.00  0.00    -0.206 F 
ATOM     71  C   UNL     1      14.500   4.144   9.789  1.00  0.00     0.060 A 
BRANCH  71  72
ATOM     72  S   UNL     1      16.218   3.760   9.391  1.00  0.00     0.124 S 
ATOM     73  O   UNL     1      16.135   3.519   7.954  1.00  0.00    -0.237 OA
ATOM     74  O   UNL     1      16.916   4.979   9.789  1.00  0.00    -0.237 OA
ATOM     75  O   UNL     1      16.501   2.586  10.210  1.00  0.00    -0.744 OA
ENDBRANCH  71  72
ENDBRANCH  50  64
BRANCH  51  76
ATOM     76  C   UNL     1       2.161   6.599  12.011  1.00  0.00     0.058 A 
ATOM     77  C   UNL     1       1.701   7.865  12.401  1.00  0.00     0.135 A 
ATOM     78  C   UNL     1       1.214   5.576  11.852  1.00  0.00     0.135 A 
ATOM     79  F   UNL     1       2.572   8.871  12.571  1.00  0.00    -0.206 F 
ATOM     80  C   UNL     1       0.352   8.108  12.636  1.00  0.00     0.059 A 
ATOM     81  C   UNL     1      -0.143   5.800  12.063  1.00  0.00     0.059 A 
ATOM     82  F   UNL     1       1.605   4.352  11.466  1.00  0.00    -0.206 F 
ATOM     83  C   UNL     1      -0.563   7.069  12.463  1.00  0.00     0.060 A 
BRANCH  83  84
ATOM     84  S   UNL     1      -2.319   7.406  12.715  1.00  0.00     0.124 S 
ATOM     85  O   UNL     1      -2.412   7.400  14.170  1.00  0.00    -0.237 OA
ATOM     86  O   UNL     1      -2.482   8.705  12.069  1.00  0.00    -0.237 OA
ATOM     87  O   UNL     1      -2.973   6.291  12.035  1.00  0.00    -0.744 OA
ENDBRANCH  83  84
ENDBRANCH  51  76
BRANCH  63  88
ATOM     88  C   UNL     1       7.740   6.095  16.153  1.00  0.00     0.058 A 
ATOM     89  C   UNL     1       7.352   5.075  17.035  1.00  0.00     0.135 A 
ATOM     90  C   UNL     1       8.346   7.239  16.695  1.00  0.00     0.135 A 
ATOM     91  F   UNL     1       6.762   3.964  16.566  1.00  0.00    -0.206 F 
ATOM     92  C   UNL     1       7.543   5.193  18.408  1.00  0.00     0.059 A 
ATOM     93  C   UNL     1       8.564   7.370  18.062  1.00  0.00     0.059 A 
ATOM     94  F   UNL     1       8.741   8.239  15.891  1.00  0.00    -0.206 F 
ATOM     95  C   UNL     1       8.149   6.345  18.913  1.00  0.00     0.060 A 
BRANCH  95  96
ATOM     96  S   UNL     1       8.425   6.476  20.692  1.00  0.00     0.124 S 
ATOM     97  O   UNL     1       7.096   6.841  21.169  1.00  0.00    -0.237 OA
ATOM     98  O   UNL     1       8.877   5.133  21.042  1.00  0.00    -0.237 OA
ATOM     99  O   UNL     1       9.441   7.519  20.801  1.00  0.00    -0.744 OA
ENDBRANCH  95  96
ENDBRANCH  63  88
ENDBRANCH  37  38
ENDBRANCH  29  32
ENDBRANCH  27  28
ENDBRANCH   1  27
TORSDOF 18
