REMARK SMILES C[N@H+]1[C@H]2CC[C@@H]1CN(c1nc3c(cc1C(=O)NCCCNC(=O)c1ccc(-c4c5nc(c(-c6c(F)cc(S(=O)(=O)[O-])cc6F)c6ccc([nH]6)c(-c6c(F)cc(S(=O)(=O)[O-])cc6F)c6nc(c(-c7c(F)cc(S(=O)(=O)[O-])cc7F)c7ccc4[nH]7)C=C6)C=C5)cc1)CCC3)CC2
REMARK SMILES IDX 19 1 18 2 17 3 15 4 16 5 14 7 9 8 10 9 11 10 13 11 12 12
REMARK SMILES IDX 92 13 90 14 91 15 8 16 7 17 6 18 1 19 2 20 3 21 4 23 5 25
REMARK SMILES IDX 93 26 94 27 20 29 21 30 22 31 23 33 24 34 25 35 89 36 26 37
REMARK SMILES IDX 88 38 27 39 28 40 29 41 82 42 30 43 87 44 81 45 83 46 31 47
REMARK SMILES IDX 86 48 80 49 79 50 32 52 66 53 45 54 65 55 46 56 49 57 64 58
REMARK SMILES IDX 84 59 47 60 48 61 63 63 85 64 50 65 33 66 34 67 43 68 35 69
REMARK SMILES IDX 36 70 42 71 44 72 37 73 38 74 39 75 40 76 41 77 67 78 68 79
REMARK SMILES IDX 77 80 69 81 70 82 76 83 78 84 71 85 72 86 73 87 74 88 75 89
REMARK SMILES IDX 51 90 52 91 61 92 53 93 54 94 60 95 62 96 55 97 56 98 57 99
REMARK SMILES IDX 58 100 59 101
REMARK H PARENT 17 6 2 22 21 32 83 51 49 62
REMARK Flexibility Score: 90.00
ROOT
ATOM      1  C   UNL     1       1.939   1.223  -2.228  1.00  0.00     0.042 C 
ENDROOT
BRANCH   1   2
ATOM      2  C   UNL     1       0.385   1.731  -2.309  1.00  0.00     0.118 C 
BRANCH   2   3
ATOM      3  N   UNL     1      -1.245   0.942  -3.063  1.00  0.00    -0.352 N 
ATOM      4  C   UNL     1      -2.291   0.880  -4.057  1.00  0.00     0.255 C 
ATOM      5  O   UNL     1      -2.763  -0.230  -4.320  1.00  0.00    -0.269 OA
ATOM      6  H   UNL     1      -1.462   0.208  -2.443  1.00  0.00     0.163 HD
BRANCH   4   7
ATOM      7  C   UNL     1      -2.835   2.014  -4.762  1.00  0.00     0.082 A 
ATOM      8  C   UNL     1      -2.146   3.167  -4.481  1.00  0.00     0.141 A 
ATOM      9  N   UNL     1      -2.770   4.365  -4.512  1.00  0.00    -0.235 NA
ATOM     10  C   UNL     1      -4.058   4.340  -4.934  1.00  0.00     0.046 A 
ATOM     11  C   UNL     1      -4.110   1.995  -5.322  1.00  0.00     0.023 A 
ATOM     12  C   UNL     1      -4.736   3.212  -5.390  1.00  0.00    -0.025 A 
ATOM     13  C   UNL     1      -4.996   5.515  -4.867  1.00  0.00     0.057 C 
ATOM     14  C   UNL     1      -6.131   3.526  -5.806  1.00  0.00     0.038 C 
ATOM     15  C   UNL     1      -6.370   4.841  -5.056  1.00  0.00     0.011 C 
BRANCH   8  16
ATOM     16  N   UNL     1      -0.941   2.911  -3.750  1.00  0.00    -0.350 N 
BRANCH  16  17
ATOM     17  C   UNL     1      -1.664   2.809  -2.050  1.00  0.00     0.183 C 
BRANCH  17  18
ATOM     18  C   UNL     1      -1.622   1.290  -0.886  1.00  0.00     0.203 C 
ATOM     19  C   UNL     1      -0.310  -0.287   0.645  1.00  0.00     0.333 C 
ATOM     20  N   UNL     1      -0.354   0.278  -0.713  1.00  0.00    -0.331 N 
ATOM     21  C   UNL     1      -0.324  -0.772  -1.858  1.00  0.00     0.186 CG0
ATOM     22  H   UNL     1       0.516   0.803  -0.807  1.00  0.00     0.348 HD
ATOM     23  C   UNL     1      -1.900  -1.163  -1.568  1.00  0.00     0.071 C 
ATOM     24  G   UNL     1       0.294  -0.254  -3.655  1.00  0.00     0.000 G0
ATOM     25  C   UNL     1      -2.688   0.174  -1.095  1.00  0.00     0.073 C 
ENDBRANCH  17  18
ENDBRANCH  16  17
BRANCH  16  26
ATOM     26  C   UNL     1       0.066   1.506  -4.521  1.00  0.00     0.124 C 
BRANCH  26  27
ATOM     27  C   UNL     1       0.294  -0.254  -3.655  1.00  0.00     0.086 CG0
ATOM     28  G   UNL     1      -0.324  -0.772  -1.858  1.00  0.00     0.000 G0
ENDBRANCH  26  27
ENDBRANCH  16  26
ENDBRANCH   8  16
ENDBRANCH   4   7
ENDBRANCH   2   3
ENDBRANCH   1   2
BRANCH   1  29
ATOM     29  C   UNL     1       2.468  -0.039  -1.542  1.00  0.00     0.118 C 
BRANCH  29  30
ATOM     30  N   UNL     1       3.925  -0.046  -1.562  1.00  0.00    -0.352 N 
ATOM     31  C   UNL     1       4.788  -0.032  -0.497  1.00  0.00     0.251 C 
ATOM     32  H   UNL     1       4.342  -0.063  -2.454  1.00  0.00     0.163 HD
ATOM     33  O   UNL     1       5.984   0.136  -0.666  1.00  0.00    -0.269 OA
BRANCH  31  34
ATOM     34  C   UNL     1       4.234  -0.192   0.863  1.00  0.00     0.039 A 
ATOM     35  C   UNL     1       4.523   0.788   1.811  1.00  0.00     0.014 A 
ATOM     36  C   UNL     1       3.438  -1.295   1.191  1.00  0.00     0.014 A 
ATOM     37  C   UNL     1       4.026   0.651   3.105  1.00  0.00     0.010 A 
ATOM     38  C   UNL     1       2.881  -1.389   2.465  1.00  0.00     0.010 A 
ATOM     39  C   UNL     1       3.215  -0.444   3.447  1.00  0.00    -0.014 A 
BRANCH  39  40
ATOM     40  C   UNL     1       2.860  -0.672   4.870  1.00  0.00     0.031 A 
ATOM     41  C   UNL     1       3.478  -1.838   5.599  1.00  0.00     0.074 A 
ATOM     42  C   UNL     1       2.060   0.192   5.524  1.00  0.00     0.049 A 
ATOM     43  N   UNL     1       3.396  -2.156   6.865  1.00  0.00    -0.248 NA
ATOM     44  C   UNL     1       4.284  -2.777   4.799  1.00  0.00     0.031 C 
ATOM     45  C   UNL     1       1.391   1.347   4.923  1.00  0.00     0.029 A 
ATOM     46  N   UNL     1       1.697   0.249   6.847  1.00  0.00    -0.354 N 
ATOM     47  C   UNL     1       4.150  -3.315   7.009  1.00  0.00     0.074 A 
ATOM     48  C   UNL     1       4.606  -3.696   5.694  1.00  0.00     0.031 C 
ATOM     49  C   UNL     1       0.740   2.025   5.883  1.00  0.00     0.029 A 
ATOM     50  C   UNL     1       0.924   1.343   7.163  1.00  0.00     0.049 A 
ATOM     51  H   UNL     1       1.965  -0.429   7.509  1.00  0.00     0.167 HD
ATOM     52  C   UNL     1       4.478  -3.978   8.142  1.00  0.00     0.037 A 
ATOM     53  C   UNL     1       0.438   1.755   8.351  1.00  0.00     0.037 A 
ATOM     54  C   UNL     1       4.047  -3.583   9.453  1.00  0.00     0.049 A 
ATOM     55  C   UNL     1       0.772   0.970   9.594  1.00  0.00     0.074 A 
ATOM     56  C   UNL     1       4.348  -4.172  10.668  1.00  0.00     0.029 A 
ATOM     57  N   UNL     1       3.225  -2.499   9.722  1.00  0.00    -0.354 N 
ATOM     58  N   UNL     1       1.535  -0.091   9.719  1.00  0.00    -0.248 NA
ATOM     59  C   UNL     1       0.187   1.439  10.858  1.00  0.00     0.031 C 
ATOM     60  C   UNL     1       3.664  -3.475  11.668  1.00  0.00     0.029 A 
ATOM     61  C   UNL     1       2.983  -2.419  11.082  1.00  0.00     0.049 A 
ATOM     62  H   UNL     1       2.868  -1.879   9.046  1.00  0.00     0.167 HD
ATOM     63  C   UNL     1       1.539  -0.401  11.076  1.00  0.00     0.074 A 
ATOM     64  C   UNL     1       0.715   0.593  11.733  1.00  0.00     0.031 C 
ATOM     65  C   UNL     1       2.166  -1.417  11.720  1.00  0.00     0.037 A 
BRANCH  52  66
ATOM     66  C   UNL     1       5.362  -5.187   8.009  1.00  0.00     0.058 A 
ATOM     67  C   UNL     1       6.717  -5.069   7.657  1.00  0.00     0.135 A 
ATOM     68  C   UNL     1       4.862  -6.472   8.271  1.00  0.00     0.135 A 
ATOM     69  F   UNL     1       7.240  -3.866   7.374  1.00  0.00    -0.206 F 
ATOM     70  C   UNL     1       7.538  -6.185   7.546  1.00  0.00     0.059 A 
ATOM     71  C   UNL     1       5.674  -7.599   8.197  1.00  0.00     0.059 A 
ATOM     72  F   UNL     1       3.573  -6.641   8.605  1.00  0.00    -0.206 F 
ATOM     73  C   UNL     1       7.008  -7.446   7.823  1.00  0.00     0.060 A 
BRANCH  73  74
ATOM     74  S   UNL     1       8.097  -8.879   7.691  1.00  0.00     0.124 S 
ATOM     75  O   UNL     1       8.325  -8.941   6.251  1.00  0.00    -0.237 OA
ATOM     76  O   UNL     1       9.243  -8.472   8.498  1.00  0.00    -0.237 OA
ATOM     77  O   UNL     1       7.297  -9.967   8.246  1.00  0.00    -0.744 OA
ENDBRANCH  73  74
ENDBRANCH  52  66
BRANCH  53  78
ATOM     78  C   UNL     1      -0.389   2.991   8.430  1.00  0.00     0.058 A 
ATOM     79  C   UNL     1       0.092   4.147   9.065  1.00  0.00     0.135 A 
ATOM     80  C   UNL     1      -1.673   3.046   7.864  1.00  0.00     0.135 A 
ATOM     81  F   UNL     1       1.308   4.144   9.631  1.00  0.00    -0.206 F 
ATOM     82  C   UNL     1      -0.672   5.307   9.147  1.00  0.00     0.059 A 
ATOM     83  C   UNL     1      -2.446   4.202   7.910  1.00  0.00     0.059 A 
ATOM     84  F   UNL     1      -2.177   1.973   7.236  1.00  0.00    -0.206 F 
ATOM     85  C   UNL     1      -1.939   5.327   8.560  1.00  0.00     0.060 A 
BRANCH  85  86
ATOM     86  S   UNL     1      -2.900   6.854   8.630  1.00  0.00     0.124 S 
ATOM     87  O   UNL     1      -3.211   6.944  10.052  1.00  0.00    -0.237 OA
ATOM     88  O   UNL     1      -1.947   7.835   8.120  1.00  0.00    -0.237 OA
ATOM     89  O   UNL     1      -4.035   6.578   7.753  1.00  0.00    -0.744 OA
ENDBRANCH  85  86
ENDBRANCH  53  78
BRANCH  65  90
ATOM     90  C   UNL     1       2.005  -1.515  13.212  1.00  0.00     0.058 A 
ATOM     91  C   UNL     1       0.803  -1.947  13.791  1.00  0.00     0.135 A 
ATOM     92  C   UNL     1       3.099  -1.286  14.063  1.00  0.00     0.135 A 
ATOM     93  F   UNL     1      -0.274  -2.177  13.022  1.00  0.00    -0.206 F 
ATOM     94  C   UNL     1       0.688  -2.143  15.163  1.00  0.00     0.059 A 
ATOM     95  C   UNL     1       3.016  -1.504  15.434  1.00  0.00     0.059 A 
ATOM     96  F   UNL     1       4.277  -0.884  13.558  1.00  0.00    -0.206 F 
ATOM     97  C   UNL     1       1.804  -1.930  15.975  1.00  0.00     0.060 A 
BRANCH  97  98
ATOM     98  S   UNL     1       1.653  -2.255  17.744  1.00  0.00     0.124 S 
ATOM     99  O   UNL     1       0.763  -1.179  18.168  1.00  0.00    -0.237 OA
ATOM    100  O   UNL     1       1.080  -3.597  17.765  1.00  0.00    -0.237 OA
ATOM    101  O   UNL     1       3.027  -2.158  18.228  1.00  0.00    -0.744 OA
ENDBRANCH  97  98
ENDBRANCH  65  90
ENDBRANCH  39  40
ENDBRANCH  31  34
ENDBRANCH  29  30
ENDBRANCH   1  29
TORSDOF 14
