REMARK SMILES COc1cc(-c2cccc(C(N)=O)c2)ccc1C(=O)NCCCNC(=O)c1ccc(-c2c3nc(c(-c4c(F)cc(S(=O)(=O)[O-])cc4F)c4ccc([nH]4)c(-c4c(F)cc(S(=O)(=O)[O-])cc4F)c4nc(c(-c5c(F)cc(S(=O)(=O)[O-])cc5F)c5ccc2[nH]5)C=C4)C=C3)cc1
REMARK SMILES IDX 22 1 21 2 20 3 18 4 19 5 17 7 3 8 4 9 5 10 16 11 15 12 2 13
REMARK SMILES IDX 1 14 6 15 7 16 14 17 8 18 10 19 9 20 11 21 12 22 13 23 23 26
REMARK SMILES IDX 24 27 25 28 26 30 27 31 28 32 92 33 29 34 91 35 30 36 31 37
REMARK SMILES IDX 32 38 85 39 33 40 90 41 84 42 86 43 34 44 89 45 83 46 82 47
REMARK SMILES IDX 35 49 69 50 48 51 68 52 49 53 52 54 67 55 87 56 50 57 51 58
REMARK SMILES IDX 66 60 88 61 53 62 36 63 37 64 46 65 38 66 39 67 45 68 47 69
REMARK SMILES IDX 40 70 41 71 42 72 43 73 44 74 70 75 71 76 80 77 72 78 73 79
REMARK SMILES IDX 79 80 81 81 74 82 75 83 76 84 77 85 78 86 54 87 55 88 64 89
REMARK SMILES IDX 56 90 57 91 63 92 65 93 58 94 59 95 60 96 61 97 62 98
REMARK H PARENT 20 6 12 24 12 25 24 29 86 48 52 59
REMARK Flexibility Score: inf
ROOT
ATOM      1  C   UNL     1       1.975   2.194  -1.411  1.00  0.00     0.042 C 
ENDROOT
BRANCH   1   2
ATOM      2  C   UNL     1       1.578   1.245  -0.295  1.00  0.00     0.118 C 
BRANCH   2   3
ATOM      3  N   UNL     1       2.676   0.454   0.238  1.00  0.00    -0.352 N 
ATOM      4  C   UNL     1       2.820  -0.105   1.484  1.00  0.00     0.255 C 
ATOM      5  O   UNL     1       3.814  -0.790   1.721  1.00  0.00    -0.269 OA
ATOM      6  H   UNL     1       3.424   0.297  -0.383  1.00  0.00     0.163 HD
BRANCH   4   7
ATOM      7  C   UNL     1       1.847   0.153   2.571  1.00  0.00     0.081 A 
ATOM      8  C   UNL     1       0.457   0.100   2.441  1.00  0.00     0.132 A 
ATOM      9  C   UNL     1      -0.353   0.573   3.478  1.00  0.00     0.056 A 
ATOM     10  C   UNL     1       0.187   1.018   4.697  1.00  0.00    -0.015 A 
ATOM     11  C   UNL     1       2.399   0.513   3.810  1.00  0.00     0.018 A 
ATOM     12  C   UNL     1       1.577   0.932   4.862  1.00  0.00     0.010 A 
BRANCH   8  13
ATOM     13  O   UNL     1      -0.217  -0.276   1.312  1.00  0.00    -0.496 OA
ATOM     14  C   UNL     1      -0.058  -1.658   1.003  1.00  0.00     0.278 C 
ENDBRANCH   8  13
BRANCH  10  15
ATOM     15  C   UNL     1      -0.684   1.617   5.726  1.00  0.00    -0.017 A 
ATOM     16  C   UNL     1      -1.940   1.068   6.032  1.00  0.00     0.009 A 
ATOM     17  C   UNL     1      -0.313   2.804   6.383  1.00  0.00     0.022 A 
ATOM     18  C   UNL     1      -2.803   1.691   6.937  1.00  0.00     0.001 A 
ATOM     19  C   UNL     1      -1.172   3.440   7.292  1.00  0.00     0.040 A 
ATOM     20  C   UNL     1      -2.422   2.876   7.566  1.00  0.00     0.014 A 
BRANCH  19  21
ATOM     21  C   UNL     1      -0.696   4.696   7.935  1.00  0.00     0.248 C 
ATOM     22  N   UNL     1      -1.624   5.518   8.510  1.00  0.00    -0.366 N 
ATOM     23  O   UNL     1       0.490   5.000   7.944  1.00  0.00    -0.270 OA
ATOM     24  H   UNL     1      -2.576   5.269   8.500  1.00  0.00     0.159 HD
ATOM     25  H   UNL     1      -1.340   6.360   8.934  1.00  0.00     0.159 HD
ENDBRANCH  19  21
ENDBRANCH  10  15
ENDBRANCH   4   7
ENDBRANCH   2   3
ENDBRANCH   1   2
BRANCH   1  26
ATOM     26  C   UNL     1       2.636   1.526  -2.609  1.00  0.00     0.118 C 
BRANCH  26  27
ATOM     27  N   UNL     1       1.808   0.521  -3.270  1.00  0.00    -0.352 N 
ATOM     28  C   UNL     1       1.156   0.530  -4.482  1.00  0.00     0.251 C 
ATOM     29  H   UNL     1       1.698  -0.313  -2.758  1.00  0.00     0.163 HD
ATOM     30  O   UNL     1       0.431  -0.416  -4.786  1.00  0.00    -0.269 OA
BRANCH  28  31
ATOM     31  C   UNL     1       1.275   1.689  -5.395  1.00  0.00     0.039 A 
ATOM     32  C   UNL     1       0.132   2.173  -6.039  1.00  0.00     0.014 A 
ATOM     33  C   UNL     1       2.498   2.322  -5.594  1.00  0.00     0.014 A 
ATOM     34  C   UNL     1       0.198   3.364  -6.771  1.00  0.00     0.010 A 
ATOM     35  C   UNL     1       2.536   3.567  -6.208  1.00  0.00     0.010 A 
ATOM     36  C   UNL     1       1.385   4.112  -6.798  1.00  0.00    -0.014 A 
BRANCH  36  37
ATOM     37  C   UNL     1       1.474   5.461  -7.420  1.00  0.00     0.031 A 
ATOM     38  C   UNL     1       2.524   5.725  -8.470  1.00  0.00     0.074 A 
ATOM     39  C   UNL     1       0.716   6.476  -6.957  1.00  0.00     0.049 A 
ATOM     40  N   UNL     1       2.946   6.865  -8.951  1.00  0.00    -0.248 NA
ATOM     41  C   UNL     1       3.229   4.550  -9.008  1.00  0.00     0.031 C 
ATOM     42  C   UNL     1      -0.305   6.372  -5.910  1.00  0.00     0.029 A 
ATOM     43  N   UNL     1       0.703   7.808  -7.292  1.00  0.00    -0.354 N 
ATOM     44  C   UNL     1       4.000   6.548  -9.802  1.00  0.00     0.074 A 
ATOM     45  C   UNL     1       4.179   5.115  -9.738  1.00  0.00     0.031 C 
ATOM     46  C   UNL     1      -0.858   7.578  -5.708  1.00  0.00     0.029 A 
ATOM     47  C   UNL     1      -0.198   8.555  -6.567  1.00  0.00     0.049 A 
ATOM     48  H   UNL     1       1.284   8.194  -7.987  1.00  0.00     0.167 HD
ATOM     49  C   UNL     1       4.737   7.374 -10.582  1.00  0.00     0.037 A 
ATOM     50  C   UNL     1      -0.451   9.878  -6.579  1.00  0.00     0.037 A 
ATOM     51  C   UNL     1       4.502   8.788 -10.700  1.00  0.00     0.049 A 
ATOM     52  C   UNL     1       0.338  10.767  -7.501  1.00  0.00     0.074 A 
ATOM     53  C   UNL     1       5.153   9.705 -11.507  1.00  0.00     0.029 A 
ATOM     54  N   UNL     1       3.522   9.485 -10.010  1.00  0.00    -0.354 N 
ATOM     55  N   UNL     1       1.320  10.448  -8.309  1.00  0.00    -0.248 NA
ATOM     56  C   UNL     1      -0.013  12.194  -7.515  1.00  0.00     0.031 C 
ATOM     57  C   UNL     1       4.573  10.960 -11.295  1.00  0.00     0.029 A 
ATOM     58  C   UNL     1       3.541  10.818 -10.381  1.00  0.00     0.049 A 
ATOM     59  H   UNL     1       2.903   9.090  -9.354  1.00  0.00     0.167 HD
ATOM     60  C   UNL     1       1.679  11.626  -8.954  1.00  0.00     0.074 A 
ATOM     61  C   UNL     1       0.811  12.665  -8.442  1.00  0.00     0.031 C 
ATOM     62  C   UNL     1       2.640  11.827  -9.887  1.00  0.00     0.037 A 
BRANCH  49  63
ATOM     63  C   UNL     1       5.851   6.763 -11.386  1.00  0.00     0.058 A 
ATOM     64  C   UNL     1       5.592   5.934 -12.489  1.00  0.00     0.135 A 
ATOM     65  C   UNL     1       7.193   7.026 -11.065  1.00  0.00     0.135 A 
ATOM     66  F   UNL     1       4.328   5.636 -12.828  1.00  0.00    -0.206 F 
ATOM     67  C   UNL     1       6.622   5.359 -13.224  1.00  0.00     0.059 A 
ATOM     68  C   UNL     1       8.240   6.485 -11.805  1.00  0.00     0.059 A 
ATOM     69  F   UNL     1       7.497   7.814 -10.021  1.00  0.00    -0.206 F 
ATOM     70  C   UNL     1       7.944   5.638 -12.872  1.00  0.00     0.060 A 
BRANCH  70  71
ATOM     71  S   UNL     1       9.271   4.884 -13.836  1.00  0.00     0.124 S 
ATOM     72  O   UNL     1       9.257   3.516 -13.327  1.00  0.00    -0.237 OA
ATOM     73  O   UNL     1       8.800   5.053 -15.207  1.00  0.00    -0.237 OA
ATOM     74  O   UNL     1      10.443   5.676 -13.477  1.00  0.00    -0.744 OA
ENDBRANCH  70  71
ENDBRANCH  49  63
BRANCH  50  75
ATOM     75  C   UNL     1      -1.520  10.443  -5.712  1.00  0.00     0.058 A 
ATOM     76  C   UNL     1      -2.728  10.888  -6.268  1.00  0.00     0.135 A 
ATOM     77  C   UNL     1      -1.364  10.544  -4.321  1.00  0.00     0.135 A 
ATOM     78  F   UNL     1      -2.922  10.816  -7.594  1.00  0.00    -0.206 F 
ATOM     79  C   UNL     1      -3.737  11.434  -5.481  1.00  0.00     0.059 A 
ATOM     80  C   UNL     1      -2.368  11.066  -3.510  1.00  0.00     0.059 A 
ATOM     81  F   UNL     1      -0.235  10.114  -3.738  1.00  0.00    -0.206 F 
ATOM     82  C   UNL     1      -3.546  11.521  -4.101  1.00  0.00     0.060 A 
BRANCH  82  83
ATOM     83  S   UNL     1      -4.877  12.196  -3.083  1.00  0.00     0.124 S 
ATOM     84  O   UNL     1      -4.749  13.625  -3.344  1.00  0.00    -0.237 OA
ATOM     85  O   UNL     1      -6.057  11.546  -3.645  1.00  0.00    -0.237 OA
ATOM     86  O   UNL     1      -4.517  11.764  -1.735  1.00  0.00    -0.744 OA
ENDBRANCH  82  83
ENDBRANCH  50  75
BRANCH  62  87
ATOM     87  C   UNL     1       2.767  13.204 -10.471  1.00  0.00     0.058 A 
ATOM     88  C   UNL     1       3.393  14.246  -9.773  1.00  0.00     0.135 A 
ATOM     89  C   UNL     1       2.334  13.453 -11.784  1.00  0.00     0.135 A 
ATOM     90  F   UNL     1       3.817  14.058  -8.514  1.00  0.00    -0.206 F 
ATOM     91  C   UNL     1       3.583  15.495 -10.357  1.00  0.00     0.059 A 
ATOM     92  C   UNL     1       2.531  14.687 -12.393  1.00  0.00     0.059 A 
ATOM     93  F   UNL     1       1.736  12.483 -12.493  1.00  0.00    -0.206 F 
ATOM     94  C   UNL     1       3.154  15.703 -11.670  1.00  0.00     0.060 A 
BRANCH  94  95
ATOM     95  S   UNL     1       3.468  17.305 -12.441  1.00  0.00     0.124 S 
ATOM     96  O   UNL     1       2.443  18.137 -11.818  1.00  0.00    -0.237 OA
ATOM     97  O   UNL     1       4.843  17.584 -12.037  1.00  0.00    -0.237 OA
ATOM     98  O   UNL     1       3.282  17.039 -13.864  1.00  0.00    -0.744 OA
ENDBRANCH  94  95
ENDBRANCH  62  87
ENDBRANCH  36  37
ENDBRANCH  28  31
ENDBRANCH  26  27
ENDBRANCH   1  26
TORSDOF 16
