REMARK SMILES Cc1cc2[nH]ccc2nc1C(=O)NCCCNC(=O)c1ccc(-c2c3nc(c(-c4c(F)cc(S(=O)(=O)[O-])cc4F)c4ccc([nH]4)c(-c4c(F)cc(S(=O)(=O)[O-])cc4F)c4nc(c(-c5c(F)cc(S(=O)(=O)[O-])cc5F)c5ccc2[nH]5)C=C4)C=C3)cc1
REMARK SMILES IDX 17 1 18 2 19 3 16 5 15 6 14 7 13 8 11 9 12 10 10 12 1 13
REMARK SMILES IDX 2 14 3 15 4 16 9 17 5 18 8 19 6 20 7 22 20 23 21 24 85 25
REMARK SMILES IDX 22 26 84 27 23 28 24 29 25 30 78 31 26 32 83 33 77 34 79 35
REMARK SMILES IDX 27 36 82 37 76 38 75 39 28 41 62 42 41 43 61 44 42 45 45 46
REMARK SMILES IDX 60 47 80 48 43 49 44 50 59 52 81 53 46 54 29 55 30 56 39 57
REMARK SMILES IDX 31 58 32 59 38 60 40 61 33 62 34 63 35 64 36 65 37 66 63 67
REMARK SMILES IDX 64 68 73 69 65 70 66 71 72 72 74 73 67 74 68 75 69 76 70 77
REMARK SMILES IDX 71 78 47 79 48 80 57 81 49 82 50 83 56 84 58 85 51 86 52 87
REMARK SMILES IDX 53 88 54 89 55 90
REMARK H PARENT 17 4 13 11 5 21 79 40 45 51
REMARK Flexibility Score: inf
ROOT
ATOM      1  N   UNL     1       2.459  -0.463   4.007  1.00  0.00    -0.352 N 
ATOM      2  C   UNL     1       2.907  -0.501   5.308  1.00  0.00     0.251 C 
ATOM      3  O   UNL     1       2.416  -1.293   6.110  1.00  0.00    -0.269 OA
ATOM      4  H   UNL     1       1.571  -0.854   3.845  1.00  0.00     0.163 HD
ENDROOT
BRANCH   1   5
ATOM      5  C   UNL     1       3.141   0.088   2.834  1.00  0.00     0.118 C 
BRANCH   5   6
ATOM      6  C   UNL     1       2.255   0.017   1.611  1.00  0.00     0.042 C 
BRANCH   6   7
ATOM      7  C   UNL     1       1.075   0.991   1.686  1.00  0.00     0.118 C 
BRANCH   7   8
ATOM      8  N   UNL     1       1.284   2.149   0.855  1.00  0.00    -0.351 N 
ATOM      9  C   UNL     1       0.999   2.525  -0.430  1.00  0.00     0.270 C 
ATOM     10  O   UNL     1       1.277   3.719  -0.626  1.00  0.00    -0.268 OA
ATOM     11  H   UNL     1       1.758   2.861   1.342  1.00  0.00     0.163 HD
BRANCH   9  12
ATOM     12  C   UNL     1       0.407   1.722  -1.596  1.00  0.00     0.131 A 
ATOM     13  C   UNL     1       0.481  -0.768  -0.807  1.00  0.00     0.047 C 
ATOM     14  C   UNL     1       0.190   0.338  -1.764  1.00  0.00    -0.018 A 
ATOM     15  C   UNL     1      -0.302  -0.139  -3.002  1.00  0.00     0.034 A 
ATOM     16  C   UNL     1      -0.476   0.783  -4.016  1.00  0.00     0.064 A 
ATOM     17  N   UNL     1       0.155   2.605  -2.604  1.00  0.00    -0.241 NA
ATOM     18  N   UNL     1      -0.844   0.640  -5.329  1.00  0.00    -0.360 N 
ATOM     19  C   UNL     1      -0.239   2.124  -3.793  1.00  0.00     0.089 A 
ATOM     20  C   UNL     1      -0.826   1.863  -5.949  1.00  0.00     0.085 A 
ATOM     21  H   UNL     1      -1.084  -0.211  -5.761  1.00  0.00     0.166 HD
ATOM     22  C   UNL     1      -0.464   2.806  -5.010  1.00  0.00     0.048 A 
ENDBRANCH   9  12
ENDBRANCH   7   8
ENDBRANCH   6   7
ENDBRANCH   5   6
ENDBRANCH   1   5
BRANCH   2  23
ATOM     23  C   UNL     1       3.996   0.405   5.698  1.00  0.00     0.039 A 
ATOM     24  C   UNL     1       5.057  -0.046   6.480  1.00  0.00     0.014 A 
ATOM     25  C   UNL     1       3.984   1.700   5.182  1.00  0.00     0.014 A 
ATOM     26  C   UNL     1       6.153   0.791   6.649  1.00  0.00     0.010 A 
ATOM     27  C   UNL     1       5.135   2.445   5.196  1.00  0.00     0.010 A 
ATOM     28  C   UNL     1       6.209   2.020   5.964  1.00  0.00    -0.014 A 
BRANCH  28  29
ATOM     29  C   UNL     1       7.451   2.787   5.929  1.00  0.00     0.031 A 
ATOM     30  C   UNL     1       8.643   1.960   5.607  1.00  0.00     0.074 A 
ATOM     31  C   UNL     1       7.530   4.133   6.020  1.00  0.00     0.049 A 
ATOM     32  N   UNL     1       9.512   1.508   6.447  1.00  0.00    -0.248 NA
ATOM     33  C   UNL     1       8.775   1.390   4.256  1.00  0.00     0.031 C 
ATOM     34  C   UNL     1       6.441   5.116   6.050  1.00  0.00     0.029 A 
ATOM     35  N   UNL     1       8.638   4.926   6.033  1.00  0.00    -0.354 N 
ATOM     36  C   UNL     1      10.462   0.842   5.684  1.00  0.00     0.074 A 
ATOM     37  C   UNL     1       9.841   0.598   4.409  1.00  0.00     0.031 C 
ATOM     38  C   UNL     1       6.938   6.357   5.848  1.00  0.00     0.029 A 
ATOM     39  C   UNL     1       8.386   6.285   5.858  1.00  0.00     0.049 A 
ATOM     40  H   UNL     1       9.546   4.566   6.157  1.00  0.00     0.167 HD
ATOM     41  C   UNL     1      11.767   0.827   6.076  1.00  0.00     0.037 A 
ATOM     42  C   UNL     1       9.301   7.283   5.745  1.00  0.00     0.037 A 
ATOM     43  C   UNL     1      11.889   1.227   7.460  1.00  0.00     0.049 A 
ATOM     44  C   UNL     1      10.550   6.781   6.375  1.00  0.00     0.074 A 
ATOM     45  C   UNL     1      11.352   0.783   8.654  1.00  0.00     0.029 A 
ATOM     46  N   UNL     1      12.348   2.500   7.707  1.00  0.00    -0.354 N 
ATOM     47  N   UNL     1      10.665   6.528   7.651  1.00  0.00    -0.248 NA
ATOM     48  C   UNL     1      11.516   6.115   5.517  1.00  0.00     0.031 C 
ATOM     49  C   UNL     1      11.081   1.968   9.400  1.00  0.00     0.029 A 
ATOM     50  C   UNL     1      11.544   3.060   8.664  1.00  0.00     0.049 A 
ATOM     51  H   UNL     1      13.119   2.932   7.273  1.00  0.00     0.167 HD
ATOM     52  C   UNL     1      11.402   5.355   7.711  1.00  0.00     0.074 A 
ATOM     53  C   UNL     1      11.973   5.199   6.374  1.00  0.00     0.031 C 
ATOM     54  C   UNL     1      11.248   4.475   8.744  1.00  0.00     0.037 A 
BRANCH  41  55
ATOM     55  C   UNL     1      12.944   0.888   5.127  1.00  0.00     0.058 A 
ATOM     56  C   UNL     1      14.247   0.787   5.660  1.00  0.00     0.135 A 
ATOM     57  C   UNL     1      12.869   1.342   3.791  1.00  0.00     0.135 A 
ATOM     58  F   UNL     1      14.441   0.364   6.920  1.00  0.00    -0.206 F 
ATOM     59  C   UNL     1      15.377   1.201   4.955  1.00  0.00     0.059 A 
ATOM     60  C   UNL     1      13.988   1.708   3.053  1.00  0.00     0.059 A 
ATOM     61  F   UNL     1      11.708   1.548   3.161  1.00  0.00    -0.206 F 
ATOM     62  C   UNL     1      15.232   1.676   3.656  1.00  0.00     0.060 A 
BRANCH  62  63
ATOM     63  S   UNL     1      16.674   2.298   2.779  1.00  0.00     0.124 S 
ATOM     64  O   UNL     1      16.989   3.493   3.551  1.00  0.00    -0.237 OA
ATOM     65  O   UNL     1      17.606   1.183   2.910  1.00  0.00    -0.237 OA
ATOM     66  O   UNL     1      16.169   2.530   1.429  1.00  0.00    -0.744 OA
ENDBRANCH  62  63
ENDBRANCH  41  55
BRANCH  42  67
ATOM     67  C   UNL     1       9.269   8.489   4.870  1.00  0.00     0.058 A 
ATOM     68  C   UNL     1      10.244   9.499   4.985  1.00  0.00     0.135 A 
ATOM     69  C   UNL     1       8.465   8.542   3.714  1.00  0.00     0.135 A 
ATOM     70  F   UNL     1      11.066   9.525   6.046  1.00  0.00    -0.206 F 
ATOM     71  C   UNL     1      10.454  10.460   3.987  1.00  0.00     0.059 A 
ATOM     72  C   UNL     1       8.649   9.494   2.709  1.00  0.00     0.059 A 
ATOM     73  F   UNL     1       7.531   7.608   3.479  1.00  0.00    -0.206 F 
ATOM     74  C   UNL     1       9.665  10.434   2.838  1.00  0.00     0.060 A 
BRANCH  74  75
ATOM     75  S   UNL     1      10.046  11.558   1.472  1.00  0.00     0.124 S 
ATOM     76  O   UNL     1       9.732  12.859   2.052  1.00  0.00    -0.237 OA
ATOM     77  O   UNL     1      11.461  11.291   1.238  1.00  0.00    -0.237 OA
ATOM     78  O   UNL     1       9.148  11.117   0.408  1.00  0.00    -0.744 OA
ENDBRANCH  74  75
ENDBRANCH  42  67
BRANCH  54  79
ATOM     79  C   UNL     1      10.538   4.932   9.993  1.00  0.00     0.058 A 
ATOM     80  C   UNL     1       9.176   5.277  10.068  1.00  0.00     0.135 A 
ATOM     81  C   UNL     1      11.238   4.824  11.205  1.00  0.00     0.135 A 
ATOM     82  F   UNL     1       8.412   5.320   8.968  1.00  0.00    -0.206 F 
ATOM     83  C   UNL     1       8.547   5.512  11.294  1.00  0.00     0.059 A 
ATOM     84  C   UNL     1      10.625   5.023  12.437  1.00  0.00     0.059 A 
ATOM     85  F   UNL     1      12.529   4.449  11.203  1.00  0.00    -0.206 F 
ATOM     86  C   UNL     1       9.277   5.371  12.475  1.00  0.00     0.060 A 
BRANCH  86  87
ATOM     87  S   UNL     1       8.440   5.566  14.064  1.00  0.00     0.124 S 
ATOM     88  O   UNL     1       8.131   6.992  14.077  1.00  0.00    -0.237 OA
ATOM     89  O   UNL     1       7.295   4.670  13.930  1.00  0.00    -0.237 OA
ATOM     90  O   UNL     1       9.444   5.139  15.036  1.00  0.00    -0.744 OA
ENDBRANCH  86  87
ENDBRANCH  54  79
ENDBRANCH  28  29
ENDBRANCH   2  23
TORSDOF 13
