REMARK SMILES O=C(NCCCNC(=O)c1coc(-c2csc(-c3ccc(Cl)cn3)n2)c1)c1ccc(-c2c3nc(c(-c4c(F)cc(S(=O)(=O)[O-])cc4F)c4ccc([nH]4)c(-c4c(F)cc(S(=O)(=O)[O-])cc4F)c4nc(c(-c5c(F)cc(S(=O)(=O)[O-])cc5F)c5ccc2[nH]5)C=C4)C=C3)cc1
REMARK SMILES IDX 4 1 3 2 1 3 2 4 27 6 28 7 92 8 29 9 91 10 30 11 31 12 32 13
REMARK SMILES IDX 85 14 33 15 90 16 84 17 86 18 34 19 89 20 83 21 82 22 35 24
REMARK SMILES IDX 69 25 48 26 68 27 49 28 52 29 67 30 87 31 50 32 51 33 66 35
REMARK SMILES IDX 88 36 53 37 36 38 37 39 46 40 38 41 39 42 45 43 47 44 40 45
REMARK SMILES IDX 41 46 42 47 43 48 44 49 70 50 71 51 80 52 72 53 73 54 79 55
REMARK SMILES IDX 81 56 74 57 75 58 76 59 77 60 78 61 54 62 55 63 64 64 56 65
REMARK SMILES IDX 57 66 63 67 65 68 58 69 59 70 60 71 61 72 62 73 5 74 6 75
REMARK SMILES IDX 7 76 8 77 9 79 10 80 11 81 26 82 12 83 13 84 14 85 15 86
REMARK SMILES IDX 25 87 16 88 17 89 18 90 19 91 24 92 20 93 23 94 21 95 22 96
REMARK H PARENT 3 5 86 23 52 34 7 78
REMARK Flexibility Score: inf
ROOT
ATOM      1  C   UNL     1       4.444  -1.532  -0.884  1.00  0.00     0.118 C 
ENDROOT
BRANCH   1   2
ATOM      2  N   UNL     1       3.155  -0.862  -0.913  1.00  0.00    -0.352 N 
ATOM      3  O   UNL     1       1.427   0.366  -0.187  1.00  0.00    -0.269 OA
ATOM      4  C   UNL     1       2.594   0.015  -0.019  1.00  0.00     0.251 C 
ATOM      5  H   UNL     1       2.596  -1.069  -1.698  1.00  0.00     0.163 HD
BRANCH   4   6
ATOM      6  C   UNL     1       3.353   0.523   1.148  1.00  0.00     0.039 A 
ATOM      7  C   UNL     1       4.674   0.964   1.037  1.00  0.00     0.014 A 
ATOM      8  C   UNL     1       2.687   0.628   2.376  1.00  0.00     0.014 A 
ATOM      9  C   UNL     1       5.350   1.434   2.166  1.00  0.00     0.010 A 
ATOM     10  C   UNL     1       3.354   1.123   3.500  1.00  0.00     0.010 A 
ATOM     11  C   UNL     1       4.698   1.510   3.407  1.00  0.00    -0.014 A 
BRANCH  11  12
ATOM     12  C   UNL     1       5.433   2.010   4.593  1.00  0.00     0.031 A 
ATOM     13  C   UNL     1       5.971   1.053   5.616  1.00  0.00     0.074 A 
ATOM     14  C   UNL     1       5.643   3.331   4.734  1.00  0.00     0.049 A 
ATOM     15  N   UNL     1       6.722   1.300   6.659  1.00  0.00    -0.248 NA
ATOM     16  C   UNL     1       5.615  -0.364   5.448  1.00  0.00     0.031 C 
ATOM     17  C   UNL     1       5.146   4.367   3.829  1.00  0.00     0.029 A 
ATOM     18  N   UNL     1       6.349   4.023   5.684  1.00  0.00    -0.354 N 
ATOM     19  C   UNL     1       6.920   0.075   7.281  1.00  0.00     0.074 A 
ATOM     20  C   UNL     1       6.205  -0.915   6.501  1.00  0.00     0.031 C 
ATOM     21  C   UNL     1       5.597   5.562   4.245  1.00  0.00     0.029 A 
ATOM     22  C   UNL     1       6.413   5.373   5.442  1.00  0.00     0.049 A 
ATOM     23  H   UNL     1       6.771   3.594   6.464  1.00  0.00     0.167 HD
ATOM     24  C   UNL     1       7.635  -0.204   8.398  1.00  0.00     0.037 A 
ATOM     25  C   UNL     1       7.077   6.345   6.095  1.00  0.00     0.037 A 
ATOM     26  C   UNL     1       8.367   0.765   9.167  1.00  0.00     0.049 A 
ATOM     27  C   UNL     1       7.916   6.006   7.290  1.00  0.00     0.074 A 
ATOM     28  C   UNL     1       9.140   0.567  10.299  1.00  0.00     0.029 A 
ATOM     29  N   UNL     1       8.422   2.120   8.879  1.00  0.00    -0.354 N 
ATOM     30  N   UNL     1       8.120   4.837   7.846  1.00  0.00    -0.248 NA
ATOM     31  C   UNL     1       8.622   7.119   7.940  1.00  0.00     0.031 C 
ATOM     32  C   UNL     1       9.664   1.806  10.694  1.00  0.00     0.029 A 
ATOM     33  C   UNL     1       9.217   2.771   9.807  1.00  0.00     0.049 A 
ATOM     34  H   UNL     1       7.963   2.555   8.124  1.00  0.00     0.167 HD
ATOM     35  C   UNL     1       8.983   5.071   8.909  1.00  0.00     0.074 A 
ATOM     36  C   UNL     1       9.265   6.492   8.918  1.00  0.00     0.031 C 
ATOM     37  C   UNL     1       9.493   4.184   9.797  1.00  0.00     0.037 A 
BRANCH  24  38
ATOM     38  C   UNL     1       7.648  -1.634   8.841  1.00  0.00     0.058 A 
ATOM     39  C   UNL     1       8.568  -2.548   8.307  1.00  0.00     0.135 A 
ATOM     40  C   UNL     1       6.710  -2.104   9.772  1.00  0.00     0.135 A 
ATOM     41  F   UNL     1       9.471  -2.145   7.399  1.00  0.00    -0.206 F 
ATOM     42  C   UNL     1       8.542  -3.893   8.662  1.00  0.00     0.059 A 
ATOM     43  C   UNL     1       6.668  -3.443  10.144  1.00  0.00     0.059 A 
ATOM     44  F   UNL     1       5.803  -1.267  10.298  1.00  0.00    -0.206 F 
ATOM     45  C   UNL     1       7.575  -4.334   9.567  1.00  0.00     0.060 A 
BRANCH  45  46
ATOM     46  S   UNL     1       7.490  -6.086   9.993  1.00  0.00     0.124 S 
ATOM     47  O   UNL     1       6.541  -6.577   8.998  1.00  0.00    -0.237 OA
ATOM     48  O   UNL     1       8.869  -6.534   9.823  1.00  0.00    -0.237 OA
ATOM     49  O   UNL     1       7.009  -6.066  11.371  1.00  0.00    -0.744 OA
ENDBRANCH  45  46
ENDBRANCH  24  38
BRANCH  25  50
ATOM     50  C   UNL     1       7.012   7.731   5.579  1.00  0.00     0.058 A 
ATOM     51  C   UNL     1       7.975   8.197   4.673  1.00  0.00     0.135 A 
ATOM     52  C   UNL     1       5.962   8.587   5.932  1.00  0.00     0.135 A 
ATOM     53  F   UNL     1       8.993   7.403   4.309  1.00  0.00    -0.206 F 
ATOM     54  C   UNL     1       7.893   9.469   4.120  1.00  0.00     0.059 A 
ATOM     55  C   UNL     1       5.857   9.863   5.390  1.00  0.00     0.059 A 
ATOM     56  F   UNL     1       5.018   8.174   6.791  1.00  0.00    -0.206 F 
ATOM     57  C   UNL     1       6.829  10.295   4.484  1.00  0.00     0.060 A 
BRANCH  57  58
ATOM     58  S   UNL     1       6.653  11.918   3.709  1.00  0.00     0.124 S 
ATOM     59  O   UNL     1       7.317  12.779   4.680  1.00  0.00    -0.237 OA
ATOM     60  O   UNL     1       7.343  11.746   2.434  1.00  0.00    -0.237 OA
ATOM     61  O   UNL     1       5.204  12.068   3.610  1.00  0.00    -0.744 OA
ENDBRANCH  57  58
ENDBRANCH  25  50
BRANCH  37  62
ATOM     62  C   UNL     1      10.412   4.732  10.846  1.00  0.00     0.058 A 
ATOM     63  C   UNL     1       9.909   5.235  12.055  1.00  0.00     0.135 A 
ATOM     64  C   UNL     1      11.800   4.741  10.650  1.00  0.00     0.135 A 
ATOM     65  F   UNL     1       8.586   5.249  12.281  1.00  0.00    -0.206 F 
ATOM     66  C   UNL     1      10.754   5.742  13.036  1.00  0.00     0.059 A 
ATOM     67  C   UNL     1      12.664   5.241  11.619  1.00  0.00     0.059 A 
ATOM     68  F   UNL     1      12.325   4.272   9.508  1.00  0.00    -0.206 F 
ATOM     69  C   UNL     1      12.131   5.749  12.805  1.00  0.00     0.060 A 
BRANCH  69  70
ATOM     70  S   UNL     1      13.245   6.390  14.075  1.00  0.00     0.124 S 
ATOM     71  O   UNL     1      13.377   7.785  13.670  1.00  0.00    -0.237 OA
ATOM     72  O   UNL     1      12.503   6.158  15.311  1.00  0.00    -0.237 OA
ATOM     73  O   UNL     1      14.438   5.566  13.907  1.00  0.00    -0.744 OA
ENDBRANCH  69  70
ENDBRANCH  37  62
ENDBRANCH  11  12
ENDBRANCH   4   6
ENDBRANCH   1   2
BRANCH   1  74
ATOM     74  C   UNL     1       4.381  -2.972  -1.399  1.00  0.00     0.042 C 
BRANCH  74  75
ATOM     75  C   UNL     1       3.952  -3.114  -2.861  1.00  0.00     0.118 C 
BRANCH  75  76
ATOM     76  N   UNL     1       4.862  -2.448  -3.775  1.00  0.00    -0.352 N 
ATOM     77  C   UNL     1       6.007  -2.920  -4.364  1.00  0.00     0.254 C 
ATOM     78  H   UNL     1       4.622  -1.522  -4.006  1.00  0.00     0.163 HD
ATOM     79  O   UNL     1       6.774  -2.122  -4.894  1.00  0.00    -0.269 OA
BRANCH  77  80
ATOM     80  C   UNL     1       6.286  -4.338  -4.340  1.00  0.00     0.078 A 
ATOM     81  C   UNL     1       5.475  -5.345  -4.819  1.00  0.00     0.209 A 
ATOM     82  C   UNL     1       7.492  -4.985  -3.946  1.00  0.00     0.066 A 
ATOM     83  O   UNL     1       6.092  -6.551  -4.732  1.00  0.00    -0.462 OA
ATOM     84  C   UNL     1       7.331  -6.333  -4.197  1.00  0.00     0.153 A 
BRANCH  84  85
ATOM     85  C   UNL     1       8.355  -7.387  -3.956  1.00  0.00     0.117 A 
ATOM     86  C   UNL     1       8.184  -8.693  -4.360  1.00  0.00     0.099 A 
ATOM     87  N   UNL     1       9.549  -7.112  -3.316  1.00  0.00    -0.231 NA
ATOM     88  S   UNL     1       9.585  -9.602  -3.981  1.00  0.00    -0.120 S 
ATOM     89  C   UNL     1      10.298  -8.200  -3.270  1.00  0.00     0.142 A 
BRANCH  89  90
ATOM     90  C   UNL     1      11.617  -8.281  -2.628  1.00  0.00     0.099 A 
ATOM     91  C   UNL     1      11.880  -7.564  -1.461  1.00  0.00     0.033 A 
ATOM     92  N   UNL     1      12.552  -9.059  -3.237  1.00  0.00    -0.252 NA
ATOM     93  C   UNL     1      13.147  -7.653  -0.882  1.00  0.00     0.024 A 
ATOM     94  C   UNL     1      13.778  -9.110  -2.659  1.00  0.00     0.132 A 
ATOM     95  C   UNL     1      14.116  -8.437  -1.495  1.00  0.00     0.059 A 
ATOM     96  Cl  UNL     1      15.691  -8.566  -0.830  1.00  0.00    -0.083 Cl
ENDBRANCH  89  90
ENDBRANCH  84  85
ENDBRANCH  77  80
ENDBRANCH  75  76
ENDBRANCH  74  75
ENDBRANCH   1  74
TORSDOF 15
