REMARK SMILES C[C@@H](CC(=O)NCCCNC(=O)c1ccc(-c2c3nc(c(-c4c(F)cc(S(=O)(=O)[O-])cc4F)c4ccc([nH]4)c(-c4c(F)cc(S(=O)(=O)[O-])cc4F)c4nc(c(-c5c(F)cc(S(=O)(=O)[O-])cc5F)c5ccc2[nH]5)C=C4)C=C3)cc1)NC(=O)CCCN1C(=O)CN(C)C1=O
REMARK SMILES IDX 4 1 5 2 6 3 3 5 2 6 1 7 79 8 80 9 81 11 82 12 83 13 84 14
REMARK SMILES IDX 85 15 86 16 91 17 87 18 88 19 89 20 92 21 90 22 7 23 8 24
REMARK SMILES IDX 9 25 10 26 11 27 12 29 13 30 14 31 78 32 15 33 77 34 16 35
REMARK SMILES IDX 17 36 18 37 71 38 19 39 76 40 70 41 72 42 20 43 75 44 69 45
REMARK SMILES IDX 68 46 21 48 55 49 34 50 54 51 35 52 38 53 53 54 73 55 36 56
REMARK SMILES IDX 37 57 52 59 74 60 39 61 22 62 23 63 32 64 24 65 25 66 31 67
REMARK SMILES IDX 33 68 26 69 27 70 28 71 29 72 30 73 56 74 57 75 66 76 58 77
REMARK SMILES IDX 59 78 65 79 67 80 60 81 61 82 62 83 63 84 64 85 40 86 41 87
REMARK SMILES IDX 50 88 42 89 43 90 49 91 51 92 44 93 45 94 46 95 47 96 48 97
REMARK H PARENT 6 4 79 10 10 28 72 47 38 58
REMARK Flexibility Score: inf
ROOT
ATOM      1  C   UNL     1      -0.186  -2.925  -0.102  1.00  0.00     0.222 C 
ATOM      2  O   UNL     1      -1.255  -3.537  -0.131  1.00  0.00    -0.275 OA
ATOM      3  N   UNL     1       0.581  -3.013   1.020  1.00  0.00    -0.356 N 
ATOM      4  H   UNL     1       0.213  -3.608   1.713  1.00  0.00     0.163 HD
ENDROOT
BRANCH   1   5
ATOM      5  C   UNL     1       0.274  -2.127  -1.296  1.00  0.00     0.124 C 
BRANCH   5   6
ATOM      6  C   UNL     1      -0.163  -0.661  -1.336  1.00  0.00     0.088 C 
ATOM      7  C   UNL     1      -0.016   0.105  -0.035  1.00  0.00     0.031 C 
BRANCH   6   8
ATOM      8  N   UNL     1      -1.492  -0.415  -1.860  1.00  0.00    -0.353 N 
ATOM      9  C   UNL     1      -1.858   0.684  -2.593  1.00  0.00     0.220 C 
ATOM     10  H   UNL     1      -2.184  -1.090  -1.676  1.00  0.00     0.163 HD
ATOM     11  O   UNL     1      -3.046   0.997  -2.655  1.00  0.00    -0.275 OA
BRANCH   9  12
ATOM     12  C   UNL     1      -0.799   1.440  -3.395  1.00  0.00     0.102 C 
BRANCH  12  13
ATOM     13  C   UNL     1      -0.001   2.541  -2.675  1.00  0.00     0.032 C 
BRANCH  13  14
ATOM     14  C   UNL     1       1.503   2.305  -2.383  1.00  0.00     0.131 C 
BRANCH  14  15
ATOM     15  N   UNL     1       2.180   1.424  -3.318  1.00  0.00    -0.263 N 
ATOM     16  C   UNL     1       2.263   1.625  -4.667  1.00  0.00     0.250 C 
ATOM     17  C   UNL     1       2.760   0.232  -2.977  1.00  0.00     0.326 C 
ATOM     18  O   UNL     1       1.910   2.621  -5.282  1.00  0.00    -0.272 OA
ATOM     19  C   UNL     1       2.805   0.360  -5.311  1.00  0.00     0.221 C 
ATOM     20  N   UNL     1       3.061  -0.445  -4.143  1.00  0.00    -0.318 N 
ATOM     21  O   UNL     1       2.920  -0.208  -1.848  1.00  0.00    -0.248 OA
ATOM     22  C   UNL     1       3.371  -1.852  -4.222  1.00  0.00     0.149 C 
ENDBRANCH  14  15
ENDBRANCH  13  14
ENDBRANCH  12  13
ENDBRANCH   9  12
ENDBRANCH   6   8
ENDBRANCH   5   6
ENDBRANCH   1   5
BRANCH   3  23
ATOM     23  C   UNL     1       1.849  -2.388   1.385  1.00  0.00     0.117 C 
BRANCH  23  24
ATOM     24  C   UNL     1       1.710  -1.343   2.497  1.00  0.00     0.042 C 
BRANCH  24  25
ATOM     25  C   UNL     1       1.007  -1.819   3.758  1.00  0.00     0.118 C 
BRANCH  25  26
ATOM     26  N   UNL     1       1.912  -2.493   4.665  1.00  0.00    -0.352 N 
ATOM     27  C   UNL     1       2.158  -2.218   5.989  1.00  0.00     0.251 C 
ATOM     28  H   UNL     1       2.417  -3.247   4.284  1.00  0.00     0.163 HD
ATOM     29  O   UNL     1       3.126  -2.738   6.537  1.00  0.00    -0.269 OA
BRANCH  27  30
ATOM     30  C   UNL     1       1.281  -1.291   6.750  1.00  0.00     0.039 A 
ATOM     31  C   UNL     1       1.872  -0.418   7.668  1.00  0.00     0.014 A 
ATOM     32  C   UNL     1      -0.111  -1.304   6.607  1.00  0.00     0.014 A 
ATOM     33  C   UNL     1       1.075   0.446   8.424  1.00  0.00     0.010 A 
ATOM     34  C   UNL     1      -0.900  -0.390   7.310  1.00  0.00     0.010 A 
ATOM     35  C   UNL     1      -0.318   0.477   8.245  1.00  0.00    -0.014 A 
BRANCH  35  36
ATOM     36  C   UNL     1      -1.163   1.396   9.055  1.00  0.00     0.031 A 
ATOM     37  C   UNL     1      -2.156   0.851  10.047  1.00  0.00     0.074 A 
ATOM     38  C   UNL     1      -1.055   2.728   8.880  1.00  0.00     0.049 A 
ATOM     39  N   UNL     1      -2.942   1.498  10.871  1.00  0.00    -0.248 NA
ATOM     40  C   UNL     1      -2.308  -0.611  10.104  1.00  0.00     0.031 C 
ATOM     41  C   UNL     1      -0.194   3.382   7.894  1.00  0.00     0.029 A 
ATOM     42  N   UNL     1      -1.677   3.769   9.523  1.00  0.00    -0.354 N 
ATOM     43  C   UNL     1      -3.691   0.528  11.527  1.00  0.00     0.074 A 
ATOM     44  C   UNL     1      -3.301  -0.749  10.971  1.00  0.00     0.031 C 
ATOM     45  C   UNL     1      -0.325   4.713   8.012  1.00  0.00     0.029 A 
ATOM     46  C   UNL     1      -1.289   5.007   9.069  1.00  0.00     0.049 A 
ATOM     47  H   UNL     1      -2.338   3.641  10.240  1.00  0.00     0.167 HD
ATOM     48  C   UNL     1      -4.604   0.682  12.518  1.00  0.00     0.037 A 
ATOM     49  C   UNL     1      -1.659   6.240   9.464  1.00  0.00     0.037 A 
ATOM     50  C   UNL     1      -4.967   1.952  13.091  1.00  0.00     0.049 A 
ATOM     51  C   UNL     1      -2.617   6.389  10.612  1.00  0.00     0.074 A 
ATOM     52  C   UNL     1      -5.806   2.207  14.162  1.00  0.00     0.029 A 
ATOM     53  N   UNL     1      -4.517   3.184  12.637  1.00  0.00    -0.354 N 
ATOM     54  N   UNL     1      -3.236   5.455  11.294  1.00  0.00    -0.248 NA
ATOM     55  C   UNL     1      -2.910   7.758  11.059  1.00  0.00     0.031 C 
ATOM     56  C   UNL     1      -5.894   3.595  14.330  1.00  0.00     0.029 A 
ATOM     57  C   UNL     1      -5.078   4.203  13.390  1.00  0.00     0.049 A 
ATOM     58  H   UNL     1      -3.891   3.314  11.889  1.00  0.00     0.167 HD
ATOM     59  C   UNL     1      -3.988   6.122  12.255  1.00  0.00     0.074 A 
ATOM     60  C   UNL     1      -3.724   7.536  12.082  1.00  0.00     0.031 C 
ATOM     61  C   UNL     1      -4.824   5.609  13.193  1.00  0.00     0.037 A 
BRANCH  48  62
ATOM     62  C   UNL     1      -5.272  -0.561  13.042  1.00  0.00     0.058 A 
ATOM     63  C   UNL     1      -4.573  -1.509  13.807  1.00  0.00     0.135 A 
ATOM     64  C   UNL     1      -6.629  -0.806  12.780  1.00  0.00     0.135 A 
ATOM     65  F   UNL     1      -3.270  -1.332  14.077  1.00  0.00    -0.206 F 
ATOM     66  C   UNL     1      -5.183  -2.677  14.255  1.00  0.00     0.059 A 
ATOM     67  C   UNL     1      -7.267  -1.954  13.241  1.00  0.00     0.059 A 
ATOM     68  F   UNL     1      -7.347   0.069  12.058  1.00  0.00    -0.206 F 
ATOM     69  C   UNL     1      -6.529  -2.894  13.960  1.00  0.00     0.060 A 
BRANCH  69  70
ATOM     70  S   UNL     1      -7.303  -4.424  14.526  1.00  0.00     0.124 S 
ATOM     71  O   UNL     1      -6.771  -5.389  13.569  1.00  0.00    -0.237 OA
ATOM     72  O   UNL     1      -6.802  -4.544  15.891  1.00  0.00    -0.237 OA
ATOM     73  O   UNL     1      -8.731  -4.145  14.409  1.00  0.00    -0.744 OA
ENDBRANCH  69  70
ENDBRANCH  48  62
BRANCH  49  74
ATOM     74  C   UNL     1      -1.080   7.428   8.784  1.00  0.00     0.058 A 
ATOM     75  C   UNL     1      -0.092   8.207   9.402  1.00  0.00     0.135 A 
ATOM     76  C   UNL     1      -1.463   7.769   7.477  1.00  0.00     0.135 A 
ATOM     77  F   UNL     1       0.302   7.922  10.652  1.00  0.00    -0.206 F 
ATOM     78  C   UNL     1       0.499   9.284   8.749  1.00  0.00     0.059 A 
ATOM     79  C   UNL     1      -0.872   8.829   6.797  1.00  0.00     0.059 A 
ATOM     80  F   UNL     1      -2.393   7.042   6.838  1.00  0.00    -0.206 F 
ATOM     81  C   UNL     1       0.108   9.582   7.442  1.00  0.00     0.060 A 
BRANCH  81  82
ATOM     82  S   UNL     1       0.950  10.920   6.568  1.00  0.00     0.124 S 
ATOM     83  O   UNL     1       0.339  12.097   7.173  1.00  0.00    -0.237 OA
ATOM     84  O   UNL     1       2.349  10.678   6.908  1.00  0.00    -0.237 OA
ATOM     85  O   UNL     1       0.604  10.674   5.171  1.00  0.00    -0.744 OA
ENDBRANCH  81  82
ENDBRANCH  49  74
BRANCH  61  86
ATOM     86  C   UNL     1      -5.512   6.589  14.101  1.00  0.00     0.058 A 
ATOM     87  C   UNL     1      -6.554   7.409  13.639  1.00  0.00     0.135 A 
ATOM     88  C   UNL     1      -5.134   6.706  15.448  1.00  0.00     0.135 A 
ATOM     89  F   UNL     1      -6.951   7.340  12.358  1.00  0.00    -0.206 F 
ATOM     90  C   UNL     1      -7.171   8.339  14.470  1.00  0.00     0.059 A 
ATOM     91  C   UNL     1      -5.754   7.612  16.303  1.00  0.00     0.059 A 
ATOM     92  F   UNL     1      -4.152   5.937  15.944  1.00  0.00    -0.206 F 
ATOM     93  C   UNL     1      -6.758   8.438  15.799  1.00  0.00     0.060 A 
BRANCH  93  94
ATOM     94  S   UNL     1      -7.556   9.653  16.870  1.00  0.00     0.124 S 
ATOM     95  O   UNL     1      -6.904  10.888  16.448  1.00  0.00    -0.237 OA
ATOM     96  O   UNL     1      -8.963   9.523  16.503  1.00  0.00    -0.237 OA
ATOM     97  O   UNL     1      -7.220   9.192  18.214  1.00  0.00    -0.744 OA
ENDBRANCH  93  94
ENDBRANCH  61  86
ENDBRANCH  35  36
ENDBRANCH  27  30
ENDBRANCH  25  26
ENDBRANCH  24  25
ENDBRANCH  23  24
ENDBRANCH   3  23
TORSDOF 19
