REMARK SMILES CCCc1cc2c(cc1Cl)C=C(C(=O)NCCCNC(=O)c1ccc(-c3c4nc(c(-c5c(F)cc(S(=O)(=O)[O-])cc5F)c5ccc([nH]5)c(-c5c(F)cc(S(=O)(=O)[O-])cc5F)c5nc(c(-c6c(F)cc(S(=O)(=O)[O-])cc6F)c6ccc3[nH]6)C=C5)C=C4)cc1)[C@H](C(F)(F)F)O2
REMARK SMILES IDX 17 1 16 2 15 3 13 4 14 5 12 7 4 8 5 9 9 10 6 11 8 12 10 13
REMARK SMILES IDX 7 14 93 15 11 16 88 17 3 18 2 19 1 20 89 21 90 22 91 23
REMARK SMILES IDX 92 24 18 25 19 26 20 27 21 29 22 30 23 31 87 32 24 33 86 34
REMARK SMILES IDX 25 35 26 36 27 37 80 38 28 39 85 40 79 41 81 42 29 43 84 44
REMARK SMILES IDX 78 45 77 46 30 48 64 49 43 50 63 51 44 52 47 53 62 54 82 55
REMARK SMILES IDX 45 56 46 57 61 59 83 60 48 61 31 62 32 63 41 64 33 65 34 66
REMARK SMILES IDX 40 67 42 68 35 69 36 70 37 71 38 72 39 73 65 74 66 75 75 76
REMARK SMILES IDX 67 77 68 78 74 79 76 80 69 81 70 82 71 83 72 84 73 85 49 86
REMARK SMILES IDX 50 87 59 88 51 89 52 90 58 91 60 92 53 93 54 94 55 95 56 96
REMARK SMILES IDX 57 97
REMARK H PARENT 15 6 19 28 81 47 47 58
REMARK Flexibility Score: inf
ROOT
ATOM      1  C   UNL     1      -1.691  -3.940   9.956  1.00  0.00     0.042 C 
ENDROOT
BRANCH   1   2
ATOM      2  C   UNL     1      -2.625  -3.091   9.106  1.00  0.00     0.118 C 
BRANCH   2   3
ATOM      3  N   UNL     1      -2.156  -1.720   8.995  1.00  0.00    -0.352 N 
ATOM      4  C   UNL     1      -1.533  -0.952   8.076  1.00  0.00     0.251 C 
ATOM      5  O   UNL     1      -1.354   0.222   8.422  1.00  0.00    -0.270 OA
ATOM      6  H   UNL     1      -2.344  -1.211   9.816  1.00  0.00     0.163 HD
BRANCH   4   7
ATOM      7  C   UNL     1      -1.070  -1.401   6.732  1.00  0.00     0.067 C 
ATOM      8  C   UNL     1       0.936  -1.504   2.098  1.00  0.00    -0.026 A 
ATOM      9  C   UNL     1       0.117  -2.380   2.833  1.00  0.00     0.052 A 
ATOM     10  C   UNL     1       1.289  -0.277   2.686  1.00  0.00     0.045 A 
ATOM     11  C   UNL     1      -0.322  -2.037   4.111  1.00  0.00     0.128 A 
ATOM     12  C   UNL     1       0.774   0.095   3.933  1.00  0.00     0.032 A 
ATOM     13  Cl  UNL     1       2.412   0.815   1.956  1.00  0.00    -0.084 Cl
ATOM     14  C   UNL     1      -0.035  -0.786   4.647  1.00  0.00     0.019 A 
ATOM     15  O   UNL     1      -1.050  -2.969   4.796  1.00  0.00    -0.475 OA
ATOM     16  C   UNL     1      -0.587  -0.423   5.944  1.00  0.00     0.025 C 
ATOM     17  C   UNL     1      -1.022  -2.827   6.250  1.00  0.00     0.314 C 
BRANCH   8  18
ATOM     18  C   UNL     1       1.408  -1.943   0.730  1.00  0.00     0.037 C 
BRANCH  18  19
ATOM     19  C   UNL     1       0.524  -1.474  -0.433  1.00  0.00     0.001 C 
ATOM     20  C   UNL     1       0.690  -0.005  -0.792  1.00  0.00     0.004 C 
ENDBRANCH  18  19
ENDBRANCH   8  18
BRANCH  17  21
ATOM     21  C   UNL     1       0.140  -3.633   6.865  1.00  0.00     0.429 C 
ATOM     22  F   UNL     1       0.698  -3.008   7.928  1.00  0.00    -0.167 F 
ATOM     23  F   UNL     1      -0.306  -4.835   7.307  1.00  0.00    -0.167 F 
ATOM     24  F   UNL     1       1.137  -3.873   5.984  1.00  0.00    -0.167 F 
ENDBRANCH  17  21
ENDBRANCH   4   7
ENDBRANCH   2   3
ENDBRANCH   1   2
BRANCH   1  25
ATOM     25  C   UNL     1      -1.839  -3.663  11.446  1.00  0.00     0.118 C 
BRANCH  25  26
ATOM     26  N   UNL     1      -3.116  -4.141  11.967  1.00  0.00    -0.352 N 
ATOM     27  C   UNL     1      -3.401  -5.218  12.770  1.00  0.00     0.251 C 
ATOM     28  H   UNL     1      -3.898  -3.605  11.701  1.00  0.00     0.163 HD
ATOM     29  O   UNL     1      -4.570  -5.594  12.878  1.00  0.00    -0.269 OA
BRANCH  27  30
ATOM     30  C   UNL     1      -2.322  -5.929  13.486  1.00  0.00     0.039 A 
ATOM     31  C   UNL     1      -1.255  -5.223  14.040  1.00  0.00     0.014 A 
ATOM     32  C   UNL     1      -2.381  -7.319  13.626  1.00  0.00     0.014 A 
ATOM     33  C   UNL     1      -0.161  -5.909  14.548  1.00  0.00     0.010 A 
ATOM     34  C   UNL     1      -1.333  -8.001  14.253  1.00  0.00     0.010 A 
ATOM     35  C   UNL     1      -0.190  -7.306  14.677  1.00  0.00    -0.014 A 
BRANCH  35  36
ATOM     36  C   UNL     1       0.978  -7.998  15.283  1.00  0.00     0.031 A 
ATOM     37  C   UNL     1       1.772  -9.009  14.500  1.00  0.00     0.074 A 
ATOM     38  C   UNL     1       1.358  -7.661  16.532  1.00  0.00     0.049 A 
ATOM     39  N   UNL     1       2.836  -9.679  14.863  1.00  0.00    -0.248 NA
ATOM     40  C   UNL     1       1.309  -9.317  13.138  1.00  0.00     0.031 C 
ATOM     41  C   UNL     1       0.669  -6.689  17.386  1.00  0.00     0.029 A 
ATOM     42  N   UNL     1       2.428  -8.063  17.289  1.00  0.00    -0.354 N 
ATOM     43  C   UNL     1       3.158 -10.498  13.788  1.00  0.00     0.074 A 
ATOM     44  C   UNL     1       2.155 -10.270  12.771  1.00  0.00     0.031 C 
ATOM     45  C   UNL     1       1.370  -6.518  18.514  1.00  0.00     0.029 A 
ATOM     46  C   UNL     1       2.512  -7.424  18.504  1.00  0.00     0.049 A 
ATOM     47  H   UNL     1       3.073  -8.745  16.992  1.00  0.00     0.167 HD
ATOM     48  C   UNL     1       4.203 -11.351  13.656  1.00  0.00     0.037 A 
ATOM     49  C   UNL     1       3.398  -7.559  19.509  1.00  0.00     0.037 A 
ATOM     50  C   UNL     1       5.206 -11.557  14.671  1.00  0.00     0.049 A 
ATOM     51  C   UNL     1       4.522  -8.541  19.359  1.00  0.00     0.074 A 
ATOM     52  C   UNL     1       6.317 -12.381  14.626  1.00  0.00     0.029 A 
ATOM     53  N   UNL     1       5.219 -10.937  15.913  1.00  0.00    -0.354 N 
ATOM     54  N   UNL     1       4.816  -9.301  18.331  1.00  0.00    -0.248 NA
ATOM     55  C   UNL     1       5.427  -8.696  20.504  1.00  0.00     0.031 C 
ATOM     56  C   UNL     1       6.970 -12.301  15.860  1.00  0.00     0.029 A 
ATOM     57  C   UNL     1       6.302 -11.383  16.655  1.00  0.00     0.049 A 
ATOM     58  H   UNL     1       4.557 -10.278  16.222  1.00  0.00     0.167 HD
ATOM     59  C   UNL     1       5.945 -10.020  18.701  1.00  0.00     0.074 A 
ATOM     60  C   UNL     1       6.291  -9.589  20.041  1.00  0.00     0.031 C 
ATOM     61  C   UNL     1       6.630 -10.952  17.993  1.00  0.00     0.037 A 
BRANCH  48  62
ATOM     62  C   UNL     1       4.302 -12.144  12.379  1.00  0.00     0.058 A 
ATOM     63  C   UNL     1       4.619 -11.539  11.152  1.00  0.00     0.135 A 
ATOM     64  C   UNL     1       4.099 -13.535  12.386  1.00  0.00     0.135 A 
ATOM     65  F   UNL     1       4.811 -10.212  11.082  1.00  0.00    -0.206 F 
ATOM     66  C   UNL     1       4.693 -12.276   9.973  1.00  0.00     0.059 A 
ATOM     67  C   UNL     1       4.197 -14.296  11.225  1.00  0.00     0.059 A 
ATOM     68  F   UNL     1       3.797 -14.168  13.530  1.00  0.00    -0.206 F 
ATOM     69  C   UNL     1       4.476 -13.655  10.020  1.00  0.00     0.060 A 
BRANCH  69  70
ATOM     70  S   UNL     1       4.553 -14.590   8.477  1.00  0.00     0.124 S 
ATOM     71  O   UNL     1       3.349 -14.123   7.795  1.00  0.00    -0.237 OA
ATOM     72  O   UNL     1       5.818 -14.143   7.904  1.00  0.00    -0.237 OA
ATOM     73  O   UNL     1       4.522 -15.980   8.918  1.00  0.00    -0.744 OA
ENDBRANCH  69  70
ENDBRANCH  48  62
BRANCH  49  74
ATOM     74  C   UNL     1       3.241  -6.725  20.729  1.00  0.00     0.058 A 
ATOM     75  C   UNL     1       4.124  -5.671  21.001  1.00  0.00     0.135 A 
ATOM     76  C   UNL     1       2.150  -6.906  21.596  1.00  0.00     0.135 A 
ATOM     77  F   UNL     1       5.185  -5.463  20.206  1.00  0.00    -0.206 F 
ATOM     78  C   UNL     1       3.923  -4.814  22.078  1.00  0.00     0.059 A 
ATOM     79  C   UNL     1       1.913  -6.046  22.663  1.00  0.00     0.059 A 
ATOM     80  F   UNL     1       1.268  -7.892  21.370  1.00  0.00    -0.206 F 
ATOM     81  C   UNL     1       2.805  -5.000  22.894  1.00  0.00     0.060 A 
BRANCH  81  82
ATOM     82  S   UNL     1       2.500  -3.816  24.223  1.00  0.00     0.124 S 
ATOM     83  O   UNL     1       3.589  -4.119  25.145  1.00  0.00    -0.237 OA
ATOM     84  O   UNL     1       2.593  -2.541  23.520  1.00  0.00    -0.237 OA
ATOM     85  O   UNL     1       1.162  -4.170  24.689  1.00  0.00    -0.744 OA
ENDBRANCH  81  82
ENDBRANCH  49  74
BRANCH  61  86
ATOM     86  C   UNL     1       7.833 -11.573  18.645  1.00  0.00     0.058 A 
ATOM     87  C   UNL     1       7.704 -12.512  19.680  1.00  0.00     0.135 A 
ATOM     88  C   UNL     1       9.126 -11.288  18.174  1.00  0.00     0.135 A 
ATOM     89  F   UNL     1       6.493 -12.812  20.174  1.00  0.00    -0.206 F 
ATOM     90  C   UNL     1       8.816 -13.141  20.231  1.00  0.00     0.059 A 
ATOM     91  C   UNL     1      10.248 -11.926  18.691  1.00  0.00     0.059 A 
ATOM     92  F   UNL     1       9.303 -10.402  17.181  1.00  0.00    -0.206 F 
ATOM     93  C   UNL     1      10.083 -12.848  19.723  1.00  0.00     0.060 A 
BRANCH  93  94
ATOM     94  S   UNL     1      11.508 -13.718  20.410  1.00  0.00     0.124 S 
ATOM     95  O   UNL     1      11.593 -13.136  21.746  1.00  0.00    -0.237 OA
ATOM     96  O   UNL     1      11.078 -15.111  20.353  1.00  0.00    -0.237 OA
ATOM     97  O   UNL     1      12.594 -13.364  19.502  1.00  0.00    -0.744 OA
ENDBRANCH  93  94
ENDBRANCH  61  86
ENDBRANCH  35  36
ENDBRANCH  27  30
ENDBRANCH  25  26
ENDBRANCH   1  25
TORSDOF 16
