REMARK SMILES Cc1[nH]c2ccccc2c1[C@@H](C(=O)NCCCNC(=O)c1ccc(-c2c3nc(c(-c4c(F)cc(S(=O)(=O)[O-])cc4F)c4ccc([nH]4)c(-c4c(F)cc(S(=O)(=O)[O-])cc4F)c4nc(c(-c5c(F)cc(S(=O)(=O)[O-])cc5F)c5ccc2[nH]5)C=C4)C=C3)cc1)[NH+]1CCCC1
REMARK SMILES IDX 17 1 16 2 15 3 14 4 12 5 13 6 11 8 10 9 1 10 2 11 3 12 4 13
REMARK SMILES IDX 9 15 5 16 8 17 6 18 7 19 87 20 88 21 91 22 89 24 90 25 18 26
REMARK SMILES IDX 19 27 20 29 21 30 22 31 86 32 23 33 85 34 24 35 25 36 26 37
REMARK SMILES IDX 79 38 27 39 84 40 78 41 80 42 28 43 83 44 77 45 76 46 29 48
REMARK SMILES IDX 63 49 42 50 62 51 43 52 46 53 61 54 81 55 44 56 45 57 60 59
REMARK SMILES IDX 82 60 47 61 30 62 31 63 40 64 32 65 33 66 39 67 41 68 34 69
REMARK SMILES IDX 35 70 36 71 37 72 38 73 64 74 65 75 74 76 66 77 67 78 73 79
REMARK SMILES IDX 75 80 68 81 69 82 70 83 71 84 72 85 48 86 49 87 58 88 50 89
REMARK SMILES IDX 51 90 57 91 59 92 52 93 53 94 54 95 55 96 56 97
REMARK H PARENT 14 7 3 14 87 23 18 28 80 47 46 58
REMARK Flexibility Score: inf
ROOT
ATOM      1  C   UNL     1      -1.322  -1.268  -4.799  1.00  0.00     0.118 C 
ENDROOT
BRANCH   1   2
ATOM      2  C   UNL     1      -1.897  -0.931  -3.430  1.00  0.00     0.042 C 
BRANCH   2   3
ATOM      3  C   UNL     1      -2.578  -2.110  -2.744  1.00  0.00     0.118 C 
BRANCH   3   4
ATOM      4  N   UNL     1      -1.636  -3.138  -2.344  1.00  0.00    -0.351 N 
ATOM      5  C   UNL     1      -1.081  -3.373  -1.108  1.00  0.00     0.283 C 
ATOM      6  O   UNL     1      -0.273  -4.305  -1.042  1.00  0.00    -0.268 OA
ATOM      7  H   UNL     1      -1.354  -3.755  -3.059  1.00  0.00     0.163 HD
BRANCH   5   8
ATOM      8  C   UNL     1      -1.539  -2.511   0.107  1.00  0.00     0.307 C 
BRANCH   8   9
ATOM      9  C   UNL     1      -1.081  -1.068   0.016  1.00  0.00     0.047 A 
ATOM     10  C   UNL     1      -3.376   0.216   0.238  1.00  0.00     0.065 C 
ATOM     11  C   UNL     1      -1.902   0.059   0.108  1.00  0.00     0.022 A 
ATOM     12  N   UNL     1      -1.099   1.170   0.063  1.00  0.00    -0.358 N 
ATOM     13  C   UNL     1       0.217   0.813  -0.072  1.00  0.00     0.046 A 
ATOM     14  H   UNL     1      -1.424   2.098   0.120  1.00  0.00     0.166 HD
ATOM     15  C   UNL     1       0.258  -0.575  -0.198  1.00  0.00     0.009 A 
ATOM     16  C   UNL     1       1.361   1.619  -0.101  1.00  0.00     0.027 A 
ATOM     17  C   UNL     1       1.512  -1.172  -0.454  1.00  0.00     0.011 A 
ATOM     18  C   UNL     1       2.594   0.990  -0.281  1.00  0.00     0.002 A 
ATOM     19  C   UNL     1       2.670  -0.385  -0.473  1.00  0.00     0.001 A 
ENDBRANCH   8   9
BRANCH   8  20
ATOM     20  N   UNL     1      -1.276  -3.163   1.422  1.00  0.00    -0.321 N 
ATOM     21  C   UNL     1      -1.867  -2.480   2.574  1.00  0.00     0.263 C 
ATOM     22  C   UNL     1       0.117  -3.415   1.787  1.00  0.00     0.263 C 
ATOM     23  H   UNL     1      -1.732  -4.056   1.233  1.00  0.00     0.349 HD
ATOM     24  C   UNL     1      -0.760  -1.637   3.182  1.00  0.00     0.067 C 
ATOM     25  C   UNL     1       0.522  -2.363   2.813  1.00  0.00     0.067 C 
ENDBRANCH   8  20
ENDBRANCH   5   8
ENDBRANCH   3   4
ENDBRANCH   2   3
ENDBRANCH   1   2
BRANCH   1  26
ATOM     26  N   UNL     1      -2.357  -1.611  -5.765  1.00  0.00    -0.352 N 
ATOM     27  C   UNL     1      -2.648  -1.041  -6.981  1.00  0.00     0.251 C 
ATOM     28  H   UNL     1      -2.935  -2.365  -5.508  1.00  0.00     0.163 HD
ATOM     29  O   UNL     1      -3.691  -1.339  -7.553  1.00  0.00    -0.269 OA
BRANCH  27  30
ATOM     30  C   UNL     1      -1.719  -0.062  -7.586  1.00  0.00     0.039 A 
ATOM     31  C   UNL     1      -2.242   1.072  -8.212  1.00  0.00     0.014 A 
ATOM     32  C   UNL     1      -0.337  -0.269  -7.554  1.00  0.00     0.014 A 
ATOM     33  C   UNL     1      -1.376   2.029  -8.748  1.00  0.00     0.010 A 
ATOM     34  C   UNL     1       0.523   0.722  -8.014  1.00  0.00     0.010 A 
ATOM     35  C   UNL     1       0.014   1.879  -8.623  1.00  0.00    -0.014 A 
BRANCH  35  36
ATOM     36  C   UNL     1       0.961   2.903  -9.138  1.00  0.00     0.031 A 
ATOM     37  C   UNL     1       1.939   2.535 -10.223  1.00  0.00     0.074 A 
ATOM     38  C   UNL     1       0.985   4.135  -8.590  1.00  0.00     0.049 A 
ATOM     39  N   UNL     1       2.927   3.234 -10.716  1.00  0.00    -0.248 NA
ATOM     40  C   UNL     1       1.802   1.192 -10.813  1.00  0.00     0.031 C 
ATOM     41  C   UNL     1       0.106   4.603  -7.516  1.00  0.00     0.029 A 
ATOM     42  N   UNL     1       1.790   5.216  -8.851  1.00  0.00    -0.354 N 
ATOM     43  C   UNL     1       3.528   2.420 -11.669  1.00  0.00     0.074 A 
ATOM     44  C   UNL     1       2.837   1.150 -11.640  1.00  0.00     0.031 C 
ATOM     45  C   UNL     1       0.411   5.878  -7.220  1.00  0.00     0.029 A 
ATOM     46  C   UNL     1       1.536   6.303  -8.046  1.00  0.00     0.049 A 
ATOM     47  H   UNL     1       2.485   5.213  -9.548  1.00  0.00     0.167 HD
ATOM     48  C   UNL     1       4.544   2.714 -12.515  1.00  0.00     0.037 A 
ATOM     49  C   UNL     1       2.154   7.498  -7.970  1.00  0.00     0.037 A 
ATOM     50  C   UNL     1       5.216   3.986 -12.554  1.00  0.00     0.049 A 
ATOM     51  C   UNL     1       3.314   7.781  -8.891  1.00  0.00     0.074 A 
ATOM     52  C   UNL     1       6.250   4.388 -13.382  1.00  0.00     0.029 A 
ATOM     53  N   UNL     1       4.915   5.066 -11.737  1.00  0.00    -0.354 N 
ATOM     54  N   UNL     1       3.848   7.009  -9.808  1.00  0.00    -0.248 NA
ATOM     55  C   UNL     1       3.954   9.100  -8.773  1.00  0.00     0.031 C 
ATOM     56  C   UNL     1       6.599   5.697 -13.041  1.00  0.00     0.029 A 
ATOM     57  C   UNL     1       5.746   6.131 -12.039  1.00  0.00     0.049 A 
ATOM     58  H   UNL     1       4.215   5.074 -11.046  1.00  0.00     0.167 HD
ATOM     59  C   UNL     1       4.851   7.766 -10.405  1.00  0.00     0.074 A 
ATOM     60  C   UNL     1       4.847   9.057  -9.751  1.00  0.00     0.031 C 
ATOM     61  C   UNL     1       5.699   7.425 -11.406  1.00  0.00     0.037 A 
BRANCH  48  62
ATOM     62  C   UNL     1       4.974   1.656 -13.494  1.00  0.00     0.058 A 
ATOM     63  C   UNL     1       4.158   1.292 -14.578  1.00  0.00     0.135 A 
ATOM     64  C   UNL     1       6.237   1.052 -13.394  1.00  0.00     0.135 A 
ATOM     65  F   UNL     1       2.933   1.823 -14.711  1.00  0.00    -0.206 F 
ATOM     66  C   UNL     1       4.575   0.359 -15.521  1.00  0.00     0.059 A 
ATOM     67  C   UNL     1       6.688   0.138 -14.343  1.00  0.00     0.059 A 
ATOM     68  F   UNL     1       7.056   1.361 -12.376  1.00  0.00    -0.206 F 
ATOM     69  C   UNL     1       5.846  -0.206 -15.400  1.00  0.00     0.060 A 
BRANCH  69  70
ATOM     70  S   UNL     1       6.384  -1.380 -16.660  1.00  0.00     0.124 S 
ATOM     71  O   UNL     1       5.531  -2.529 -16.372  1.00  0.00    -0.237 OA
ATOM     72  O   UNL     1       6.087  -0.665 -17.897  1.00  0.00    -0.237 OA
ATOM     73  O   UNL     1       7.803  -1.565 -16.370  1.00  0.00    -0.744 OA
ENDBRANCH  69  70
ENDBRANCH  48  62
BRANCH  49  74
ATOM     74  C   UNL     1       1.705   8.527  -6.990  1.00  0.00     0.058 A 
ATOM     75  C   UNL     1       1.152   9.743  -7.421  1.00  0.00     0.135 A 
ATOM     76  C   UNL     1       1.867   8.340  -5.609  1.00  0.00     0.135 A 
ATOM     77  F   UNL     1       0.977   9.973  -8.732  1.00  0.00    -0.206 F 
ATOM     78  C   UNL     1       0.825  10.756  -6.525  1.00  0.00     0.059 A 
ATOM     79  C   UNL     1       1.516   9.324  -4.690  1.00  0.00     0.059 A 
ATOM     80  F   UNL     1       2.369   7.188  -5.138  1.00  0.00    -0.206 F 
ATOM     81  C   UNL     1       1.019  10.539  -5.160  1.00  0.00     0.060 A 
BRANCH  81  82
ATOM     82  S   UNL     1       0.610  11.864  -4.004  1.00  0.00     0.124 S 
ATOM     83  O   UNL     1       1.701  12.803  -4.238  1.00  0.00    -0.237 OA
ATOM     84  O   UNL     1      -0.707  12.284  -4.472  1.00  0.00    -0.237 OA
ATOM     85  O   UNL     1       0.621  11.193  -2.708  1.00  0.00    -0.744 OA
ENDBRANCH  81  82
ENDBRANCH  49  74
BRANCH  61  86
ATOM     86  C   UNL     1       6.643   8.480 -11.915  1.00  0.00     0.058 A 
ATOM     87  C   UNL     1       7.750   8.911 -11.170  1.00  0.00     0.135 A 
ATOM     88  C   UNL     1       6.469   9.015 -13.203  1.00  0.00     0.135 A 
ATOM     89  F   UNL     1       7.958   8.437  -9.931  1.00  0.00    -0.206 F 
ATOM     90  C   UNL     1       8.643   9.850 -11.675  1.00  0.00     0.059 A 
ATOM     91  C   UNL     1       7.367   9.931 -13.741  1.00  0.00     0.059 A 
ATOM     92  F   UNL     1       5.431   8.629 -13.962  1.00  0.00    -0.206 F 
ATOM     93  C   UNL     1       8.447  10.349 -12.965  1.00  0.00     0.060 A 
BRANCH  93  94
ATOM     94  S   UNL     1       9.643  11.528 -13.627  1.00  0.00     0.124 S 
ATOM     95  O   UNL     1       9.332  12.728 -12.858  1.00  0.00    -0.237 OA
ATOM     96  O   UNL     1      10.917  10.887 -13.314  1.00  0.00    -0.237 OA
ATOM     97  O   UNL     1       9.312  11.589 -15.047  1.00  0.00    -0.744 OA
ENDBRANCH  93  94
ENDBRANCH  61  86
ENDBRANCH  35  36
ENDBRANCH  27  30
ENDBRANCH   1  26
TORSDOF 15
