REMARK SMILES C/C(=N\Nc1ccccc1C(=O)NCCCNC(=O)c1ccc(-c2c3nc(c(-c4c(F)cc(S(=O)(=O)[O-])cc4F)c4ccc([nH]4)c(-c4c(F)cc(S(=O)(=O)[O-])cc4F)c4nc(c(-c5c(F)cc(S(=O)(=O)[O-])cc5F)c5ccc2[nH]5)C=C4)C=C3)cc1)c1ccc(S(C)(=O)=O)cc1
REMARK SMILES IDX 14 1 13 2 11 3 12 4 10 6 5 7 6 8 7 9 9 10 8 11 4 12 3 14
REMARK SMILES IDX 1 15 2 16 86 17 87 18 95 19 88 20 94 21 89 22 90 23 91 24
REMARK SMILES IDX 92 25 93 26 15 27 16 28 17 29 18 30 19 32 20 33 21 34 85 35
REMARK SMILES IDX 22 36 84 37 23 38 24 39 25 40 78 41 26 42 83 43 77 44 79 45
REMARK SMILES IDX 27 46 82 47 76 48 75 49 28 51 62 52 41 53 61 54 42 55 45 56
REMARK SMILES IDX 60 57 80 58 43 59 44 60 59 62 81 63 46 64 29 65 30 66 39 67
REMARK SMILES IDX 31 68 32 69 38 70 40 71 33 72 34 73 35 74 36 75 37 76 63 77
REMARK SMILES IDX 64 78 73 79 65 80 66 81 72 82 74 83 67 84 68 85 69 86 70 87
REMARK SMILES IDX 71 88 47 89 48 90 57 91 49 92 50 93 56 94 58 95 51 96 52 97
REMARK SMILES IDX 53 98 54 99 55 100
REMARK H PARENT 13 5 4 13 17 31 79 50 45 61
REMARK Flexibility Score: inf
ROOT
ATOM      1  C   UNL     1      -2.037  -1.476   1.153  1.00  0.00     0.118 C 
ENDROOT
BRANCH   1   2
ATOM      2  N   UNL     1      -1.784  -0.637  -0.004  1.00  0.00    -0.352 N 
ATOM      3  C   UNL     1      -0.899   0.407  -0.118  1.00  0.00     0.253 C 
ATOM      4  O   UNL     1      -0.732   0.939  -1.215  1.00  0.00    -0.269 OA
ATOM      5  H   UNL     1      -2.313  -0.842  -0.809  1.00  0.00     0.163 HD
BRANCH   3   6
ATOM      6  C   UNL     1      -0.252   0.992   1.078  1.00  0.00     0.064 A 
ATOM      7  C   UNL     1       0.527   0.288   2.012  1.00  0.00     0.069 A 
ATOM      8  C   UNL     1       0.943   0.988   3.167  1.00  0.00     0.028 A 
ATOM      9  C   UNL     1       0.669   2.345   3.350  1.00  0.00     0.002 A 
ATOM     10  C   UNL     1      -0.491   2.371   1.249  1.00  0.00     0.016 A 
ATOM     11  C   UNL     1      -0.023   3.046   2.373  1.00  0.00     0.001 A 
BRANCH   7  12
ATOM     12  N   UNL     1       1.086  -1.000   1.851  1.00  0.00    -0.277 N 
ATOM     13  H   UNL     1       1.516  -1.405   2.639  1.00  0.00     0.190 HD
BRANCH  12  14
ATOM     14  N   UNL     1       1.082  -1.725   0.712  1.00  0.00    -0.180 NA
ATOM     15  C   UNL     1       2.647  -0.089  -0.368  1.00  0.00     0.069 C 
ATOM     16  C   UNL     1       1.812  -1.350  -0.299  1.00  0.00     0.065 C 
BRANCH  16  17
ATOM     17  C   UNL     1       1.810  -2.222  -1.506  1.00  0.00    -0.002 A 
ATOM     18  C   UNL     1       0.595  -2.676  -2.032  1.00  0.00     0.011 A 
ATOM     19  C   UNL     1       3.017  -2.616  -2.091  1.00  0.00     0.011 A 
ATOM     20  C   UNL     1       0.580  -3.502  -3.158  1.00  0.00     0.021 A 
ATOM     21  C   UNL     1       3.009  -3.440  -3.218  1.00  0.00     0.021 A 
ATOM     22  C   UNL     1       1.791  -3.880  -3.744  1.00  0.00     0.067 A 
BRANCH  22  23
ATOM     23  S   UNL     1       1.775  -4.866  -5.223  1.00  0.00     0.175 S 
ATOM     24  C   UNL     1       1.278  -6.475  -4.671  1.00  0.00     0.163 C 
ATOM     25  O   UNL     1       0.738  -4.328  -6.081  1.00  0.00    -0.224 OA
ATOM     26  O   UNL     1       3.145  -4.965  -5.694  1.00  0.00    -0.224 OA
ENDBRANCH  22  23
ENDBRANCH  16  17
ENDBRANCH  12  14
ENDBRANCH   7  12
ENDBRANCH   3   6
ENDBRANCH   1   2
BRANCH   1  27
ATOM     27  C   UNL     1      -3.295  -2.314   1.039  1.00  0.00     0.042 C 
BRANCH  27  28
ATOM     28  C   UNL     1      -3.344  -3.244  -0.167  1.00  0.00     0.118 C 
BRANCH  28  29
ATOM     29  N   UNL     1      -2.290  -4.253  -0.234  1.00  0.00    -0.352 N 
ATOM     30  C   UNL     1      -2.382  -5.617  -0.425  1.00  0.00     0.251 C 
ATOM     31  H   UNL     1      -1.375  -3.908  -0.126  1.00  0.00     0.163 HD
ATOM     32  O   UNL     1      -1.368  -6.300  -0.532  1.00  0.00    -0.269 OA
BRANCH  30  33
ATOM     33  C   UNL     1      -3.713  -6.263  -0.418  1.00  0.00     0.039 A 
ATOM     34  C   UNL     1      -3.936  -7.330   0.456  1.00  0.00     0.014 A 
ATOM     35  C   UNL     1      -4.766  -5.740  -1.167  1.00  0.00     0.014 A 
ATOM     36  C   UNL     1      -5.241  -7.774   0.683  1.00  0.00     0.010 A 
ATOM     37  C   UNL     1      -6.070  -6.096  -0.846  1.00  0.00     0.010 A 
ATOM     38  C   UNL     1      -6.327  -7.105   0.096  1.00  0.00    -0.014 A 
BRANCH  38  39
ATOM     39  C   UNL     1      -7.736  -7.418   0.464  1.00  0.00     0.031 A 
ATOM     40  C   UNL     1      -8.720  -7.811  -0.607  1.00  0.00     0.074 A 
ATOM     41  C   UNL     1      -8.156  -7.248   1.736  1.00  0.00     0.049 A 
ATOM     42  N   UNL     1     -10.013  -7.981  -0.519  1.00  0.00    -0.248 NA
ATOM     43  C   UNL     1      -8.185  -7.989  -1.968  1.00  0.00     0.031 C 
ATOM     44  C   UNL     1      -7.325  -6.795   2.856  1.00  0.00     0.029 A 
ATOM     45  N   UNL     1      -9.396  -7.423   2.303  1.00  0.00    -0.354 N 
ATOM     46  C   UNL     1     -10.448  -8.246  -1.813  1.00  0.00     0.074 A 
ATOM     47  C   UNL     1      -9.291  -8.157  -2.676  1.00  0.00     0.031 C 
ATOM     48  C   UNL     1      -8.067  -6.761   3.976  1.00  0.00     0.029 A 
ATOM     49  C   UNL     1      -9.435  -7.147   3.652  1.00  0.00     0.049 A 
ATOM     50  H   UNL     1     -10.183  -7.718   1.792  1.00  0.00     0.167 HD
ATOM     51  C   UNL     1     -11.691  -8.566  -2.241  1.00  0.00     0.037 A 
ATOM     52  C   UNL     1     -10.460  -7.195   4.527  1.00  0.00     0.037 A 
ATOM     53  C   UNL     1     -12.825  -8.724  -1.370  1.00  0.00     0.049 A 
ATOM     54  C   UNL     1     -11.820  -7.614   4.036  1.00  0.00     0.074 A 
ATOM     55  C   UNL     1     -14.108  -9.128  -1.693  1.00  0.00     0.029 A 
ATOM     56  N   UNL     1     -12.806  -8.502  -0.002  1.00  0.00    -0.354 N 
ATOM     57  N   UNL     1     -12.196  -7.921   2.818  1.00  0.00    -0.248 NA
ATOM     58  C   UNL     1     -12.893  -7.698   5.037  1.00  0.00     0.031 C 
ATOM     59  C   UNL     1     -14.873  -9.127  -0.522  1.00  0.00     0.029 A 
ATOM     60  C   UNL     1     -14.056  -8.757   0.535  1.00  0.00     0.049 A 
ATOM     61  H   UNL     1     -12.020  -8.207   0.512  1.00  0.00     0.167 HD
ATOM     62  C   UNL     1     -13.541  -8.263   2.911  1.00  0.00     0.074 A 
ATOM     63  C   UNL     1     -13.909  -8.135   4.306  1.00  0.00     0.031 C 
ATOM     64  C   UNL     1     -14.395  -8.645   1.930  1.00  0.00     0.037 A 
BRANCH  51  65
ATOM     65  C   UNL     1     -11.884  -8.798  -3.714  1.00  0.00     0.058 A 
ATOM     66  C   UNL     1     -11.357  -9.931  -4.354  1.00  0.00     0.135 A 
ATOM     67  C   UNL     1     -12.631  -7.896  -4.489  1.00  0.00     0.135 A 
ATOM     68  F   UNL     1     -10.618 -10.815  -3.664  1.00  0.00    -0.206 F 
ATOM     69  C   UNL     1     -11.538 -10.148  -5.715  1.00  0.00     0.059 A 
ATOM     70  C   UNL     1     -12.850  -8.108  -5.847  1.00  0.00     0.059 A 
ATOM     71  F   UNL     1     -13.156  -6.795  -3.928  1.00  0.00    -0.206 F 
ATOM     72  C   UNL     1     -12.288  -9.231  -6.454  1.00  0.00     0.060 A 
BRANCH  72  73
ATOM     73  S   UNL     1     -12.529  -9.537  -8.216  1.00  0.00     0.124 S 
ATOM     74  O   UNL     1     -11.216  -9.193  -8.752  1.00  0.00    -0.237 OA
ATOM     75  O   UNL     1     -12.871 -10.956  -8.243  1.00  0.00    -0.237 OA
ATOM     76  O   UNL     1     -13.612  -8.628  -8.574  1.00  0.00    -0.744 OA
ENDBRANCH  72  73
ENDBRANCH  51  65
BRANCH  52  77
ATOM     77  C   UNL     1     -10.240  -6.869   5.963  1.00  0.00     0.058 A 
ATOM     78  C   UNL     1     -10.279  -7.874   6.941  1.00  0.00     0.135 A 
ATOM     79  C   UNL     1      -9.999  -5.554   6.388  1.00  0.00     0.135 A 
ATOM     80  F   UNL     1     -10.511  -9.147   6.586  1.00  0.00    -0.206 F 
ATOM     81  C   UNL     1     -10.114  -7.586   8.293  1.00  0.00     0.059 A 
ATOM     82  C   UNL     1      -9.807  -5.243   7.732  1.00  0.00     0.059 A 
ATOM     83  F   UNL     1      -9.933  -4.558   5.491  1.00  0.00    -0.206 F 
ATOM     84  C   UNL     1      -9.880  -6.265   8.679  1.00  0.00     0.060 A 
BRANCH  84  85
ATOM     85  S   UNL     1      -9.636  -5.903  10.432  1.00  0.00     0.124 S 
ATOM     86  O   UNL     1     -11.000  -5.985  10.941  1.00  0.00    -0.237 OA
ATOM     87  O   UNL     1      -8.734  -6.973  10.845  1.00  0.00    -0.237 OA
ATOM     88  O   UNL     1      -9.046  -4.568  10.417  1.00  0.00    -0.744 OA
ENDBRANCH  84  85
ENDBRANCH  52  77
BRANCH  64  89
ATOM     89  C   UNL     1     -15.798  -8.997   2.333  1.00  0.00     0.058 A 
ATOM     90  C   UNL     1     -16.735  -8.009   2.673  1.00  0.00     0.135 A 
ATOM     91  C   UNL     1     -16.226 -10.334   2.316  1.00  0.00     0.135 A 
ATOM     92  F   UNL     1     -16.372  -6.717   2.709  1.00  0.00    -0.206 F 
ATOM     93  C   UNL     1     -18.046  -8.338   3.001  1.00  0.00     0.059 A 
ATOM     94  C   UNL     1     -17.538 -10.683   2.617  1.00  0.00     0.059 A 
ATOM     95  F   UNL     1     -15.369 -11.314   1.987  1.00  0.00    -0.206 F 
ATOM     96  C   UNL     1     -18.438  -9.678   2.968  1.00  0.00     0.060 A 
BRANCH  96  97
ATOM     97  S   UNL     1     -20.153 -10.088   3.355  1.00  0.00     0.124 S 
ATOM     98  O   UNL     1     -20.165  -9.956   4.808  1.00  0.00    -0.237 OA
ATOM     99  O   UNL     1     -20.893  -9.068   2.619  1.00  0.00    -0.237 OA
ATOM    100  O   UNL     1     -20.299 -11.448   2.845  1.00  0.00    -0.744 OA
ENDBRANCH  96  97
ENDBRANCH  64  89
ENDBRANCH  38  39
ENDBRANCH  30  33
ENDBRANCH  28  29
ENDBRANCH  27  28
ENDBRANCH   1  27
TORSDOF 17
