REMARK SMILES C[C@@H]1CCC[C@@]1(Sc1ccccc1Cl)C(=O)NCCCNC(=O)c1ccc(-c2c3nc(c(-c4c(F)cc(S(=O)(=O)[O-])cc4F)c4ccc([nH]4)c(-c4c(F)cc(S(=O)(=O)[O-])cc4F)c4nc(c(-c5c(F)cc(S(=O)(=O)[O-])cc5F)c5ccc2[nH]5)C=C4)C=C3)cc1
REMARK SMILES IDX 19 1 18 2 17 3 15 4 16 5 6 7 1 8 2 9 3 10 4 11 5 12 7 13
REMARK SMILES IDX 8 14 9 15 13 16 10 17 12 18 14 19 11 20 20 21 21 22 22 23
REMARK SMILES IDX 23 25 24 26 25 27 89 28 26 29 88 30 27 31 28 32 29 33 82 34
REMARK SMILES IDX 30 35 87 36 81 37 83 38 31 39 86 40 80 41 79 42 32 44 66 45
REMARK SMILES IDX 45 46 65 47 46 48 49 49 64 50 84 51 47 52 48 53 63 55 85 56
REMARK SMILES IDX 50 57 33 58 34 59 43 60 35 61 36 62 42 63 44 64 37 65 38 66
REMARK SMILES IDX 39 67 40 68 41 69 67 70 68 71 77 72 69 73 70 74 76 75 78 76
REMARK SMILES IDX 71 77 72 78 73 79 74 80 75 81 51 82 52 83 61 84 53 85 54 86
REMARK SMILES IDX 60 87 62 88 55 89 56 90 57 91 58 92 59 93
REMARK H PARENT 17 6 21 24 83 43 49 54
REMARK Flexibility Score: inf
ROOT
ATOM      1  C   UNL     1       1.605   4.172   2.587  1.00  0.00     0.042 C 
ENDROOT
BRANCH   1   2
ATOM      2  C   UNL     1       1.579   2.647   2.531  1.00  0.00     0.117 C 
BRANCH   2   3
ATOM      3  N   UNL     1       0.222   2.131   2.625  1.00  0.00    -0.355 N 
ATOM      4  C   UNL     1      -0.625   1.614   1.693  1.00  0.00     0.236 C 
ATOM      5  O   UNL     1      -1.772   1.376   2.095  1.00  0.00    -0.273 OA
ATOM      6  H   UNL     1      -0.155   2.162   3.534  1.00  0.00     0.163 HD
BRANCH   4   7
ATOM      7  C   UNL     1      -0.185   1.233   0.254  1.00  0.00     0.102 C 
ATOM      8  C   UNL     1       1.763  -0.159  -0.851  1.00  0.00     0.009 C 
ATOM      9  C   UNL     1       0.832   0.045   0.351  1.00  0.00     0.012 C 
ATOM     10  C   UNL     1      -0.084  -1.173   0.523  1.00  0.00     0.005 C 
ATOM     11  C   UNL     1      -1.255  -0.913  -0.406  1.00  0.00     0.002 C 
ATOM     12  C   UNL     1      -1.354   0.607  -0.557  1.00  0.00     0.028 C 
BRANCH   7  13
ATOM     13  S   UNL     1       0.484   2.677  -0.696  1.00  0.00    -0.107 SA
BRANCH  13  14
ATOM     14  C   UNL     1      -0.579   4.105  -0.457  1.00  0.00     0.027 A 
ATOM     15  C   UNL     1      -1.913   4.015  -0.044  1.00  0.00     0.016 A 
ATOM     16  C   UNL     1      -0.065   5.398  -0.723  1.00  0.00     0.054 A 
ATOM     17  C   UNL     1      -2.700   5.162   0.122  1.00  0.00     0.001 A 
ATOM     18  C   UNL     1      -0.856   6.542  -0.558  1.00  0.00     0.022 A 
ATOM     19  Cl  UNL     1       1.572   5.671  -1.236  1.00  0.00    -0.083 Cl
ATOM     20  C   UNL     1      -2.174   6.423  -0.132  1.00  0.00     0.002 A 
ENDBRANCH  13  14
ENDBRANCH   7  13
ENDBRANCH   4   7
ENDBRANCH   2   3
ENDBRANCH   1   2
BRANCH   1  21
ATOM     21  C   UNL     1       1.142   4.765   3.915  1.00  0.00     0.118 C 
BRANCH  21  22
ATOM     22  N   UNL     1       2.113   4.566   4.980  1.00  0.00    -0.352 N 
ATOM     23  C   UNL     1       2.797   5.492   5.726  1.00  0.00     0.251 C 
ATOM     24  H   UNL     1       2.308   3.626   5.199  1.00  0.00     0.163 HD
ATOM     25  O   UNL     1       3.727   5.114   6.443  1.00  0.00    -0.269 OA
BRANCH  23  26
ATOM     26  C   UNL     1       2.449   6.931   5.672  1.00  0.00     0.039 A 
ATOM     27  C   UNL     1       3.482   7.873   5.647  1.00  0.00     0.014 A 
ATOM     28  C   UNL     1       1.119   7.363   5.689  1.00  0.00     0.014 A 
ATOM     29  C   UNL     1       3.184   9.237   5.582  1.00  0.00     0.010 A 
ATOM     30  C   UNL     1       0.823   8.720   5.557  1.00  0.00     0.010 A 
ATOM     31  C   UNL     1       1.851   9.674   5.505  1.00  0.00    -0.014 A 
BRANCH  31  32
ATOM     32  C   UNL     1       1.520  11.117   5.362  1.00  0.00     0.031 A 
ATOM     33  C   UNL     1       0.752  11.834   6.443  1.00  0.00     0.074 A 
ATOM     34  C   UNL     1       1.851  11.768   4.228  1.00  0.00     0.049 A 
ATOM     35  N   UNL     1       0.311  13.066   6.462  1.00  0.00    -0.248 NA
ATOM     36  C   UNL     1       0.414  11.060   7.648  1.00  0.00     0.031 C 
ATOM     37  C   UNL     1       2.547  11.174   3.084  1.00  0.00     0.029 A 
ATOM     38  N   UNL     1       1.632  13.067   3.841  1.00  0.00    -0.354 N 
ATOM     39  C   UNL     1      -0.378  13.206   7.662  1.00  0.00     0.074 A 
ATOM     40  C   UNL     1      -0.323  11.925   8.331  1.00  0.00     0.031 C 
ATOM     41  C   UNL     1       2.705  12.106   2.130  1.00  0.00     0.029 A 
ATOM     42  C   UNL     1       2.093  13.354   2.576  1.00  0.00     0.049 A 
ATOM     43  H   UNL     1       1.187  13.732   4.414  1.00  0.00     0.167 HD
ATOM     44  C   UNL     1      -0.987  14.306   8.165  1.00  0.00     0.037 A 
ATOM     45  C   UNL     1       2.019  14.487   1.851  1.00  0.00     0.037 A 
ATOM     46  C   UNL     1      -0.996  15.594   7.519  1.00  0.00     0.049 A 
ATOM     47  C   UNL     1       1.361  15.702   2.448  1.00  0.00     0.074 A 
ATOM     48  C   UNL     1      -1.498  16.791   8.000  1.00  0.00     0.029 A 
ATOM     49  N   UNL     1      -0.482  15.854   6.258  1.00  0.00    -0.354 N 
ATOM     50  N   UNL     1       0.795  15.838   3.623  1.00  0.00    -0.248 NA
ATOM     51  C   UNL     1       1.335  16.920   1.625  1.00  0.00     0.031 C 
ATOM     52  C   UNL     1      -1.331  17.765   7.010  1.00  0.00     0.029 A 
ATOM     53  C   UNL     1      -0.682  17.185   5.932  1.00  0.00     0.049 A 
ATOM     54  H   UNL     1      -0.042  15.190   5.680  1.00  0.00     0.167 HD
ATOM     55  C   UNL     1       0.371  17.162   3.690  1.00  0.00     0.074 A 
ATOM     56  C   UNL     1       0.758  17.788   2.443  1.00  0.00     0.031 C 
ATOM     57  C   UNL     1      -0.280  17.800   4.693  1.00  0.00     0.037 A 
BRANCH  44  58
ATOM     58  C   UNL     1      -1.697  14.184   9.486  1.00  0.00     0.058 A 
ATOM     59  C   UNL     1      -0.994  14.072  10.695  1.00  0.00     0.135 A 
ATOM     60  C   UNL     1      -3.098  14.263   9.547  1.00  0.00     0.135 A 
ATOM     61  F   UNL     1       0.345  13.979  10.693  1.00  0.00    -0.206 F 
ATOM     62  C   UNL     1      -1.655  14.031  11.918  1.00  0.00     0.059 A 
ATOM     63  C   UNL     1      -3.779  14.248  10.761  1.00  0.00     0.059 A 
ATOM     64  F   UNL     1      -3.819  14.370   8.419  1.00  0.00    -0.206 F 
ATOM     65  C   UNL     1      -3.048  14.125  11.941  1.00  0.00     0.060 A 
BRANCH  65  66
ATOM     66  S   UNL     1      -3.888  14.109  13.540  1.00  0.00     0.124 S 
ATOM     67  O   UNL     1      -3.757  12.707  13.923  1.00  0.00    -0.237 OA
ATOM     68  O   UNL     1      -3.095  15.055  14.318  1.00  0.00    -0.237 OA
ATOM     69  O   UNL     1      -5.242  14.547  13.217  1.00  0.00    -0.744 OA
ENDBRANCH  65  66
ENDBRANCH  44  58
BRANCH  45  70
ATOM     70  C   UNL     1       2.582  14.535   0.474  1.00  0.00     0.058 A 
ATOM     71  C   UNL     1       3.722  15.300   0.184  1.00  0.00     0.135 A 
ATOM     72  C   UNL     1       1.978  13.836  -0.583  1.00  0.00     0.135 A 
ATOM     73  F   UNL     1       4.332  15.990   1.160  1.00  0.00    -0.206 F 
ATOM     74  C   UNL     1       4.224  15.399  -1.109  1.00  0.00     0.059 A 
ATOM     75  C   UNL     1       2.477  13.898  -1.880  1.00  0.00     0.059 A 
ATOM     76  F   UNL     1       0.896  13.075  -0.355  1.00  0.00    -0.206 F 
ATOM     77  C   UNL     1       3.590  14.697  -2.136  1.00  0.00     0.060 A 
BRANCH  77  78
ATOM     78  S   UNL     1       4.253  14.822  -3.812  1.00  0.00     0.124 S 
ATOM     79  O   UNL     1       3.796  16.148  -4.208  1.00  0.00    -0.237 OA
ATOM     80  O   UNL     1       5.689  14.681  -3.587  1.00  0.00    -0.237 OA
ATOM     81  O   UNL     1       3.623  13.702  -4.504  1.00  0.00    -0.744 OA
ENDBRANCH  77  78
ENDBRANCH  45  70
BRANCH  57  82
ATOM     82  C   UNL     1      -0.586  19.259   4.504  1.00  0.00     0.058 A 
ATOM     83  C   UNL     1      -1.593  19.694   3.629  1.00  0.00     0.135 A 
ATOM     84  C   UNL     1       0.104  20.232   5.246  1.00  0.00     0.135 A 
ATOM     85  F   UNL     1      -2.277  18.806   2.892  1.00  0.00    -0.206 F 
ATOM     86  C   UNL     1      -1.892  21.045   3.481  1.00  0.00     0.059 A 
ATOM     87  C   UNL     1      -0.196  21.585   5.133  1.00  0.00     0.059 A 
ATOM     88  F   UNL     1       1.071  19.868   6.104  1.00  0.00    -0.206 F 
ATOM     89  C   UNL     1      -1.189  21.983   4.239  1.00  0.00     0.060 A 
BRANCH  89  90
ATOM     90  S   UNL     1      -1.609  23.730   4.064  1.00  0.00     0.124 S 
ATOM     91  O   UNL     1      -0.997  24.053   2.779  1.00  0.00    -0.237 OA
ATOM     92  O   UNL     1      -3.069  23.705   4.082  1.00  0.00    -0.237 OA
ATOM     93  O   UNL     1      -0.986  24.348   5.230  1.00  0.00    -0.744 OA
ENDBRANCH  89  90
ENDBRANCH  57  82
ENDBRANCH  31  32
ENDBRANCH  23  26
ENDBRANCH  21  22
ENDBRANCH   1  21
TORSDOF 15
