REMARK SMILES CCSc1nc(CC(=O)N[C@@H](C(=O)NCCCNC(=O)c2ccc(-c3c4nc(c(-c5c(F)cc(S(=O)(=O)[O-])cc5F)c5ccc([nH]5)c(-c5c(F)cc(S(=O)(=O)[O-])cc5F)c5nc(c(-c6c(F)cc(S(=O)(=O)[O-])cc6F)c6ccc3[nH]6)C=C5)C=C4)cc2)C2=C(C)N=N[C@@H]2C)cs1
REMARK SMILES IDX 15 1 14 2 12 3 13 4 11 6 10 7 8 8 9 9 7 11 6 12 4 13 5 14
REMARK SMILES IDX 95 15 94 16 3 17 2 18 1 19 87 20 88 21 92 22 89 23 90 24
REMARK SMILES IDX 91 25 93 26 16 27 17 28 18 29 19 30 20 32 21 33 22 34 86 35
REMARK SMILES IDX 23 36 85 37 24 38 25 39 26 40 79 41 27 42 84 43 78 44 80 45
REMARK SMILES IDX 28 46 83 47 77 48 76 49 29 51 63 52 42 53 62 54 43 55 46 56
REMARK SMILES IDX 61 57 81 58 44 59 45 60 60 62 82 63 47 64 30 65 31 66 40 67
REMARK SMILES IDX 32 68 33 69 39 70 41 71 34 72 35 73 36 74 37 75 38 76 64 77
REMARK SMILES IDX 65 78 74 79 66 80 67 81 73 82 75 83 68 84 69 85 70 86 71 87
REMARK SMILES IDX 72 88 48 89 49 90 58 91 50 92 51 93 57 94 59 95 52 96 53 97
REMARK SMILES IDX 54 98 55 99 56 100
REMARK H PARENT 14 5 10 10 18 31 80 50 46 61
REMARK Flexibility Score: inf
ROOT
ATOM      1  C   UNL     1       4.758   3.221  -3.542  1.00  0.00     0.117 C 
ENDROOT
BRANCH   1   2
ATOM      2  N   UNL     1       4.296   2.596  -4.753  1.00  0.00    -0.354 N 
ATOM      3  C   UNL     1       3.859   1.301  -4.845  1.00  0.00     0.247 C 
ATOM      4  O   UNL     1       2.850   1.129  -5.538  1.00  0.00    -0.272 OA
ATOM      5  H   UNL     1       4.294   3.138  -5.575  1.00  0.00     0.163 HD
BRANCH   3   6
ATOM      6  C   UNL     1       4.559   0.110  -4.061  1.00  0.00     0.202 C 
BRANCH   6   7
ATOM      7  N   UNL     1       5.954   0.383  -3.695  1.00  0.00    -0.340 N 
ATOM      8  C   UNL     1       6.542   0.570  -2.475  1.00  0.00     0.226 C 
ATOM      9  O   UNL     1       7.703   0.991  -2.470  1.00  0.00    -0.275 OA
ATOM     10  H   UNL     1       6.572   0.441  -4.459  1.00  0.00     0.164 HD
BRANCH   8  11
ATOM     11  C   UNL     1       5.833   0.271  -1.161  1.00  0.00     0.157 C 
BRANCH  11  12
ATOM     12  C   UNL     1       4.924   1.361  -0.702  1.00  0.00     0.062 A 
ATOM     13  C   UNL     1       2.925   2.317  -0.609  1.00  0.00     0.150 A 
ATOM     14  N   UNL     1       3.578   1.259  -1.028  1.00  0.00    -0.234 NA
ATOM     15  S   UNL     1       3.856   3.483   0.226  1.00  0.00    -0.116 S 
ATOM     16  C   UNL     1       5.255   2.510  -0.004  1.00  0.00     0.092 A 
BRANCH  13  17
ATOM     17  S   UNL     1       1.234   2.517  -0.991  1.00  0.00    -0.096 SA
BRANCH  17  18
ATOM     18  C   UNL     1       0.482   1.464   0.281  1.00  0.00     0.074 C 
ATOM     19  C   UNL     1       0.784  -0.014   0.097  1.00  0.00     0.016 C 
ENDBRANCH  17  18
ENDBRANCH  13  17
ENDBRANCH  11  12
ENDBRANCH   8  11
ENDBRANCH   6   7
BRANCH   6  20
ATOM     20  C   UNL     1       4.562  -1.157  -4.884  1.00  0.00     0.011 C 
ATOM     21  C   UNL     1       4.795  -2.429  -4.528  1.00  0.00     0.064 C 
ATOM     22  C   UNL     1       4.179  -1.250  -6.334  1.00  0.00     0.156 C 
ATOM     23  C   UNL     1       5.183  -2.997  -3.212  1.00  0.00     0.069 C 
ATOM     24  N   UNL     1       4.628  -3.315  -5.563  1.00  0.00    -0.160 NA
ATOM     25  N   UNL     1       4.276  -2.711  -6.608  1.00  0.00    -0.181 NA
ATOM     26  C   UNL     1       5.108  -0.532  -7.304  1.00  0.00     0.040 C 
ENDBRANCH   6  20
ENDBRANCH   3   6
ENDBRANCH   1   2
BRANCH   1  27
ATOM     27  C   UNL     1       5.969   4.114  -3.698  1.00  0.00     0.042 C 
BRANCH  27  28
ATOM     28  C   UNL     1       5.609   5.527  -4.123  1.00  0.00     0.118 C 
BRANCH  28  29
ATOM     29  N   UNL     1       4.792   6.228  -3.133  1.00  0.00    -0.352 N 
ATOM     30  C   UNL     1       5.009   7.418  -2.476  1.00  0.00     0.251 C 
ATOM     31  H   UNL     1       3.950   5.775  -2.898  1.00  0.00     0.163 HD
ATOM     32  O   UNL     1       4.268   7.749  -1.562  1.00  0.00    -0.269 OA
BRANCH  30  33
ATOM     33  C   UNL     1       6.151   8.275  -2.861  1.00  0.00     0.039 A 
ATOM     34  C   UNL     1       6.897   8.905  -1.861  1.00  0.00     0.014 A 
ATOM     35  C   UNL     1       6.495   8.445  -4.203  1.00  0.00     0.014 A 
ATOM     36  C   UNL     1       8.039   9.631  -2.206  1.00  0.00     0.010 A 
ATOM     37  C   UNL     1       7.687   9.073  -4.535  1.00  0.00     0.010 A 
ATOM     38  C   UNL     1       8.470   9.678  -3.542  1.00  0.00    -0.014 A 
BRANCH  38  39
ATOM     39  C   UNL     1       9.721  10.370  -3.942  1.00  0.00     0.031 A 
ATOM     40  C   UNL     1       9.656  11.510  -4.924  1.00  0.00     0.074 A 
ATOM     41  C   UNL     1      10.911   9.921  -3.494  1.00  0.00     0.049 A 
ATOM     42  N   UNL     1      10.631  12.143  -5.522  1.00  0.00    -0.248 NA
ATOM     43  C   UNL     1       8.313  11.972  -5.316  1.00  0.00     0.031 C 
ATOM     44  C   UNL     1      11.106   8.796  -2.576  1.00  0.00     0.029 A 
ATOM     45  N   UNL     1      12.187  10.350  -3.763  1.00  0.00    -0.354 N 
ATOM     46  C   UNL     1      10.021  13.059  -6.372  1.00  0.00     0.074 A 
ATOM     47  C   UNL     1       8.593  12.856  -6.261  1.00  0.00     0.031 C 
ATOM     48  C   UNL     1      12.419   8.642  -2.337  1.00  0.00     0.029 A 
ATOM     49  C   UNL     1      13.162   9.625  -3.118  1.00  0.00     0.049 A 
ATOM     50  H   UNL     1      12.385  11.106  -4.362  1.00  0.00     0.167 HD
ATOM     51  C   UNL     1      10.596  14.006  -7.149  1.00  0.00     0.037 A 
ATOM     52  C   UNL     1      14.504   9.737  -3.162  1.00  0.00     0.037 A 
ATOM     53  C   UNL     1      12.014  14.232  -7.219  1.00  0.00     0.049 A 
ATOM     54  C   UNL     1      15.118  10.802  -4.031  1.00  0.00     0.074 A 
ATOM     55  C   UNL     1      12.700  15.186  -7.949  1.00  0.00     0.029 A 
ATOM     56  N   UNL     1      12.964  13.504  -6.518  1.00  0.00    -0.354 N 
ATOM     57  N   UNL     1      14.523  11.678  -4.806  1.00  0.00    -0.248 NA
ATOM     58  C   UNL     1      16.584  10.897  -4.030  1.00  0.00     0.031 C 
ATOM     59  C   UNL     1      14.067  15.022  -7.706  1.00  0.00     0.029 A 
ATOM     60  C   UNL     1      14.230  13.990  -6.796  1.00  0.00     0.049 A 
ATOM     61  H   UNL     1      12.768  12.753  -5.912  1.00  0.00     0.167 HD
ATOM     62  C   UNL     1      15.540  12.451  -5.355  1.00  0.00     0.074 A 
ATOM     63  C   UNL     1      16.786  11.944  -4.819  1.00  0.00     0.031 C 
ATOM     64  C   UNL     1      15.453  13.487  -6.224  1.00  0.00     0.037 A 
BRANCH  51  65
ATOM     65  C   UNL     1       9.688  14.888  -7.959  1.00  0.00     0.058 A 
ATOM     66  C   UNL     1       8.878  15.859  -7.348  1.00  0.00     0.135 A 
ATOM     67  C   UNL     1       9.651  14.792  -9.359  1.00  0.00     0.135 A 
ATOM     68  F   UNL     1       8.859  15.980  -6.011  1.00  0.00    -0.206 F 
ATOM     69  C   UNL     1       8.046  16.687  -8.093  1.00  0.00     0.059 A 
ATOM     70  C   UNL     1       8.846  15.629 -10.127  1.00  0.00     0.059 A 
ATOM     71  F   UNL     1      10.402  13.879  -9.994  1.00  0.00    -0.206 F 
ATOM     72  C   UNL     1       8.038  16.566  -9.483  1.00  0.00     0.060 A 
BRANCH  72  73
ATOM     73  S   UNL     1       6.966  17.662 -10.435  1.00  0.00     0.124 S 
ATOM     74  O   UNL     1       5.651  17.090 -10.162  1.00  0.00    -0.237 OA
ATOM     75  O   UNL     1       7.230  18.962  -9.828  1.00  0.00    -0.237 OA
ATOM     76  O   UNL     1       7.447  17.503 -11.804  1.00  0.00    -0.744 OA
ENDBRANCH  72  73
ENDBRANCH  51  65
BRANCH  52  77
ATOM     77  C   UNL     1      15.364   8.838  -2.346  1.00  0.00     0.058 A 
ATOM     78  C   UNL     1      16.087   9.339  -1.252  1.00  0.00     0.135 A 
ATOM     79  C   UNL     1      15.502   7.476  -2.652  1.00  0.00     0.135 A 
ATOM     80  F   UNL     1      15.989  10.635  -0.921  1.00  0.00    -0.206 F 
ATOM     81  C   UNL     1      16.944   8.531  -0.513  1.00  0.00     0.059 A 
ATOM     82  C   UNL     1      16.334   6.642  -1.911  1.00  0.00     0.059 A 
ATOM     83  F   UNL     1      14.817   6.943  -3.675  1.00  0.00    -0.206 F 
ATOM     84  C   UNL     1      17.066   7.184  -0.854  1.00  0.00     0.060 A 
BRANCH  84  85
ATOM     85  S   UNL     1      18.177   6.140   0.115  1.00  0.00     0.124 S 
ATOM     86  O   UNL     1      19.481   6.562  -0.383  1.00  0.00    -0.237 OA
ATOM     87  O   UNL     1      17.857   6.535   1.483  1.00  0.00    -0.237 OA
ATOM     88  O   UNL     1      17.768   4.787  -0.251  1.00  0.00    -0.744 OA
ENDBRANCH  84  85
ENDBRANCH  52  77
BRANCH  64  89
ATOM     89  C   UNL     1      16.730  14.180  -6.605  1.00  0.00     0.058 A 
ATOM     90  C   UNL     1      17.649  13.598  -7.490  1.00  0.00     0.135 A 
ATOM     91  C   UNL     1      17.004  15.470  -6.123  1.00  0.00     0.135 A 
ATOM     92  F   UNL     1      17.435  12.364  -7.973  1.00  0.00    -0.206 F 
ATOM     93  C   UNL     1      18.808  14.266  -7.872  1.00  0.00     0.059 A 
ATOM     94  C   UNL     1      18.143  16.166  -6.511  1.00  0.00     0.059 A 
ATOM     95  F   UNL     1      16.149  16.073  -5.281  1.00  0.00    -0.206 F 
ATOM     96  C   UNL     1      19.044  15.551  -7.379  1.00  0.00     0.060 A 
BRANCH  96  97
ATOM     97  S   UNL     1      20.528  16.426  -7.918  1.00  0.00     0.124 S 
ATOM     98  O   UNL     1      21.564  15.752  -7.143  1.00  0.00    -0.237 OA
ATOM     99  O   UNL     1      20.541  16.166  -9.354  1.00  0.00    -0.237 OA
ATOM    100  O   UNL     1      20.262  17.811  -7.541  1.00  0.00    -0.744 OA
ENDBRANCH  96  97
ENDBRANCH  64  89
ENDBRANCH  38  39
ENDBRANCH  30  33
ENDBRANCH  28  29
ENDBRANCH  27  28
ENDBRANCH   1  27
TORSDOF 19
