REMARK SMILES C[C@@H](Nc1cccc(Cl)c1)[C@@H](C)C(=O)NCCCNC(=O)c1ccc(-c2c3nc(c(-c4c(F)cc(S(=O)(=O)[O-])cc4F)c4ccc([nH]4)c(-c4c(F)cc(S(=O)(=O)[O-])cc4F)c4nc(c(-c5c(F)cc(S(=O)(=O)[O-])cc5F)c5ccc2[nH]5)C=C4)C=C3)cc1
REMARK SMILES IDX 17 1 16 2 15 3 13 4 14 5 11 7 12 8 2 9 1 10 3 11 4 13 5 14
REMARK SMILES IDX 10 15 6 16 8 17 7 18 9 19 18 20 19 21 20 22 21 24 22 25
REMARK SMILES IDX 23 26 87 27 24 28 86 29 25 30 26 31 27 32 80 33 28 34 85 35
REMARK SMILES IDX 79 36 81 37 29 38 84 39 78 40 77 41 30 43 64 44 43 45 63 46
REMARK SMILES IDX 44 47 47 48 62 49 82 50 45 51 46 52 61 54 83 55 48 56 31 57
REMARK SMILES IDX 32 58 41 59 33 60 34 61 40 62 42 63 35 64 36 65 37 66 38 67
REMARK SMILES IDX 39 68 65 69 66 70 75 71 67 72 68 73 74 74 76 75 69 76 70 77
REMARK SMILES IDX 71 78 72 79 73 80 49 81 50 82 59 83 51 84 52 85 58 86 60 87
REMARK SMILES IDX 53 88 54 89 55 90 56 91 57 92
REMARK H PARENT 15 6 3 12 19 23 81 42 47 53
REMARK Flexibility Score: inf
ROOT
ATOM      1  C   UNL     1       0.744   3.469   3.285  1.00  0.00     0.042 C 
ENDROOT
BRANCH   1   2
ATOM      2  C   UNL     1      -0.434   2.497   3.268  1.00  0.00     0.117 C 
BRANCH   2   3
ATOM      3  N   UNL     1      -1.481   2.876   2.336  1.00  0.00    -0.356 N 
ATOM      4  C   UNL     1      -1.891   2.354   1.151  1.00  0.00     0.224 C 
ATOM      5  O   UNL     1      -2.945   2.813   0.696  1.00  0.00    -0.275 OA
ATOM      6  H   UNL     1      -1.995   3.667   2.619  1.00  0.00     0.163 HD
BRANCH   4   7
ATOM      7  C   UNL     1      -1.184   1.205   0.434  1.00  0.00     0.097 C 
ATOM      8  C   UNL     1      -1.609  -0.078   1.166  1.00  0.00     0.020 C 
BRANCH   7   9
ATOM      9  C   UNL     1       0.343   1.384   0.213  1.00  0.00     0.088 C 
ATOM     10  C   UNL     1       1.054   0.023   0.052  1.00  0.00     0.031 C 
BRANCH   9  11
ATOM     11  N   UNL     1       0.733   2.154  -0.980  1.00  0.00    -0.382 N 
ATOM     12  H   UNL     1       1.637   1.960  -1.318  1.00  0.00     0.160 HD
BRANCH  11  13
ATOM     13  C   UNL     1       0.042   3.100  -1.697  1.00  0.00     0.036 A 
ATOM     14  C   UNL     1      -0.738   4.105  -1.128  1.00  0.00     0.026 A 
ATOM     15  C   UNL     1       0.074   3.018  -3.095  1.00  0.00     0.046 A 
ATOM     16  C   UNL     1      -1.530   4.948  -1.916  1.00  0.00     0.004 A 
ATOM     17  C   UNL     1      -0.701   3.865  -3.887  1.00  0.00     0.043 A 
ATOM     18  C   UNL     1      -1.521   4.821  -3.301  1.00  0.00     0.020 A 
ATOM     19  Cl  UNL     1      -0.658   3.706  -5.601  1.00  0.00    -0.084 Cl
ENDBRANCH  11  13
ENDBRANCH   9  11
ENDBRANCH   7   9
ENDBRANCH   4   7
ENDBRANCH   2   3
ENDBRANCH   1   2
BRANCH   1  20
ATOM     20  C   UNL     1       0.389   4.911   3.630  1.00  0.00     0.118 C 
BRANCH  20  21
ATOM     21  N   UNL     1      -0.214   5.047   4.947  1.00  0.00    -0.352 N 
ATOM     22  C   UNL     1       0.267   5.600   6.107  1.00  0.00     0.251 C 
ATOM     23  H   UNL     1      -1.125   4.679   5.018  1.00  0.00     0.163 HD
ATOM     24  O   UNL     1      -0.353   5.416   7.151  1.00  0.00    -0.269 OA
BRANCH  22  25
ATOM     25  C   UNL     1       1.522   6.389   6.127  1.00  0.00     0.039 A 
ATOM     26  C   UNL     1       2.382   6.252   7.222  1.00  0.00     0.014 A 
ATOM     27  C   UNL     1       1.835   7.298   5.114  1.00  0.00     0.014 A 
ATOM     28  C   UNL     1       3.579   6.972   7.266  1.00  0.00     0.010 A 
ATOM     29  C   UNL     1       3.067   7.953   5.119  1.00  0.00     0.010 A 
ATOM     30  C   UNL     1       3.951   7.801   6.196  1.00  0.00    -0.014 A 
BRANCH  30  31
ATOM     31  C   UNL     1       5.258   8.512   6.186  1.00  0.00     0.031 A 
ATOM     32  C   UNL     1       5.306  10.018   6.169  1.00  0.00     0.074 A 
ATOM     33  C   UNL     1       6.402   7.802   6.123  1.00  0.00     0.049 A 
ATOM     34  N   UNL     1       6.343  10.810   6.075  1.00  0.00    -0.248 NA
ATOM     35  C   UNL     1       4.017  10.725   6.238  1.00  0.00     0.031 C 
ATOM     36  C   UNL     1       6.489   6.340   6.085  1.00  0.00     0.029 A 
ATOM     37  N   UNL     1       7.711   8.211   6.064  1.00  0.00    -0.354 N 
ATOM     38  C   UNL     1       5.833  12.104   6.055  1.00  0.00     0.074 A 
ATOM     39  C   UNL     1       4.392  11.988   6.099  1.00  0.00     0.031 C 
ATOM     40  C   UNL     1       7.779   5.976   6.027  1.00  0.00     0.029 A 
ATOM     41  C   UNL     1       8.611   7.174   5.984  1.00  0.00     0.049 A 
ATOM     42  H   UNL     1       7.981   9.158   6.079  1.00  0.00     0.167 HD
ATOM     43  C   UNL     1       6.505  13.280   6.025  1.00  0.00     0.037 A 
ATOM     44  C   UNL     1       9.954   7.185   5.874  1.00  0.00     0.037 A 
ATOM     45  C   UNL     1       7.941  13.389   6.013  1.00  0.00     0.049 A 
ATOM     46  C   UNL     1      10.679   8.503   5.850  1.00  0.00     0.074 A 
ATOM     47  C   UNL     1       8.717  14.535   6.048  1.00  0.00     0.029 A 
ATOM     48  N   UNL     1       8.819  12.315   5.959  1.00  0.00    -0.354 N 
ATOM     49  N   UNL     1      10.182   9.716   5.896  1.00  0.00    -0.248 NA
ATOM     50  C   UNL     1      12.145   8.455   5.765  1.00  0.00     0.031 C 
ATOM     51  C   UNL     1      10.062  14.156   5.971  1.00  0.00     0.029 A 
ATOM     52  C   UNL     1      10.126  12.772   5.939  1.00  0.00     0.049 A 
ATOM     53  H   UNL     1       8.551  11.368   5.938  1.00  0.00     0.167 HD
ATOM     54  C   UNL     1      11.276  10.575   5.872  1.00  0.00     0.074 A 
ATOM     55  C   UNL     1      12.460   9.742   5.819  1.00  0.00     0.031 C 
ATOM     56  C   UNL     1      11.296  11.931   5.892  1.00  0.00     0.037 A 
BRANCH  43  57
ATOM     57  C   UNL     1       5.695  14.548   6.009  1.00  0.00     0.058 A 
ATOM     58  C   UNL     1       4.970  14.976   7.133  1.00  0.00     0.135 A 
ATOM     59  C   UNL     1       5.674  15.368   4.868  1.00  0.00     0.135 A 
ATOM     60  F   UNL     1       4.943  14.225   8.246  1.00  0.00    -0.206 F 
ATOM     61  C   UNL     1       4.229  16.153   7.117  1.00  0.00     0.059 A 
ATOM     62  C   UNL     1       4.963  16.565   4.840  1.00  0.00     0.059 A 
ATOM     63  F   UNL     1       6.350  15.009   3.765  1.00  0.00    -0.206 F 
ATOM     64  C   UNL     1       4.232  16.941   5.965  1.00  0.00     0.060 A 
BRANCH  64  65
ATOM     65  S   UNL     1       3.269  18.468   5.964  1.00  0.00     0.124 S 
ATOM     66  O   UNL     1       1.906  17.953   5.883  1.00  0.00    -0.237 OA
ATOM     67  O   UNL     1       3.642  19.074   7.238  1.00  0.00    -0.237 OA
ATOM     68  O   UNL     1       3.746  19.171   4.776  1.00  0.00    -0.744 OA
ENDBRANCH  64  65
ENDBRANCH  43  57
BRANCH  44  69
ATOM     69  C   UNL     1      10.702   5.901   5.798  1.00  0.00     0.058 A 
ATOM     70  C   UNL     1      11.494   5.462   6.869  1.00  0.00     0.135 A 
ATOM     71  C   UNL     1      10.624   5.079   4.663  1.00  0.00     0.135 A 
ATOM     72  F   UNL     1      11.605   6.216   7.973  1.00  0.00    -0.206 F 
ATOM     73  C   UNL     1      12.195   4.262   6.814  1.00  0.00     0.059 A 
ATOM     74  C   UNL     1      11.295   3.862   4.595  1.00  0.00     0.059 A 
ATOM     75  F   UNL     1       9.865   5.444   3.618  1.00  0.00    -0.206 F 
ATOM     76  C   UNL     1      12.086   3.466   5.672  1.00  0.00     0.060 A 
BRANCH  76  77
ATOM     77  S   UNL     1      12.955   1.883   5.633  1.00  0.00     0.124 S 
ATOM     78  O   UNL     1      14.337   2.312   5.452  1.00  0.00    -0.237 OA
ATOM     79  O   UNL     1      12.625   1.320   6.938  1.00  0.00    -0.237 OA
ATOM     80  O   UNL     1      12.351   1.199   4.494  1.00  0.00    -0.744 OA
ENDBRANCH  76  77
ENDBRANCH  44  69
BRANCH  56  81
ATOM     81  C   UNL     1      12.642  12.603   5.890  1.00  0.00     0.058 A 
ATOM     82  C   UNL     1      13.447  12.641   4.742  1.00  0.00     0.135 A 
ATOM     83  C   UNL     1      13.107  13.263   7.040  1.00  0.00     0.135 A 
ATOM     84  F   UNL     1      13.053  12.019   3.619  1.00  0.00    -0.206 F 
ATOM     85  C   UNL     1      14.678  13.290   4.739  1.00  0.00     0.059 A 
ATOM     86  C   UNL     1      14.321  13.942   7.051  1.00  0.00     0.059 A 
ATOM     87  F   UNL     1      12.370  13.266   8.162  1.00  0.00    -0.206 F 
ATOM     88  C   UNL     1      15.105  13.940   5.898  1.00  0.00     0.060 A 
BRANCH  88  89
ATOM     89  S   UNL     1      16.688  14.808   5.871  1.00  0.00     0.124 S 
ATOM     90  O   UNL     1      17.633  13.697   5.909  1.00  0.00    -0.237 OA
ATOM     91  O   UNL     1      16.621  15.541   4.611  1.00  0.00    -0.237 OA
ATOM     92  O   UNL     1      16.642  15.635   7.073  1.00  0.00    -0.744 OA
ENDBRANCH  88  89
ENDBRANCH  56  81
ENDBRANCH  30  31
ENDBRANCH  22  25
ENDBRANCH  20  21
ENDBRANCH   1  20
TORSDOF 16
