REMARK SMILES CC(=O)NS(=O)(=O)c1ccc(-c2ccn(C(F)F)c(=O)c2)cc1C(=O)NCCCNC(=O)c1ccc(-c2c3nc(c(-c4c(F)cc(S(=O)(=O)[O-])cc4F)c4ccc([nH]4)c(-c4c(F)cc(S(=O)(=O)[O-])cc4F)c4nc(c(-c5c(F)cc(S(=O)(=O)[O-])cc5F)c5ccc2[nH]5)C=C4)C=C3)cc1
REMARK SMILES IDX 28 1 27 2 26 3 24 4 25 5 23 7 8 8 9 9 10 10 22 11 11 12 5 13
REMARK SMILES IDX 6 14 7 15 4 16 1 17 2 18 3 19 12 21 13 22 21 23 14 24 19 25
REMARK SMILES IDX 15 26 20 27 16 28 17 29 18 30 29 31 30 32 31 33 32 35 33 36
REMARK SMILES IDX 34 37 98 38 35 39 97 40 36 41 37 42 38 43 91 44 39 45 96 46
REMARK SMILES IDX 90 47 92 48 40 49 95 50 89 51 88 52 41 54 75 55 54 56 74 57
REMARK SMILES IDX 55 58 58 59 73 60 93 61 56 62 57 63 72 65 94 66 59 67 42 68
REMARK SMILES IDX 43 69 52 70 44 71 45 72 51 73 53 74 46 75 47 76 48 77 49 78
REMARK SMILES IDX 50 79 76 80 77 81 86 82 78 83 79 84 85 85 87 86 80 87 81 88
REMARK SMILES IDX 82 89 83 90 84 91 60 92 61 93 70 94 62 95 63 96 69 97 71 98
REMARK SMILES IDX 64 99 65 100 66 101 67 102 68 103
REMARK H PARENT 26 6 4 20 30 34 92 53 58 64
REMARK Flexibility Score: inf
ROOT
ATOM      1  C   UNL     1       3.842  -0.059   4.029  1.00  0.00     0.042 C 
ENDROOT
BRANCH   1   2
ATOM      2  C   UNL     1       2.879  -0.700   3.030  1.00  0.00     0.118 C 
BRANCH   2   3
ATOM      3  N   UNL     1       2.559   0.153   1.897  1.00  0.00    -0.352 N 
ATOM      4  C   UNL     1       2.245  -0.136   0.601  1.00  0.00     0.252 C 
ATOM      5  O   UNL     1       1.958   0.785  -0.162  1.00  0.00    -0.269 OA
ATOM      6  H   UNL     1       2.571   1.115   2.103  1.00  0.00     0.163 HD
BRANCH   4   7
ATOM      7  C   UNL     1       2.271  -1.501   0.043  1.00  0.00     0.060 A 
ATOM      8  C   UNL     1       1.476  -2.573   0.449  1.00  0.00     0.100 A 
ATOM      9  C   UNL     1       1.572  -3.807  -0.221  1.00  0.00     0.024 A 
ATOM     10  C   UNL     1       2.337  -3.930  -1.379  1.00  0.00     0.010 A 
ATOM     11  C   UNL     1       3.017  -1.630  -1.151  1.00  0.00     0.024 A 
ATOM     12  C   UNL     1       3.001  -2.816  -1.899  1.00  0.00    -0.017 A 
BRANCH   8  13
ATOM     13  S   UNL     1       0.124  -2.446   1.587  1.00  0.00     0.264 S 
ATOM     14  O   UNL     1       0.653  -2.785   2.885  1.00  0.00    -0.201 OA
ATOM     15  O   UNL     1      -0.976  -3.200   1.022  1.00  0.00    -0.201 OA
BRANCH  13  16
ATOM     16  N   UNL     1      -0.343  -0.865   1.629  1.00  0.00    -0.249 N 
ATOM     17  C   UNL     1      -1.194  -0.591  -0.719  1.00  0.00     0.115 C 
ATOM     18  C   UNL     1      -1.125  -0.144   0.715  1.00  0.00     0.230 C 
ATOM     19  O   UNL     1      -1.650   0.896   1.091  1.00  0.00    -0.274 OA
ATOM     20  H   UNL     1      -0.028  -0.354   2.409  1.00  0.00     0.183 HD
ENDBRANCH  13  16
ENDBRANCH   8  13
BRANCH  12  21
ATOM     21  C   UNL     1       3.517  -2.832  -3.284  1.00  0.00    -0.011 A 
ATOM     22  C   UNL     1       4.878  -2.508  -3.659  1.00  0.00     0.027 A 
ATOM     23  C   UNL     1       2.619  -3.078  -4.257  1.00  0.00     0.080 A 
ATOM     24  C   UNL     1       5.228  -2.439  -4.951  1.00  0.00     0.095 A 
ATOM     25  C   UNL     1       2.996  -3.032  -5.693  1.00  0.00     0.255 A 
ATOM     26  N   UNL     1       4.310  -2.686  -5.957  1.00  0.00    -0.258 N 
ATOM     27  O   UNL     1       2.138  -3.285  -6.532  1.00  0.00    -0.269 OA
BRANCH  26  28
ATOM     28  C   UNL     1       4.686  -2.588  -7.343  1.00  0.00     0.451 C 
ATOM     29  F   UNL     1       4.523  -3.774  -7.979  1.00  0.00    -0.185 F 
ATOM     30  F   UNL     1       3.934  -1.662  -7.988  1.00  0.00    -0.185 F 
ENDBRANCH  26  28
ENDBRANCH  12  21
ENDBRANCH   4   7
ENDBRANCH   2   3
ENDBRANCH   1   2
BRANCH   1  31
ATOM     31  C   UNL     1       3.437   1.324   4.543  1.00  0.00     0.118 C 
BRANCH  31  32
ATOM     32  N   UNL     1       2.067   1.406   5.031  1.00  0.00    -0.352 N 
ATOM     33  C   UNL     1       1.512   1.288   6.280  1.00  0.00     0.251 C 
ATOM     34  H   UNL     1       1.407   1.581   4.322  1.00  0.00     0.163 HD
ATOM     35  O   UNL     1       0.285   1.240   6.365  1.00  0.00    -0.269 OA
BRANCH  33  36
ATOM     36  C   UNL     1       2.330   1.188   7.512  1.00  0.00     0.039 A 
ATOM     37  C   UNL     1       1.881   0.350   8.541  1.00  0.00     0.014 A 
ATOM     38  C   UNL     1       3.478   1.955   7.713  1.00  0.00     0.014 A 
ATOM     39  C   UNL     1       2.623   0.214   9.720  1.00  0.00     0.010 A 
ATOM     40  C   UNL     1       4.256   1.765   8.857  1.00  0.00     0.010 A 
ATOM     41  C   UNL     1       3.848   0.880   9.867  1.00  0.00    -0.014 A 
BRANCH  41  42
ATOM     42  C   UNL     1       4.736   0.656  11.040  1.00  0.00     0.031 A 
ATOM     43  C   UNL     1       5.161   1.813  11.901  1.00  0.00     0.074 A 
ATOM     44  C   UNL     1       5.262  -0.563  11.271  1.00  0.00     0.049 A 
ATOM     45  N   UNL     1       6.163   1.891  12.739  1.00  0.00    -0.248 NA
ATOM     46  C   UNL     1       4.383   3.054  11.773  1.00  0.00     0.031 C 
ATOM     47  C   UNL     1       4.967  -1.780  10.512  1.00  0.00     0.029 A 
ATOM     48  N   UNL     1       6.178  -0.972  12.208  1.00  0.00    -0.354 N 
ATOM     49  C   UNL     1       6.208   3.217  13.149  1.00  0.00     0.074 A 
ATOM     50  C   UNL     1       5.092   3.892  12.519  1.00  0.00     0.031 C 
ATOM     51  C   UNL     1       5.665  -2.803  11.031  1.00  0.00     0.029 A 
ATOM     52  C   UNL     1       6.497  -2.304  12.121  1.00  0.00     0.049 A 
ATOM     53  H   UNL     1       6.569  -0.366  12.879  1.00  0.00     0.167 HD
ATOM     54  C   UNL     1       7.123   3.821  13.945  1.00  0.00     0.037 A 
ATOM     55  C   UNL     1       7.379  -3.042  12.821  1.00  0.00     0.037 A 
ATOM     56  C   UNL     1       8.177   3.134  14.643  1.00  0.00     0.049 A 
ATOM     57  C   UNL     1       8.239  -2.390  13.860  1.00  0.00     0.074 A 
ATOM     58  C   UNL     1       9.171   3.660  15.452  1.00  0.00     0.029 A 
ATOM     59  N   UNL     1       8.345   1.758  14.652  1.00  0.00    -0.354 N 
ATOM     60  N   UNL     1       8.341  -1.118  14.158  1.00  0.00    -0.248 NA
ATOM     61  C   UNL     1       9.113  -3.270  14.650  1.00  0.00     0.031 C 
ATOM     62  C   UNL     1       9.924   2.597  15.971  1.00  0.00     0.029 A 
ATOM     63  C   UNL     1       9.395   1.413  15.486  1.00  0.00     0.049 A 
ATOM     64  H   UNL     1       7.797   1.120  14.141  1.00  0.00     0.167 HD
ATOM     65  C   UNL     1       9.301  -1.041  15.158  1.00  0.00     0.074 A 
ATOM     66  C   UNL     1       9.732  -2.397  15.434  1.00  0.00     0.031 C 
ATOM     67  C   UNL     1       9.796   0.060  15.773  1.00  0.00     0.037 A 
BRANCH  54  68
ATOM     68  C   UNL     1       7.052   5.314  14.043  1.00  0.00     0.058 A 
ATOM     69  C   UNL     1       6.175   5.963  14.922  1.00  0.00     0.135 A 
ATOM     70  C   UNL     1       7.870   6.104  13.220  1.00  0.00     0.135 A 
ATOM     71  F   UNL     1       5.360   5.247  15.712  1.00  0.00    -0.206 F 
ATOM     72  C   UNL     1       6.091   7.352  14.965  1.00  0.00     0.059 A 
ATOM     73  C   UNL     1       7.811   7.492  13.254  1.00  0.00     0.059 A 
ATOM     74  F   UNL     1       8.721   5.526  12.357  1.00  0.00    -0.206 F 
ATOM     75  C   UNL     1       6.903   8.107  14.116  1.00  0.00     0.060 A 
BRANCH  75  76
ATOM     76  S   UNL     1       6.785   9.908  14.123  1.00  0.00     0.124 S 
ATOM     77  O   UNL     1       5.854  10.139  13.023  1.00  0.00    -0.237 OA
ATOM     78  O   UNL     1       6.270  10.201  15.457  1.00  0.00    -0.237 OA
ATOM     79  O   UNL     1       8.163  10.325  13.883  1.00  0.00    -0.744 OA
ENDBRANCH  75  76
ENDBRANCH  54  68
BRANCH  55  80
ATOM     80  C   UNL     1       7.481  -4.495  12.552  1.00  0.00     0.058 A 
ATOM     81  C   UNL     1       6.764  -5.411  13.333  1.00  0.00     0.135 A 
ATOM     82  C   UNL     1       8.242  -4.985  11.482  1.00  0.00     0.135 A 
ATOM     83  F   UNL     1       6.025  -4.978  14.366  1.00  0.00    -0.206 F 
ATOM     84  C   UNL     1       6.791  -6.774  13.059  1.00  0.00     0.059 A 
ATOM     85  C   UNL     1       8.277  -6.343  11.184  1.00  0.00     0.059 A 
ATOM     86  F   UNL     1       8.929  -4.138  10.701  1.00  0.00    -0.206 F 
ATOM     87  C   UNL     1       7.549  -7.230  11.980  1.00  0.00     0.060 A 
BRANCH  87  88
ATOM     88  S   UNL     1       7.522  -8.985  11.555  1.00  0.00     0.124 S 
ATOM     89  O   UNL     1       8.650  -9.491  12.328  1.00  0.00    -0.237 OA
ATOM     90  O   UNL     1       6.199  -9.406  12.008  1.00  0.00    -0.237 OA
ATOM     91  O   UNL     1       7.699  -8.968  10.106  1.00  0.00    -0.744 OA
ENDBRANCH  87  88
ENDBRANCH  55  80
BRANCH  67  92
ATOM     92  C   UNL     1      10.844  -0.160  16.818  1.00  0.00     0.058 A 
ATOM     93  C   UNL     1      12.202  -0.237  16.477  1.00  0.00     0.135 A 
ATOM     94  C   UNL     1      10.492  -0.276  18.171  1.00  0.00     0.135 A 
ATOM     95  F   UNL     1      12.582  -0.136  15.193  1.00  0.00    -0.206 F 
ATOM     96  C   UNL     1      13.182  -0.432  17.444  1.00  0.00     0.059 A 
ATOM     97  C   UNL     1      11.456  -0.468  19.155  1.00  0.00     0.059 A 
ATOM     98  F   UNL     1       9.204  -0.213  18.541  1.00  0.00    -0.206 F 
ATOM     99  C   UNL     1      12.798  -0.554  18.781  1.00  0.00     0.060 A 
BRANCH  99 100
ATOM    100  S   UNL     1      14.065  -0.787  20.048  1.00  0.00     0.124 S 
ATOM    101  O   UNL     1      14.188  -2.240  20.074  1.00  0.00    -0.237 OA
ATOM    102  O   UNL     1      15.209  -0.064  19.501  1.00  0.00    -0.237 OA
ATOM    103  O   UNL     1      13.461  -0.183  21.232  1.00  0.00    -0.744 OA
ENDBRANCH  99 100
ENDBRANCH  67  92
ENDBRANCH  41  42
ENDBRANCH  33  36
ENDBRANCH  31  32
ENDBRANCH   1  31
TORSDOF 17
