REMARK SMILES Cc1c(C(=O)NCCCNC(=O)c2ccc(-c3c4nc(c(-c5c(F)cc(S(=O)(=O)[O-])cc5F)c5ccc([nH]5)c(-c5c(F)cc(S(=O)(=O)[O-])cc5F)c5nc(c(-c6c(F)cc(S(=O)(=O)[O-])cc6F)c6ccc3[nH]6)C=C5)C=C4)cc2)oc2c1/C(=N/NC(=O)C(c1ccccc1)c1ccccc1)CCC2
REMARK SMILES IDX 8 1 7 2 6 3 4 4 5 5 3 7 1 8 2 9 81 10 79 11 80 12 82 13
REMARK SMILES IDX 102 14 83 15 100 16 101 17 84 18 85 19 86 21 87 22 88 23
REMARK SMILES IDX 89 24 93 25 90 26 92 27 91 28 94 29 95 30 99 31 96 32 98 33
REMARK SMILES IDX 97 34 9 35 10 36 11 37 12 39 13 40 14 41 78 42 15 43 77 44
REMARK SMILES IDX 16 45 17 46 18 47 71 48 19 49 76 50 70 51 72 52 20 53 75 54
REMARK SMILES IDX 69 55 68 56 21 58 55 59 34 60 54 61 35 62 38 63 53 64 73 65
REMARK SMILES IDX 36 66 37 67 52 69 74 70 39 71 22 72 23 73 32 74 24 75 25 76
REMARK SMILES IDX 31 77 33 78 26 79 27 80 28 81 29 82 30 83 56 84 57 85 66 86
REMARK SMILES IDX 58 87 59 88 65 89 67 90 60 91 61 92 62 93 63 94 64 95 40 96
REMARK SMILES IDX 41 97 50 98 42 99 43 100 49 101 51 102 44 103 45 104 46 105
REMARK SMILES IDX 47 106 48 107
REMARK H PARENT 6 6 84 20 10 38 72 57 38 68
REMARK Flexibility Score: inf
ROOT
ATOM      1  C   UNL     1      -0.591  -1.024  -6.362  1.00  0.00     0.042 C 
ENDROOT
BRANCH   1   2
ATOM      2  C   UNL     1      -1.556  -1.326  -5.197  1.00  0.00     0.118 C 
BRANCH   2   3
ATOM      3  N   UNL     1      -1.010  -2.241  -4.183  1.00  0.00    -0.349 N 
ATOM      4  C   UNL     1      -0.265  -1.946  -3.048  1.00  0.00     0.287 C 
ATOM      5  O   UNL     1      -0.087  -2.840  -2.213  1.00  0.00    -0.266 OA
ATOM      6  H   UNL     1      -1.198  -3.196  -4.329  1.00  0.00     0.163 HD
BRANCH   4   7
ATOM      7  C   UNL     1       0.194  -0.590  -2.877  1.00  0.00     0.195 A 
ATOM      8  C   UNL     1       0.897  -0.230  -0.402  1.00  0.00     0.049 C 
ATOM      9  C   UNL     1       0.619   0.188  -1.800  1.00  0.00     0.010 A 
ATOM     10  C   UNL     1       0.583   1.532  -2.294  1.00  0.00     0.043 A 
ATOM     11  O   UNL     1       0.157   0.177  -3.994  1.00  0.00    -0.455 OA
ATOM     12  C   UNL     1       0.235   1.441  -3.617  1.00  0.00     0.114 A 
ATOM     13  C   UNL     1       0.731   2.843  -1.688  1.00  0.00     0.072 C 
ATOM     14  C   UNL     1      -0.184   2.449  -4.599  1.00  0.00     0.076 C 
ATOM     15  N   UNL     1       1.392   2.799  -0.562  1.00  0.00    -0.177 NA
ATOM     16  C   UNL     1      -0.006   3.894  -2.562  1.00  0.00     0.059 C 
ATOM     17  C   UNL     1       0.246   3.795  -4.076  1.00  0.00     0.014 C 
BRANCH  15  18
ATOM     18  N   UNL     1       1.875   3.668   0.392  1.00  0.00    -0.246 N 
ATOM     19  C   UNL     1       1.984   5.043   0.518  1.00  0.00     0.252 C 
ATOM     20  H   UNL     1       2.231   3.195   1.178  1.00  0.00     0.193 HD
ATOM     21  O   UNL     1       2.558   5.526   1.500  1.00  0.00    -0.272 OA
BRANCH  19  22
ATOM     22  C   UNL     1       1.372   5.933  -0.547  1.00  0.00     0.140 C 
BRANCH  22  23
ATOM     23  C   UNL     1       2.266   5.738  -1.874  1.00  0.00    -0.031 A 
ATOM     24  C   UNL     1       3.178   4.644  -2.026  1.00  0.00     0.005 A 
ATOM     25  C   UNL     1       2.272   6.630  -2.956  1.00  0.00     0.005 A 
ATOM     26  C   UNL     1       3.869   4.331  -3.202  1.00  0.00     0.000 A 
ATOM     27  C   UNL     1       3.045   6.367  -4.123  1.00  0.00     0.000 A 
ATOM     28  C   UNL     1       3.801   5.200  -4.265  1.00  0.00     0.000 A 
ENDBRANCH  22  23
BRANCH  22  29
ATOM     29  C   UNL     1      -0.226   5.777  -0.387  1.00  0.00    -0.031 A 
ATOM     30  C   UNL     1      -1.162   6.633  -0.986  1.00  0.00     0.005 A 
ATOM     31  C   UNL     1      -0.810   4.708   0.368  1.00  0.00     0.005 A 
ATOM     32  C   UNL     1      -2.552   6.341  -0.939  1.00  0.00     0.000 A 
ATOM     33  C   UNL     1      -2.167   4.370   0.346  1.00  0.00     0.000 A 
ATOM     34  C   UNL     1      -3.047   5.188  -0.324  1.00  0.00     0.000 A 
ENDBRANCH  22  29
ENDBRANCH  19  22
ENDBRANCH  15  18
ENDBRANCH   4   7
ENDBRANCH   2   3
ENDBRANCH   1   2
BRANCH   1  35
ATOM     35  C   UNL     1      -0.645  -2.103  -7.418  1.00  0.00     0.118 C 
BRANCH  35  36
ATOM     36  N   UNL     1      -1.933  -2.114  -8.125  1.00  0.00    -0.352 N 
ATOM     37  C   UNL     1      -2.415  -3.038  -9.034  1.00  0.00     0.251 C 
ATOM     38  H   UNL     1      -2.534  -1.361  -7.925  1.00  0.00     0.163 HD
ATOM     39  O   UNL     1      -3.339  -2.752  -9.786  1.00  0.00    -0.269 OA
BRANCH  37  40
ATOM     40  C   UNL     1      -1.792  -4.370  -9.069  1.00  0.00     0.039 A 
ATOM     41  C   UNL     1      -1.547  -5.056 -10.260  1.00  0.00     0.014 A 
ATOM     42  C   UNL     1      -1.388  -4.896  -7.849  1.00  0.00     0.014 A 
ATOM     43  C   UNL     1      -0.820  -6.243 -10.203  1.00  0.00     0.010 A 
ATOM     44  C   UNL     1      -0.462  -5.894  -7.828  1.00  0.00     0.010 A 
ATOM     45  C   UNL     1      -0.266  -6.642  -8.976  1.00  0.00    -0.014 A 
BRANCH  45  46
ATOM     46  C   UNL     1       0.619  -7.790  -8.847  1.00  0.00     0.031 A 
ATOM     47  C   UNL     1       1.834  -7.695  -9.694  1.00  0.00     0.074 A 
ATOM     48  C   UNL     1       0.471  -8.691  -7.848  1.00  0.00     0.049 A 
ATOM     49  N   UNL     1       2.102  -8.369 -10.761  1.00  0.00    -0.248 NA
ATOM     50  C   UNL     1       2.767  -6.578  -9.453  1.00  0.00     0.031 C 
ATOM     51  C   UNL     1      -0.502  -8.684  -6.744  1.00  0.00     0.029 A 
ATOM     52  N   UNL     1       1.244  -9.764  -7.537  1.00  0.00    -0.354 N 
ATOM     53  C   UNL     1       3.373  -7.958 -11.151  1.00  0.00     0.074 A 
ATOM     54  C   UNL     1       3.603  -6.705 -10.486  1.00  0.00     0.031 C 
ATOM     55  C   UNL     1      -0.110  -9.543  -5.778  1.00  0.00     0.029 A 
ATOM     56  C   UNL     1       1.033 -10.290  -6.261  1.00  0.00     0.049 A 
ATOM     57  H   UNL     1       1.903 -10.142  -8.163  1.00  0.00     0.167 HD
ATOM     58  C   UNL     1       4.237  -8.832 -11.741  1.00  0.00     0.037 A 
ATOM     59  C   UNL     1       1.773 -11.254  -5.651  1.00  0.00     0.037 A 
ATOM     60  C   UNL     1       3.538 -10.020 -12.176  1.00  0.00     0.049 A 
ATOM     61  C   UNL     1       2.513 -11.963  -6.731  1.00  0.00     0.074 A 
ATOM     62  C   UNL     1       2.478 -10.264 -13.028  1.00  0.00     0.029 A 
ATOM     63  N   UNL     1       3.649 -11.140 -11.384  1.00  0.00    -0.354 N 
ATOM     64  N   UNL     1       1.927 -12.669  -7.662  1.00  0.00    -0.248 NA
ATOM     65  C   UNL     1       3.836 -11.461  -7.071  1.00  0.00     0.031 C 
ATOM     66  C   UNL     1       1.714 -11.280 -12.380  1.00  0.00     0.029 A 
ATOM     67  C   UNL     1       2.394 -11.669 -11.225  1.00  0.00     0.049 A 
ATOM     68  H   UNL     1       4.482 -11.498 -11.000  1.00  0.00     0.167 HD
ATOM     69  C   UNL     1       2.595 -12.340  -8.834  1.00  0.00     0.074 A 
ATOM     70  C   UNL     1       3.802 -11.639  -8.395  1.00  0.00     0.031 C 
ATOM     71  C   UNL     1       1.967 -12.394 -10.046  1.00  0.00     0.037 A 
BRANCH  58  72
ATOM     72  C   UNL     1       5.741  -8.814 -11.565  1.00  0.00     0.058 A 
ATOM     73  C   UNL     1       6.523  -9.715 -12.319  1.00  0.00     0.135 A 
ATOM     74  C   UNL     1       6.420  -8.167 -10.507  1.00  0.00     0.135 A 
ATOM     75  F   UNL     1       5.988 -10.386 -13.352  1.00  0.00    -0.206 F 
ATOM     76  C   UNL     1       7.846 -10.015 -11.994  1.00  0.00     0.059 A 
ATOM     77  C   UNL     1       7.753  -8.411 -10.200  1.00  0.00     0.059 A 
ATOM     78  F   UNL     1       5.809  -7.336  -9.656  1.00  0.00    -0.206 F 
ATOM     79  C   UNL     1       8.447  -9.367 -10.920  1.00  0.00     0.060 A 
BRANCH  79  80
ATOM     80  S   UNL     1      10.122  -9.817 -10.440  1.00  0.00     0.124 S 
ATOM     81  O   UNL     1       9.927 -11.173  -9.941  1.00  0.00    -0.237 OA
ATOM     82  O   UNL     1      10.838  -9.696 -11.706  1.00  0.00    -0.237 OA
ATOM     83  O   UNL     1      10.463  -8.815  -9.435  1.00  0.00    -0.744 OA
ENDBRANCH  79  80
ENDBRANCH  58  72
BRANCH  59  84
ATOM     84  C   UNL     1       2.159 -11.351  -4.213  1.00  0.00     0.058 A 
ATOM     85  C   UNL     1       2.728 -12.522  -3.678  1.00  0.00     0.135 A 
ATOM     86  C   UNL     1       2.242 -10.202  -3.401  1.00  0.00     0.135 A 
ATOM     87  F   UNL     1       2.717 -13.661  -4.388  1.00  0.00    -0.206 F 
ATOM     88  C   UNL     1       3.379 -12.542  -2.436  1.00  0.00     0.059 A 
ATOM     89  C   UNL     1       2.880 -10.198  -2.159  1.00  0.00     0.059 A 
ATOM     90  F   UNL     1       1.784  -9.018  -3.834  1.00  0.00    -0.206 F 
ATOM     91  C   UNL     1       3.467 -11.367  -1.690  1.00  0.00     0.060 A 
BRANCH  91  92
ATOM     92  S   UNL     1       4.449 -11.341  -0.168  1.00  0.00     0.124 S 
ATOM     93  O   UNL     1       3.643 -12.166   0.726  1.00  0.00    -0.237 OA
ATOM     94  O   UNL     1       5.714 -11.924  -0.605  1.00  0.00    -0.237 OA
ATOM     95  O   UNL     1       4.507  -9.923   0.175  1.00  0.00    -0.744 OA
ENDBRANCH  91  92
ENDBRANCH  59  84
BRANCH  71  96
ATOM     96  C   UNL     1       0.631 -13.092 -10.138  1.00  0.00     0.058 A 
ATOM     97  C   UNL     1      -0.551 -12.662  -9.506  1.00  0.00     0.135 A 
ATOM     98  C   UNL     1       0.515 -14.150 -11.051  1.00  0.00     0.135 A 
ATOM     99  F   UNL     1      -0.551 -11.596  -8.695  1.00  0.00    -0.206 F 
ATOM    100  C   UNL     1      -1.782 -13.280  -9.746  1.00  0.00     0.059 A 
ATOM    101  C   UNL     1      -0.704 -14.760 -11.330  1.00  0.00     0.059 A 
ATOM    102  F   UNL     1       1.594 -14.569 -11.734  1.00  0.00    -0.206 F 
ATOM    103  C   UNL     1      -1.848 -14.329 -10.664  1.00  0.00     0.060 A 
BRANCH 103 104
ATOM    104  S   UNL     1      -3.446 -15.088 -11.030  1.00  0.00     0.124 S 
ATOM    105  O   UNL     1      -3.738 -15.801  -9.791  1.00  0.00    -0.237 OA
ATOM    106  O   UNL     1      -4.292 -13.931 -11.310  1.00  0.00    -0.237 OA
ATOM    107  O   UNL     1      -3.164 -15.937 -12.185  1.00  0.00    -0.744 OA
ENDBRANCH 103 104
ENDBRANCH  71  96
ENDBRANCH  45  46
ENDBRANCH  37  40
ENDBRANCH  35  36
ENDBRANCH   1  35
TORSDOF 17
