REMARK SMILES CC(C)C[C@@H](C[C@H](O)c1ccccc1)C(=O)NCCCNC(=O)c1ccc(-c2c3nc(c(-c4c(F)cc(S(=O)(=O)[O-])cc4F)c4ccc([nH]4)c(-c4c(F)cc(S(=O)(=O)[O-])cc4F)c4nc(c(-c5c(F)cc(S(=O)(=O)[O-])cc5F)c5ccc2[nH]5)C=C4)C=C3)cc1
REMARK SMILES IDX 19 1 18 2 17 3 15 4 16 5 5 7 4 8 2 9 1 10 3 11 6 12 7 13
REMARK SMILES IDX 9 14 10 15 14 16 11 17 13 18 12 19 8 20 20 22 21 23 22 24
REMARK SMILES IDX 23 26 24 27 25 28 89 29 26 30 88 31 27 32 28 33 29 34 82 35
REMARK SMILES IDX 30 36 87 37 81 38 83 39 31 40 86 41 80 42 79 43 32 45 66 46
REMARK SMILES IDX 45 47 65 48 46 49 49 50 64 51 84 52 47 53 48 54 63 56 85 57
REMARK SMILES IDX 50 58 33 59 34 60 43 61 35 62 36 63 42 64 44 65 37 66 38 67
REMARK SMILES IDX 39 68 40 69 41 70 67 71 68 72 77 73 69 74 70 75 76 76 78 77
REMARK SMILES IDX 71 78 72 79 73 80 74 81 75 82 51 83 52 84 61 85 53 86 54 87
REMARK SMILES IDX 60 88 62 89 55 90 56 91 57 92 58 93 59 94
REMARK H PARENT 17 6 8 21 21 25 83 44 49 55
REMARK Flexibility Score: inf
ROOT
ATOM      1  C   UNL     1       0.390  -5.739   1.742  1.00  0.00     0.042 C 
ENDROOT
BRANCH   1   2
ATOM      2  C   UNL     1      -0.569  -5.327   0.647  1.00  0.00     0.117 C 
BRANCH   2   3
ATOM      3  N   UNL     1      -1.756  -6.159   0.586  1.00  0.00    -0.356 N 
ATOM      4  C   UNL     1      -3.057  -5.847   0.368  1.00  0.00     0.223 C 
ATOM      5  O   UNL     1      -3.831  -6.778   0.125  1.00  0.00    -0.275 OA
ATOM      6  H   UNL     1      -1.586  -7.119   0.727  1.00  0.00     0.163 HD
BRANCH   4   7
ATOM      7  C   UNL     1      -3.578  -4.415   0.398  1.00  0.00     0.081 C 
BRANCH   7   8
ATOM      8  C   UNL     1      -3.243  -3.723   1.738  1.00  0.00     0.016 C 
BRANCH   8   9
ATOM      9  C   UNL     1      -3.838  -2.329   1.994  1.00  0.00    -0.017 C 
ATOM     10  C   UNL     1      -5.364  -2.318   1.951  1.00  0.00     0.007 C 
ATOM     11  C   UNL     1      -3.359  -1.831   3.365  1.00  0.00     0.007 C 
ENDBRANCH   8   9
ENDBRANCH   7   8
BRANCH   7  12
ATOM     12  C   UNL     1      -3.433  -3.635  -0.930  1.00  0.00     0.050 C 
BRANCH  12  13
ATOM     13  C   UNL     1      -2.077  -3.462  -1.642  1.00  0.00     0.145 C 
BRANCH  13  14
ATOM     14  C   UNL     1      -1.454  -4.634  -2.386  1.00  0.00    -0.020 A 
ATOM     15  C   UNL     1      -2.127  -5.831  -2.666  1.00  0.00     0.006 A 
ATOM     16  C   UNL     1      -0.108  -4.529  -2.797  1.00  0.00     0.006 A 
ATOM     17  C   UNL     1      -1.453  -6.919  -3.232  1.00  0.00     0.000 A 
ATOM     18  C   UNL     1       0.561  -5.611  -3.376  1.00  0.00     0.000 A 
ATOM     19  C   UNL     1      -0.108  -6.814  -3.575  1.00  0.00     0.000 A 
ENDBRANCH  13  14
BRANCH  13  20
ATOM     20  O   UNL     1      -2.268  -2.413  -2.606  1.00  0.00    -0.388 OA
ATOM     21  H   UNL     1      -2.914  -2.698  -3.271  1.00  0.00     0.211 HD
ENDBRANCH  13  20
ENDBRANCH  12  13
ENDBRANCH   7  12
ENDBRANCH   4   7
ENDBRANCH   2   3
ENDBRANCH   1   2
BRANCH   1  22
ATOM     22  C   UNL     1       1.084  -7.055   1.424  1.00  0.00     0.118 C 
BRANCH  22  23
ATOM     23  N   UNL     1       1.923  -6.986   0.226  1.00  0.00    -0.352 N 
ATOM     24  C   UNL     1       3.289  -7.068   0.096  1.00  0.00     0.251 C 
ATOM     25  H   UNL     1       1.432  -6.862  -0.619  1.00  0.00     0.163 HD
ATOM     26  O   UNL     1       3.824  -6.801  -0.977  1.00  0.00    -0.269 OA
BRANCH  24  27
ATOM     27  C   UNL     1       4.104  -7.451   1.266  1.00  0.00     0.039 A 
ATOM     28  C   UNL     1       5.267  -6.739   1.562  1.00  0.00     0.014 A 
ATOM     29  C   UNL     1       3.681  -8.488   2.099  1.00  0.00     0.014 A 
ATOM     30  C   UNL     1       5.948  -7.005   2.753  1.00  0.00     0.010 A 
ATOM     31  C   UNL     1       4.284  -8.662   3.335  1.00  0.00     0.010 A 
ATOM     32  C   UNL     1       5.430  -7.929   3.675  1.00  0.00    -0.014 A 
BRANCH  32  33
ATOM     33  C   UNL     1       6.064  -8.166   4.997  1.00  0.00     0.031 A 
ATOM     34  C   UNL     1       6.519  -9.554   5.367  1.00  0.00     0.074 A 
ATOM     35  C   UNL     1       6.137  -7.165   5.897  1.00  0.00     0.049 A 
ATOM     36  N   UNL     1       6.966 -10.001   6.511  1.00  0.00    -0.248 NA
ATOM     37  C   UNL     1       6.409 -10.589   4.324  1.00  0.00     0.031 C 
ATOM     38  C   UNL     1       5.663  -5.795   5.688  1.00  0.00     0.029 A 
ATOM     39  N   UNL     1       6.628  -7.149   7.179  1.00  0.00    -0.354 N 
ATOM     40  C   UNL     1       7.154 -11.367   6.336  1.00  0.00     0.074 A 
ATOM     41  C   UNL     1       6.714 -11.688   4.997  1.00  0.00     0.031 C 
ATOM     42  C   UNL     1       5.915  -5.066   6.787  1.00  0.00     0.029 A 
ATOM     43  C   UNL     1       6.532  -5.923   7.794  1.00  0.00     0.049 A 
ATOM     44  H   UNL     1       7.012  -7.942   7.617  1.00  0.00     0.167 HD
ATOM     45  C   UNL     1       7.676 -12.269   7.200  1.00  0.00     0.037 A 
ATOM     46  C   UNL     1       6.899  -5.535   9.030  1.00  0.00     0.037 A 
ATOM     47  C   UNL     1       8.172 -11.930   8.507  1.00  0.00     0.049 A 
ATOM     48  C   UNL     1       7.530  -6.541   9.953  1.00  0.00     0.074 A 
ATOM     49  C   UNL     1       8.794 -12.750   9.431  1.00  0.00     0.029 A 
ATOM     50  N   UNL     1       8.113 -10.663   9.069  1.00  0.00    -0.354 N 
ATOM     51  N   UNL     1       7.756  -7.817   9.749  1.00  0.00    -0.248 NA
ATOM     52  C   UNL     1       7.963  -6.056  11.271  1.00  0.00     0.031 C 
ATOM     53  C   UNL     1       9.089 -11.983  10.564  1.00  0.00     0.029 A 
ATOM     54  C   UNL     1       8.683 -10.679  10.330  1.00  0.00     0.049 A 
ATOM     55  H   UNL     1       7.724  -9.870   8.634  1.00  0.00     0.167 HD
ATOM     56  C   UNL     1       8.380  -8.281  10.901  1.00  0.00     0.074 A 
ATOM     57  C   UNL     1       8.505  -7.147  11.793  1.00  0.00     0.031 C 
ATOM     58  C   UNL     1       8.809  -9.533  11.195  1.00  0.00     0.037 A 
BRANCH  45  59
ATOM     59  C   UNL     1       7.758 -13.699   6.745  1.00  0.00     0.058 A 
ATOM     60  C   UNL     1       8.653 -14.101   5.739  1.00  0.00     0.135 A 
ATOM     61  C   UNL     1       6.944 -14.684   7.327  1.00  0.00     0.135 A 
ATOM     62  F   UNL     1       9.441 -13.197   5.135  1.00  0.00    -0.206 F 
ATOM     63  C   UNL     1       8.711 -15.419   5.301  1.00  0.00     0.059 A 
ATOM     64  C   UNL     1       7.007 -16.015   6.925  1.00  0.00     0.059 A 
ATOM     65  F   UNL     1       6.071 -14.356   8.292  1.00  0.00    -0.206 F 
ATOM     66  C   UNL     1       7.881 -16.369   5.898  1.00  0.00     0.060 A 
BRANCH  66  67
ATOM     67  S   UNL     1       7.967 -18.076   5.316  1.00  0.00     0.124 S 
ATOM     68  O   UNL     1       7.252 -17.986   4.047  1.00  0.00    -0.237 OA
ATOM     69  O   UNL     1       9.406 -18.302   5.217  1.00  0.00    -0.237 OA
ATOM     70  O   UNL     1       7.289 -18.827   6.368  1.00  0.00    -0.744 OA
ENDBRANCH  66  67
ENDBRANCH  45  59
BRANCH  46  71
ATOM     71  C   UNL     1       6.716  -4.120   9.451  1.00  0.00     0.058 A 
ATOM     72  C   UNL     1       7.819  -3.264   9.582  1.00  0.00     0.135 A 
ATOM     73  C   UNL     1       5.443  -3.591   9.713  1.00  0.00     0.135 A 
ATOM     74  F   UNL     1       9.057  -3.725   9.346  1.00  0.00    -0.206 F 
ATOM     75  C   UNL     1       7.671  -1.937   9.974  1.00  0.00     0.059 A 
ATOM     76  C   UNL     1       5.267  -2.262  10.085  1.00  0.00     0.059 A 
ATOM     77  F   UNL     1       4.354  -4.364   9.583  1.00  0.00    -0.206 F 
ATOM     78  C   UNL     1       6.389  -1.445  10.223  1.00  0.00     0.060 A 
BRANCH  78  79
ATOM     79  S   UNL     1       6.202   0.292  10.682  1.00  0.00     0.124 S 
ATOM     80  O   UNL     1       6.655   0.279  12.068  1.00  0.00    -0.237 OA
ATOM     81  O   UNL     1       7.082   0.960   9.728  1.00  0.00    -0.237 OA
ATOM     82  O   UNL     1       4.777   0.538  10.485  1.00  0.00    -0.744 OA
ENDBRANCH  78  79
ENDBRANCH  46  71
BRANCH  58  83
ATOM     83  C   UNL     1       9.486  -9.736  12.520  1.00  0.00     0.058 A 
ATOM     84  C   UNL     1       8.759  -9.770  13.719  1.00  0.00     0.135 A 
ATOM     85  C   UNL     1      10.871  -9.957  12.582  1.00  0.00     0.135 A 
ATOM     86  F   UNL     1       7.433  -9.559  13.712  1.00  0.00    -0.206 F 
ATOM     87  C   UNL     1       9.385  -9.997  14.939  1.00  0.00     0.059 A 
ATOM     88  C   UNL     1      11.515 -10.209  13.788  1.00  0.00     0.059 A 
ATOM     89  F   UNL     1      11.609  -9.944  11.460  1.00  0.00    -0.206 F 
ATOM     90  C   UNL     1      10.764 -10.216  14.963  1.00  0.00     0.060 A 
BRANCH  90  91
ATOM     91  S   UNL     1      11.562 -10.546  16.549  1.00  0.00     0.124 S 
ATOM     92  O   UNL     1      11.605  -9.213  17.139  1.00  0.00    -0.237 OA
ATOM     93  O   UNL     1      10.637 -11.487  17.175  1.00  0.00    -0.237 OA
ATOM     94  O   UNL     1      12.854 -11.108  16.167  1.00  0.00    -0.744 OA
ENDBRANCH  90  91
ENDBRANCH  58  83
ENDBRANCH  32  33
ENDBRANCH  24  27
ENDBRANCH  22  23
ENDBRANCH   1  22
TORSDOF 19
