REMARK SMILES C[N@@H+]1CC[N@@H+](C)[C@H](C[NH2+]Cc2ccc(C(=O)NCCCNC(=O)c3ccc(-c4c5nc(c(-c6c(F)cc(S(=O)(=O)[O-])cc6F)c6ccc([nH]6)c(-c6c(F)cc(S(=O)(=O)[O-])cc6F)c6nc(c(-c7c(F)cc(S(=O)(=O)[O-])cc7F)c7ccc4[nH]7)C=C6)C=C5)cc3)cn2)C1
REMARK SMILES IDX 18 1 17 2 15 3 16 4 14 6 11 7 12 8 91 9 13 10 90 11 10 12
REMARK SMILES IDX 9 13 8 16 7 17 1 18 2 19 3 20 92 21 4 23 5 24 6 25 19 27
REMARK SMILES IDX 20 28 21 29 22 30 23 32 24 33 25 34 89 35 26 36 88 37 27 38
REMARK SMILES IDX 28 39 29 40 82 41 30 42 87 43 81 44 83 45 31 46 86 47 80 48
REMARK SMILES IDX 79 49 32 51 66 52 45 53 65 54 46 55 49 56 64 57 84 58 47 59
REMARK SMILES IDX 48 60 63 62 85 63 50 64 33 65 34 66 43 67 35 68 36 69 42 70
REMARK SMILES IDX 44 71 37 72 38 73 39 74 40 75 41 76 67 77 68 78 77 79 69 80
REMARK SMILES IDX 70 81 76 82 78 83 71 84 72 85 73 86 74 87 75 88 51 89 52 90
REMARK SMILES IDX 61 91 53 92 54 93 60 94 62 95 55 96 56 97 57 98 58 99 59 100
REMARK H PARENT 17 5 9 14 9 15 2 22 5 26 21 31 83 50 49 61
REMARK Flexibility Score: inf
ROOT
ATOM      1  C   UNL     1      -2.570   5.670  -7.183  1.00  0.00     0.118 C 
ENDROOT
BRANCH   1   2
ATOM      2  N   UNL     1      -2.015   6.656  -6.274  1.00  0.00    -0.352 N 
ATOM      3  C   UNL     1      -2.035   6.771  -4.908  1.00  0.00     0.252 C 
ATOM      4  O   UNL     1      -1.453   7.736  -4.414  1.00  0.00    -0.269 OA
ATOM      5  H   UNL     1      -1.529   7.383  -6.727  1.00  0.00     0.163 HD
BRANCH   3   6
ATOM      6  C   UNL     1      -2.650   5.765  -4.010  1.00  0.00     0.058 A 
ATOM      7  C   UNL     1      -3.375   3.798  -2.221  1.00  0.00     0.094 A 
ATOM      8  C   UNL     1      -3.998   3.846  -3.461  1.00  0.00     0.030 A 
ATOM      9  N   UNL     1      -2.511   4.757  -1.803  1.00  0.00    -0.255 NA
ATOM     10  C   UNL     1      -3.646   4.854  -4.350  1.00  0.00     0.017 A 
ATOM     11  C   UNL     1      -2.163   5.704  -2.708  1.00  0.00     0.125 A 
BRANCH   7  12
ATOM     12  C   UNL     1      -3.548   2.571  -1.356  1.00  0.00     0.318 C 
BRANCH  12  13
ATOM     13  N   UNL     1      -2.304   1.797  -1.292  1.00  0.00    -0.336 N 
ATOM     14  H   UNL     1      -2.531   0.803  -1.267  1.00  0.00     0.346 HD
ATOM     15  H   UNL     1      -1.743   2.018  -2.115  1.00  0.00     0.346 HD
BRANCH  13  16
ATOM     16  C   UNL     1      -1.522   2.140  -0.090  1.00  0.00     0.332 C 
BRANCH  16  17
ATOM     17  C   UNL     1      -0.730   0.908   0.449  1.00  0.00     0.295 C 
ATOM     18  C   UNL     1       2.892  -0.103  -0.198  1.00  0.00     0.333 C 
ATOM     19  N   UNL     1       1.530  -0.194   0.315  1.00  0.00    -0.328 N 
ATOM     20  C   UNL     1       0.863  -1.419  -0.152  1.00  0.00     0.324 C 
ATOM     21  C   UNL     1       0.719   0.961  -0.124  1.00  0.00     0.334 C 
ATOM     22  H   UNL     1       1.601  -0.205   1.332  1.00  0.00     0.348 HD
ATOM     23  C   UNL     1      -0.555  -1.535   0.444  1.00  0.00     0.324 C 
ATOM     24  N   UNL     1      -1.434  -0.385   0.149  1.00  0.00    -0.321 N 
ATOM     25  C   UNL     1      -2.679  -0.524   0.914  1.00  0.00     0.333 C 
ATOM     26  H   UNL     1      -1.667  -0.371  -0.844  1.00  0.00     0.348 HD
ENDBRANCH  16  17
ENDBRANCH  13  16
ENDBRANCH  12  13
ENDBRANCH   7  12
ENDBRANCH   3   6
ENDBRANCH   1   2
BRANCH   1  27
ATOM     27  C   UNL     1      -3.974   6.069  -7.635  1.00  0.00     0.042 C 
BRANCH  27  28
ATOM     28  C   UNL     1      -3.983   7.266  -8.577  1.00  0.00     0.118 C 
BRANCH  28  29
ATOM     29  N   UNL     1      -3.404   6.938  -9.869  1.00  0.00    -0.352 N 
ATOM     30  C   UNL     1      -3.969   6.984 -11.118  1.00  0.00     0.251 C 
ATOM     31  H   UNL     1      -2.467   6.638  -9.844  1.00  0.00     0.163 HD
ATOM     32  O   UNL     1      -3.402   6.423 -12.052  1.00  0.00    -0.269 OA
BRANCH  30  33
ATOM     33  C   UNL     1      -5.246   7.697 -11.342  1.00  0.00     0.039 A 
ATOM     34  C   UNL     1      -6.173   7.149 -12.233  1.00  0.00     0.014 A 
ATOM     35  C   UNL     1      -5.509   8.924 -10.726  1.00  0.00     0.014 A 
ATOM     36  C   UNL     1      -7.378   7.812 -12.476  1.00  0.00     0.010 A 
ATOM     37  C   UNL     1      -6.740   9.547 -10.913  1.00  0.00     0.010 A 
ATOM     38  C   UNL     1      -7.680   9.006 -11.801  1.00  0.00    -0.014 A 
BRANCH  38  39
ATOM     39  C   UNL     1      -8.965   9.713 -12.028  1.00  0.00     0.031 A 
ATOM     40  C   UNL     1      -8.971  11.084 -12.651  1.00  0.00     0.074 A 
ATOM     41  C   UNL     1     -10.117   9.146 -11.620  1.00  0.00     0.049 A 
ATOM     42  N   UNL     1      -9.979  11.890 -12.865  1.00  0.00    -0.248 NA
ATOM     43  C   UNL     1      -7.668  11.632 -13.062  1.00  0.00     0.031 C 
ATOM     44  C   UNL     1     -10.230   7.843 -10.961  1.00  0.00     0.029 A 
ATOM     45  N   UNL     1     -11.410   9.597 -11.688  1.00  0.00    -0.354 N 
ATOM     46  C   UNL     1      -9.433  13.043 -13.417  1.00  0.00     0.074 A 
ATOM     47  C   UNL     1      -7.999  12.852 -13.460  1.00  0.00     0.031 C 
ATOM     48  C   UNL     1     -11.524   7.592 -10.703  1.00  0.00     0.029 A 
ATOM     49  C   UNL     1     -12.326   8.727 -11.145  1.00  0.00     0.049 A 
ATOM     50  H   UNL     1     -11.659  10.461 -12.087  1.00  0.00     0.167 HD
ATOM     51  C   UNL     1     -10.070  14.151 -13.866  1.00  0.00     0.037 A 
ATOM     52  C   UNL     1     -13.662   8.837 -11.013  1.00  0.00     0.037 A 
ATOM     53  C   UNL     1     -11.500  14.319 -13.847  1.00  0.00     0.049 A 
ATOM     54  C   UNL     1     -14.350  10.069 -11.534  1.00  0.00     0.074 A 
ATOM     55  C   UNL     1     -12.250  15.376 -14.330  1.00  0.00     0.029 A 
ATOM     56  N   UNL     1     -12.397  13.402 -13.318  1.00  0.00    -0.354 N 
ATOM     57  N   UNL     1     -13.822  11.126 -12.105  1.00  0.00    -0.248 NA
ATOM     58  C   UNL     1     -15.812  10.120 -11.403  1.00  0.00     0.031 C 
ATOM     59  C   UNL     1     -13.598  15.115 -14.061  1.00  0.00     0.029 A 
ATOM     60  C   UNL     1     -13.691  13.875 -13.449  1.00  0.00     0.049 A 
ATOM     61  H   UNL     1     -12.149  12.541 -12.908  1.00  0.00     0.167 HD
ATOM     62  C   UNL     1     -14.890  11.957 -12.424  1.00  0.00     0.074 A 
ATOM     63  C   UNL     1     -16.093  11.274 -11.993  1.00  0.00     0.031 C 
ATOM     64  C   UNL     1     -14.877  13.176 -13.019  1.00  0.00     0.037 A 
BRANCH  51  65
ATOM     65  C   UNL     1      -9.224  15.264 -14.423  1.00  0.00     0.058 A 
ATOM     66  C   UNL     1      -8.553  15.136 -15.650  1.00  0.00     0.135 A 
ATOM     67  C   UNL     1      -9.104  16.483 -13.737  1.00  0.00     0.135 A 
ATOM     68  F   UNL     1      -8.622  13.987 -16.342  1.00  0.00    -0.206 F 
ATOM     69  C   UNL     1      -7.768  16.164 -16.162  1.00  0.00     0.059 A 
ATOM     70  C   UNL     1      -8.345  17.535 -14.244  1.00  0.00     0.059 A 
ATOM     71  F   UNL     1      -9.723  16.661 -12.560  1.00  0.00    -0.206 F 
ATOM     72  C   UNL     1      -7.668  17.360 -15.450  1.00  0.00     0.060 A 
BRANCH  72  73
ATOM     73  S   UNL     1      -6.645  18.684 -16.127  1.00  0.00     0.124 S 
ATOM     74  O   UNL     1      -5.302  18.178 -15.861  1.00  0.00    -0.237 OA
ATOM     75  O   UNL     1      -7.048  18.706 -17.529  1.00  0.00    -0.237 OA
ATOM     76  O   UNL     1      -7.041  19.852 -15.347  1.00  0.00    -0.744 OA
ENDBRANCH  72  73
ENDBRANCH  51  65
BRANCH  52  77
ATOM     77  C   UNL     1     -14.437   7.735 -10.384  1.00  0.00     0.058 A 
ATOM     78  C   UNL     1     -15.269   6.909 -11.154  1.00  0.00     0.135 A 
ATOM     79  C   UNL     1     -14.345   7.470  -9.009  1.00  0.00     0.135 A 
ATOM     80  F   UNL     1     -15.393   7.126 -12.473  1.00  0.00    -0.206 F 
ATOM     81  C   UNL     1     -15.994   5.868 -10.583  1.00  0.00     0.059 A 
ATOM     82  C   UNL     1     -15.041   6.420  -8.418  1.00  0.00     0.059 A 
ATOM     83  F   UNL     1     -13.547   8.219  -8.232  1.00  0.00    -0.206 F 
ATOM     84  C   UNL     1     -15.871   5.630  -9.213  1.00  0.00     0.060 A 
BRANCH  84  85
ATOM     85  S   UNL     1     -16.773   4.243  -8.490  1.00  0.00     0.124 S 
ATOM     86  O   UNL     1     -18.136   4.760  -8.464  1.00  0.00    -0.237 OA
ATOM     87  O   UNL     1     -16.513   3.174  -9.449  1.00  0.00    -0.237 OA
ATOM     88  O   UNL     1     -16.137   4.073  -7.187  1.00  0.00    -0.744 OA
ENDBRANCH  84  85
ENDBRANCH  52  77
BRANCH  64  89
ATOM     89  C   UNL     1     -16.204  13.834 -13.269  1.00  0.00     0.058 A 
ATOM     90  C   UNL     1     -16.954  14.399 -12.227  1.00  0.00     0.135 A 
ATOM     91  C   UNL     1     -16.709  13.939 -14.575  1.00  0.00     0.135 A 
ATOM     92  F   UNL     1     -16.518  14.318 -10.960  1.00  0.00    -0.206 F 
ATOM     93  C   UNL     1     -18.173  15.025 -12.467  1.00  0.00     0.059 A 
ATOM     94  C   UNL     1     -17.912  14.584 -14.842  1.00  0.00     0.059 A 
ATOM     95  F   UNL     1     -16.024  13.424 -15.609  1.00  0.00    -0.206 F 
ATOM     96  C   UNL     1     -18.643  15.113 -13.779  1.00  0.00     0.060 A 
BRANCH  96  97
ATOM     97  S   UNL     1     -20.212  15.954 -14.083  1.00  0.00     0.124 S 
ATOM     98  O   UNL     1     -21.173  14.956 -13.626  1.00  0.00    -0.237 OA
ATOM     99  O   UNL     1     -20.093  17.148 -13.252  1.00  0.00    -0.237 OA
ATOM    100  O   UNL     1     -20.193  16.195 -15.523  1.00  0.00    -0.744 OA
ENDBRANCH  96  97
ENDBRANCH  64  89
ENDBRANCH  38  39
ENDBRANCH  30  33
ENDBRANCH  28  29
ENDBRANCH  27  28
ENDBRANCH   1  27
TORSDOF 17
