REMARK SMILES CC(C)N(CCC#N)C(=O)c1ccncc1/C=C/C(=O)NCCCNC(=O)c1ccc(-c2c3nc(c(-c4c(F)cc(S(=O)(=O)[O-])cc4F)c4ccc([nH]4)c(-c4c(F)cc(S(=O)(=O)[O-])cc4F)c4nc(c(-c5c(F)cc(S(=O)(=O)[O-])cc5F)c5ccc2[nH]5)C=C4)C=C3)cc1
REMARK SMILES IDX 19 1 20 2 21 3 18 5 17 6 16 7 11 8 12 9 13 10 15 11 14 12
REMARK SMILES IDX 9 13 10 14 4 15 2 16 1 17 3 18 5 19 6 20 7 21 8 22 22 23
REMARK SMILES IDX 23 24 24 25 25 26 26 27 27 29 28 30 29 31 93 32 30 33 92 34
REMARK SMILES IDX 31 35 32 36 33 37 86 38 34 39 91 40 85 41 87 42 35 43 90 44
REMARK SMILES IDX 84 45 83 46 36 48 70 49 49 50 69 51 50 52 53 53 68 54 88 55
REMARK SMILES IDX 51 56 52 57 67 59 89 60 54 61 37 62 38 63 47 64 39 65 40 66
REMARK SMILES IDX 46 67 48 68 41 69 42 70 43 71 44 72 45 73 71 74 72 75 81 76
REMARK SMILES IDX 73 77 74 78 80 79 82 80 75 81 76 82 77 83 78 84 79 85 55 86
REMARK SMILES IDX 56 87 65 88 57 89 58 90 64 91 66 92 59 93 60 94 61 95 62 96
REMARK SMILES IDX 63 97
REMARK H PARENT 21 4 25 28 87 47 53 58
REMARK Flexibility Score: inf
ROOT
ATOM      1  C   UNL     1      -3.322  -4.581  -1.332  1.00  0.00     0.244 C 
ATOM      2  O   UNL     1      -4.023  -5.585  -1.228  1.00  0.00    -0.270 OA
ATOM      3  N   UNL     1      -1.990  -4.710  -1.557  1.00  0.00    -0.352 N 
ATOM      4  H   UNL     1      -1.659  -5.636  -1.584  1.00  0.00     0.163 HD
ENDROOT
BRANCH   1   5
ATOM      5  C   UNL     1      -3.966  -3.246  -1.347  1.00  0.00     0.072 C 
ATOM      6  C   UNL     1      -3.532  -2.124  -0.748  1.00  0.00     0.016 C 
BRANCH   6   7
ATOM      7  C   UNL     1      -4.209  -0.832  -0.951  1.00  0.00     0.006 A 
ATOM      8  C   UNL     1      -3.543   0.368  -1.253  1.00  0.00     0.050 A 
ATOM      9  C   UNL     1      -4.284   1.476  -1.663  1.00  0.00     0.034 A 
ATOM     10  C   UNL     1      -5.660   1.432  -1.571  1.00  0.00     0.112 A 
ATOM     11  C   UNL     1      -5.603  -0.760  -0.888  1.00  0.00     0.119 A 
ATOM     12  N   UNL     1      -6.337   0.344  -1.161  1.00  0.00    -0.264 NA
BRANCH   8  13
ATOM     13  C   UNL     1      -2.060   0.501  -1.265  1.00  0.00     0.254 C 
ATOM     14  O   UNL     1      -1.443  -0.259  -2.006  1.00  0.00    -0.269 OA
BRANCH  13  15
ATOM     15  N   UNL     1      -1.432   1.477  -0.458  1.00  0.00    -0.335 N 
BRANCH  15  16
ATOM     16  C   UNL     1       0.054   1.558  -0.442  1.00  0.00     0.079 C 
ATOM     17  C   UNL     1       0.715   0.270   0.044  1.00  0.00     0.031 C 
ATOM     18  C   UNL     1       0.650   2.008  -1.776  1.00  0.00     0.031 C 
ENDBRANCH  15  16
BRANCH  15  19
ATOM     19  C   UNL     1      -2.122   2.311   0.556  1.00  0.00     0.135 C 
BRANCH  19  20
ATOM     20  C   UNL     1      -2.049   3.827   0.302  1.00  0.00     0.141 C 
BRANCH  20  21
ATOM     21  C   UNL     1      -3.193   4.340  -0.463  1.00  0.00     0.064 C 
ATOM     22  N   UNL     1      -4.097   4.747  -1.062  1.00  0.00    -0.198 NA
ENDBRANCH  20  21
ENDBRANCH  19  20
ENDBRANCH  15  19
ENDBRANCH  13  15
ENDBRANCH   8  13
ENDBRANCH   6   7
ENDBRANCH   1   5
BRANCH   3  23
ATOM     23  C   UNL     1      -0.980  -3.691  -1.762  1.00  0.00     0.118 C 
BRANCH  23  24
ATOM     24  C   UNL     1      -0.168  -3.485  -0.490  1.00  0.00     0.042 C 
BRANCH  24  25
ATOM     25  C   UNL     1       0.838  -4.597  -0.239  1.00  0.00     0.118 C 
BRANCH  25  26
ATOM     26  N   UNL     1       1.859  -4.643  -1.279  1.00  0.00    -0.352 N 
ATOM     27  C   UNL     1       3.215  -4.459  -1.196  1.00  0.00     0.251 C 
ATOM     28  H   UNL     1       1.522  -4.837  -2.183  1.00  0.00     0.163 HD
ATOM     29  O   UNL     1       3.862  -4.270  -2.222  1.00  0.00    -0.269 OA
BRANCH  27  30
ATOM     30  C   UNL     1       3.892  -4.484   0.117  1.00  0.00     0.039 A 
ATOM     31  C   UNL     1       4.964  -3.616   0.341  1.00  0.00     0.014 A 
ATOM     32  C   UNL     1       3.495  -5.381   1.111  1.00  0.00     0.014 A 
ATOM     33  C   UNL     1       5.601  -3.616   1.582  1.00  0.00     0.010 A 
ATOM     34  C   UNL     1       4.063  -5.308   2.377  1.00  0.00     0.010 A 
ATOM     35  C   UNL     1       5.132  -4.436   2.622  1.00  0.00    -0.014 A 
BRANCH  35  36
ATOM     36  C   UNL     1       5.751  -4.402   3.970  1.00  0.00     0.031 A 
ATOM     37  C   UNL     1       6.392  -5.639   4.537  1.00  0.00     0.074 A 
ATOM     38  C   UNL     1       5.679  -3.273   4.702  1.00  0.00     0.049 A 
ATOM     39  N   UNL     1       6.927  -5.824   5.716  1.00  0.00    -0.248 NA
ATOM     40  C   UNL     1       6.410  -6.836   3.678  1.00  0.00     0.031 C 
ATOM     41  C   UNL     1       5.039  -2.026   4.272  1.00  0.00     0.029 A 
ATOM     42  N   UNL     1       6.140  -2.990   5.962  1.00  0.00    -0.354 N 
ATOM     43  C   UNL     1       7.333  -7.154   5.744  1.00  0.00     0.074 A 
ATOM     44  C   UNL     1       6.926  -7.747   4.490  1.00  0.00     0.031 C 
ATOM     45  C   UNL     1       5.175  -1.106   5.239  1.00  0.00     0.029 A 
ATOM     46  C   UNL     1       5.863  -1.708   6.376  1.00  0.00     0.049 A 
ATOM     47  H   UNL     1       6.624  -3.642   6.518  1.00  0.00     0.167 HD
ATOM     48  C   UNL     1       8.006  -7.812   6.717  1.00  0.00     0.037 A 
ATOM     49  C   UNL     1       6.121  -1.091   7.546  1.00  0.00     0.037 A 
ATOM     50  C   UNL     1       8.417  -7.204   7.956  1.00  0.00     0.049 A 
ATOM     51  C   UNL     1       6.850  -1.851   8.621  1.00  0.00     0.074 A 
ATOM     52  C   UNL     1       9.148  -7.765   8.987  1.00  0.00     0.029 A 
ATOM     53  N   UNL     1       8.124  -5.901   8.337  1.00  0.00    -0.354 N 
ATOM     54  N   UNL     1       7.287  -3.088   8.604  1.00  0.00    -0.248 NA
ATOM     55  C   UNL     1       7.127  -1.131   9.871  1.00  0.00     0.031 C 
ATOM     56  C   UNL     1       9.241  -6.825  10.018  1.00  0.00     0.029 A 
ATOM     57  C   UNL     1       8.633  -5.652   9.601  1.00  0.00     0.049 A 
ATOM     58  H   UNL     1       7.628  -5.251   7.789  1.00  0.00     0.167 HD
ATOM     59  C   UNL     1       7.920  -3.284   9.827  1.00  0.00     0.074 A 
ATOM     60  C   UNL     1       7.819  -2.034  10.552  1.00  0.00     0.031 C 
ATOM     61  C   UNL     1       8.529  -4.397  10.306  1.00  0.00     0.037 A 
BRANCH  48  62
ATOM     62  C   UNL     1       8.338  -9.262   6.485  1.00  0.00     0.058 A 
ATOM     63  C   UNL     1       9.259  -9.665   5.503  1.00  0.00     0.135 A 
ATOM     64  C   UNL     1       7.758 -10.263   7.282  1.00  0.00     0.135 A 
ATOM     65  F   UNL     1       9.834  -8.755   4.700  1.00  0.00    -0.206 F 
ATOM     66  C   UNL     1       9.570 -11.006   5.301  1.00  0.00     0.059 A 
ATOM     67  C   UNL     1       8.081 -11.607   7.122  1.00  0.00     0.059 A 
ATOM     68  F   UNL     1       6.869  -9.938   8.234  1.00  0.00    -0.206 F 
ATOM     69  C   UNL     1       8.979 -11.970   6.119  1.00  0.00     0.060 A 
BRANCH  69  70
ATOM     70  S   UNL     1       9.406 -13.703   5.851  1.00  0.00     0.124 S 
ATOM     71  O   UNL     1       8.764 -13.967   4.567  1.00  0.00    -0.237 OA
ATOM     72  O   UNL     1      10.865 -13.662   5.833  1.00  0.00    -0.237 OA
ATOM     73  O   UNL     1       8.814 -14.382   6.999  1.00  0.00    -0.744 OA
ENDBRANCH  69  70
ENDBRANCH  48  62
BRANCH  49  74
ATOM     74  C   UNL     1       5.698   0.320   7.753  1.00  0.00     0.058 A 
ATOM     75  C   UNL     1       6.642   1.351   7.870  1.00  0.00     0.135 A 
ATOM     76  C   UNL     1       4.340   0.670   7.824  1.00  0.00     0.135 A 
ATOM     77  F   UNL     1       7.953   1.069   7.814  1.00  0.00    -0.206 F 
ATOM     78  C   UNL     1       6.259   2.674   8.069  1.00  0.00     0.059 A 
ATOM     79  C   UNL     1       3.931   1.989   7.990  1.00  0.00     0.059 A 
ATOM     80  F   UNL     1       3.394  -0.274   7.698  1.00  0.00    -0.206 F 
ATOM     81  C   UNL     1       4.898   2.983   8.122  1.00  0.00     0.060 A 
BRANCH  81  82
ATOM     82  S   UNL     1       4.410   4.709   8.325  1.00  0.00     0.124 S 
ATOM     83  O   UNL     1       4.802   4.966   9.705  1.00  0.00    -0.237 OA
ATOM     84  O   UNL     1       5.206   5.373   7.298  1.00  0.00    -0.237 OA
ATOM     85  O   UNL     1       2.972   4.682   8.070  1.00  0.00    -0.744 OA
ENDBRANCH  81  82
ENDBRANCH  49  74
BRANCH  61  86
ATOM     86  C   UNL     1       9.176  -4.306  11.663  1.00  0.00     0.058 A 
ATOM     87  C   UNL     1       8.421  -4.198  12.841  1.00  0.00     0.135 A 
ATOM     88  C   UNL     1      10.574  -4.382  11.786  1.00  0.00     0.135 A 
ATOM     89  F   UNL     1       7.082  -4.115  12.782  1.00  0.00    -0.206 F 
ATOM     90  C   UNL     1       9.030  -4.141  14.091  1.00  0.00     0.059 A 
ATOM     91  C   UNL     1      11.201  -4.364  13.027  1.00  0.00     0.059 A 
ATOM     92  F   UNL     1      11.344  -4.496  10.692  1.00  0.00    -0.206 F 
ATOM     93  C   UNL     1      10.421  -4.230  14.173  1.00  0.00     0.060 A 
BRANCH  93  94
ATOM     94  S   UNL     1      11.192  -4.190  15.804  1.00  0.00     0.124 S 
ATOM     95  O   UNL     1      10.984  -2.799  16.194  1.00  0.00    -0.237 OA
ATOM     96  O   UNL     1      10.412  -5.179  16.541  1.00  0.00    -0.237 OA
ATOM     97  O   UNL     1      12.577  -4.566  15.535  1.00  0.00    -0.744 OA
ENDBRANCH  93  94
ENDBRANCH  61  86
ENDBRANCH  35  36
ENDBRANCH  27  30
ENDBRANCH  25  26
ENDBRANCH  24  25
ENDBRANCH  23  24
ENDBRANCH   3  23
TORSDOF 20
