REMARK SMILES CC1(C)CCC[C@@](C)(CCC(=O)NCCCNC(=O)c2ccc(-c3c4nc(c(-c5c(F)cc(S(=O)(=O)[O-])cc5F)c5ccc([nH]5)c(-c5c(F)cc(S(=O)(=O)[O-])cc5F)c5nc(c(-c6c(F)cc(S(=O)(=O)[O-])cc6F)c6ccc3[nH]6)C=C5)C=C4)cc2)C1=O
REMARK SMILES IDX 15 1 14 2 13 3 11 4 12 5 10 7 9 8 7 9 1 10 2 11 3 12 4 13
REMARK SMILES IDX 86 14 5 15 87 16 6 17 8 18 16 19 17 20 18 21 19 23 20 24
REMARK SMILES IDX 21 25 85 26 22 27 84 28 23 29 24 30 25 31 78 32 26 33 83 34
REMARK SMILES IDX 77 35 79 36 27 37 82 38 76 39 75 40 28 42 62 43 41 44 61 45
REMARK SMILES IDX 42 46 45 47 60 48 80 49 43 50 44 51 59 53 81 54 46 55 29 56
REMARK SMILES IDX 30 57 39 58 31 59 32 60 38 61 40 62 33 63 34 64 35 65 36 66
REMARK SMILES IDX 37 67 63 68 64 69 73 70 65 71 66 72 72 73 74 74 67 75 68 76
REMARK SMILES IDX 69 77 70 78 71 79 47 80 48 81 57 82 49 83 50 84 56 85 58 86
REMARK SMILES IDX 51 87 52 88 53 89 54 90 55 91
REMARK H PARENT 13 6 17 22 79 41 45 52
REMARK Flexibility Score: inf
ROOT
ATOM      1  C   UNL     1      -0.175  -5.359  -1.806  1.00  0.00     0.042 C 
ENDROOT
BRANCH   1   2
ATOM      2  C   UNL     1       0.870  -4.569  -1.028  1.00  0.00     0.117 C 
BRANCH   2   3
ATOM      3  N   UNL     1       2.148  -4.442  -1.748  1.00  0.00    -0.356 N 
ATOM      4  C   UNL     1       2.986  -3.485  -2.223  1.00  0.00     0.220 C 
ATOM      5  O   UNL     1       3.990  -3.973  -2.777  1.00  0.00    -0.275 OA
ATOM      6  H   UNL     1       2.510  -5.335  -1.950  1.00  0.00     0.163 HD
BRANCH   4   7
ATOM      7  C   UNL     1       2.966  -1.930  -2.092  1.00  0.00     0.101 C 
BRANCH   7   8
ATOM      8  C   UNL     1       1.833  -0.898  -2.432  1.00  0.00     0.024 C 
BRANCH   8   9
ATOM      9  C   UNL     1       0.421  -1.226  -1.889  1.00  0.00     0.027 C 
ATOM     10  C   UNL     1       1.160   0.824   0.662  1.00  0.00     0.019 C 
ATOM     11  C   UNL     1       0.205  -0.379   0.670  1.00  0.00     0.024 C 
ATOM     12  C   UNL     1       0.252  -1.011   2.081  1.00  0.00     0.019 C 
ATOM     13  C   UNL     1      -1.229  -0.021   0.325  1.00  0.00     0.014 C 
ATOM     14  C   UNL     1       0.698  -1.404  -0.339  1.00  0.00     0.144 C 
ATOM     15  C   UNL     1      -1.296   0.656  -1.029  1.00  0.00     0.002 C 
ATOM     16  O   UNL     1       1.507  -2.228   0.107  1.00  0.00    -0.298 OA
ATOM     17  C   UNL     1      -0.750  -0.220  -2.145  1.00  0.00     0.014 C 
ATOM     18  C   UNL     1      -0.019  -2.353  -2.869  1.00  0.00     0.020 C 
ENDBRANCH   8   9
ENDBRANCH   7   8
ENDBRANCH   4   7
ENDBRANCH   2   3
ENDBRANCH   1   2
BRANCH   1  19
ATOM     19  C   UNL     1      -0.005  -6.845  -1.610  1.00  0.00     0.118 C 
BRANCH  19  20
ATOM     20  N   UNL     1      -0.740  -7.317  -0.440  1.00  0.00    -0.352 N 
ATOM     21  C   UNL     1      -2.052  -7.723  -0.305  1.00  0.00     0.251 C 
ATOM     22  H   UNL     1      -0.212  -7.351   0.390  1.00  0.00     0.163 HD
ATOM     23  O   UNL     1      -2.536  -7.839   0.815  1.00  0.00    -0.269 OA
BRANCH  21  24
ATOM     24  C   UNL     1      -2.885  -7.984  -1.504  1.00  0.00     0.039 A 
ATOM     25  C   UNL     1      -4.253  -7.688  -1.496  1.00  0.00     0.014 A 
ATOM     26  C   UNL     1      -2.319  -8.542  -2.644  1.00  0.00     0.014 A 
ATOM     27  C   UNL     1      -5.018  -7.889  -2.654  1.00  0.00     0.010 A 
ATOM     28  C   UNL     1      -3.027  -8.569  -3.832  1.00  0.00     0.010 A 
ATOM     29  C   UNL     1      -4.400  -8.296  -3.846  1.00  0.00    -0.014 A 
BRANCH  29  30
ATOM     30  C   UNL     1      -5.136  -8.563  -5.111  1.00  0.00     0.031 A 
ATOM     31  C   UNL     1      -4.971  -9.914  -5.769  1.00  0.00     0.074 A 
ATOM     32  C   UNL     1      -5.830  -7.588  -5.730  1.00  0.00     0.049 A 
ATOM     33  N   UNL     1      -5.273 -10.291  -6.983  1.00  0.00    -0.248 NA
ATOM     34  C   UNL     1      -4.309 -10.963  -4.969  1.00  0.00     0.031 C 
ATOM     35  C   UNL     1      -6.036  -6.231  -5.220  1.00  0.00     0.029 A 
ATOM     36  N   UNL     1      -6.471  -7.584  -6.944  1.00  0.00    -0.354 N 
ATOM     37  C   UNL     1      -4.784 -11.588  -7.106  1.00  0.00     0.074 A 
ATOM     38  C   UNL     1      -4.103 -11.906  -5.874  1.00  0.00     0.031 C 
ATOM     39  C   UNL     1      -6.770  -5.535  -6.104  1.00  0.00     0.029 A 
ATOM     40  C   UNL     1      -7.036  -6.373  -7.269  1.00  0.00     0.049 A 
ATOM     41  H   UNL     1      -6.520  -8.375  -7.529  1.00  0.00     0.167 HD
ATOM     42  C   UNL     1      -4.920 -12.451  -8.139  1.00  0.00     0.037 A 
ATOM     43  C   UNL     1      -7.678  -5.980  -8.387  1.00  0.00     0.037 A 
ATOM     44  C   UNL     1      -5.673 -12.151  -9.326  1.00  0.00     0.049 A 
ATOM     45  C   UNL     1      -7.848  -6.965  -9.515  1.00  0.00     0.074 A 
ATOM     46  C   UNL     1      -5.947 -12.974 -10.401  1.00  0.00     0.029 A 
ATOM     47  N   UNL     1      -6.289 -10.934  -9.580  1.00  0.00    -0.354 N 
ATOM     48  N   UNL     1      -7.412  -8.199  -9.602  1.00  0.00    -0.248 NA
ATOM     49  C   UNL     1      -8.598  -6.509 -10.694  1.00  0.00     0.031 C 
ATOM     50  C   UNL     1      -6.694 -12.242 -11.327  1.00  0.00     0.029 A 
ATOM     51  C   UNL     1      -6.936 -10.982 -10.801  1.00  0.00     0.049 A 
ATOM     52  H   UNL     1      -6.268 -10.153  -8.981  1.00  0.00     0.167 HD
ATOM     53  C   UNL     1      -7.873  -8.681 -10.823  1.00  0.00     0.074 A 
ATOM     54  C   UNL     1      -8.615  -7.603 -11.443  1.00  0.00     0.031 C 
ATOM     55  C   UNL     1      -7.704  -9.906 -11.377  1.00  0.00     0.037 A 
BRANCH  42  56
ATOM     56  C   UNL     1      -4.263 -13.801  -8.023  1.00  0.00     0.058 A 
ATOM     57  C   UNL     1      -4.692 -14.758  -7.089  1.00  0.00     0.135 A 
ATOM     58  C   UNL     1      -3.204 -14.153  -8.876  1.00  0.00     0.135 A 
ATOM     59  F   UNL     1      -5.690 -14.473  -6.237  1.00  0.00    -0.206 F 
ATOM     60  C   UNL     1      -4.072 -15.998  -6.978  1.00  0.00     0.059 A 
ATOM     61  C   UNL     1      -2.592 -15.402  -8.808  1.00  0.00     0.059 A 
ATOM     62  F   UNL     1      -2.751 -13.279  -9.789  1.00  0.00    -0.206 F 
ATOM     63  C   UNL     1      -3.023 -16.311  -7.843  1.00  0.00     0.060 A 
BRANCH  63  64
ATOM     64  S   UNL     1      -2.236 -17.928  -7.689  1.00  0.00     0.124 S 
ATOM     65  O   UNL     1      -1.489 -17.770  -6.445  1.00  0.00    -0.237 OA
ATOM     66  O   UNL     1      -3.384 -18.827  -7.629  1.00  0.00    -0.237 OA
ATOM     67  O   UNL     1      -1.426 -18.029  -8.899  1.00  0.00    -0.744 OA
ENDBRANCH  63  64
ENDBRANCH  42  56
BRANCH  43  68
ATOM     68  C   UNL     1      -8.229  -4.600  -8.484  1.00  0.00     0.058 A 
ATOM     69  C   UNL     1      -9.614  -4.378  -8.468  1.00  0.00     0.135 A 
ATOM     70  C   UNL     1      -7.390  -3.478  -8.577  1.00  0.00     0.135 A 
ATOM     71  F   UNL     1     -10.459  -5.417  -8.386  1.00  0.00    -0.206 F 
ATOM     72  C   UNL     1     -10.150  -3.097  -8.558  1.00  0.00     0.059 A 
ATOM     73  C   UNL     1      -7.902  -2.185  -8.640  1.00  0.00     0.059 A 
ATOM     74  F   UNL     1      -6.057  -3.632  -8.576  1.00  0.00    -0.206 F 
ATOM     75  C   UNL     1      -9.284  -2.005  -8.641  1.00  0.00     0.060 A 
BRANCH  75  76
ATOM     76  S   UNL     1      -9.991  -0.345  -8.710  1.00  0.00     0.124 S 
ATOM     77  O   UNL     1     -10.555  -0.321 -10.055  1.00  0.00    -0.237 OA
ATOM     78  O   UNL     1     -10.954  -0.377  -7.614  1.00  0.00    -0.237 OA
ATOM     79  O   UNL     1      -8.836   0.521  -8.494  1.00  0.00    -0.744 OA
ENDBRANCH  75  76
ENDBRANCH  43  68
BRANCH  55  80
ATOM     80  C   UNL     1      -8.388 -10.192 -12.684  1.00  0.00     0.058 A 
ATOM     81  C   UNL     1      -7.910  -9.682 -13.899  1.00  0.00     0.135 A 
ATOM     82  C   UNL     1      -9.463 -11.096 -12.725  1.00  0.00     0.135 A 
ATOM     83  F   UNL     1      -6.889  -8.810 -13.912  1.00  0.00    -0.206 F 
ATOM     84  C   UNL     1      -8.472 -10.062 -15.113  1.00  0.00     0.059 A 
ATOM     85  C   UNL     1     -10.022 -11.511 -13.928  1.00  0.00     0.059 A 
ATOM     86  F   UNL     1      -9.949 -11.620 -11.588  1.00  0.00    -0.206 F 
ATOM     87  C   UNL     1      -9.519 -10.987 -15.117  1.00  0.00     0.060 A 
BRANCH  87  88
ATOM     88  S   UNL     1     -10.177 -11.540 -16.705  1.00  0.00     0.124 S 
ATOM     89  O   UNL     1     -10.906 -10.357 -17.149  1.00  0.00    -0.237 OA
ATOM     90  O   UNL     1      -8.963 -11.854 -17.452  1.00  0.00    -0.237 OA
ATOM     91  O   UNL     1     -11.004 -12.690 -16.350  1.00  0.00    -0.744 OA
ENDBRANCH  87  88
ENDBRANCH  55  80
ENDBRANCH  29  30
ENDBRANCH  21  24
ENDBRANCH  19  20
ENDBRANCH   1  19
TORSDOF 15
