REMARK SMILES COC(=O)c1c(NC(=O)[C@@H]2[C@H]3CC[C@H](CC3)[C@H]2C(=O)NCCCNC(=O)c2ccc(-c3c4nc(c(-c5c(F)cc(S(=O)(=O)[O-])cc5F)c5ccc([nH]5)c(-c5c(F)cc(S(=O)(=O)[O-])cc5F)c5nc(c(-c6c(F)cc(S(=O)(=O)[O-])cc6F)c6ccc3[nH]6)C=C5)C=C4)cc2)sc(C)c1-c1ccc(C)cc1
REMARK SMILES IDX 21 1 20 2 18 3 19 4 17 6 10 7 11 8 16 9 12 10 14 11 15 12
REMARK SMILES IDX 13 13 8 14 7 15 9 17 6 18 5 19 96 20 93 21 94 22 95 23 3 24
REMARK SMILES IDX 4 25 2 26 1 27 97 28 98 29 103 30 99 31 102 32 100 33 101 34
REMARK SMILES IDX 22 35 23 36 24 37 25 38 26 40 27 41 28 42 92 43 29 44 91 45
REMARK SMILES IDX 30 46 31 47 32 48 85 49 33 50 90 51 84 52 86 53 34 54 89 55
REMARK SMILES IDX 83 56 82 57 35 59 69 60 48 61 68 62 49 63 52 64 67 65 87 66
REMARK SMILES IDX 50 67 51 68 66 70 88 71 53 72 36 73 37 74 46 75 38 76 39 77
REMARK SMILES IDX 45 78 47 79 40 80 41 81 42 82 43 83 44 84 70 85 71 86 80 87
REMARK SMILES IDX 72 88 73 89 79 90 81 91 74 92 75 93 76 94 77 95 78 96 54 97
REMARK SMILES IDX 55 98 64 99 56 100 57 101 63 102 65 103 58 104 59 105 60 106
REMARK SMILES IDX 61 107 62 108
REMARK H PARENT 20 5 7 16 24 39 86 58 52 69
REMARK Flexibility Score: inf
ROOT
ATOM      1  C   UNL     1       5.840   7.090   4.026  1.00  0.00     0.117 C 
ENDROOT
BRANCH   1   2
ATOM      2  N   UNL     1       5.268   7.369   2.738  1.00  0.00    -0.356 N 
ATOM      3  C   UNL     1       4.133   8.025   2.419  1.00  0.00     0.224 C 
ATOM      4  O   UNL     1       4.030   8.330   1.224  1.00  0.00    -0.275 OA
ATOM      5  H   UNL     1       5.784   7.029   1.971  1.00  0.00     0.163 HD
BRANCH   3   6
ATOM      6  C   UNL     1       3.005   8.363   3.406  1.00  0.00     0.094 C 
ATOM      7  C   UNL     1       2.280   7.165   4.022  1.00  0.00     0.094 C 
ATOM      8  C   UNL     1       1.935   7.521   5.509  1.00  0.00     0.002 C 
ATOM      9  C   UNL     1       3.215   7.879   6.305  1.00  0.00     0.005 C 
ATOM     10  C   UNL     1       1.045   8.775   5.559  1.00  0.00     0.005 C 
ATOM     11  C   UNL     1       3.183   9.524   4.412  1.00  0.00     0.002 C 
ATOM     12  C   UNL     1       3.898   9.115   5.699  1.00  0.00     0.005 C 
ATOM     13  C   UNL     1       1.751   9.948   4.855  1.00  0.00     0.005 C 
BRANCH   7  14
ATOM     14  C   UNL     1       1.024   6.527   3.335  1.00  0.00     0.229 C 
ATOM     15  N   UNL     1      -0.034   7.154   2.733  1.00  0.00    -0.317 N 
ATOM     16  H   UNL     1      -0.873   6.642   2.789  1.00  0.00     0.170 HD
ATOM     17  O   UNL     1       0.845   5.313   3.547  1.00  0.00    -0.274 OA
BRANCH  15  18
ATOM     18  C   UNL     1      -0.167   8.350   2.065  1.00  0.00     0.111 A 
ATOM     19  C   UNL     1      -1.279   9.143   1.785  1.00  0.00     0.102 A 
ATOM     20  C   UNL     1      -0.820  10.453   1.323  1.00  0.00     0.012 A 
ATOM     21  S   UNL     1       0.972   8.774   0.858  1.00  0.00    -0.122 S 
ATOM     22  C   UNL     1       0.556  10.421   1.126  1.00  0.00     0.012 A 
ATOM     23  C   UNL     1       1.593  11.486   1.028  1.00  0.00     0.057 C 
BRANCH  19  24
ATOM     24  C   UNL     1      -2.649   8.685   1.971  1.00  0.00     0.341 C 
ATOM     25  O   UNL     1      -2.956   7.746   2.687  1.00  0.00    -0.246 OA
BRANCH  24  26
ATOM     26  O   UNL     1      -3.514   9.341   1.144  1.00  0.00    -0.465 OA
ATOM     27  C   UNL     1      -4.808   8.756   1.014  1.00  0.00     0.282 C 
ENDBRANCH  24  26
ENDBRANCH  19  24
BRANCH  20  28
ATOM     28  C   UNL     1      -1.584  11.671   1.067  1.00  0.00    -0.016 A 
ATOM     29  C   UNL     1      -2.487  12.194   1.996  1.00  0.00     0.009 A 
ATOM     30  C   UNL     1      -1.431  12.319  -0.168  1.00  0.00     0.009 A 
ATOM     31  C   UNL     1      -3.233  13.339   1.683  1.00  0.00     0.004 A 
ATOM     32  C   UNL     1      -2.158  13.468  -0.472  1.00  0.00     0.004 A 
ATOM     33  C   UNL     1      -3.072  13.984   0.449  1.00  0.00    -0.051 A 
ATOM     34  C   UNL     1      -3.906  15.179   0.093  1.00  0.00     0.044 C 
ENDBRANCH  20  28
ENDBRANCH  15  18
ENDBRANCH   7  14
ENDBRANCH   3   6
ENDBRANCH   1   2
BRANCH   1  35
ATOM     35  C   UNL     1       6.620   5.796   4.101  1.00  0.00     0.042 C 
BRANCH  35  36
ATOM     36  C   UNL     1       7.832   5.761   3.187  1.00  0.00     0.118 C 
BRANCH  36  37
ATOM     37  N   UNL     1       8.792   6.821   3.477  1.00  0.00    -0.352 N 
ATOM     38  C   UNL     1       9.905   6.845   4.284  1.00  0.00     0.251 C 
ATOM     39  H   UNL     1       8.611   7.670   3.012  1.00  0.00     0.163 HD
ATOM     40  O   UNL     1      10.428   7.925   4.550  1.00  0.00    -0.269 OA
BRANCH  38  41
ATOM     41  C   UNL     1      10.457   5.596   4.853  1.00  0.00     0.039 A 
ATOM     42  C   UNL     1      11.001   5.607   6.141  1.00  0.00     0.014 A 
ATOM     43  C   UNL     1      10.464   4.415   4.115  1.00  0.00     0.014 A 
ATOM     44  C   UNL     1      11.471   4.418   6.706  1.00  0.00     0.010 A 
ATOM     45  C   UNL     1      10.795   3.214   4.725  1.00  0.00     0.010 A 
ATOM     46  C   UNL     1      11.328   3.201   6.020  1.00  0.00    -0.014 A 
BRANCH  46  47
ATOM     47  C   UNL     1      11.755   1.906   6.609  1.00  0.00     0.031 A 
ATOM     48  C   UNL     1      12.763   1.047   5.885  1.00  0.00     0.074 A 
ATOM     49  C   UNL     1      11.174   1.463   7.742  1.00  0.00     0.049 A 
ATOM     50  N   UNL     1      13.177  -0.161   6.169  1.00  0.00    -0.248 NA
ATOM     51  C   UNL     1      13.344   1.597   4.648  1.00  0.00     0.031 C 
ATOM     52  C   UNL     1      10.123   2.161   8.488  1.00  0.00     0.029 A 
ATOM     53  N   UNL     1      11.379   0.314   8.461  1.00  0.00    -0.354 N 
ATOM     54  C   UNL     1      14.025  -0.526   5.128  1.00  0.00     0.074 A 
ATOM     55  C   UNL     1      14.018   0.560   4.176  1.00  0.00     0.031 C 
ATOM     56  C   UNL     1       9.807   1.446   9.579  1.00  0.00     0.029 A 
ATOM     57  C   UNL     1      10.605   0.226   9.595  1.00  0.00     0.049 A 
ATOM     58  H   UNL     1      12.019  -0.383   8.192  1.00  0.00     0.167 HD
ATOM     59  C   UNL     1      14.771  -1.648   4.994  1.00  0.00     0.037 A 
ATOM     60  C   UNL     1      10.553  -0.728  10.542  1.00  0.00     0.037 A 
ATOM     61  C   UNL     1      14.832  -2.689   5.985  1.00  0.00     0.049 A 
ATOM     62  C   UNL     1      11.460  -1.921  10.420  1.00  0.00     0.074 A 
ATOM     63  C   UNL     1      15.618  -3.827   5.995  1.00  0.00     0.029 A 
ATOM     64  N   UNL     1      14.088  -2.704   7.156  1.00  0.00    -0.354 N 
ATOM     65  N   UNL     1      12.299  -2.222   9.457  1.00  0.00    -0.248 NA
ATOM     66  C   UNL     1      11.424  -2.896  11.518  1.00  0.00     0.031 C 
ATOM     67  C   UNL     1      15.336  -4.540   7.167  1.00  0.00     0.029 A 
ATOM     68  C   UNL     1      14.397  -3.830   7.898  1.00  0.00     0.049 A 
ATOM     69  H   UNL     1      13.436  -2.015   7.420  1.00  0.00     0.167 HD
ATOM     70  C   UNL     1      12.903  -3.413   9.840  1.00  0.00     0.074 A 
ATOM     71  C   UNL     1      12.348  -3.765  11.132  1.00  0.00     0.031 C 
ATOM     72  C   UNL     1      13.829  -4.154   9.182  1.00  0.00     0.037 A 
BRANCH  59  73
ATOM     73  C   UNL     1      15.602  -1.786   3.747  1.00  0.00     0.058 A 
ATOM     74  C   UNL     1      16.727  -0.976   3.520  1.00  0.00     0.135 A 
ATOM     75  C   UNL     1      15.277  -2.741   2.771  1.00  0.00     0.135 A 
ATOM     76  F   UNL     1      17.072  -0.033   4.411  1.00  0.00    -0.206 F 
ATOM     77  C   UNL     1      17.479  -1.083   2.354  1.00  0.00     0.059 A 
ATOM     78  C   UNL     1      16.033  -2.885   1.609  1.00  0.00     0.059 A 
ATOM     79  F   UNL     1      14.212  -3.541   2.935  1.00  0.00    -0.206 F 
ATOM     80  C   UNL     1      17.121  -2.038   1.403  1.00  0.00     0.060 A 
BRANCH  80  81
ATOM     81  S   UNL     1      18.105  -2.164  -0.106  1.00  0.00     0.124 S 
ATOM     82  O   UNL     1      17.633  -1.007  -0.858  1.00  0.00    -0.237 OA
ATOM     83  O   UNL     1      19.471  -2.075   0.401  1.00  0.00    -0.237 OA
ATOM     84  O   UNL     1      17.727  -3.465  -0.649  1.00  0.00    -0.744 OA
ENDBRANCH  80  81
ENDBRANCH  59  73
BRANCH  60  85
ATOM     85  C   UNL     1       9.653  -0.566  11.714  1.00  0.00     0.058 A 
ATOM     86  C   UNL     1      10.174  -0.250  12.977  1.00  0.00     0.135 A 
ATOM     87  C   UNL     1       8.261  -0.697  11.594  1.00  0.00     0.135 A 
ATOM     88  F   UNL     1      11.499  -0.115  13.141  1.00  0.00    -0.206 F 
ATOM     89  C   UNL     1       9.351  -0.087  14.086  1.00  0.00     0.059 A 
ATOM     90  C   UNL     1       7.415  -0.518  12.684  1.00  0.00     0.059 A 
ATOM     91  F   UNL     1       7.713  -0.977  10.402  1.00  0.00    -0.206 F 
ATOM     92  C   UNL     1       7.970  -0.223  13.929  1.00  0.00     0.060 A 
BRANCH  92  93
ATOM     93  S   UNL     1       6.904   0.042  15.363  1.00  0.00     0.124 S 
ATOM     94  O   UNL     1       7.085  -1.205  16.098  1.00  0.00    -0.237 OA
ATOM     95  O   UNL     1       7.493   1.232  15.971  1.00  0.00    -0.237 OA
ATOM     96  O   UNL     1       5.587   0.241  14.767  1.00  0.00    -0.744 OA
ENDBRANCH  92  93
ENDBRANCH  60  85
BRANCH  72  97
ATOM     97  C   UNL     1      14.308  -5.402   9.865  1.00  0.00     0.058 A 
ATOM     98  C   UNL     1      13.504  -6.549   9.939  1.00  0.00     0.135 A 
ATOM     99  C   UNL     1      15.590  -5.455  10.433  1.00  0.00     0.135 A 
ATOM    100  F   UNL     1      12.268  -6.544   9.414  1.00  0.00    -0.206 F 
ATOM    101  C   UNL     1      13.942  -7.699  10.586  1.00  0.00     0.059 A 
ATOM    102  C   UNL     1      16.057  -6.602  11.065  1.00  0.00     0.059 A 
ATOM    103  F   UNL     1      16.400  -4.386  10.376  1.00  0.00    -0.206 F 
ATOM    104  C   UNL     1      15.218  -7.713  11.152  1.00  0.00     0.060 A 
BRANCH 104 105
ATOM    105  S   UNL     1      15.782  -9.210  11.988  1.00  0.00     0.124 S 
ATOM    106  O   UNL     1      15.098  -9.102  13.272  1.00  0.00    -0.237 OA
ATOM    107  O   UNL     1      15.303 -10.266  11.101  1.00  0.00    -0.237 OA
ATOM    108  O   UNL     1      17.232  -9.046  12.031  1.00  0.00    -0.744 OA
ENDBRANCH 104 105
ENDBRANCH  72  97
ENDBRANCH  46  47
ENDBRANCH  38  41
ENDBRANCH  36  37
ENDBRANCH  35  36
ENDBRANCH   1  35
TORSDOF 18
