REMARK SMILES C[C@@H](SC1CCOCC1)c1ccc(C(=O)NCCCNC(=O)c2ccc(-c3c4nc(c(-c5c(F)cc(S(=O)(=O)[O-])cc5F)c5ccc([nH]5)c(-c5c(F)cc(S(=O)(=O)[O-])cc5F)c5nc(c(-c6c(F)cc(S(=O)(=O)[O-])cc6F)c6ccc3[nH]6)C=C5)C=C4)cc2)o1
REMARK SMILES IDX 18 1 17 2 16 3 14 4 15 5 13 7 10 8 11 9 89 10 12 11 2 12
REMARK SMILES IDX 1 13 3 14 4 15 5 16 9 17 6 18 8 19 7 20 19 21 20 22 21 23
REMARK SMILES IDX 22 25 23 26 24 27 88 28 25 29 87 30 26 31 27 32 28 33 81 34
REMARK SMILES IDX 29 35 86 36 80 37 82 38 30 39 85 40 79 41 78 42 31 44 65 45
REMARK SMILES IDX 44 46 64 47 45 48 48 49 63 50 83 51 46 52 47 53 62 55 84 56
REMARK SMILES IDX 49 57 32 58 33 59 42 60 34 61 35 62 41 63 43 64 36 65 37 66
REMARK SMILES IDX 38 67 39 68 40 69 66 70 67 71 76 72 68 73 69 74 75 75 77 76
REMARK SMILES IDX 70 77 71 78 72 79 73 80 74 81 50 82 51 83 60 84 52 85 53 86
REMARK SMILES IDX 59 87 61 88 54 89 55 90 56 91 57 92 58 93
REMARK H PARENT 16 6 20 24 82 43 48 54
REMARK Flexibility Score: inf
ROOT
ATOM      1  C   UNL     1      -6.539  -2.440   0.512  1.00  0.00     0.042 C 
ENDROOT
BRANCH   1   2
ATOM      2  C   UNL     1      -5.889  -1.848  -0.735  1.00  0.00     0.118 C 
BRANCH   2   3
ATOM      3  N   UNL     1      -5.292  -0.558  -0.468  1.00  0.00    -0.349 N 
ATOM      4  C   UNL     1      -3.989  -0.190  -0.235  1.00  0.00     0.286 C 
ATOM      5  O   UNL     1      -3.797   1.026  -0.140  1.00  0.00    -0.266 OA
ATOM      6  H   UNL     1      -5.933   0.189  -0.451  1.00  0.00     0.163 HD
BRANCH   4   7
ATOM      7  C   UNL     1      -2.917  -1.165  -0.131  1.00  0.00     0.191 A 
ATOM      8  C   UNL     1      -0.750  -1.668  -0.016  1.00  0.00     0.117 A 
ATOM      9  C   UNL     1      -1.434  -2.862   0.060  1.00  0.00     0.047 A 
ATOM     10  O   UNL     1      -1.645  -0.652  -0.163  1.00  0.00    -0.455 OA
ATOM     11  C   UNL     1      -2.817  -2.536   0.030  1.00  0.00     0.056 A 
BRANCH   8  12
ATOM     12  C   UNL     1       0.705  -1.289   0.049  1.00  0.00     0.110 C 
ATOM     13  C   UNL     1       0.879   0.233  -0.033  1.00  0.00     0.028 C 
BRANCH  12  14
ATOM     14  S   UNL     1       1.393  -1.908   1.648  1.00  0.00    -0.147 SA
BRANCH  14  15
ATOM     15  C   UNL     1       3.161  -2.227   1.278  1.00  0.00     0.052 C 
ATOM     16  C   UNL     1       3.902  -1.071   0.613  1.00  0.00     0.043 C 
ATOM     17  C   UNL     1       3.387  -3.521   0.495  1.00  0.00     0.043 C 
ATOM     18  C   UNL     1       5.373  -1.430   0.457  1.00  0.00     0.161 C 
ATOM     19  C   UNL     1       4.888  -3.750   0.327  1.00  0.00     0.161 C 
ATOM     20  O   UNL     1       5.510  -2.629  -0.305  1.00  0.00    -0.381 OA
ENDBRANCH  14  15
ENDBRANCH  12  14
ENDBRANCH   8  12
ENDBRANCH   4   7
ENDBRANCH   2   3
ENDBRANCH   1   2
BRANCH   1  21
ATOM     21  C   UNL     1      -7.872  -1.781   0.870  1.00  0.00     0.118 C 
BRANCH  21  22
ATOM     22  N   UNL     1      -8.886  -2.019  -0.150  1.00  0.00    -0.352 N 
ATOM     23  C   UNL     1     -10.101  -2.650  -0.069  1.00  0.00     0.251 C 
ATOM     24  H   UNL     1      -8.662  -1.670  -1.042  1.00  0.00     0.163 HD
ATOM     25  O   UNL     1     -10.678  -2.961  -1.108  1.00  0.00    -0.269 OA
BRANCH  23  26
ATOM     26  C   UNL     1     -10.718  -2.956   1.240  1.00  0.00     0.039 A 
ATOM     27  C   UNL     1     -11.429  -4.152   1.384  1.00  0.00     0.014 A 
ATOM     28  C   UNL     1     -10.665  -2.045   2.298  1.00  0.00     0.014 A 
ATOM     29  C   UNL     1     -12.047  -4.452   2.600  1.00  0.00     0.010 A 
ATOM     30  C   UNL     1     -11.223  -2.376   3.532  1.00  0.00     0.010 A 
ATOM     31  C   UNL     1     -11.929  -3.577   3.692  1.00  0.00    -0.014 A 
BRANCH  31  32
ATOM     32  C   UNL     1     -12.547  -3.899   5.004  1.00  0.00     0.031 A 
ATOM     33  C   UNL     1     -13.650  -3.034   5.554  1.00  0.00     0.074 A 
ATOM     34  C   UNL     1     -12.075  -4.935   5.724  1.00  0.00     0.049 A 
ATOM     35  N   UNL     1     -14.266  -3.115   6.706  1.00  0.00    -0.248 NA
ATOM     36  C   UNL     1     -14.102  -1.916   4.711  1.00  0.00     0.031 C 
ATOM     37  C   UNL     1     -10.977  -5.816   5.317  1.00  0.00     0.029 A 
ATOM     38  N   UNL     1     -12.448  -5.418   6.952  1.00  0.00    -0.354 N 
ATOM     39  C   UNL     1     -15.162  -2.053   6.733  1.00  0.00     0.074 A 
ATOM     40  C   UNL     1     -14.976  -1.313   5.503  1.00  0.00     0.031 C 
ATOM     41  C   UNL     1     -10.780  -6.742   6.269  1.00  0.00     0.029 A 
ATOM     42  C   UNL     1     -11.711  -6.502   7.367  1.00  0.00     0.049 A 
ATOM     43  H   UNL     1     -13.176  -5.025   7.487  1.00  0.00     0.167 HD
ATOM     44  C   UNL     1     -16.072  -1.735   7.686  1.00  0.00     0.037 A 
ATOM     45  C   UNL     1     -11.773  -7.217   8.506  1.00  0.00     0.037 A 
ATOM     46  C   UNL     1     -16.271  -2.493   8.894  1.00  0.00     0.049 A 
ATOM     47  C   UNL     1     -12.803  -6.856   9.541  1.00  0.00     0.074 A 
ATOM     48  C   UNL     1     -17.203  -2.289   9.896  1.00  0.00     0.029 A 
ATOM     49  N   UNL     1     -15.525  -3.604   9.263  1.00  0.00    -0.354 N 
ATOM     50  N   UNL     1     -13.681  -5.882   9.525  1.00  0.00    -0.248 NA
ATOM     51  C   UNL     1     -12.857  -7.696  10.745  1.00  0.00     0.031 C 
ATOM     52  C   UNL     1     -16.998  -3.254  10.889  1.00  0.00     0.029 A 
ATOM     53  C   UNL     1     -15.968  -4.087  10.484  1.00  0.00     0.049 A 
ATOM     54  H   UNL     1     -14.790  -3.992   8.736  1.00  0.00     0.167 HD
ATOM     55  C   UNL     1     -14.410  -6.008  10.702  1.00  0.00     0.074 A 
ATOM     56  C   UNL     1     -13.878  -7.160  11.400  1.00  0.00     0.031 C 
ATOM     57  C   UNL     1     -15.430  -5.240  11.162  1.00  0.00     0.037 A 
BRANCH  44  58
ATOM     58  C   UNL     1     -16.926  -0.517   7.457  1.00  0.00     0.058 A 
ATOM     59  C   UNL     1     -17.928  -0.495   6.473  1.00  0.00     0.135 A 
ATOM     60  C   UNL     1     -16.764   0.631   8.249  1.00  0.00     0.135 A 
ATOM     61  F   UNL     1     -18.118  -1.559   5.676  1.00  0.00    -0.206 F 
ATOM     62  C   UNL     1     -18.716   0.632   6.260  1.00  0.00     0.059 A 
ATOM     63  C   UNL     1     -17.560   1.760   8.073  1.00  0.00     0.059 A 
ATOM     64  F   UNL     1     -15.822   0.665   9.205  1.00  0.00    -0.206 F 
ATOM     65  C   UNL     1     -18.523   1.756   7.065  1.00  0.00     0.060 A 
BRANCH  65  66
ATOM     66  S   UNL     1     -19.554   3.210   6.777  1.00  0.00     0.124 S 
ATOM     67  O   UNL     1     -18.978   3.735   5.544  1.00  0.00    -0.237 OA
ATOM     68  O   UNL     1     -20.887   2.629   6.656  1.00  0.00    -0.237 OA
ATOM     69  O   UNL     1     -19.334   4.023   7.969  1.00  0.00    -0.744 OA
ENDBRANCH  65  66
ENDBRANCH  44  58
BRANCH  45  70
ATOM     70  C   UNL     1     -10.851  -8.365   8.711  1.00  0.00     0.058 A 
ATOM     71  C   UNL     1     -11.323  -9.685   8.668  1.00  0.00     0.135 A 
ATOM     72  C   UNL     1      -9.479  -8.168   8.934  1.00  0.00     0.135 A 
ATOM     73  F   UNL     1     -12.627  -9.924   8.463  1.00  0.00    -0.206 F 
ATOM     74  C   UNL     1     -10.472 -10.770   8.854  1.00  0.00     0.059 A 
ATOM     75  C   UNL     1      -8.604  -9.237   9.098  1.00  0.00     0.059 A 
ATOM     76  F   UNL     1      -8.975  -6.925   8.965  1.00  0.00    -0.206 F 
ATOM     77  C   UNL     1      -9.113 -10.535   9.066  1.00  0.00     0.060 A 
BRANCH  77  78
ATOM     78  S   UNL     1      -8.008 -11.952   9.253  1.00  0.00     0.124 S 
ATOM     79  O   UNL     1      -8.336 -12.403  10.601  1.00  0.00    -0.237 OA
ATOM     80  O   UNL     1      -8.439 -12.823   8.165  1.00  0.00    -0.237 OA
ATOM     81  O   UNL     1      -6.681 -11.365   9.088  1.00  0.00    -0.744 OA
ENDBRANCH  77  78
ENDBRANCH  45  70
BRANCH  57  82
ATOM     82  C   UNL     1     -16.060  -5.643  12.466  1.00  0.00     0.058 A 
ATOM     83  C   UNL     1     -15.406  -5.451  13.692  1.00  0.00     0.135 A 
ATOM     84  C   UNL     1     -17.353  -6.191  12.489  1.00  0.00     0.135 A 
ATOM     85  F   UNL     1     -14.167  -4.936  13.724  1.00  0.00    -0.206 F 
ATOM     86  C   UNL     1     -16.001  -5.814  14.896  1.00  0.00     0.059 A 
ATOM     87  C   UNL     1     -17.977  -6.537  13.683  1.00  0.00     0.059 A 
ATOM     88  F   UNL     1     -18.026  -6.386  11.344  1.00  0.00    -0.206 F 
ATOM     89  C   UNL     1     -17.287  -6.357  14.881  1.00  0.00     0.060 A 
BRANCH  89  90
ATOM     90  S   UNL     1     -18.059  -6.803  16.451  1.00  0.00     0.124 S 
ATOM     91  O   UNL     1     -17.356  -8.037  16.784  1.00  0.00    -0.237 OA
ATOM     92  O   UNL     1     -17.749  -5.650  17.291  1.00  0.00    -0.237 OA
ATOM     93  O   UNL     1     -19.469  -6.956  16.104  1.00  0.00    -0.744 OA
ENDBRANCH  89  90
ENDBRANCH  57  82
ENDBRANCH  31  32
ENDBRANCH  23  26
ENDBRANCH  21  22
ENDBRANCH   1  21
TORSDOF 16
