REMARK SMILES CC(C)(O)CCOc1ccc(C(=O)NCCCNC(=O)c2ccc(-c3c4nc(c(-c5c(F)cc(S(=O)(=O)[O-])cc5F)c5ccc([nH]5)c(-c5c(F)cc(S(=O)(=O)[O-])cc5F)c5nc(c(-c6c(F)cc(S(=O)(=O)[O-])cc6F)c6ccc3[nH]6)C=C5)C=C4)cc2)cc1
REMARK SMILES IDX 15 1 14 2 12 3 13 4 11 6 8 7 9 8 88 9 10 10 87 11 7 12 6 13
REMARK SMILES IDX 5 14 2 15 1 16 3 17 4 18 16 20 17 21 18 22 19 23 20 25 21 26
REMARK SMILES IDX 22 27 86 28 23 29 85 30 24 31 25 32 26 33 79 34 27 35 84 36
REMARK SMILES IDX 78 37 80 38 28 39 83 40 77 41 76 42 29 44 63 45 42 46 62 47
REMARK SMILES IDX 43 48 46 49 61 50 81 51 44 52 45 53 60 55 82 56 47 57 30 58
REMARK SMILES IDX 31 59 40 60 32 61 33 62 39 63 41 64 34 65 35 66 36 67 37 68
REMARK SMILES IDX 38 69 64 70 65 71 74 72 66 73 67 74 73 75 75 76 68 77 69 78
REMARK SMILES IDX 70 79 71 80 72 81 48 82 49 83 58 84 50 85 51 86 57 87 59 88
REMARK SMILES IDX 52 89 53 90 54 91 55 92 56 93
REMARK H PARENT 14 5 4 19 18 24 80 43 46 54
REMARK Flexibility Score: inf
ROOT
ATOM      1  C   UNL     1       0.283  -2.381   3.104  1.00  0.00     0.118 C 
ENDROOT
BRANCH   1   2
ATOM      2  N   UNL     1       0.219  -1.437   4.213  1.00  0.00    -0.352 N 
ATOM      3  C   UNL     1       0.111  -0.064   4.229  1.00  0.00     0.251 C 
ATOM      4  O   UNL     1       0.164   0.532   5.303  1.00  0.00    -0.269 OA
ATOM      5  H   UNL     1       0.261  -1.853   5.105  1.00  0.00     0.163 HD
BRANCH   3   6
ATOM      6  C   UNL     1      -0.009   0.716   2.975  1.00  0.00     0.040 A 
ATOM      7  C   UNL     1       0.155   1.962   0.480  1.00  0.00     0.119 A 
ATOM      8  C   UNL     1       0.876   2.469   1.564  1.00  0.00     0.047 A 
ATOM      9  C   UNL     1      -0.817   0.993   0.715  1.00  0.00     0.047 A 
ATOM     10  C   UNL     1       0.793   1.850   2.814  1.00  0.00     0.017 A 
ATOM     11  C   UNL     1      -0.888   0.353   1.956  1.00  0.00     0.017 A 
BRANCH   7  12
ATOM     12  O   UNL     1       0.559   2.411  -0.745  1.00  0.00    -0.493 OA
BRANCH  12  13
ATOM     13  C   UNL     1       0.174   1.684  -1.918  1.00  0.00     0.232 C 
BRANCH  13  14
ATOM     14  C   UNL     1       1.111   0.534  -2.359  1.00  0.00     0.076 C 
BRANCH  14  15
ATOM     15  C   UNL     1       1.043  -0.813  -1.601  1.00  0.00     0.062 C 
ATOM     16  C   UNL     1       1.952  -0.829  -0.367  1.00  0.00     0.042 C 
ATOM     17  C   UNL     1       1.469  -1.980  -2.504  1.00  0.00     0.042 C 
BRANCH  15  18
ATOM     18  O   UNL     1      -0.311  -1.087  -1.240  1.00  0.00    -0.390 OA
ATOM     19  H   UNL     1      -0.354  -1.931  -0.764  1.00  0.00     0.211 HD
ENDBRANCH  15  18
ENDBRANCH  14  15
ENDBRANCH  13  14
ENDBRANCH  12  13
ENDBRANCH   7  12
ENDBRANCH   3   6
ENDBRANCH   1   2
BRANCH   1  20
ATOM     20  C   UNL     1       1.527  -3.267   3.123  1.00  0.00     0.042 C 
BRANCH  20  21
ATOM     21  C   UNL     1       1.571  -4.308   4.238  1.00  0.00     0.118 C 
BRANCH  21  22
ATOM     22  N   UNL     1       0.540  -5.331   4.107  1.00  0.00    -0.352 N 
ATOM     23  C   UNL     1       0.642  -6.701   4.050  1.00  0.00     0.251 C 
ATOM     24  H   UNL     1      -0.379  -4.984   4.050  1.00  0.00     0.163 HD
ATOM     25  O   UNL     1      -0.363  -7.359   3.776  1.00  0.00    -0.269 OA
BRANCH  23  26
ATOM     26  C   UNL     1       1.931  -7.393   4.286  1.00  0.00     0.039 A 
ATOM     27  C   UNL     1       2.248  -8.513   3.509  1.00  0.00     0.014 A 
ATOM     28  C   UNL     1       2.813  -6.976   5.285  1.00  0.00     0.014 A 
ATOM     29  C   UNL     1       3.474  -9.163   3.684  1.00  0.00     0.010 A 
ATOM     30  C   UNL     1       4.068  -7.573   5.403  1.00  0.00     0.010 A 
ATOM     31  C   UNL     1       4.414  -8.674   4.605  1.00  0.00    -0.014 A 
BRANCH  31  32
ATOM     32  C   UNL     1       5.763  -9.288   4.737  1.00  0.00     0.031 A 
ATOM     33  C   UNL     1       6.197  -9.908   6.039  1.00  0.00     0.074 A 
ATOM     34  C   UNL     1       6.628  -9.222   3.704  1.00  0.00     0.049 A 
ATOM     35  N   UNL     1       7.354 -10.428   6.362  1.00  0.00    -0.248 NA
ATOM     36  C   UNL     1       5.210  -9.920   7.129  1.00  0.00     0.031 C 
ATOM     37  C   UNL     1       6.348  -8.601   2.408  1.00  0.00     0.029 A 
ATOM     38  N   UNL     1       7.922  -9.667   3.585  1.00  0.00    -0.354 N 
ATOM     39  C   UNL     1       7.240 -10.813   7.694  1.00  0.00     0.074 A 
ATOM     40  C   UNL     1       5.920 -10.414   8.132  1.00  0.00     0.031 C 
ATOM     41  C   UNL     1       7.427  -8.723   1.619  1.00  0.00     0.029 A 
ATOM     42  C   UNL     1       8.491  -9.389   2.364  1.00  0.00     0.049 A 
ATOM     43  H   UNL     1       8.397 -10.140   4.305  1.00  0.00     0.167 HD
ATOM     44  C   UNL     1       8.142 -11.458   8.473  1.00  0.00     0.037 A 
ATOM     45  C   UNL     1       9.732  -9.630   1.897  1.00  0.00     0.037 A 
ATOM     46  C   UNL     1       9.451 -11.861   8.024  1.00  0.00     0.049 A 
ATOM     47  C   UNL     1      10.722 -10.340   2.779  1.00  0.00     0.074 A 
ATOM     48  C   UNL     1      10.417 -12.572   8.714  1.00  0.00     0.029 A 
ATOM     49  N   UNL     1       9.984 -11.576   6.774  1.00  0.00    -0.354 N 
ATOM     50  N   UNL     1      10.571 -10.763   4.011  1.00  0.00    -0.248 NA
ATOM     51  C   UNL     1      12.046 -10.614   2.205  1.00  0.00     0.031 C 
ATOM     52  C   UNL     1      11.553 -12.668   7.904  1.00  0.00     0.029 A 
ATOM     53  C   UNL     1      11.275 -12.072   6.683  1.00  0.00     0.049 A 
ATOM     54  H   UNL     1       9.514 -11.094   6.056  1.00  0.00     0.167 HD
ATOM     55  C   UNL     1      11.773 -11.375   4.354  1.00  0.00     0.074 A 
ATOM     56  C   UNL     1      12.634 -11.277   3.192  1.00  0.00     0.031 C 
ATOM     57  C   UNL     1      12.127 -11.966   5.522  1.00  0.00     0.037 A 
BRANCH  44  58
ATOM     58  C   UNL     1       7.745 -11.756   9.896  1.00  0.00     0.058 A 
ATOM     59  C   UNL     1       6.728 -12.675  10.205  1.00  0.00     0.135 A 
ATOM     60  C   UNL     1       8.396 -11.122  10.967  1.00  0.00     0.135 A 
ATOM     61  F   UNL     1       6.063 -13.305   9.223  1.00  0.00    -0.206 F 
ATOM     62  C   UNL     1       6.336 -12.916  11.519  1.00  0.00     0.059 A 
ATOM     63  C   UNL     1       8.044 -11.374  12.291  1.00  0.00     0.059 A 
ATOM     64  F   UNL     1       9.380 -10.240  10.734  1.00  0.00    -0.206 F 
ATOM     65  C   UNL     1       6.998 -12.255  12.555  1.00  0.00     0.060 A 
BRANCH  65  66
ATOM     66  S   UNL     1       6.459 -12.558  14.251  1.00  0.00     0.124 S 
ATOM     67  O   UNL     1       5.181 -11.854  14.280  1.00  0.00    -0.237 OA
ATOM     68  O   UNL     1       6.380 -14.015  14.298  1.00  0.00    -0.237 OA
ATOM     69  O   UNL     1       7.521 -11.964  15.057  1.00  0.00    -0.744 OA
ENDBRANCH  65  66
ENDBRANCH  44  58
BRANCH  45  70
ATOM     70  C   UNL     1      10.090  -9.211   0.515  1.00  0.00     0.058 A 
ATOM     71  C   UNL     1      10.268 -10.157  -0.504  1.00  0.00     0.135 A 
ATOM     72  C   UNL     1      10.211  -7.854   0.175  1.00  0.00     0.135 A 
ATOM     73  F   UNL     1      10.171 -11.467  -0.228  1.00  0.00    -0.206 F 
ATOM     74  C   UNL     1      10.553  -9.776  -1.812  1.00  0.00     0.059 A 
ATOM     75  C   UNL     1      10.469  -7.447  -1.131  1.00  0.00     0.059 A 
ATOM     76  F   UNL     1      10.035  -6.907   1.110  1.00  0.00    -0.206 F 
ATOM     77  C   UNL     1      10.640  -8.417  -2.117  1.00  0.00     0.060 A 
BRANCH  77  78
ATOM     78  S   UNL     1      10.924  -7.932  -3.834  1.00  0.00     0.124 S 
ATOM     79  O   UNL     1      12.315  -8.325  -4.026  1.00  0.00    -0.237 OA
ATOM     80  O   UNL     1       9.930  -8.732  -4.543  1.00  0.00    -0.237 OA
ATOM     81  O   UNL     1      10.668  -6.495  -3.824  1.00  0.00    -0.744 OA
ENDBRANCH  77  78
ENDBRANCH  45  70
BRANCH  57  82
ATOM     82  C   UNL     1      13.498 -12.583   5.601  1.00  0.00     0.058 A 
ATOM     83  C   UNL     1      14.662 -11.801   5.653  1.00  0.00     0.135 A 
ATOM     84  C   UNL     1      13.644 -13.978   5.679  1.00  0.00     0.135 A 
ATOM     85  F   UNL     1      14.581 -10.463   5.575  1.00  0.00    -0.206 F 
ATOM     86  C   UNL     1      15.923 -12.380   5.755  1.00  0.00     0.059 A 
ATOM     87  C   UNL     1      14.893 -14.577   5.813  1.00  0.00     0.059 A 
ATOM     88  F   UNL     1      12.563 -14.775   5.643  1.00  0.00    -0.206 F 
ATOM     89  C   UNL     1      16.028 -13.769   5.839  1.00  0.00     0.060 A 
BRANCH  89  90
ATOM     90  S   UNL     1      17.668 -14.505   6.006  1.00  0.00     0.124 S 
ATOM     91  O   UNL     1      18.219 -14.303   4.670  1.00  0.00    -0.237 OA
ATOM     92  O   UNL     1      18.264 -13.698   7.066  1.00  0.00    -0.237 OA
ATOM     93  O   UNL     1      17.385 -15.891   6.365  1.00  0.00    -0.744 OA
ENDBRANCH  89  90
ENDBRANCH  57  82
ENDBRANCH  31  32
ENDBRANCH  23  26
ENDBRANCH  21  22
ENDBRANCH  20  21
ENDBRANCH   1  20
TORSDOF 18
