REMARK SMILES COc1cc([C@@H]2[NH2+][C@@H](C(=O)NCCCNC(=O)c3ccc(-c4c5nc(c(-c6c(F)cc(S(=O)(=O)[O-])cc6F)c6ccc([nH]6)c(-c6c(F)cc(S(=O)(=O)[O-])cc6F)c6nc(c(-c7c(F)cc(S(=O)(=O)[O-])cc7F)c7ccc4[nH]7)C=C6)C=C5)cc3)CS2)cc(Cl)c1O
REMARK SMILES IDX 13 1 12 2 11 3 9 4 10 5 8 7 6 8 7 9 85 10 84 13 5 14 3 15
REMARK SMILES IDX 4 16 89 17 87 18 86 19 88 20 2 21 1 22 90 23 14 25 15 26
REMARK SMILES IDX 16 27 17 29 18 30 19 31 83 32 20 33 82 34 21 35 22 36 23 37
REMARK SMILES IDX 76 38 24 39 81 40 75 41 77 42 25 43 80 44 74 45 73 46 26 48
REMARK SMILES IDX 60 49 39 50 59 51 40 52 43 53 58 54 78 55 41 56 42 57 57 59
REMARK SMILES IDX 79 60 44 61 27 62 28 63 37 64 29 65 30 66 36 67 38 68 31 69
REMARK SMILES IDX 32 70 33 71 34 72 35 73 61 74 62 75 71 76 63 77 64 78 70 79
REMARK SMILES IDX 72 80 65 81 66 82 67 83 68 84 69 85 45 86 46 87 55 88 47 89
REMARK SMILES IDX 48 90 54 91 56 92 49 93 50 94 51 95 52 96 53 97
REMARK H PARENT 11 6 7 11 7 12 90 24 15 28 77 47 43 58
REMARK Flexibility Score: inf
ROOT
ATOM      1  C   UNL     1      -5.823  -3.977  -2.050  1.00  0.00     0.042 C 
ENDROOT
BRANCH   1   2
ATOM      2  C   UNL     1      -5.670  -4.907  -0.850  1.00  0.00     0.118 C 
BRANCH   2   3
ATOM      3  N   UNL     1      -5.069  -6.172  -1.229  1.00  0.00    -0.351 N 
ATOM      4  C   UNL     1      -3.784  -6.597  -1.110  1.00  0.00     0.279 C 
ATOM      5  O   UNL     1      -3.474  -7.665  -1.650  1.00  0.00    -0.268 OA
ATOM      6  H   UNL     1      -5.688  -6.822  -1.635  1.00  0.00     0.163 HD
BRANCH   4   7
ATOM      7  C   UNL     1      -2.754  -5.811  -0.284  1.00  0.00     0.283 C 
ATOM      8  C   UNL     1      -0.342  -5.923  -0.147  1.00  0.00     0.274 C 
ATOM      9  N   UNL     1      -1.482  -5.764  -1.047  1.00  0.00    -0.321 N 
ATOM     10  S   UNL     1      -0.901  -6.281   1.537  1.00  0.00    -0.088 SA
ATOM     11  H   UNL     1      -1.474  -6.517  -1.735  1.00  0.00     0.348 HD
ATOM     12  H   UNL     1      -1.410  -4.861  -1.515  1.00  0.00     0.348 HD
ATOM     13  C   UNL     1      -2.598  -6.560   1.036  1.00  0.00     0.151 C 
BRANCH   8  14
ATOM     14  C   UNL     1       0.606  -4.740  -0.177  1.00  0.00     0.025 A 
ATOM     15  C   UNL     1       1.162  -2.429   0.356  1.00  0.00     0.162 A 
ATOM     16  C   UNL     1       0.225  -3.462   0.273  1.00  0.00     0.061 A 
ATOM     17  C   UNL     1       2.496  -2.659   0.012  1.00  0.00     0.176 A 
ATOM     18  C   UNL     1       2.873  -3.897  -0.505  1.00  0.00     0.087 A 
ATOM     19  C   UNL     1       1.935  -4.930  -0.600  1.00  0.00     0.035 A 
ATOM     20  Cl  UNL     1       4.504  -4.221  -0.971  1.00  0.00    -0.080 Cl
BRANCH  15  21
ATOM     21  O   UNL     1       0.762  -1.236   0.901  1.00  0.00    -0.493 OA
ATOM     22  C   UNL     1       0.706  -0.201  -0.087  1.00  0.00     0.278 C 
ENDBRANCH  15  21
BRANCH  17  23
ATOM     23  O   UNL     1       3.438  -1.692   0.242  1.00  0.00    -0.503 OA
ATOM     24  H   UNL     1       3.182  -0.861   0.590  1.00  0.00     0.293 HD
ENDBRANCH  17  23
ENDBRANCH   8  14
ENDBRANCH   4   7
ENDBRANCH   2   3
ENDBRANCH   1   2
BRANCH   1  25
ATOM     25  C   UNL     1      -6.780  -4.499  -3.122  1.00  0.00     0.118 C 
BRANCH  25  26
ATOM     26  N   UNL     1      -8.151  -4.625  -2.643  1.00  0.00    -0.352 N 
ATOM     27  C   UNL     1      -9.306  -4.048  -3.114  1.00  0.00     0.251 C 
ATOM     28  H   UNL     1      -8.268  -5.215  -1.864  1.00  0.00     0.163 HD
ATOM     29  O   UNL     1     -10.341  -4.145  -2.459  1.00  0.00    -0.269 OA
BRANCH  27  30
ATOM     30  C   UNL     1      -9.301  -3.297  -4.388  1.00  0.00     0.039 A 
ATOM     31  C   UNL     1      -9.967  -2.070  -4.458  1.00  0.00     0.014 A 
ATOM     32  C   UNL     1      -8.650  -3.806  -5.514  1.00  0.00     0.014 A 
ATOM     33  C   UNL     1      -9.917  -1.318  -5.635  1.00  0.00     0.010 A 
ATOM     34  C   UNL     1      -8.539  -3.024  -6.660  1.00  0.00     0.010 A 
ATOM     35  C   UNL     1      -9.169  -1.771  -6.734  1.00  0.00    -0.014 A 
BRANCH  35  36
ATOM     36  C   UNL     1      -9.031  -0.971  -7.978  1.00  0.00     0.031 A 
ATOM     37  C   UNL     1      -9.555  -1.520  -9.278  1.00  0.00     0.074 A 
ATOM     38  C   UNL     1      -8.356   0.195  -7.960  1.00  0.00     0.049 A 
ATOM     39  N   UNL     1      -9.392  -1.066 -10.494  1.00  0.00    -0.248 NA
ATOM     40  C   UNL     1     -10.341  -2.762  -9.200  1.00  0.00     0.031 C 
ATOM     41  C   UNL     1      -7.781   0.823  -6.768  1.00  0.00     0.029 A 
ATOM     42  N   UNL     1      -8.016   1.051  -8.979  1.00  0.00    -0.354 N 
ATOM     43  C   UNL     1     -10.033  -1.976 -11.326  1.00  0.00     0.074 A 
ATOM     44  C   UNL     1     -10.546  -3.033 -10.481  1.00  0.00     0.031 C 
ATOM     45  C   UNL     1      -7.170   1.965  -7.123  1.00  0.00     0.029 A 
ATOM     46  C   UNL     1      -7.264   2.128  -8.571  1.00  0.00     0.049 A 
ATOM     47  H   UNL     1      -8.286   0.906  -9.915  1.00  0.00     0.167 HD
ATOM     48  C   UNL     1     -10.196  -1.926 -12.670  1.00  0.00     0.037 A 
ATOM     49  C   UNL     1      -6.696   3.121  -9.283  1.00  0.00     0.037 A 
ATOM     50  C   UNL     1      -9.704  -0.858 -13.499  1.00  0.00     0.049 A 
ATOM     51  C   UNL     1      -6.868   3.144 -10.779  1.00  0.00     0.074 A 
ATOM     52  C   UNL     1      -9.851  -0.694 -14.866  1.00  0.00     0.029 A 
ATOM     53  N   UNL     1      -8.971   0.227 -13.042  1.00  0.00    -0.354 N 
ATOM     54  N   UNL     1      -7.508   2.295 -11.547  1.00  0.00    -0.248 NA
ATOM     55  C   UNL     1      -6.243   4.258 -11.507  1.00  0.00     0.031 C 
ATOM     56  C   UNL     1      -9.169   0.468 -15.241  1.00  0.00     0.029 A 
ATOM     57  C   UNL     1      -8.646   1.058 -14.101  1.00  0.00     0.049 A 
ATOM     58  H   UNL     1      -8.719   0.384 -12.103  1.00  0.00     0.167 HD
ATOM     59  C   UNL     1      -7.401   2.795 -12.841  1.00  0.00     0.074 A 
ATOM     60  C   UNL     1      -6.629   4.016 -12.754  1.00  0.00     0.031 C 
ATOM     61  C   UNL     1      -7.904   2.290 -13.993  1.00  0.00     0.037 A 
BRANCH  48  62
ATOM     62  C   UNL     1     -10.937  -3.060 -13.326  1.00  0.00     0.058 A 
ATOM     63  C   UNL     1     -12.315  -3.248 -13.135  1.00  0.00     0.135 A 
ATOM     64  C   UNL     1     -10.267  -3.953 -14.178  1.00  0.00     0.135 A 
ATOM     65  F   UNL     1     -13.003  -2.433 -12.320  1.00  0.00    -0.206 F 
ATOM     66  C   UNL     1     -12.995  -4.303 -13.735  1.00  0.00     0.059 A 
ATOM     67  C   UNL     1     -10.933  -4.996 -14.814  1.00  0.00     0.059 A 
ATOM     68  F   UNL     1      -8.949  -3.819 -14.398  1.00  0.00    -0.206 F 
ATOM     69  C   UNL     1     -12.294  -5.173 -14.571  1.00  0.00     0.060 A 
BRANCH  69  70
ATOM     70  S   UNL     1     -13.191  -6.541 -15.335  1.00  0.00     0.124 S 
ATOM     71  O   UNL     1     -13.398  -7.426 -14.193  1.00  0.00    -0.237 OA
ATOM     72  O   UNL     1     -14.387  -5.882 -15.850  1.00  0.00    -0.237 OA
ATOM     73  O   UNL     1     -12.263  -7.032 -16.350  1.00  0.00    -0.744 OA
ENDBRANCH  69  70
ENDBRANCH  48  62
BRANCH  49  74
ATOM     74  C   UNL     1      -5.924   4.187  -8.589  1.00  0.00     0.058 A 
ATOM     75  C   UNL     1      -6.421   5.497  -8.508  1.00  0.00     0.135 A 
ATOM     76  C   UNL     1      -4.686   3.921  -7.984  1.00  0.00     0.135 A 
ATOM     77  F   UNL     1      -7.597   5.803  -9.077  1.00  0.00    -0.206 F 
ATOM     78  C   UNL     1      -5.713   6.508  -7.867  1.00  0.00     0.059 A 
ATOM     79  C   UNL     1      -3.971   4.909  -7.314  1.00  0.00     0.059 A 
ATOM     80  F   UNL     1      -4.174   2.681  -8.017  1.00  0.00    -0.206 F 
ATOM     81  C   UNL     1      -4.489   6.203  -7.269  1.00  0.00     0.060 A 
BRANCH  81  82
ATOM     82  S   UNL     1      -3.602   7.512  -6.397  1.00  0.00     0.124 S 
ATOM     83  O   UNL     1      -3.122   8.330  -7.505  1.00  0.00    -0.237 OA
ATOM     84  O   UNL     1      -4.656   8.101  -5.577  1.00  0.00    -0.237 OA
ATOM     85  O   UNL     1      -2.575   6.785  -5.657  1.00  0.00    -0.744 OA
ENDBRANCH  81  82
ENDBRANCH  49  74
BRANCH  61  86
ATOM     86  C   UNL     1      -7.704   3.081 -15.256  1.00  0.00     0.058 A 
ATOM     87  C   UNL     1      -6.467   3.128 -15.916  1.00  0.00     0.135 A 
ATOM     88  C   UNL     1      -8.800   3.714 -15.868  1.00  0.00     0.135 A 
ATOM     89  F   UNL     1      -5.387   2.548 -15.370  1.00  0.00    -0.206 F 
ATOM     90  C   UNL     1      -6.323   3.775 -17.139  1.00  0.00     0.059 A 
ATOM     91  C   UNL     1      -8.684   4.344 -17.102  1.00  0.00     0.059 A 
ATOM     92  F   UNL     1     -10.007   3.692 -15.280  1.00  0.00    -0.206 F 
ATOM     93  C   UNL     1      -7.440   4.370 -17.730  1.00  0.00     0.060 A 
BRANCH  93  94
ATOM     94  S   UNL     1      -7.256   5.134 -19.356  1.00  0.00     0.124 S 
ATOM     95  O   UNL     1      -6.508   6.344 -19.030  1.00  0.00    -0.237 OA
ATOM     96  O   UNL     1      -6.522   4.114 -20.098  1.00  0.00    -0.237 OA
ATOM     97  O   UNL     1      -8.634   5.346 -19.790  1.00  0.00    -0.744 OA
ENDBRANCH  93  94
ENDBRANCH  61  86
ENDBRANCH  35  36
ENDBRANCH  27  30
ENDBRANCH  25  26
ENDBRANCH   1  25
TORSDOF 16
