REMARK SMILES COc1ccc([C@H]2CC(c3ccccc3)=NN2C(=O)CCCC(=O)NCCCNC(=O)c2ccc(-c3c4nc(c(-c5c(F)cc(S(=O)(=O)[O-])cc5F)c5ccc([nH]5)c(-c5c(F)cc(S(=O)(=O)[O-])cc5F)c5nc(c(-c6c(F)cc(S(=O)(=O)[O-])cc6F)c6ccc3[nH]6)C=C5)C=C4)cc2)cc1
REMARK SMILES IDX 23 1 24 2 25 3 22 5 21 6 20 7 18 8 19 9 17 10 7 11 8 12 9 13
REMARK SMILES IDX 16 14 6 15 3 16 4 17 99 18 5 19 98 20 2 21 1 22 10 23 11 24
REMARK SMILES IDX 15 25 12 26 14 27 13 28 26 29 27 30 28 31 29 32 30 33 31 35
REMARK SMILES IDX 32 36 33 37 97 38 34 39 96 40 35 41 36 42 37 43 90 44 38 45
REMARK SMILES IDX 95 46 89 47 91 48 39 49 94 50 88 51 87 52 40 54 74 55 53 56
REMARK SMILES IDX 73 57 54 58 57 59 72 60 92 61 55 62 56 63 71 65 93 66 58 67
REMARK SMILES IDX 41 68 42 69 51 70 43 71 44 72 50 73 52 74 45 75 46 76 47 77
REMARK SMILES IDX 48 78 49 79 75 80 76 81 85 82 77 83 78 84 84 85 86 86 79 87
REMARK SMILES IDX 80 88 81 89 82 90 83 91 59 92 60 93 69 94 61 95 62 96 68 97
REMARK SMILES IDX 70 98 63 99 64 100 65 101 66 102 67 103
REMARK H PARENT 25 4 29 34 91 53 57 64
REMARK Flexibility Score: inf
ROOT
ATOM      1  C   UNL     1      -0.657   2.603   5.749  1.00  0.00     0.220 C 
ATOM      2  O   UNL     1      -1.843   2.501   5.414  1.00  0.00    -0.275 OA
ATOM      3  N   UNL     1      -0.386   2.291   7.038  1.00  0.00    -0.356 N 
ATOM      4  H   UNL     1      -1.101   1.782   7.486  1.00  0.00     0.163 HD
ENDROOT
BRANCH   1   5
ATOM      5  C   UNL     1       0.405   2.829   4.690  1.00  0.00     0.100 C 
BRANCH   5   6
ATOM      6  C   UNL     1       1.496   3.866   4.669  1.00  0.00     0.020 C 
BRANCH   6   7
ATOM      7  C   UNL     1       2.733   3.739   5.546  1.00  0.00     0.103 C 
BRANCH   7   8
ATOM      8  C   UNL     1       3.792   2.614   5.553  1.00  0.00     0.243 C 
ATOM      9  O   UNL     1       4.960   2.996   5.352  1.00  0.00    -0.273 OA
BRANCH   8  10
ATOM     10  N   UNL     1       3.576   1.312   5.993  1.00  0.00    -0.225 N 
ATOM     11  C   UNL     1       2.496   0.297   5.815  1.00  0.00     0.147 C 
ATOM     12  C   UNL     1       2.985  -0.945   6.556  1.00  0.00     0.091 C 
ATOM     13  C   UNL     1       4.302  -0.445   7.046  1.00  0.00     0.071 C 
ATOM     14  N   UNL     1       4.612   0.771   6.741  1.00  0.00    -0.174 NA
BRANCH  11  15
ATOM     15  C   UNL     1       2.145  -0.046   4.378  1.00  0.00    -0.023 A 
ATOM     16  C   UNL     1       1.219   0.050   1.750  1.00  0.00     0.118 A 
ATOM     17  C   UNL     1       0.342  -0.300   2.770  1.00  0.00     0.047 A 
ATOM     18  C   UNL     1       2.576   0.236   2.014  1.00  0.00     0.047 A 
ATOM     19  C   UNL     1       0.811  -0.402   4.078  1.00  0.00     0.010 A 
ATOM     20  C   UNL     1       3.044   0.174   3.328  1.00  0.00     0.010 A 
BRANCH  16  21
ATOM     21  O   UNL     1       0.666   0.372   0.542  1.00  0.00    -0.497 OA
ATOM     22  C   UNL     1       1.132  -0.464  -0.508  1.00  0.00     0.278 C 
ENDBRANCH  16  21
ENDBRANCH  11  15
BRANCH  13  23
ATOM     23  C   UNL     1       5.189  -1.309   7.827  1.00  0.00    -0.002 A 
ATOM     24  C   UNL     1       5.528  -0.953   9.133  1.00  0.00     0.010 A 
ATOM     25  C   UNL     1       5.748  -2.433   7.218  1.00  0.00     0.010 A 
ATOM     26  C   UNL     1       6.437  -1.739   9.840  1.00  0.00     0.001 A 
ATOM     27  C   UNL     1       6.669  -3.204   7.924  1.00  0.00     0.001 A 
ATOM     28  C   UNL     1       7.012  -2.858   9.233  1.00  0.00     0.000 A 
ENDBRANCH  13  23
ENDBRANCH   8  10
ENDBRANCH   7   8
ENDBRANCH   6   7
ENDBRANCH   5   6
ENDBRANCH   1   5
BRANCH   3  29
ATOM     29  C   UNL     1       0.756   2.564   7.878  1.00  0.00     0.117 C 
BRANCH  29  30
ATOM     30  C   UNL     1       0.682   3.971   8.432  1.00  0.00     0.042 C 
BRANCH  30  31
ATOM     31  C   UNL     1      -0.455   4.093   9.424  1.00  0.00     0.118 C 
BRANCH  31  32
ATOM     32  N   UNL     1      -0.162   3.381  10.663  1.00  0.00    -0.352 N 
ATOM     33  C   UNL     1      -0.087   3.900  11.931  1.00  0.00     0.251 C 
ATOM     34  H   UNL     1       0.002   2.414  10.579  1.00  0.00     0.163 HD
ATOM     35  O   UNL     1       0.406   3.250  12.847  1.00  0.00    -0.269 OA
BRANCH  33  36
ATOM     36  C   UNL     1      -0.601   5.264  12.147  1.00  0.00     0.039 A 
ATOM     37  C   UNL     1       0.177   6.198  12.829  1.00  0.00     0.014 A 
ATOM     38  C   UNL     1      -1.821   5.628  11.570  1.00  0.00     0.014 A 
ATOM     39  C   UNL     1      -0.256   7.522  12.887  1.00  0.00     0.010 A 
ATOM     40  C   UNL     1      -2.175   6.964  11.512  1.00  0.00     0.010 A 
ATOM     41  C   UNL     1      -1.417   7.920  12.201  1.00  0.00    -0.014 A 
BRANCH  41  42
ATOM     42  C   UNL     1      -1.900   9.320  12.234  1.00  0.00     0.031 A 
ATOM     43  C   UNL     1      -3.270   9.610  12.791  1.00  0.00     0.074 A 
ATOM     44  C   UNL     1      -1.147  10.305  11.707  1.00  0.00     0.049 A 
ATOM     45  N   UNL     1      -3.917  10.744  12.844  1.00  0.00    -0.248 NA
ATOM     46  C   UNL     1      -4.034   8.464  13.316  1.00  0.00     0.031 C 
ATOM     47  C   UNL     1       0.163  10.127  11.075  1.00  0.00     0.029 A 
ATOM     48  N   UNL     1      -1.378  11.652  11.613  1.00  0.00    -0.354 N 
ATOM     49  C   UNL     1      -5.163  10.440  13.379  1.00  0.00     0.074 A 
ATOM     50  C   UNL     1      -5.214   9.009  13.560  1.00  0.00     0.031 C 
ATOM     51  C   UNL     1       0.635  11.325  10.694  1.00  0.00     0.029 A 
ATOM     52  C   UNL     1      -0.353  12.349  11.016  1.00  0.00     0.049 A 
ATOM     53  H   UNL     1      -2.201  12.082  11.941  1.00  0.00     0.167 HD
ATOM     54  C   UNL     1      -6.163  11.283  13.726  1.00  0.00     0.037 A 
ATOM     55  C   UNL     1      -0.230  13.665  10.760  1.00  0.00     0.037 A 
ATOM     56  C   UNL     1      -6.077  12.711  13.586  1.00  0.00     0.049 A 
ATOM     57  C   UNL     1      -1.340  14.590  11.182  1.00  0.00     0.074 A 
ATOM     58  C   UNL     1      -6.993  13.671  13.973  1.00  0.00     0.029 A 
ATOM     59  N   UNL     1      -5.005  13.384  13.014  1.00  0.00    -0.354 N 
ATOM     60  N   UNL     1      -2.482  14.296  11.760  1.00  0.00    -0.248 NA
ATOM     61  C   UNL     1      -1.145  16.023  10.927  1.00  0.00     0.031 C 
ATOM     62  C   UNL     1      -6.498  14.921  13.592  1.00  0.00     0.029 A 
ATOM     63  C   UNL     1      -5.247  14.746  13.018  1.00  0.00     0.049 A 
ATOM     64  H   UNL     1      -4.194  12.955  12.658  1.00  0.00     0.167 HD
ATOM     65  C   UNL     1      -3.129  15.510  11.963  1.00  0.00     0.074 A 
ATOM     66  C   UNL     1      -2.245  16.541  11.457  1.00  0.00     0.031 C 
ATOM     67  C   UNL     1      -4.344  15.752  12.516  1.00  0.00     0.037 A 
BRANCH  54  68
ATOM     68  C   UNL     1      -7.417  10.682  14.300  1.00  0.00     0.058 A 
ATOM     69  C   UNL     1      -7.431  10.055  15.558  1.00  0.00     0.135 A 
ATOM     70  C   UNL     1      -8.627  10.744  13.590  1.00  0.00     0.135 A 
ATOM     71  F   UNL     1      -6.300   9.948  16.273  1.00  0.00    -0.206 F 
ATOM     72  C   UNL     1      -8.588   9.481  16.073  1.00  0.00     0.059 A 
ATOM     73  C   UNL     1      -9.804  10.206  14.101  1.00  0.00     0.059 A 
ATOM     74  F   UNL     1      -8.672  11.326  12.381  1.00  0.00    -0.206 F 
ATOM     75  C   UNL     1      -9.770   9.562  15.338  1.00  0.00     0.060 A 
BRANCH  75  76
ATOM     76  S   UNL     1     -11.264   8.817  16.025  1.00  0.00     0.124 S 
ATOM     77  O   UNL     1     -10.976   7.394  15.871  1.00  0.00    -0.237 OA
ATOM     78  O   UNL     1     -11.259   9.319  17.396  1.00  0.00    -0.237 OA
ATOM     79  O   UNL     1     -12.328   9.338  15.173  1.00  0.00    -0.744 OA
ENDBRANCH  75  76
ENDBRANCH  54  68
BRANCH  55  80
ATOM     80  C   UNL     1       1.002  14.184  10.107  1.00  0.00     0.058 A 
ATOM     81  C   UNL     1       1.927  14.961  10.820  1.00  0.00     0.135 A 
ATOM     82  C   UNL     1       1.295  13.892   8.765  1.00  0.00     0.135 A 
ATOM     83  F   UNL     1       1.693  15.269  12.105  1.00  0.00    -0.206 F 
ATOM     84  C   UNL     1       3.088  15.445  10.225  1.00  0.00     0.059 A 
ATOM     85  C   UNL     1       2.462  14.342   8.155  1.00  0.00     0.059 A 
ATOM     86  F   UNL     1       0.454  13.136   8.042  1.00  0.00    -0.206 F 
ATOM     87  C   UNL     1       3.349  15.127   8.891  1.00  0.00     0.060 A 
BRANCH  87  88
ATOM     88  S   UNL     1       4.882  15.720   8.144  1.00  0.00     0.124 S 
ATOM     89  O   UNL     1       4.610  17.146   8.008  1.00  0.00    -0.237 OA
ATOM     90  O   UNL     1       5.874  15.352   9.150  1.00  0.00    -0.237 OA
ATOM     91  O   UNL     1       4.959  14.970   6.894  1.00  0.00    -0.744 OA
ENDBRANCH  87  88
ENDBRANCH  55  80
BRANCH  67  92
ATOM     92  C   UNL     1      -4.774  17.186  12.639  1.00  0.00     0.058 A 
ATOM     93  C   UNL     1      -5.162  17.939  11.520  1.00  0.00     0.135 A 
ATOM     94  C   UNL     1      -4.864  17.792  13.903  1.00  0.00     0.135 A 
ATOM     95  F   UNL     1      -5.090  17.407  10.289  1.00  0.00    -0.206 F 
ATOM     96  C   UNL     1      -5.601  19.252  11.647  1.00  0.00     0.059 A 
ATOM     97  C   UNL     1      -5.329  19.092  14.056  1.00  0.00     0.059 A 
ATOM     98  F   UNL     1      -4.518  17.109  15.006  1.00  0.00    -0.206 F 
ATOM     99  C   UNL     1      -5.685  19.818  12.921  1.00  0.00     0.060 A 
BRANCH  99 100
ATOM    100  S   UNL     1      -6.294  21.510  13.075  1.00  0.00     0.124 S 
ATOM    101  O   UNL     1      -5.163  22.277  12.563  1.00  0.00    -0.237 OA
ATOM    102  O   UNL     1      -7.483  21.491  12.228  1.00  0.00    -0.237 OA
ATOM    103  O   UNL     1      -6.552  21.650  14.505  1.00  0.00    -0.744 OA
ENDBRANCH  99 100
ENDBRANCH  67  92
ENDBRANCH  41  42
ENDBRANCH  33  36
ENDBRANCH  31  32
ENDBRANCH  30  31
ENDBRANCH  29  30
ENDBRANCH   3  29
TORSDOF 20
